# generated using pymatgen
data_LaBRh3Au
_symmetry_space_group_name_H-M   'P 1'
_cell_length_a   5.45573800
_cell_length_b   5.45573826
_cell_length_c   7.55767400
_cell_angle_alpha   90.00000000
_cell_angle_beta   90.00000000
_cell_angle_gamma   119.99999845
_symmetry_Int_Tables_number   1
_chemical_formula_structural   LaBRh3Au
_chemical_formula_sum   'La2 B2 Rh6 Au2'
_cell_volume   194.81653995
_cell_formula_units_Z   2
loop_
 _symmetry_equiv_pos_site_id
 _symmetry_equiv_pos_as_xyz
  1  'x, y, z'
loop_
 _atom_site_type_symbol
 _atom_site_label
 _atom_site_symmetry_multiplicity
 _atom_site_fract_x
 _atom_site_fract_y
 _atom_site_fract_z
 _atom_site_occupancy
  La  La0  1  0.000000  0.000000  0.500000  1
  La  La1  1  0.000000  0.000000  0.000000  1
  B  B2  1  0.333333  0.666667  0.000000  1
  B  B3  1  0.666667  0.333333  0.000000  1
  Rh  Rh4  1  0.500000  0.000000  0.194226  1
  Rh  Rh5  1  0.500000  0.000000  0.805774  1
  Rh  Rh6  1  0.000000  0.500000  0.194226  1
  Rh  Rh7  1  0.000000  0.500000  0.805774  1
  Rh  Rh8  1  0.500000  0.500000  0.194226  1
  Rh  Rh9  1  0.500000  0.500000  0.805774  1
  Au  Au10  1  0.333333  0.666667  0.500000  1
  Au  Au11  1  0.666667  0.333333  0.500000  1
