# generated using pymatgen
data_LaThMgZn4Sn
_symmetry_space_group_name_H-M   'P 1'
_cell_length_a   8.85055653
_cell_length_b   8.85055679
_cell_length_c   9.25643100
_cell_angle_alpha   90.00000000
_cell_angle_beta   90.00000000
_cell_angle_gamma   150.46876093
_symmetry_Int_Tables_number   1
_chemical_formula_structural   LaThMgZn4Sn
_chemical_formula_sum   'La2 Th2 Mg2 Zn8 Sn2'
_cell_volume   357.38952592
_cell_formula_units_Z   2
loop_
 _symmetry_equiv_pos_site_id
 _symmetry_equiv_pos_as_xyz
  1  'x, y, z'
loop_
 _atom_site_type_symbol
 _atom_site_label
 _atom_site_symmetry_multiplicity
 _atom_site_fract_x
 _atom_site_fract_y
 _atom_site_fract_z
 _atom_site_occupancy
  La  La0  1  0.000000  0.000000  0.500000  1
  La  La1  1  0.000000  0.000000  0.000000  1
  Th  Th2  1  0.205265  0.794735  0.250000  1
  Th  Th3  1  0.794735  0.205265  0.750000  1
  Mg  Mg4  1  0.397675  0.602325  0.250000  1
  Mg  Mg5  1  0.602325  0.397675  0.750000  1
  Zn  Zn6  1  0.813774  0.186226  0.392123  1
  Zn  Zn7  1  0.186226  0.813774  0.607877  1
  Zn  Zn8  1  0.813774  0.186226  0.107877  1
  Zn  Zn9  1  0.186226  0.813774  0.892123  1
  Zn  Zn10  1  0.663013  0.336987  0.478260  1
  Zn  Zn11  1  0.336987  0.663013  0.521740  1
  Zn  Zn12  1  0.663013  0.336987  0.021740  1
  Zn  Zn13  1  0.336987  0.663013  0.978260  1
  Sn  Sn14  1  0.562084  0.437916  0.250000  1
  Sn  Sn15  1  0.437916  0.562084  0.750000  1
