# generated using pymatgen
data_CeNp(PaB8)2
_symmetry_space_group_name_H-M   'P 1'
_cell_length_a   7.10790119
_cell_length_b   7.10790136
_cell_length_c   4.01692600
_cell_angle_alpha   90.00000000
_cell_angle_beta   90.00000000
_cell_angle_gamma   90.12358404
_symmetry_Int_Tables_number   1
_chemical_formula_structural   CeNp(PaB8)2
_chemical_formula_sum   'Ce1 Np1 Pa2 B16'
_cell_volume   202.94370995
_cell_formula_units_Z   1
loop_
 _symmetry_equiv_pos_site_id
 _symmetry_equiv_pos_as_xyz
  1  'x, y, z'
loop_
 _atom_site_type_symbol
 _atom_site_label
 _atom_site_symmetry_multiplicity
 _atom_site_fract_x
 _atom_site_fract_y
 _atom_site_fract_z
 _atom_site_occupancy
  Ce  Ce0  1  0.312873  0.187127  0.000000  1
  Np  Np1  1  0.689629  0.810371  0.000000  1
  Pa  Pa2  1  0.810125  0.310463  0.000000  1
  Pa  Pa3  1  0.189537  0.689875  0.000000  1
  B  B4  1  0.500811  0.501036  0.799855  1
  B  B5  1  0.998964  0.999189  0.799855  1
  B  B6  1  0.500811  0.501036  0.200145  1
  B  B7  1  0.998964  0.999189  0.200145  1
  B  B8  1  0.412332  0.911417  0.500000  1
  B  B9  1  0.588583  0.087668  0.500000  1
  B  B10  1  0.912703  0.587297  0.500000  1
  B  B11  1  0.087425  0.412575  0.500000  1
  B  B12  1  0.678436  0.539912  0.500000  1
  B  B13  1  0.322982  0.463876  0.500000  1
  B  B14  1  0.176070  0.959644  0.500000  1
  B  B15  1  0.821094  0.037908  0.500000  1
  B  B16  1  0.462092  0.678906  0.500000  1
  B  B17  1  0.540356  0.323930  0.500000  1
  B  B18  1  0.036124  0.177018  0.500000  1
  B  B19  1  0.960088  0.821564  0.500000  1
