# generated using pymatgen
data_Th5Mo3(P3Ir4)4
_symmetry_space_group_name_H-M   'P 1'
_cell_length_a   12.79677300
_cell_length_b   12.79677231
_cell_length_c   4.02773300
_cell_angle_alpha   90.00000000
_cell_angle_beta   90.00000000
_cell_angle_gamma   119.99999919
_symmetry_Int_Tables_number   1
_chemical_formula_structural   Th5Mo3(P3Ir4)4
_chemical_formula_sum   'Th5 Mo3 P12 Ir16'
_cell_volume   571.20528558
_cell_formula_units_Z   1
loop_
 _symmetry_equiv_pos_site_id
 _symmetry_equiv_pos_as_xyz
  1  'x, y, z'
loop_
 _atom_site_type_symbol
 _atom_site_label
 _atom_site_symmetry_multiplicity
 _atom_site_fract_x
 _atom_site_fract_y
 _atom_site_fract_z
 _atom_site_occupancy
  Th  Th0  1  0.333333  0.666667  0.500000  1
  Th  Th1  1  0.666667  0.333333  0.500000  1
  Th  Th2  1  0.000000  0.814857  0.000000  1
  Th  Th3  1  0.185143  0.185143  0.000000  1
  Th  Th4  1  0.814857  0.000000  0.000000  1
  Mo  Mo5  1  0.000000  0.451302  0.500000  1
  Mo  Mo6  1  0.548698  0.548698  0.500000  1
  Mo  Mo7  1  0.451302  0.000000  0.500000  1
  P  P8  1  0.000000  0.633605  0.500000  1
  P  P9  1  0.366395  0.366395  0.500000  1
  P  P10  1  0.633605  0.000000  0.500000  1
  P  P11  1  0.519321  0.684628  0.000000  1
  P  P12  1  0.315372  0.834692  0.000000  1
  P  P13  1  0.165308  0.480679  0.000000  1
  P  P14  1  0.480679  0.165308  0.000000  1
  P  P15  1  0.684628  0.519321  0.000000  1
  P  P16  1  0.834692  0.315372  0.000000  1
  P  P17  1  0.000000  0.178013  0.500000  1
  P  P18  1  0.821987  0.821987  0.500000  1
  P  P19  1  0.178013  0.000000  0.500000  1
  Ir  Ir20  1  0.510169  0.869991  0.000000  1
  Ir  Ir21  1  0.130009  0.640180  0.000000  1
  Ir  Ir22  1  0.359820  0.489831  0.000000  1
  Ir  Ir23  1  0.489831  0.359820  0.000000  1
  Ir  Ir24  1  0.869991  0.510169  0.000000  1
  Ir  Ir25  1  0.640180  0.130009  0.000000  1
  Ir  Ir26  1  0.000000  0.286893  0.000000  1
  Ir  Ir27  1  0.713107  0.713107  0.000000  1
  Ir  Ir28  1  0.286893  0.000000  0.000000  1
  Ir  Ir29  1  0.622777  0.803688  0.500000  1
  Ir  Ir30  1  0.196312  0.819091  0.500000  1
  Ir  Ir31  1  0.180909  0.377223  0.500000  1
  Ir  Ir32  1  0.377223  0.180909  0.500000  1
  Ir  Ir33  1  0.803688  0.622777  0.500000  1
  Ir  Ir34  1  0.819091  0.196312  0.500000  1
  Ir  Ir35  1  0.000000  0.000000  0.500000  1
