# generated using pymatgen
data_CaHoCd3In(BiO6)2
_symmetry_space_group_name_H-M   'P 1'
_cell_length_a   6.65987656
_cell_length_b   6.69845415
_cell_length_c   6.69996300
_cell_angle_alpha   90.46393427
_cell_angle_beta   90.37357633
_cell_angle_gamma   90.58563892
_symmetry_Int_Tables_number   1
_chemical_formula_structural   CaHoCd3In(BiO6)2
_chemical_formula_sum   'Ca1 Ho1 Cd3 In1 Bi2 O12'
_cell_volume   298.85930347
_cell_formula_units_Z   1
loop_
 _symmetry_equiv_pos_site_id
 _symmetry_equiv_pos_as_xyz
  1  'x, y, z'
loop_
 _atom_site_type_symbol
 _atom_site_label
 _atom_site_symmetry_multiplicity
 _atom_site_fract_x
 _atom_site_fract_y
 _atom_site_fract_z
 _atom_site_occupancy
  Ca  Ca0  1  0.561625  0.052982  0.749109  1
  Ho  Ho1  1  0.057908  0.747430  0.563441  1
  Cd  Cd2  1  0.946752  0.250253  0.438472  1
  Cd  Cd3  1  0.251861  0.435090  0.950075  1
  Cd  Cd4  1  0.439421  0.956815  0.252439  1
  In  In5  1  0.748125  0.566060  0.055498  1
  Bi  Bi6  1  0.504851  0.501338  0.499509  1
  Bi  Bi7  1  0.997099  0.002212  0.004354  1
  O  O8  1  0.026756  0.689180  0.905994  1
  O  O9  1  0.695832  0.893149  0.041035  1
  O  O10  1  0.915016  0.025745  0.695755  1
  O  O11  1  0.942454  0.307649  0.091936  1
  O  O12  1  0.297361  0.091305  0.961217  1
  O  O13  1  0.085639  0.952153  0.304016  1
  O  O14  1  0.808611  0.585197  0.407742  1
  O  O15  1  0.581742  0.431210  0.805273  1
  O  O16  1  0.404464  0.799249  0.565607  1
  O  O17  1  0.198210  0.435388  0.579248  1
  O  O18  1  0.447686  0.574471  0.192555  1
  O  O19  1  0.588588  0.203123  0.436724  1
