# generated using pymatgen
data_Dy2HoIn3(TeO6)3
_symmetry_space_group_name_H-M   'P 1'
_cell_length_a   9.07064300
_cell_length_b   9.06813691
_cell_length_c   5.11199405
_cell_angle_alpha   90.06573508
_cell_angle_beta   90.00000000
_cell_angle_gamma   120.00915334
_symmetry_Int_Tables_number   1
_chemical_formula_structural   Dy2HoIn3(TeO6)3
_chemical_formula_sum   'Dy2 Ho1 In3 Te3 O18'
_cell_volume   364.11340572
_cell_formula_units_Z   1
loop_
 _symmetry_equiv_pos_site_id
 _symmetry_equiv_pos_as_xyz
  1  'x, y, z'
loop_
 _atom_site_type_symbol
 _atom_site_label
 _atom_site_symmetry_multiplicity
 _atom_site_fract_x
 _atom_site_fract_y
 _atom_site_fract_z
 _atom_site_occupancy
  Dy  Dy0  1  0.999639  0.621051  0.000113  1
  Dy  Dy1  1  0.378589  0.378949  0.999887  1
  Ho  Ho2  1  0.622637  0.000000  0.000000  1
  In  In3  1  0.288447  0.000000  0.500000  1
  In  In4  1  0.000134  0.288898  0.500931  1
  In  In5  1  0.711235  0.711102  0.499069  1
  Te  Te6  1  0.999773  0.000000  0.000000  1
  Te  Te7  1  0.333745  0.667236  0.502302  1
  Te  Te8  1  0.666511  0.332764  0.497698  1
  O  O9  1  0.087679  0.882777  0.786439  1
  O  O10  1  0.116814  0.205229  0.787126  1
  O  O11  1  0.794778  0.912403  0.786068  1
  O  O12  1  0.204903  0.117223  0.213561  1
  O  O13  1  0.911585  0.794771  0.212874  1
  O  O14  1  0.882374  0.087597  0.213932  1
  O  O15  1  0.461589  0.593172  0.717646  1
  O  O16  1  0.408085  0.868624  0.720447  1
  O  O17  1  0.132954  0.539289  0.720113  1
  O  O18  1  0.868416  0.406828  0.282354  1
  O  O19  1  0.539461  0.131376  0.279553  1
  O  O20  1  0.593665  0.460711  0.279887  1
  O  O21  1  0.225108  0.764634  0.287369  1
  O  O22  1  0.234947  0.461430  0.285108  1
  O  O23  1  0.538634  0.774328  0.283963  1
  O  O24  1  0.460474  0.235366  0.712631  1
  O  O25  1  0.773517  0.538570  0.714892  1
  O  O26  1  0.764306  0.225672  0.716037  1
