# generated using pymatgen
data_Ti19Si16W
_symmetry_space_group_name_H-M   'P 1'
_cell_length_a   6.68941451
_cell_length_b   6.68941513
_cell_length_c   12.18566543
_cell_angle_alpha   89.98698990
_cell_angle_beta   90.01300628
_cell_angle_gamma   90.01658891
_symmetry_Int_Tables_number   1
_chemical_formula_structural   Ti19Si16W
_chemical_formula_sum   'Ti19 Si16 W1'
_cell_volume   545.28740356
_cell_formula_units_Z   1
loop_
 _symmetry_equiv_pos_site_id
 _symmetry_equiv_pos_as_xyz
  1  'x, y, z'
loop_
 _atom_site_type_symbol
 _atom_site_label
 _atom_site_symmetry_multiplicity
 _atom_site_fract_x
 _atom_site_fract_y
 _atom_site_fract_z
 _atom_site_occupancy
  Ti  Ti0  1  0.995949  0.148412  0.622564  1
  Ti  Ti1  1  0.350351  0.495839  0.871631  1
  Ti  Ti2  1  0.649407  0.504351  0.371821  1
  Ti  Ti3  1  0.495839  0.350351  0.128369  1
  Ti  Ti4  1  0.504351  0.649407  0.628179  1
  Ti  Ti5  1  0.005543  0.850791  0.121028  1
  Ti  Ti6  1  0.148412  0.995949  0.377436  1
  Ti  Ti7  1  0.850791  0.005543  0.878972  1
  Ti  Ti8  1  0.003037  0.345820  0.218571  1
  Ti  Ti9  1  0.154372  0.502414  0.468344  1
  Ti  Ti10  1  0.843554  0.497508  0.969451  1
  Ti  Ti11  1  0.502414  0.154372  0.531656  1
  Ti  Ti12  1  0.497508  0.843554  0.030549  1
  Ti  Ti13  1  0.997622  0.655885  0.718855  1
  Ti  Ti14  1  0.345820  0.003037  0.781429  1
  Ti  Ti15  1  0.655885  0.997622  0.281145  1
  Ti  Ti16  1  0.328783  0.671231  0.249363  1
  Ti  Ti17  1  0.671231  0.328783  0.750637  1
  Ti  Ti18  1  0.828391  0.828391  0.500000  1
  Si  Si19  1  0.044753  0.301309  0.813324  1
  Si  Si20  1  0.199200  0.543715  0.063657  1
  Si  Si21  1  0.800885  0.454693  0.563844  1
  Si  Si22  1  0.543715  0.199200  0.936343  1
  Si  Si23  1  0.454693  0.800885  0.436156  1
  Si  Si24  1  0.955309  0.698810  0.313644  1
  Si  Si25  1  0.301309  0.044753  0.186676  1
  Si  Si26  1  0.698810  0.955309  0.686356  1
  Si  Si27  1  0.295320  0.356926  0.673268  1
  Si  Si28  1  0.142526  0.795011  0.922078  1
  Si  Si29  1  0.857129  0.205191  0.423588  1
  Si  Si30  1  0.795011  0.142526  0.077922  1
  Si  Si31  1  0.205191  0.857129  0.576412  1
  Si  Si32  1  0.705304  0.643242  0.173084  1
  Si  Si33  1  0.356926  0.295320  0.326732  1
  Si  Si34  1  0.643242  0.705304  0.826916  1
  W  W35  1  0.171416  0.171416  0.000000  1
