# generated using pymatgen
data_NdY4Zr3(As3Rh4)4
_symmetry_space_group_name_H-M   'P 1'
_cell_length_a   13.35677200
_cell_length_b   13.35677262
_cell_length_c   4.02795000
_cell_angle_alpha   90.00000000
_cell_angle_beta   90.00000000
_cell_angle_gamma   120.00000342
_symmetry_Int_Tables_number   1
_chemical_formula_structural   NdY4Zr3(As3Rh4)4
_chemical_formula_sum   'Nd1 Y4 Zr3 As12 Rh16'
_cell_volume   622.32569522
_cell_formula_units_Z   1
loop_
 _symmetry_equiv_pos_site_id
 _symmetry_equiv_pos_as_xyz
  1  'x, y, z'
loop_
 _atom_site_type_symbol
 _atom_site_label
 _atom_site_symmetry_multiplicity
 _atom_site_fract_x
 _atom_site_fract_y
 _atom_site_fract_z
 _atom_site_occupancy
  Nd  Nd0  1  0.333333  0.666667  0.000000  1
  Y  Y1  1  0.187469  0.187637  0.500000  1
  Y  Y2  1  0.812363  0.999832  0.500000  1
  Y  Y3  1  0.000168  0.812531  0.500000  1
  Y  Y4  1  0.666667  0.333333  0.000000  1
  Zr  Zr5  1  0.556574  0.556213  0.000000  1
  Zr  Zr6  1  0.443787  0.000361  0.000000  1
  Zr  Zr7  1  0.999639  0.443426  0.000000  1
  As  As8  1  0.824820  0.824663  0.000000  1
  As  As9  1  0.175337  0.000156  0.000000  1
  As  As10  1  0.999844  0.175180  0.000000  1
  As  As11  1  0.168771  0.483580  0.500000  1
  As  As12  1  0.516420  0.685191  0.500000  1
  As  As13  1  0.314809  0.831229  0.500000  1
  As  As14  1  0.685125  0.514500  0.500000  1
  As  As15  1  0.829375  0.314875  0.500000  1
  As  As16  1  0.485500  0.170625  0.500000  1
  As  As17  1  0.354524  0.354538  0.000000  1
  As  As18  1  0.645462  0.999987  0.000000  1
  As  As19  1  0.000013  0.645476  0.000000  1
  Rh  Rh20  1  0.719668  0.719230  0.500000  1
  Rh  Rh21  1  0.280770  0.000438  0.500000  1
  Rh  Rh22  1  0.999562  0.280332  0.500000  1
  Rh  Rh23  1  0.176039  0.373110  0.000000  1
  Rh  Rh24  1  0.626890  0.802929  0.000000  1
  Rh  Rh25  1  0.197071  0.823961  0.000000  1
  Rh  Rh26  1  0.802575  0.626169  0.000000  1
  Rh  Rh27  1  0.823594  0.197425  0.000000  1
  Rh  Rh28  1  0.373831  0.176406  0.000000  1
  Rh  Rh29  1  0.354687  0.480701  0.500000  1
  Rh  Rh30  1  0.519299  0.873988  0.500000  1
  Rh  Rh31  1  0.126012  0.645313  0.500000  1
  Rh  Rh32  1  0.872067  0.517277  0.500000  1
  Rh  Rh33  1  0.645211  0.127933  0.500000  1
  Rh  Rh34  1  0.482723  0.354789  0.500000  1
  Rh  Rh35  1  0.000000  0.000000  0.000000  1
