# generated using pymatgen
data_Dy8Lu12Si15Ge
_symmetry_space_group_name_H-M   'P 1'
_cell_length_a   7.29317225
_cell_length_b   7.59398384
_cell_length_c   14.36965199
_cell_angle_alpha   90.01993559
_cell_angle_beta   89.77345274
_cell_angle_gamma   90.04928383
_symmetry_Int_Tables_number   1
_chemical_formula_structural   Dy8Lu12Si15Ge
_chemical_formula_sum   'Dy8 Lu12 Si15 Ge1'
_cell_volume   795.84558003
_cell_formula_units_Z   1
loop_
 _symmetry_equiv_pos_site_id
 _symmetry_equiv_pos_as_xyz
  1  'x, y, z'
loop_
 _atom_site_type_symbol
 _atom_site_label
 _atom_site_symmetry_multiplicity
 _atom_site_fract_x
 _atom_site_fract_y
 _atom_site_fract_z
 _atom_site_occupancy
  Dy  Dy0  1  0.013778  0.176422  0.097189  1
  Dy  Dy1  1  0.986332  0.823726  0.902711  1
  Dy  Dy2  1  0.486704  0.676553  0.902707  1
  Dy  Dy3  1  0.985992  0.824433  0.597512  1
  Dy  Dy4  1  0.513544  0.323677  0.097287  1
  Dy  Dy5  1  0.012299  0.175733  0.402185  1
  Dy  Dy6  1  0.513999  0.322659  0.402063  1
  Dy  Dy7  1  0.489235  0.677838  0.597695  1
  Lu  Lu8  1  0.162547  0.508271  0.751145  1
  Lu  Lu9  1  0.837274  0.491572  0.250132  1
  Lu  Lu10  1  0.337586  0.008365  0.249969  1
  Lu  Lu11  1  0.662629  0.991659  0.750081  1
  Lu  Lu12  1  0.332142  0.175078  0.624566  1
  Lu  Lu13  1  0.668925  0.823116  0.376067  1
  Lu  Lu14  1  0.168288  0.678024  0.376409  1
  Lu  Lu15  1  0.669835  0.822103  0.123361  1
  Lu  Lu16  1  0.829622  0.322965  0.623515  1
  Lu  Lu17  1  0.330210  0.177466  0.876339  1
  Lu  Lu18  1  0.829976  0.322270  0.876359  1
  Lu  Lu19  1  0.169919  0.677832  0.123457  1
  Si  Si20  1  0.034499  0.110453  0.750036  1
  Si  Si21  1  0.965163  0.890497  0.249668  1
  Si  Si22  1  0.464560  0.610040  0.249725  1
  Si  Si23  1  0.534562  0.390351  0.750296  1
  Si  Si24  1  0.282444  0.870298  0.750341  1
  Si  Si25  1  0.718041  0.128798  0.249564  1
  Si  Si26  1  0.217681  0.371248  0.249875  1
  Si  Si27  1  0.782915  0.629347  0.750090  1
  Si  Si28  1  0.833594  0.534029  0.460102  1
  Si  Si29  1  0.339383  0.967161  0.460900  1
  Si  Si30  1  0.840888  0.532677  0.038998  1
  Si  Si31  1  0.660688  0.033198  0.539126  1
  Si  Si32  1  0.159138  0.467227  0.960986  1
  Si  Si33  1  0.659113  0.032825  0.960894  1
  Si  Si34  1  0.340809  0.967314  0.039069  1
  Ge  Ge35  1  0.165689  0.464777  0.539580  1
