# generated using pymatgen
data_Na4Si3Pt4
_symmetry_space_group_name_H-M   'P 1'
_cell_length_a   10.37138918
_cell_length_b   10.37138784
_cell_length_c   7.48756283
_cell_angle_alpha   73.67811127
_cell_angle_beta   73.67811379
_cell_angle_gamma   33.36986235
_symmetry_Int_Tables_number   1
_chemical_formula_structural   Na4Si3Pt4
_chemical_formula_sum   'Na8 Si6 Pt8'
_cell_volume   423.51134015
_cell_formula_units_Z   2
loop_
 _symmetry_equiv_pos_site_id
 _symmetry_equiv_pos_as_xyz
  1  'x, y, z'
loop_
 _atom_site_type_symbol
 _atom_site_label
 _atom_site_symmetry_multiplicity
 _atom_site_fract_x
 _atom_site_fract_y
 _atom_site_fract_z
 _atom_site_occupancy
  Na  Na0  1  0.189170  0.469054  0.430276  1
  Na  Na1  1  0.530946  0.810830  0.069724  1
  Na  Na2  1  0.469054  0.189170  0.930276  1
  Na  Na3  1  0.946281  0.183204  0.332817  1
  Na  Na4  1  0.816796  0.053719  0.167183  1
  Na  Na5  1  0.053719  0.816796  0.667183  1
  Na  Na6  1  0.183204  0.946281  0.832817  1
  Na  Na7  1  0.810830  0.530946  0.569724  1
  Si  Si8  1  0.553911  0.446089  0.750000  1
  Si  Si9  1  0.446089  0.553911  0.250000  1
  Si  Si10  1  0.331270  0.015845  0.418838  1
  Si  Si11  1  0.984155  0.668730  0.081162  1
  Si  Si12  1  0.668730  0.984155  0.581162  1
  Si  Si13  1  0.015845  0.331270  0.918838  1
  Pt  Pt14  1  0.298420  0.573703  0.033314  1
  Pt  Pt15  1  0.573703  0.298420  0.533314  1
  Pt  Pt16  1  0.701580  0.426297  0.966686  1
  Pt  Pt17  1  0.100925  0.336109  0.177592  1
  Pt  Pt18  1  0.663891  0.899075  0.322408  1
  Pt  Pt19  1  0.426297  0.701580  0.466686  1
  Pt  Pt20  1  0.899075  0.663891  0.822408  1
  Pt  Pt21  1  0.336109  0.100925  0.677592  1
