# generated using pymatgen
data_SmY2CBr5
_symmetry_space_group_name_H-M   'P 1'
_cell_length_a   7.41182132
_cell_length_b   8.94399890
_cell_length_c   9.06947878
_cell_angle_alpha   107.16104681
_cell_angle_beta   96.34020687
_cell_angle_gamma   104.84563820
_symmetry_Int_Tables_number   1
_chemical_formula_structural   SmY2CBr5
_chemical_formula_sum   'Sm2 Y4 C2 Br10'
_cell_volume   543.90404292
_cell_formula_units_Z   2
loop_
 _symmetry_equiv_pos_site_id
 _symmetry_equiv_pos_as_xyz
  1  'x, y, z'
loop_
 _atom_site_type_symbol
 _atom_site_label
 _atom_site_symmetry_multiplicity
 _atom_site_fract_x
 _atom_site_fract_y
 _atom_site_fract_z
 _atom_site_occupancy
  Sm  Sm0  1  0.886113  0.955148  0.230834  1
  Sm  Sm1  1  0.113887  0.044852  0.769166  1
  Y  Y2  1  0.027236  0.727577  0.919105  1
  Y  Y3  1  0.972764  0.272423  0.080895  1
  Y  Y4  1  0.616319  0.856875  0.808949  1
  Y  Y5  1  0.383681  0.143125  0.191051  1
  C  C6  1  0.905652  0.968344  0.955280  1
  C  C7  1  0.094348  0.031656  0.044720  1
  Br  Br8  1  0.746868  0.914767  0.540186  1
  Br  Br9  1  0.253132  0.085233  0.459814  1
  Br  Br10  1  0.455670  0.815859  0.086678  1
  Br  Br11  1  0.544330  0.184141  0.913322  1
  Br  Br12  1  0.805855  0.266689  0.349753  1
  Br  Br13  1  0.194145  0.733311  0.650247  1
  Br  Br14  1  0.912627  0.624950  0.171385  1
  Br  Br15  1  0.087373  0.375050  0.828615  1
  Br  Br16  1  0.659137  0.544971  0.725779  1
  Br  Br17  1  0.340863  0.455029  0.274221  1
