# generated using pymatgen
data_PrNd3AgPt3
_symmetry_space_group_name_H-M   'P 1'
_cell_length_a   4.69256400
_cell_length_b   5.81143629
_cell_length_c   7.40272728
_cell_angle_alpha   90.16603909
_cell_angle_beta   90.00000000
_cell_angle_gamma   90.00000000
_symmetry_Int_Tables_number   1
_chemical_formula_structural   PrNd3AgPt3
_chemical_formula_sum   'Pr1 Nd3 Ag1 Pt3'
_cell_volume   201.87549871
_cell_formula_units_Z   1
loop_
 _symmetry_equiv_pos_site_id
 _symmetry_equiv_pos_as_xyz
  1  'x, y, z'
loop_
 _atom_site_type_symbol
 _atom_site_label
 _atom_site_symmetry_multiplicity
 _atom_site_fract_x
 _atom_site_fract_y
 _atom_site_fract_z
 _atom_site_occupancy
  Pr  Pr0  1  0.250000  0.358313  0.690476  1
  Nd  Nd1  1  0.250000  0.145684  0.177837  1
  Nd  Nd2  1  0.750000  0.630200  0.304731  1
  Nd  Nd3  1  0.750000  0.862218  0.830601  1
  Ag  Ag4  1  0.250000  0.857389  0.537374  1
  Pt  Pt5  1  0.250000  0.660898  0.043524  1
  Pt  Pt6  1  0.750000  0.140807  0.459638  1
  Pt  Pt7  1  0.750000  0.344488  0.955821  1
