# generated using pymatgen
data_HoPa(GaCu)4
_symmetry_space_group_name_H-M   'P 1'
_cell_length_a   4.11999400
_cell_length_b   4.11999400
_cell_length_c   10.08464000
_cell_angle_alpha   90.00000000
_cell_angle_beta   90.00000000
_cell_angle_gamma   90.00000000
_symmetry_Int_Tables_number   1
_chemical_formula_structural   HoPa(GaCu)4
_chemical_formula_sum   'Ho1 Pa1 Ga4 Cu4'
_cell_volume   171.18021463
_cell_formula_units_Z   1
loop_
 _symmetry_equiv_pos_site_id
 _symmetry_equiv_pos_as_xyz
  1  'x, y, z'
loop_
 _atom_site_type_symbol
 _atom_site_label
 _atom_site_symmetry_multiplicity
 _atom_site_fract_x
 _atom_site_fract_y
 _atom_site_fract_z
 _atom_site_occupancy
  Ho  Ho0  1  0.499999  0.000000  0.756955  1
  Pa  Pa1  1  0.000000  0.499999  0.244742  1
  Ga  Ga2  1  0.499999  0.000000  0.130681  1
  Ga  Ga3  1  0.000000  0.000000  0.498550  1
  Ga  Ga4  1  0.499999  0.499999  0.498550  1
  Ga  Ga5  1  0.000000  0.499999  0.868641  1
  Cu  Cu6  1  0.000000  0.000000  0.002150  1
  Cu  Cu7  1  0.499999  0.499999  0.002150  1
  Cu  Cu8  1  0.499999  0.000000  0.363993  1
  Cu  Cu9  1  0.000000  0.499999  0.633585  1
