# generated using pymatgen
data_DyY(Tc2P)4
_symmetry_space_group_name_H-M   'P 1'
_cell_length_a   7.41401706
_cell_length_b   7.41401706
_cell_length_c   3.95261100
_cell_angle_alpha   90.00000000
_cell_angle_beta   90.00000000
_cell_angle_gamma   89.98534765
_symmetry_Int_Tables_number   1
_chemical_formula_structural   DyY(Tc2P)4
_chemical_formula_sum   'Dy1 Y1 Tc8 P4'
_cell_volume   217.26572688
_cell_formula_units_Z   1
loop_
 _symmetry_equiv_pos_site_id
 _symmetry_equiv_pos_as_xyz
  1  'x, y, z'
loop_
 _atom_site_type_symbol
 _atom_site_label
 _atom_site_symmetry_multiplicity
 _atom_site_fract_x
 _atom_site_fract_y
 _atom_site_fract_z
 _atom_site_occupancy
  Dy  Dy0  1  0.500000  0.500000  0.500000  1
  Y  Y1  1  0.000000  0.000000  0.000000  1
  Tc  Tc2  1  0.582780  0.839341  0.000000  1
  Tc  Tc3  1  0.839341  0.582780  0.000000  1
  Tc  Tc4  1  0.160659  0.417220  0.000000  1
  Tc  Tc5  1  0.417220  0.160659  0.000000  1
  Tc  Tc6  1  0.660402  0.082870  0.500000  1
  Tc  Tc7  1  0.917130  0.339598  0.500000  1
  Tc  Tc8  1  0.082870  0.660402  0.500000  1
  Tc  Tc9  1  0.339598  0.917130  0.500000  1
  P  P10  1  0.711554  0.288446  0.000000  1
  P  P11  1  0.288446  0.711554  0.000000  1
  P  P12  1  0.788110  0.788110  0.500000  1
  P  P13  1  0.211890  0.211890  0.500000  1
