# generated using pymatgen
data_CaYb7(Si4Mo3)4
_symmetry_space_group_name_H-M   'P 1'
_cell_length_a   6.73680480
_cell_length_b   6.91552291
_cell_length_c   13.08012909
_cell_angle_alpha   89.99315746
_cell_angle_beta   89.97348190
_cell_angle_gamma   89.99161581
_symmetry_Int_Tables_number   1
_chemical_formula_structural   CaYb7(Si4Mo3)4
_chemical_formula_sum   'Ca1 Yb7 Si16 Mo12'
_cell_volume   609.38388315
_cell_formula_units_Z   1
loop_
 _symmetry_equiv_pos_site_id
 _symmetry_equiv_pos_as_xyz
  1  'x, y, z'
loop_
 _atom_site_type_symbol
 _atom_site_label
 _atom_site_symmetry_multiplicity
 _atom_site_fract_x
 _atom_site_fract_y
 _atom_site_fract_z
 _atom_site_occupancy
  Ca  Ca0  1  0.998633  0.167212  0.091181  1
  Yb  Yb1  1  0.498509  0.334075  0.090818  1
  Yb  Yb2  1  0.998557  0.166250  0.409074  1
  Yb  Yb3  1  0.501486  0.666148  0.590898  1
  Yb  Yb4  1  0.001351  0.833062  0.908720  1
  Yb  Yb5  1  0.501393  0.666095  0.909181  1
  Yb  Yb6  1  0.001500  0.833363  0.590976  1
  Yb  Yb7  1  0.498681  0.333954  0.409235  1
  Si  Si8  1  0.657993  0.043450  0.545162  1
  Si  Si9  1  0.157667  0.456662  0.954472  1
  Si  Si10  1  0.342148  0.956595  0.045128  1
  Si  Si11  1  0.842392  0.543518  0.454764  1
  Si  Si12  1  0.342366  0.956612  0.454909  1
  Si  Si13  1  0.842131  0.543917  0.045063  1
  Si  Si14  1  0.657797  0.043169  0.954661  1
  Si  Si15  1  0.157919  0.456263  0.545180  1
  Si  Si16  1  0.535431  0.374305  0.750040  1
  Si  Si17  1  0.035534  0.125167  0.750038  1
  Si  Si18  1  0.464655  0.625710  0.250093  1
  Si  Si19  1  0.964325  0.874449  0.250053  1
  Si  Si20  1  0.800585  0.631365  0.749973  1
  Si  Si21  1  0.300929  0.867897  0.750025  1
  Si  Si22  1  0.199512  0.368972  0.250329  1
  Si  Si23  1  0.698770  0.131931  0.250117  1
  Mo  Mo24  1  0.835752  0.330351  0.628167  1
  Mo  Mo25  1  0.335875  0.168966  0.871742  1
  Mo  Mo26  1  0.164394  0.669638  0.128127  1
  Mo  Mo27  1  0.664333  0.830870  0.371872  1
  Mo  Mo28  1  0.164308  0.669703  0.371923  1
  Mo  Mo29  1  0.663671  0.830524  0.128119  1
  Mo  Mo30  1  0.835506  0.330697  0.871642  1
  Mo  Mo31  1  0.335891  0.169116  0.628193  1
  Mo  Mo32  1  0.661188  0.009429  0.749986  1
  Mo  Mo33  1  0.161103  0.489870  0.749910  1
  Mo  Mo34  1  0.338987  0.990366  0.250045  1
  Mo  Mo35  1  0.838725  0.510330  0.250187  1
