# generated using pymatgen
data_Lu6Al24Ni3Ru5
_symmetry_space_group_name_H-M   'P 1'
_cell_length_a   8.74225199
_cell_length_b   8.69948221
_cell_length_c   9.41268815
_cell_angle_alpha   90.30062219
_cell_angle_beta   90.06426871
_cell_angle_gamma   119.56957208
_symmetry_Int_Tables_number   1
_chemical_formula_structural   Lu6Al24Ni3Ru5
_chemical_formula_sum   'Lu6 Al24 Ni3 Ru5'
_cell_volume   622.61339252
_cell_formula_units_Z   1
loop_
 _symmetry_equiv_pos_site_id
 _symmetry_equiv_pos_as_xyz
  1  'x, y, z'
loop_
 _atom_site_type_symbol
 _atom_site_label
 _atom_site_symmetry_multiplicity
 _atom_site_fract_x
 _atom_site_fract_y
 _atom_site_fract_z
 _atom_site_occupancy
  Lu  Lu0  1  0.189338  0.389260  0.249785  1
  Lu  Lu1  1  0.810662  0.610740  0.750215  1
  Lu  Lu2  1  0.613232  0.809155  0.250154  1
  Lu  Lu3  1  0.386768  0.190845  0.749846  1
  Lu  Lu4  1  0.192141  0.802316  0.250231  1
  Lu  Lu5  1  0.807859  0.197684  0.749769  1
  Al  Al6  1  0.335599  0.667857  0.023254  1
  Al  Al7  1  0.664401  0.332143  0.976746  1
  Al  Al8  1  0.665478  0.334530  0.523252  1
  Al  Al9  1  0.334522  0.665470  0.476748  1
  Al  Al10  1  0.164752  0.327341  0.577310  1
  Al  Al11  1  0.835248  0.672659  0.422690  1
  Al  Al12  1  0.674091  0.837109  0.578265  1
  Al  Al13  1  0.835347  0.672630  0.077703  1
  Al  Al14  1  0.325909  0.162891  0.421735  1
  Al  Al15  1  0.164653  0.327370  0.922297  1
  Al  Al16  1  0.165593  0.837136  0.578809  1
  Al  Al17  1  0.326315  0.164479  0.078243  1
  Al  Al18  1  0.834407  0.162864  0.421191  1
  Al  Al19  1  0.673685  0.835521  0.921757  1
  Al  Al20  1  0.836230  0.164402  0.078454  1
  Al  Al21  1  0.163770  0.835598  0.921546  1
  Al  Al22  1  0.558956  0.120824  0.247126  1
  Al  Al23  1  0.441044  0.879176  0.752874  1
  Al  Al24  1  0.875613  0.438946  0.249157  1
  Al  Al25  1  0.124387  0.561054  0.750843  1
  Al  Al26  1  0.557689  0.441562  0.249074  1
  Al  Al27  1  0.442311  0.558438  0.750926  1
  Al  Al28  1  0.997052  0.001102  0.250072  1
  Al  Al29  1  0.002948  0.998898  0.749928  1
  Ni  Ni30  1  0.500000  0.000000  0.000000  1
  Ni  Ni31  1  0.500000  0.500000  0.000000  1
  Ni  Ni32  1  0.500000  0.500000  0.500000  1
  Ru  Ru33  1  0.000000  0.500000  0.000000  1
  Ru  Ru34  1  0.500000  0.000000  0.500000  1
  Ru  Ru35  1  0.000000  0.500000  0.500000  1
  Ru  Ru36  1  0.000000  0.000000  0.000000  1
  Ru  Ru37  1  0.000000  0.000000  0.500000  1
