# generated using pymatgen
data_ErZrB6Os
_symmetry_space_group_name_H-M   'P 1'
_cell_length_a   3.56340200
_cell_length_b   9.03434600
_cell_length_c   11.39622400
_cell_angle_alpha   90.00000000
_cell_angle_beta   90.00000000
_cell_angle_gamma   90.00000000
_symmetry_Int_Tables_number   1
_chemical_formula_structural   ErZrB6Os
_chemical_formula_sum   'Er4 Zr4 B24 Os4'
_cell_volume   366.87871451
_cell_formula_units_Z   4
loop_
 _symmetry_equiv_pos_site_id
 _symmetry_equiv_pos_as_xyz
  1  'x, y, z'
loop_
 _atom_site_type_symbol
 _atom_site_label
 _atom_site_symmetry_multiplicity
 _atom_site_fract_x
 _atom_site_fract_y
 _atom_site_fract_z
 _atom_site_occupancy
  Er  Er0  1  0.000000  0.321659  0.413384  1
  Er  Er1  1  0.000000  0.678341  0.586616  1
  Er  Er2  1  0.000000  0.821659  0.086616  1
  Er  Er3  1  0.000000  0.178341  0.913384  1
  Zr  Zr4  1  0.000000  0.944514  0.374315  1
  Zr  Zr5  1  0.000000  0.055486  0.625686  1
  Zr  Zr6  1  0.000000  0.444514  0.125685  1
  Zr  Zr7  1  0.000000  0.555486  0.874314  1
  B  B8  1  0.500000  0.554137  0.434309  1
  B  B9  1  0.500000  0.445863  0.565691  1
  B  B10  1  0.500000  0.054137  0.065691  1
  B  B11  1  0.500000  0.945863  0.934309  1
  B  B12  1  0.500000  0.750979  0.419496  1
  B  B13  1  0.500000  0.249021  0.580504  1
  B  B14  1  0.500000  0.250979  0.080504  1
  B  B15  1  0.500000  0.749021  0.919496  1
  B  B16  1  0.500000  0.794357  0.263703  1
  B  B17  1  0.500000  0.205643  0.736297  1
  B  B18  1  0.500000  0.294356  0.236297  1
  B  B19  1  0.500000  0.705643  0.763703  1
  B  B20  1  0.500000  0.630510  0.183095  1
  B  B21  1  0.500000  0.369490  0.816905  1
  B  B22  1  0.500000  0.130510  0.316905  1
  B  B23  1  0.500000  0.869490  0.683095  1
  B  B24  1  0.500000  0.981432  0.212812  1
  B  B25  1  0.500000  0.018568  0.787188  1
  B  B26  1  0.500000  0.481432  0.287188  1
  B  B27  1  0.500000  0.518568  0.712812  1
  B  B28  1  0.500000  0.603241  0.028004  1
  B  B29  1  0.500000  0.396759  0.971996  1
  B  B30  1  0.500000  0.103241  0.471996  1
  B  B31  1  0.500000  0.896759  0.528004  1
  Os  Os32  1  0.000000  0.640153  0.319895  1
  Os  Os33  1  0.000000  0.359847  0.680105  1
  Os  Os34  1  0.000000  0.140153  0.180105  1
  Os  Os35  1  0.000000  0.859847  0.819895  1
