# generated using pymatgen
data_Eu4Cd3Sn7Au4
_symmetry_space_group_name_H-M   'P 1'
_cell_length_a   4.68226200
_cell_length_b   9.53737617
_cell_length_c   10.46112211
_cell_angle_alpha   88.23449570
_cell_angle_beta   90.00000000
_cell_angle_gamma   90.00000000
_symmetry_Int_Tables_number   1
_chemical_formula_structural   Eu4Cd3Sn7Au4
_chemical_formula_sum   'Eu4 Cd3 Sn7 Au4'
_cell_volume   466.93527316
_cell_formula_units_Z   1
loop_
 _symmetry_equiv_pos_site_id
 _symmetry_equiv_pos_as_xyz
  1  'x, y, z'
loop_
 _atom_site_type_symbol
 _atom_site_label
 _atom_site_symmetry_multiplicity
 _atom_site_fract_x
 _atom_site_fract_y
 _atom_site_fract_z
 _atom_site_occupancy
  Eu  Eu0  1  0.750000  0.649776  0.247648  1
  Eu  Eu1  1  0.250000  0.359160  0.751829  1
  Eu  Eu2  1  0.750000  0.098529  0.243654  1
  Eu  Eu3  1  0.250000  0.896382  0.756945  1
  Cd  Cd4  1  0.250000  0.134437  0.476144  1
  Cd  Cd5  1  0.750000  0.865670  0.525310  1
  Cd  Cd6  1  0.250000  0.370557  0.248435  1
  Sn  Sn7  1  0.750000  0.625732  0.755773  1
  Sn  Sn8  1  0.250000  0.608865  0.521607  1
  Sn  Sn9  1  0.750000  0.390336  0.469163  1
  Sn  Sn10  1  0.250000  0.608732  0.989756  1
  Sn  Sn11  1  0.750000  0.386000  0.019803  1
  Sn  Sn12  1  0.750000  0.106705  0.883515  1
  Sn  Sn13  1  0.250000  0.895505  0.113822  1
  Au  Au14  1  0.750000  0.147328  0.625708  1
  Au  Au15  1  0.250000  0.856181  0.373053  1
  Au  Au16  1  0.750000  0.818923  0.972322  1
  Au  Au17  1  0.250000  0.181182  0.025513  1
