# generated using pymatgen
data_Hf4Cr4Si3P
_symmetry_space_group_name_H-M   'P 1'
_cell_length_a   3.47852700
_cell_length_b   6.64322032
_cell_length_c   7.78868375
_cell_angle_alpha   90.01298343
_cell_angle_beta   90.00000000
_cell_angle_gamma   90.00000000
_symmetry_Int_Tables_number   1
_chemical_formula_structural   Hf4Cr4Si3P
_chemical_formula_sum   'Hf4 Cr4 Si3 P1'
_cell_volume   179.98573824
_cell_formula_units_Z   1
loop_
 _symmetry_equiv_pos_site_id
 _symmetry_equiv_pos_as_xyz
  1  'x, y, z'
loop_
 _atom_site_type_symbol
 _atom_site_label
 _atom_site_symmetry_multiplicity
 _atom_site_fract_x
 _atom_site_fract_y
 _atom_site_fract_z
 _atom_site_occupancy
  Hf  Hf0  1  0.250000  0.035488  0.830562  1
  Hf  Hf1  1  0.250000  0.544941  0.672563  1
  Hf  Hf2  1  0.750000  0.957153  0.167688  1
  Hf  Hf3  1  0.750000  0.456708  0.331749  1
  Cr  Cr4  1  0.250000  0.124272  0.442339  1
  Cr  Cr5  1  0.250000  0.627770  0.053853  1
  Cr  Cr6  1  0.750000  0.873599  0.560468  1
  Cr  Cr7  1  0.750000  0.379326  0.941759  1
  Si  Si8  1  0.250000  0.758837  0.364829  1
  Si  Si9  1  0.250000  0.260702  0.133018  1
  Si  Si10  1  0.750000  0.240481  0.635891  1
  P  P11  1  0.750000  0.740722  0.865279  1
