# generated using pymatgen
data_Tm8FeRe(B12Mo)2
_symmetry_space_group_name_H-M   'P 1'
_cell_length_a   3.59353500
_cell_length_b   9.14290086
_cell_length_c   11.51496308
_cell_angle_alpha   90.15203124
_cell_angle_beta   90.00000000
_cell_angle_gamma   90.00000000
_symmetry_Int_Tables_number   1
_chemical_formula_structural   Tm8FeRe(B12Mo)2
_chemical_formula_sum   'Tm8 Fe1 Re1 B24 Mo2'
_cell_volume   378.32662902
_cell_formula_units_Z   1
loop_
 _symmetry_equiv_pos_site_id
 _symmetry_equiv_pos_as_xyz
  1  'x, y, z'
loop_
 _atom_site_type_symbol
 _atom_site_label
 _atom_site_symmetry_multiplicity
 _atom_site_fract_x
 _atom_site_fract_y
 _atom_site_fract_z
 _atom_site_occupancy
  Tm  Tm0  1  0.000000  0.323961  0.413572  1
  Tm  Tm1  1  0.000000  0.679774  0.585715  1
  Tm  Tm2  1  0.000000  0.821657  0.084191  1
  Tm  Tm3  1  0.000000  0.176395  0.913612  1
  Tm  Tm4  1  0.000000  0.937908  0.369987  1
  Tm  Tm5  1  0.000000  0.054340  0.628518  1
  Tm  Tm6  1  0.000000  0.446946  0.132159  1
  Tm  Tm7  1  0.000000  0.557937  0.872378  1
  Fe  Fe8  1  0.000000  0.639592  0.319997  1
  Re  Re9  1  0.000000  0.860768  0.819996  1
  B  B10  1  0.500000  0.555636  0.431186  1
  B  B11  1  0.500000  0.449821  0.563131  1
  B  B12  1  0.500000  0.051199  0.064723  1
  B  B13  1  0.500000  0.946635  0.932858  1
  B  B14  1  0.500000  0.746658  0.417372  1
  B  B15  1  0.500000  0.247044  0.577750  1
  B  B16  1  0.500000  0.252650  0.079080  1
  B  B17  1  0.500000  0.750858  0.919450  1
  B  B18  1  0.500000  0.789138  0.265699  1
  B  B19  1  0.500000  0.204439  0.736514  1
  B  B20  1  0.500000  0.296101  0.237457  1
  B  B21  1  0.500000  0.707407  0.765567  1
  B  B22  1  0.500000  0.631644  0.186509  1
  B  B23  1  0.500000  0.369395  0.817413  1
  B  B24  1  0.500000  0.130378  0.317950  1
  B  B25  1  0.500000  0.868483  0.684968  1
  B  B26  1  0.500000  0.977070  0.212041  1
  B  B27  1  0.500000  0.017718  0.787921  1
  B  B28  1  0.500000  0.486571  0.289067  1
  B  B29  1  0.500000  0.523057  0.712138  1
  B  B30  1  0.500000  0.602353  0.029713  1
  B  B31  1  0.500000  0.400241  0.973317  1
  B  B32  1  0.500000  0.098385  0.471508  1
  B  B33  1  0.500000  0.896622  0.527406  1
  Mo  Mo34  1  0.000000  0.362236  0.678418  1
  Mo  Mo35  1  0.000000  0.138984  0.180721  1
