# generated using pymatgen
data_Sc3TaIr2O
_symmetry_space_group_name_H-M   'P 1'
_cell_length_a   8.51141422
_cell_length_b   8.51141540
_cell_length_c   8.51141500
_cell_angle_alpha   60.00000545
_cell_angle_beta   60.00000085
_cell_angle_gamma   60.00000292
_symmetry_Int_Tables_number   1
_chemical_formula_structural   Sc3TaIr2O
_chemical_formula_sum   'Sc12 Ta4 Ir8 O4'
_cell_volume   436.00383811
_cell_formula_units_Z   4
loop_
 _symmetry_equiv_pos_site_id
 _symmetry_equiv_pos_as_xyz
  1  'x, y, z'
loop_
 _atom_site_type_symbol
 _atom_site_label
 _atom_site_symmetry_multiplicity
 _atom_site_fract_x
 _atom_site_fract_y
 _atom_site_fract_z
 _atom_site_occupancy
  Sc  Sc0  1  0.815491  0.815491  0.184509  1
  Sc  Sc1  1  0.184509  0.184509  0.815491  1
  Sc  Sc2  1  0.815491  0.184509  0.815491  1
  Sc  Sc3  1  0.184509  0.815491  0.184509  1
  Sc  Sc4  1  0.184509  0.815491  0.815491  1
  Sc  Sc5  1  0.815491  0.184509  0.184509  1
  Sc  Sc6  1  0.434509  0.434509  0.065491  1
  Sc  Sc7  1  0.065491  0.065491  0.434509  1
  Sc  Sc8  1  0.434509  0.065491  0.434509  1
  Sc  Sc9  1  0.065491  0.434509  0.065491  1
  Sc  Sc10  1  0.065491  0.434509  0.434509  1
  Sc  Sc11  1  0.434509  0.065491  0.065491  1
  Ta  Ta12  1  0.125000  0.625000  0.625000  1
  Ta  Ta13  1  0.625000  0.125000  0.625000  1
  Ta  Ta14  1  0.625000  0.625000  0.125000  1
  Ta  Ta15  1  0.625000  0.625000  0.625000  1
  Ir  Ir16  1  0.755598  0.414801  0.414801  1
  Ir  Ir17  1  0.414801  0.755598  0.414801  1
  Ir  Ir18  1  0.414801  0.414801  0.755598  1
  Ir  Ir19  1  0.414801  0.414801  0.414801  1
  Ir  Ir20  1  0.494402  0.835199  0.835199  1
  Ir  Ir21  1  0.835199  0.494402  0.835199  1
  Ir  Ir22  1  0.835199  0.835199  0.494402  1
  Ir  Ir23  1  0.835199  0.835199  0.835199  1
  O  O24  1  0.625000  0.125000  0.125000  1
  O  O25  1  0.125000  0.625000  0.125000  1
  O  O26  1  0.125000  0.125000  0.625000  1
  O  O27  1  0.125000  0.125000  0.125000  1
