# generated using pymatgen
data_Mn20Be(ReC3)2
_symmetry_space_group_name_H-M   'P 1'
_cell_length_a   7.35322781
_cell_length_b   7.35354942
_cell_length_c   7.35295100
_cell_angle_alpha   60.00495760
_cell_angle_beta   60.00434675
_cell_angle_gamma   60.00161995
_symmetry_Int_Tables_number   1
_chemical_formula_structural   Mn20Be(ReC3)2
_chemical_formula_sum   'Mn20 Be1 Re2 C6'
_cell_volume   281.16260806
_cell_formula_units_Z   1
loop_
 _symmetry_equiv_pos_site_id
 _symmetry_equiv_pos_as_xyz
  1  'x, y, z'
loop_
 _atom_site_type_symbol
 _atom_site_label
 _atom_site_symmetry_multiplicity
 _atom_site_fract_x
 _atom_site_fract_y
 _atom_site_fract_z
 _atom_site_occupancy
  Mn  Mn0  1  0.616546  0.616568  0.150456  1
  Mn  Mn1  1  0.616514  0.150407  0.616540  1
  Mn  Mn2  1  0.150414  0.616535  0.616541  1
  Mn  Mn3  1  0.616519  0.616571  0.616433  1
  Mn  Mn4  1  0.383454  0.383432  0.849544  1
  Mn  Mn5  1  0.383486  0.849593  0.383460  1
  Mn  Mn6  1  0.849586  0.383465  0.383459  1
  Mn  Mn7  1  0.383481  0.383429  0.383567  1
  Mn  Mn8  1  0.999992  0.000007  0.337197  1
  Mn  Mn9  1  0.662800  0.999959  0.337228  1
  Mn  Mn10  1  0.999956  0.662815  0.337206  1
  Mn  Mn11  1  0.662892  0.337117  0.000002  1
  Mn  Mn12  1  0.000036  0.337209  0.999985  1
  Mn  Mn13  1  0.000044  0.337185  0.662794  1
  Mn  Mn14  1  0.337108  0.662883  0.999998  1
  Mn  Mn15  1  0.337200  0.000041  0.662772  1
  Mn  Mn16  1  0.337203  0.000048  0.999981  1
  Mn  Mn17  1  0.000008  0.999993  0.662803  1
  Mn  Mn18  1  0.999964  0.662791  0.000015  1
  Mn  Mn19  1  0.662797  0.999952  0.000019  1
  Be  Be20  1  0.000000  0.000000  0.000000  1
  Re  Re21  1  0.750051  0.750076  0.749954  1
  Re  Re22  1  0.249949  0.249924  0.250046  1
  C  C23  1  0.723302  0.723345  0.276661  1
  C  C24  1  0.276685  0.723350  0.276735  1
  C  C25  1  0.723339  0.276655  0.276748  1
  C  C26  1  0.276698  0.276655  0.723339  1
  C  C27  1  0.723315  0.276650  0.723265  1
  C  C28  1  0.276661  0.723345  0.723252  1
