# generated using pymatgen
data_Nd6Y4In8Pd3Pt
_symmetry_space_group_name_H-M   'P 1'
_cell_length_a   3.74282800
_cell_length_b   8.29819047
_cell_length_c   18.50411090
_cell_angle_alpha   90.14844772
_cell_angle_beta   90.00000000
_cell_angle_gamma   90.00000000
_symmetry_Int_Tables_number   1
_chemical_formula_structural   Nd6Y4In8Pd3Pt
_chemical_formula_sum   'Nd6 Y4 In8 Pd3 Pt1'
_cell_volume   574.71169340
_cell_formula_units_Z   1
loop_
 _symmetry_equiv_pos_site_id
 _symmetry_equiv_pos_as_xyz
  1  'x, y, z'
loop_
 _atom_site_type_symbol
 _atom_site_label
 _atom_site_symmetry_multiplicity
 _atom_site_fract_x
 _atom_site_fract_y
 _atom_site_fract_z
 _atom_site_occupancy
  Nd  Nd0  1  0.000000  0.243003  0.215055  1
  Nd  Nd1  1  0.000000  0.760320  0.784753  1
  Nd  Nd2  1  0.000000  0.260715  0.715289  1
  Nd  Nd3  1  0.000000  0.735822  0.283711  1
  Nd  Nd4  1  0.000000  0.999994  0.000263  1
  Nd  Nd5  1  0.000000  0.500477  0.499878  1
  Y  Y6  1  0.000000  0.118894  0.414812  1
  Y  Y7  1  0.000000  0.880844  0.584994  1
  Y  Y8  1  0.000000  0.381460  0.915104  1
  Y  Y9  1  0.000000  0.617972  0.086260  1
  In  In10  1  0.500000  0.413915  0.349199  1
  In  In11  1  0.500000  0.585536  0.651383  1
  In  In12  1  0.500000  0.085658  0.848647  1
  In  In13  1  0.500000  0.915616  0.151199  1
  In  In14  1  0.500000  0.302473  0.062602  1
  In  In15  1  0.500000  0.697218  0.936726  1
  In  In16  1  0.500000  0.196985  0.563134  1
  In  In17  1  0.500000  0.803083  0.436853  1
  Pd  Pd18  1  0.500000  0.025343  0.304965  1
  Pd  Pd19  1  0.500000  0.974637  0.695194  1
  Pd  Pd20  1  0.500000  0.474468  0.804762  1
  Pt  Pt21  1  0.500000  0.525568  0.195216  1
