# generated using pymatgen
data_Dy20Ir7Pt2Rh3
_symmetry_space_group_name_H-M   'P 1'
_cell_length_a   10.93942423
_cell_length_b   10.93657304
_cell_length_c   6.36416917
_cell_angle_alpha   90.00935166
_cell_angle_beta   89.97597702
_cell_angle_gamma   90.00003763
_symmetry_Int_Tables_number   1
_chemical_formula_structural   Dy20Ir7Pt2Rh3
_chemical_formula_sum   'Dy20 Ir7 Pt2 Rh3'
_cell_volume   761.40792606
_cell_formula_units_Z   1
loop_
 _symmetry_equiv_pos_site_id
 _symmetry_equiv_pos_as_xyz
  1  'x, y, z'
loop_
 _atom_site_type_symbol
 _atom_site_label
 _atom_site_symmetry_multiplicity
 _atom_site_fract_x
 _atom_site_fract_y
 _atom_site_fract_z
 _atom_site_occupancy
  Dy  Dy0  1  0.290776  0.089146  0.379123  1
  Dy  Dy1  1  0.290729  0.910456  0.878931  1
  Dy  Dy2  1  0.705590  0.090946  0.876267  1
  Dy  Dy3  1  0.705513  0.909401  0.376704  1
  Dy  Dy4  1  0.585988  0.790083  0.881021  1
  Dy  Dy5  1  0.585436  0.209774  0.381327  1
  Dy  Dy6  1  0.410407  0.790526  0.380544  1
  Dy  Dy7  1  0.409968  0.209556  0.880440  1
  Dy  Dy8  1  0.208557  0.410764  0.618080  1
  Dy  Dy9  1  0.209021  0.589683  0.121083  1
  Dy  Dy10  1  0.790640  0.413473  0.120861  1
  Dy  Dy11  1  0.791033  0.586046  0.617598  1
  Dy  Dy12  1  0.911964  0.706785  0.125844  1
  Dy  Dy13  1  0.912320  0.293592  0.623099  1
  Dy  Dy14  1  0.092187  0.706759  0.618326  1
  Dy  Dy15  1  0.092442  0.292897  0.121378  1
  Dy  Dy16  1  0.003155  0.999709  0.500464  1
  Dy  Dy17  1  0.003275  0.000272  0.999772  1
  Dy  Dy18  1  0.499769  0.499656  0.999947  1
  Dy  Dy19  1  0.499720  0.500365  0.500530  1
  Ir  Ir20  1  0.153330  0.153745  0.749706  1
  Ir  Ir21  1  0.153719  0.847027  0.249874  1
  Ir  Ir22  1  0.654963  0.344937  0.749421  1
  Ir  Ir23  1  0.654311  0.655629  0.249612  1
  Ir  Ir24  1  0.347037  0.345113  0.250131  1
  Ir  Ir25  1  0.346364  0.654533  0.750240  1
  Ir  Ir26  1  0.999470  0.499819  0.374675  1
  Pt  Pt27  1  0.845015  0.152895  0.249536  1
  Pt  Pt28  1  0.845566  0.846421  0.749669  1
  Rh  Rh29  1  0.501186  0.999650  0.124944  1
  Rh  Rh30  1  0.501116  0.000328  0.625667  1
  Rh  Rh31  1  0.999433  0.500013  0.875187  1
