# generated using pymatgen
data_La3ScCoC6
_symmetry_space_group_name_H-M   'P 1'
_cell_length_a   8.56518700
_cell_length_b   8.56518702
_cell_length_c   5.33791800
_cell_angle_alpha   90.00000000
_cell_angle_beta   90.00000000
_cell_angle_gamma   119.99998060
_symmetry_Int_Tables_number   1
_chemical_formula_structural   La3ScCoC6
_chemical_formula_sum   'La6 Sc2 Co2 C12'
_cell_volume   339.13789019
_cell_formula_units_Z   2
loop_
 _symmetry_equiv_pos_site_id
 _symmetry_equiv_pos_as_xyz
  1  'x, y, z'
loop_
 _atom_site_type_symbol
 _atom_site_label
 _atom_site_symmetry_multiplicity
 _atom_site_fract_x
 _atom_site_fract_y
 _atom_site_fract_z
 _atom_site_occupancy
  La  La0  1  0.614370  0.672901  0.750000  1
  La  La1  1  0.941469  0.614370  0.250000  1
  La  La2  1  0.672901  0.058531  0.250000  1
  La  La3  1  0.327099  0.941469  0.750000  1
  La  La4  1  0.058531  0.385630  0.750000  1
  La  La5  1  0.385630  0.327099  0.250000  1
  Sc  Sc6  1  0.000000  0.000000  0.500000  1
  Sc  Sc7  1  0.000000  0.000000  0.000000  1
  Co  Co8  1  0.666667  0.333333  0.750000  1
  Co  Co9  1  0.333333  0.666667  0.250000  1
  C  C10  1  0.951911  0.747644  0.750000  1
  C  C11  1  0.204268  0.951911  0.250000  1
  C  C12  1  0.747644  0.795732  0.250000  1
  C  C13  1  0.252356  0.204268  0.750000  1
  C  C14  1  0.795732  0.048089  0.750000  1
  C  C15  1  0.048089  0.252356  0.250000  1
  C  C16  1  0.859896  0.565393  0.750000  1
  C  C17  1  0.294503  0.859896  0.250000  1
  C  C18  1  0.565393  0.705497  0.250000  1
  C  C19  1  0.434607  0.294503  0.750000  1
  C  C20  1  0.140104  0.434607  0.250000  1
  C  C21  1  0.705497  0.140104  0.750000  1
