# generated using pymatgen
data_Sc5Bi2P
_symmetry_space_group_name_H-M   'P 1'
_cell_length_a   7.49624900
_cell_length_b   8.50750700
_cell_length_c   11.41982300
_cell_angle_alpha   90.00000000
_cell_angle_beta   90.00000000
_cell_angle_gamma   90.00000000
_symmetry_Int_Tables_number   1
_chemical_formula_structural   Sc5Bi2P
_chemical_formula_sum   'Sc20 Bi8 P4'
_cell_volume   728.29225534
_cell_formula_units_Z   4
loop_
 _symmetry_equiv_pos_site_id
 _symmetry_equiv_pos_as_xyz
  1  'x, y, z'
loop_
 _atom_site_type_symbol
 _atom_site_label
 _atom_site_symmetry_multiplicity
 _atom_site_fract_x
 _atom_site_fract_y
 _atom_site_fract_z
 _atom_site_occupancy
  Sc  Sc0  1  0.650579  0.750000  0.705047  1
  Sc  Sc1  1  0.349421  0.250000  0.294953  1
  Sc  Sc2  1  0.150579  0.250000  0.794953  1
  Sc  Sc3  1  0.849421  0.750000  0.205047  1
  Sc  Sc4  1  0.125488  0.750000  0.800218  1
  Sc  Sc5  1  0.874512  0.250000  0.199782  1
  Sc  Sc6  1  0.625488  0.250000  0.699782  1
  Sc  Sc7  1  0.374512  0.750000  0.300218  1
  Sc  Sc8  1  0.543881  0.750000  0.999367  1
  Sc  Sc9  1  0.456119  0.250000  0.000633  1
  Sc  Sc10  1  0.043881  0.250000  0.500633  1
  Sc  Sc11  1  0.956119  0.750000  0.499367  1
  Sc  Sc12  1  0.818931  0.447578  0.937460  1
  Sc  Sc13  1  0.181069  0.552422  0.062540  1
  Sc  Sc14  1  0.318931  0.552422  0.562540  1
  Sc  Sc15  1  0.181069  0.947578  0.062540  1
  Sc  Sc16  1  0.681069  0.447578  0.437460  1
  Sc  Sc17  1  0.818931  0.052422  0.937460  1
  Sc  Sc18  1  0.681069  0.052422  0.437460  1
  Sc  Sc19  1  0.318931  0.947578  0.562540  1
  Bi  Bi20  1  0.925897  0.010152  0.673458  1
  Bi  Bi21  1  0.074103  0.989848  0.326542  1
  Bi  Bi22  1  0.425897  0.989848  0.826542  1
  Bi  Bi23  1  0.074103  0.510152  0.326542  1
  Bi  Bi24  1  0.574103  0.010152  0.173458  1
  Bi  Bi25  1  0.925897  0.489848  0.673458  1
  Bi  Bi26  1  0.574103  0.489848  0.173458  1
  Bi  Bi27  1  0.425897  0.510152  0.826542  1
  P  P28  1  0.922644  0.750000  0.985772  1
  P  P29  1  0.077356  0.250000  0.014228  1
  P  P30  1  0.422644  0.250000  0.514228  1
  P  P31  1  0.577356  0.750000  0.485772  1
