# generated using pymatgen
data_Ti10CuSn6P
_symmetry_space_group_name_H-M   'P 1'
_cell_length_a   8.20238400
_cell_length_b   8.20238321
_cell_length_c   5.53275400
_cell_angle_alpha   90.00000000
_cell_angle_beta   90.00000000
_cell_angle_gamma   120.00000320
_symmetry_Int_Tables_number   1
_chemical_formula_structural   Ti10CuSn6P
_chemical_formula_sum   'Ti10 Cu1 Sn6 P1'
_cell_volume   322.36815300
_cell_formula_units_Z   1
loop_
 _symmetry_equiv_pos_site_id
 _symmetry_equiv_pos_as_xyz
  1  'x, y, z'
loop_
 _atom_site_type_symbol
 _atom_site_label
 _atom_site_symmetry_multiplicity
 _atom_site_fract_x
 _atom_site_fract_y
 _atom_site_fract_z
 _atom_site_occupancy
  Ti  Ti0  1  0.258354  0.000000  0.738891  1
  Ti  Ti1  1  0.741646  0.000000  0.261109  1
  Ti  Ti2  1  0.000000  0.258354  0.738891  1
  Ti  Ti3  1  0.000000  0.741646  0.261109  1
  Ti  Ti4  1  0.741646  0.741646  0.738891  1
  Ti  Ti5  1  0.258354  0.258354  0.261109  1
  Ti  Ti6  1  0.333333  0.666667  0.500000  1
  Ti  Ti7  1  0.666667  0.333333  0.500000  1
  Ti  Ti8  1  0.666667  0.333333  0.000000  1
  Ti  Ti9  1  0.333333  0.666667  0.000000  1
  Cu  Cu10  1  0.000000  0.000000  0.000000  1
  Sn  Sn11  1  0.609236  0.000000  0.755722  1
  Sn  Sn12  1  0.390764  0.000000  0.244278  1
  Sn  Sn13  1  0.000000  0.609236  0.755722  1
  Sn  Sn14  1  0.000000  0.390764  0.244278  1
  Sn  Sn15  1  0.390764  0.390764  0.755722  1
  Sn  Sn16  1  0.609236  0.609236  0.244278  1
  P  P17  1  0.000000  0.000000  0.500000  1
