# generated using pymatgen
data_La3Nd2(Sn5Pd2)2
_symmetry_space_group_name_H-M   'P 1'
_cell_length_a   14.38761000
_cell_length_b   14.38761000
_cell_length_c   4.71007800
_cell_angle_alpha   90.00000000
_cell_angle_beta   90.00000000
_cell_angle_gamma   90.00000000
_symmetry_Int_Tables_number   1
_chemical_formula_structural   La3Nd2(Sn5Pd2)2
_chemical_formula_sum   'La6 Nd4 Sn20 Pd8'
_cell_volume   975.00179058
_cell_formula_units_Z   2
loop_
 _symmetry_equiv_pos_site_id
 _symmetry_equiv_pos_as_xyz
  1  'x, y, z'
loop_
 _atom_site_type_symbol
 _atom_site_label
 _atom_site_symmetry_multiplicity
 _atom_site_fract_x
 _atom_site_fract_y
 _atom_site_fract_z
 _atom_site_occupancy
  La  La0  1  0.500000  0.500000  0.000000  1
  La  La1  1  0.000000  0.000000  0.000000  1
  La  La2  1  0.890027  0.390027  0.500000  1
  La  La3  1  0.109973  0.609973  0.500000  1
  La  La4  1  0.390027  0.109973  0.500000  1
  La  La5  1  0.609973  0.890027  0.500000  1
  Nd  Nd6  1  0.678339  0.178339  0.500000  1
  Nd  Nd7  1  0.321661  0.821661  0.500000  1
  Nd  Nd8  1  0.178339  0.321661  0.500000  1
  Nd  Nd9  1  0.821661  0.678339  0.500000  1
  Sn  Sn10  1  0.569183  0.069183  0.000000  1
  Sn  Sn11  1  0.430817  0.930817  0.000000  1
  Sn  Sn12  1  0.069183  0.430817  0.000000  1
  Sn  Sn13  1  0.930817  0.569183  0.000000  1
  Sn  Sn14  1  0.654737  0.698915  0.000000  1
  Sn  Sn15  1  0.345263  0.301085  0.000000  1
  Sn  Sn16  1  0.154737  0.801085  0.000000  1
  Sn  Sn17  1  0.845263  0.198915  0.000000  1
  Sn  Sn18  1  0.301085  0.654737  0.000000  1
  Sn  Sn19  1  0.698915  0.345263  0.000000  1
  Sn  Sn20  1  0.198915  0.154737  0.000000  1
  Sn  Sn21  1  0.801085  0.845263  0.000000  1
  Sn  Sn22  1  0.662404  0.502080  0.500000  1
  Sn  Sn23  1  0.337596  0.497920  0.500000  1
  Sn  Sn24  1  0.162404  0.997920  0.500000  1
  Sn  Sn25  1  0.837596  0.002080  0.500000  1
  Sn  Sn26  1  0.497920  0.662404  0.500000  1
  Sn  Sn27  1  0.502080  0.337596  0.500000  1
  Sn  Sn28  1  0.002080  0.162404  0.500000  1
  Sn  Sn29  1  0.997920  0.837596  0.500000  1
  Pd  Pd30  1  0.745556  0.528891  0.000000  1
  Pd  Pd31  1  0.254444  0.471109  0.000000  1
  Pd  Pd32  1  0.245556  0.971109  0.000000  1
  Pd  Pd33  1  0.754444  0.028891  0.000000  1
  Pd  Pd34  1  0.471109  0.745556  0.000000  1
  Pd  Pd35  1  0.528891  0.254444  0.000000  1
  Pd  Pd36  1  0.028891  0.245556  0.000000  1
  Pd  Pd37  1  0.971109  0.754444  0.000000  1
