# generated using pymatgen
data_Tm3Lu3Al24(Os3Ru)2
_symmetry_space_group_name_H-M   'P 1'
_cell_length_a   8.76106110
_cell_length_b   8.75885484
_cell_length_c   9.54520500
_cell_angle_alpha   90.00007447
_cell_angle_beta   89.99988111
_cell_angle_gamma   120.02594723
_symmetry_Int_Tables_number   1
_chemical_formula_structural   Tm3Lu3Al24(Os3Ru)2
_chemical_formula_sum   'Tm3 Lu3 Al24 Os6 Ru2'
_cell_volume   634.17091354
_cell_formula_units_Z   1
loop_
 _symmetry_equiv_pos_site_id
 _symmetry_equiv_pos_as_xyz
  1  'x, y, z'
loop_
 _atom_site_type_symbol
 _atom_site_label
 _atom_site_symmetry_multiplicity
 _atom_site_fract_x
 _atom_site_fract_y
 _atom_site_fract_z
 _atom_site_occupancy
  Tm  Tm0  1  0.610762  0.805426  0.250000  1
  Tm  Tm1  1  0.805337  0.610678  0.750000  1
  Tm  Tm2  1  0.194570  0.389225  0.250000  1
  Lu  Lu3  1  0.804892  0.195106  0.750003  1
  Lu  Lu4  1  0.195031  0.804897  0.250000  1
  Lu  Lu5  1  0.390196  0.195065  0.750001  1
  Al  Al6  1  0.666548  0.333109  0.980212  1
  Al  Al7  1  0.333209  0.666769  0.019629  1
  Al  Al8  1  0.333210  0.666771  0.480371  1
  Al  Al9  1  0.666547  0.333107  0.519786  1
  Al  Al10  1  0.837301  0.162708  0.422766  1
  Al  Al11  1  0.162787  0.837467  0.577325  1
  Al  Al12  1  0.325350  0.162547  0.422714  1
  Al  Al13  1  0.162788  0.837465  0.922673  1
  Al  Al14  1  0.674677  0.837467  0.577479  1
  Al  Al15  1  0.837301  0.162710  0.077236  1
  Al  Al16  1  0.837455  0.674645  0.422562  1
  Al  Al17  1  0.674673  0.837464  0.922519  1
  Al  Al18  1  0.162632  0.325268  0.577529  1
  Al  Al19  1  0.325353  0.162548  0.077287  1
  Al  Al20  1  0.162633  0.325272  0.922469  1
  Al  Al21  1  0.837454  0.674642  0.077439  1
  Al  Al22  1  0.438433  0.561114  0.749999  1
  Al  Al23  1  0.561486  0.438496  0.250001  1
  Al  Al24  1  0.122696  0.561135  0.749999  1
  Al  Al25  1  0.877356  0.438889  0.250001  1
  Al  Al26  1  0.438816  0.877656  0.749998  1
  Al  Al27  1  0.561105  0.122655  0.250002  1
  Al  Al28  1  0.000192  0.000415  0.749993  1
  Al  Al29  1  0.000196  0.999780  0.250007  1
  Os  Os30  1  0.499843  0.499664  0.999756  1
  Os  Os31  1  0.999848  0.499922  0.999933  1
  Os  Os32  1  0.499838  0.499664  0.500242  1
  Os  Os33  1  0.499842  0.000177  0.999756  1
  Os  Os34  1  0.999851  0.499926  0.500066  1
  Os  Os35  1  0.499840  0.000177  0.500245  1
  Ru  Ru36  1  0.999976  0.999987  0.999995  1
  Ru  Ru37  1  0.999975  0.999986  0.500005  1
