# generated using pymatgen
data_Ce2Mn7P7Ir5
_symmetry_space_group_name_H-M   'P 1'
_cell_length_a   9.43455853
_cell_length_b   9.38421018
_cell_length_c   3.84872000
_cell_angle_alpha   90.00000000
_cell_angle_beta   90.00000000
_cell_angle_gamma   120.13727793
_symmetry_Int_Tables_number   1
_chemical_formula_structural   Ce2Mn7P7Ir5
_chemical_formula_sum   'Ce2 Mn7 P7 Ir5'
_cell_volume   294.68893769
_cell_formula_units_Z   1
loop_
 _symmetry_equiv_pos_site_id
 _symmetry_equiv_pos_as_xyz
  1  'x, y, z'
loop_
 _atom_site_type_symbol
 _atom_site_label
 _atom_site_symmetry_multiplicity
 _atom_site_fract_x
 _atom_site_fract_y
 _atom_site_fract_z
 _atom_site_occupancy
  Ce  Ce0  1  0.333232  0.660429  0.000000  1
  Ce  Ce1  1  0.003803  0.003581  0.500000  1
  Mn  Mn2  1  0.553388  0.062088  0.000000  1
  Mn  Mn3  1  0.935472  0.490492  0.000000  1
  Mn  Mn4  1  0.511413  0.450501  0.000000  1
  Mn  Mn5  1  0.279948  0.381043  0.500000  1
  Mn  Mn6  1  0.782711  0.235924  0.500000  1
  Mn  Mn7  1  0.763295  0.549696  0.500000  1
  Mn  Mn8  1  0.448707  0.217053  0.500000  1
  P  P9  1  0.775953  0.035634  0.000000  1
  P  P10  1  0.965564  0.740814  0.000000  1
  P  P11  1  0.261840  0.235290  0.000000  1
  P  P12  1  0.387648  0.939362  0.500000  1
  P  P13  1  0.073326  0.447270  0.500000  1
  P  P14  1  0.536904  0.600661  0.500000  1
  P  P15  1  0.664314  0.333429  0.000000  1
  Ir  Ir16  1  0.031715  0.274405  0.000000  1
  Ir  Ir17  1  0.731780  0.760578  0.000000  1
  Ir  Ir18  1  0.239965  0.973203  0.000000  1
  Ir  Ir19  1  0.612058  0.891502  0.500000  1
  Ir  Ir20  1  0.106962  0.717046  0.500000  1
