# generated using pymatgen
data_Nd3Cd2InRh3
_symmetry_space_group_name_H-M   'P 1'
_cell_length_a   7.57900363
_cell_length_b   7.54483904
_cell_length_c   4.13105900
_cell_angle_alpha   90.00000000
_cell_angle_beta   90.00000000
_cell_angle_gamma   119.85100031
_symmetry_Int_Tables_number   1
_chemical_formula_structural   Nd3Cd2InRh3
_chemical_formula_sum   'Nd3 Cd2 In1 Rh3'
_cell_volume   204.88219849
_cell_formula_units_Z   1
loop_
 _symmetry_equiv_pos_site_id
 _symmetry_equiv_pos_as_xyz
  1  'x, y, z'
loop_
 _atom_site_type_symbol
 _atom_site_label
 _atom_site_symmetry_multiplicity
 _atom_site_fract_x
 _atom_site_fract_y
 _atom_site_fract_z
 _atom_site_occupancy
  Nd  Nd0  1  0.590844  0.000203  0.500000  1
  Nd  Nd1  1  0.409156  0.409359  0.500000  1
  Nd  Nd2  1  0.000000  0.590938  0.500000  1
  Cd  Cd3  1  0.248315  0.997778  0.000000  1
  Cd  Cd4  1  0.751685  0.749462  0.000000  1
  In  In5  1  0.000000  0.249563  0.000000  1
  Rh  Rh6  1  0.000000  0.012766  0.500000  1
  Rh  Rh7  1  0.330290  0.660112  0.000000  1
  Rh  Rh8  1  0.669710  0.329821  0.000000  1
