# generated using pymatgen
data_YErInNi7B2
_symmetry_space_group_name_H-M   'P 1'
_cell_length_a   5.00680500
_cell_length_b   5.00680447
_cell_length_c   14.29406200
_cell_angle_alpha   90.00000000
_cell_angle_beta   90.00000000
_cell_angle_gamma   119.99999689
_symmetry_Int_Tables_number   1
_chemical_formula_structural   YErInNi7B2
_chemical_formula_sum   'Y2 Er2 In2 Ni14 B4'
_cell_volume   310.31846297
_cell_formula_units_Z   2
loop_
 _symmetry_equiv_pos_site_id
 _symmetry_equiv_pos_as_xyz
  1  'x, y, z'
loop_
 _atom_site_type_symbol
 _atom_site_label
 _atom_site_symmetry_multiplicity
 _atom_site_fract_x
 _atom_site_fract_y
 _atom_site_fract_z
 _atom_site_occupancy
  Y  Y0  1  0.666667  0.333333  0.531195  1
  Y  Y1  1  0.333333  0.666667  0.031195  1
  Er  Er2  1  0.666667  0.333333  0.755423  1
  Er  Er3  1  0.333333  0.666667  0.255423  1
  In  In4  1  0.333333  0.666667  0.469387  1
  In  In5  1  0.666667  0.333333  0.969387  1
  Ni  Ni6  1  0.834169  0.165831  0.351232  1
  Ni  Ni7  1  0.834169  0.668339  0.351232  1
  Ni  Ni8  1  0.000000  0.000000  0.998136  1
  Ni  Ni9  1  0.000000  0.000000  0.498136  1
  Ni  Ni10  1  0.833911  0.667824  0.148361  1
  Ni  Ni11  1  0.166089  0.833911  0.648361  1
  Ni  Ni12  1  0.667824  0.833911  0.648361  1
  Ni  Ni13  1  0.332176  0.166089  0.148361  1
  Ni  Ni14  1  0.833911  0.166089  0.148361  1
  Ni  Ni15  1  0.165831  0.331661  0.851232  1
  Ni  Ni16  1  0.165831  0.834169  0.851232  1
  Ni  Ni17  1  0.166089  0.332176  0.648361  1
  Ni  Ni18  1  0.668339  0.834169  0.851232  1
  Ni  Ni19  1  0.331661  0.165831  0.351232  1
  B  B20  1  0.666667  0.333333  0.249575  1
  B  B21  1  0.333333  0.666667  0.749575  1
  B  B22  1  0.000000  0.000000  0.747507  1
  B  B23  1  0.000000  0.000000  0.247507  1
