# generated using pymatgen
data_Y4Ga4IrPd3
_symmetry_space_group_name_H-M   'P 1'
_cell_length_a   4.46359600
_cell_length_b   6.92635401
_cell_length_c   7.67408787
_cell_angle_alpha   89.83645664
_cell_angle_beta   90.00000000
_cell_angle_gamma   90.00000000
_symmetry_Int_Tables_number   1
_chemical_formula_structural   Y4Ga4IrPd3
_chemical_formula_sum   'Y4 Ga4 Ir1 Pd3'
_cell_volume   237.25455696
_cell_formula_units_Z   1
loop_
 _symmetry_equiv_pos_site_id
 _symmetry_equiv_pos_as_xyz
  1  'x, y, z'
loop_
 _atom_site_type_symbol
 _atom_site_label
 _atom_site_symmetry_multiplicity
 _atom_site_fract_x
 _atom_site_fract_y
 _atom_site_fract_z
 _atom_site_occupancy
  Y  Y0  1  0.250000  0.989191  0.305558  1
  Y  Y1  1  0.250000  0.479407  0.198917  1
  Y  Y2  1  0.750000  0.023659  0.691376  1
  Y  Y3  1  0.750000  0.518988  0.804580  1
  Ga  Ga4  1  0.250000  0.328599  0.570995  1
  Ga  Ga5  1  0.250000  0.829305  0.929020  1
  Ga  Ga6  1  0.750000  0.663679  0.427532  1
  Ga  Ga7  1  0.750000  0.172701  0.074124  1
  Ir  Ir8  1  0.750000  0.274998  0.397396  1
  Pd  Pd9  1  0.250000  0.219816  0.897927  1
  Pd  Pd10  1  0.250000  0.720233  0.601987  1
  Pd  Pd11  1  0.750000  0.779421  0.100588  1
