# generated using pymatgen
data_DyY3Er6Cd3Ru
_symmetry_space_group_name_H-M   'P 1'
_cell_length_a   9.57715619
_cell_length_b   9.58019677
_cell_length_c   9.79083104
_cell_angle_alpha   90.00000145
_cell_angle_beta   90.00902211
_cell_angle_gamma   120.01049660
_symmetry_Int_Tables_number   1
_chemical_formula_structural   DyY3Er6Cd3Ru
_chemical_formula_sum   'Dy2 Y6 Er12 Cd6 Ru2'
_cell_volume   777.88470931
_cell_formula_units_Z   2
loop_
 _symmetry_equiv_pos_site_id
 _symmetry_equiv_pos_as_xyz
  1  'x, y, z'
loop_
 _atom_site_type_symbol
 _atom_site_label
 _atom_site_symmetry_multiplicity
 _atom_site_fract_x
 _atom_site_fract_y
 _atom_site_fract_z
 _atom_site_occupancy
  Dy  Dy0  1  0.209704  0.790580  0.440006  1
  Dy  Dy1  1  0.209704  0.419126  0.440006  1
  Y  Y2  1  0.540951  0.459289  0.249887  1
  Y  Y3  1  0.540951  0.081663  0.249887  1
  Y  Y4  1  0.918067  0.459034  0.249718  1
  Y  Y5  1  0.459418  0.540833  0.750208  1
  Y  Y6  1  0.459418  0.918584  0.750208  1
  Y  Y7  1  0.081301  0.540650  0.750359  1
  Er  Er8  1  0.999727  0.999864  0.500070  1
  Er  Er9  1  0.999988  0.999994  0.000108  1
  Er  Er10  1  0.581047  0.790524  0.440051  1
  Er  Er11  1  0.789927  0.209767  0.560149  1
  Er  Er12  1  0.789927  0.580158  0.560149  1
  Er  Er13  1  0.419943  0.209971  0.560194  1
  Er  Er14  1  0.790116  0.209880  0.939915  1
  Er  Er15  1  0.790116  0.580234  0.939915  1
  Er  Er16  1  0.419756  0.209877  0.939956  1
  Er  Er17  1  0.209857  0.790254  0.059838  1
  Er  Er18  1  0.209857  0.419605  0.059838  1
  Er  Er19  1  0.580242  0.790122  0.060061  1
  Cd  Cd20  1  0.885639  0.114225  0.249933  1
  Cd  Cd21  1  0.885639  0.771414  0.249933  1
  Cd  Cd22  1  0.228585  0.114293  0.249861  1
  Cd  Cd23  1  0.114239  0.885740  0.750157  1
  Cd  Cd24  1  0.114239  0.228499  0.750157  1
  Cd  Cd25  1  0.771389  0.885694  0.750049  1
  Ru  Ru26  1  0.333576  0.666788  0.249479  1
  Ru  Ru27  1  0.666678  0.333339  0.749906  1
