# generated using pymatgen
data_CaNdMgRuO6
_symmetry_space_group_name_H-M   'P 1'
_cell_length_a   5.47942719
_cell_length_b   5.66965300
_cell_length_c   7.82286456
_cell_angle_alpha   90.00000000
_cell_angle_beta   90.10312911
_cell_angle_gamma   90.00000000
_symmetry_Int_Tables_number   1
_chemical_formula_structural   CaNdMgRuO6
_chemical_formula_sum   'Ca2 Nd2 Mg2 Ru2 O12'
_cell_volume   243.02824324
_cell_formula_units_Z   2
loop_
 _symmetry_equiv_pos_site_id
 _symmetry_equiv_pos_as_xyz
  1  'x, y, z'
loop_
 _atom_site_type_symbol
 _atom_site_label
 _atom_site_symmetry_multiplicity
 _atom_site_fract_x
 _atom_site_fract_y
 _atom_site_fract_z
 _atom_site_occupancy
  Ca  Ca0  1  0.485886  0.555726  0.249326  1
  Ca  Ca1  1  0.985886  0.944274  0.749326  1
  Nd  Nd2  1  0.014860  0.057033  0.251282  1
  Nd  Nd3  1  0.514860  0.442967  0.751282  1
  Mg  Mg4  1  0.000647  0.503581  0.499806  1
  Mg  Mg5  1  0.500647  0.996419  0.999806  1
  Ru  Ru6  1  0.000233  0.502619  0.000611  1
  Ru  Ru7  1  0.500233  0.997381  0.500611  1
  O  O8  1  0.094844  0.530168  0.756258  1
  O  O9  1  0.195226  0.788897  0.051709  1
  O  O10  1  0.210202  0.800822  0.451704  1
  O  O11  1  0.289177  0.300754  0.047667  1
  O  O12  1  0.302940  0.285330  0.448263  1
  O  O13  1  0.405986  0.028817  0.743373  1
  O  O14  1  0.594844  0.969832  0.256258  1
  O  O15  1  0.695226  0.711103  0.551709  1
  O  O16  1  0.710202  0.699178  0.951704  1
  O  O17  1  0.789177  0.199246  0.547667  1
  O  O18  1  0.802940  0.214670  0.948263  1
  O  O19  1  0.905986  0.471183  0.243373  1
