# generated using pymatgen
data_YbHo3VOs7
_symmetry_space_group_name_H-M   'P 1'
_cell_length_a   5.38199200
_cell_length_b   5.38199081
_cell_length_c   8.56201400
_cell_angle_alpha   90.00000000
_cell_angle_beta   90.00000000
_cell_angle_gamma   119.99999501
_symmetry_Int_Tables_number   1
_chemical_formula_structural   YbHo3VOs7
_chemical_formula_sum   'Yb1 Ho3 V1 Os7'
_cell_volume   214.77938130
_cell_formula_units_Z   1
loop_
 _symmetry_equiv_pos_site_id
 _symmetry_equiv_pos_as_xyz
  1  'x, y, z'
loop_
 _atom_site_type_symbol
 _atom_site_label
 _atom_site_symmetry_multiplicity
 _atom_site_fract_x
 _atom_site_fract_y
 _atom_site_fract_z
 _atom_site_occupancy
  Yb  Yb0  1  0.333333  0.666667  0.061561  1
  Ho  Ho1  1  0.333333  0.666667  0.424630  1
  Ho  Ho2  1  0.666667  0.333333  0.569344  1
  Ho  Ho3  1  0.666667  0.333333  0.941411  1
  V  V4  1  0.000000  0.000000  0.504107  1
  Os  Os5  1  0.000000  0.000000  0.999052  1
  Os  Os6  1  0.828892  0.171108  0.254603  1
  Os  Os7  1  0.828892  0.657783  0.254603  1
  Os  Os8  1  0.342217  0.171108  0.254603  1
  Os  Os9  1  0.172549  0.827451  0.745361  1
  Os  Os10  1  0.172549  0.345096  0.745361  1
  Os  Os11  1  0.654904  0.827451  0.745361  1
