# generated using pymatgen
data_Hf18Ti2Re6PdSe
_symmetry_space_group_name_H-M   'P 1'
_cell_length_a   8.70429500
_cell_length_b   8.70440624
_cell_length_c   8.53226000
_cell_angle_alpha   90.00000000
_cell_angle_beta   90.00000000
_cell_angle_gamma   119.99894587
_symmetry_Int_Tables_number   1
_chemical_formula_structural   Hf18Ti2Re6PdSe
_chemical_formula_sum   'Hf18 Ti2 Re6 Pd1 Se1'
_cell_volume   559.85051085
_cell_formula_units_Z   1
loop_
 _symmetry_equiv_pos_site_id
 _symmetry_equiv_pos_as_xyz
  1  'x, y, z'
loop_
 _atom_site_type_symbol
 _atom_site_label
 _atom_site_symmetry_multiplicity
 _atom_site_fract_x
 _atom_site_fract_y
 _atom_site_fract_z
 _atom_site_occupancy
  Hf  Hf0  1  0.194475  0.805528  0.446122  1
  Hf  Hf1  1  0.194469  0.388942  0.446122  1
  Hf  Hf2  1  0.611055  0.805530  0.446117  1
  Hf  Hf3  1  0.807563  0.192440  0.548534  1
  Hf  Hf4  1  0.807562  0.615124  0.548530  1
  Hf  Hf5  1  0.384864  0.192435  0.548536  1
  Hf  Hf6  1  0.807563  0.192440  0.951466  1
  Hf  Hf7  1  0.807562  0.615124  0.951470  1
  Hf  Hf8  1  0.384864  0.192435  0.951464  1
  Hf  Hf9  1  0.194475  0.805528  0.053878  1
  Hf  Hf10  1  0.194469  0.388942  0.053878  1
  Hf  Hf11  1  0.611055  0.805530  0.053883  1
  Hf  Hf12  1  0.543304  0.456697  0.250000  1
  Hf  Hf13  1  0.543302  0.086609  0.250000  1
  Hf  Hf14  1  0.913395  0.456700  0.250000  1
  Hf  Hf15  1  0.454619  0.545373  0.750000  1
  Hf  Hf16  1  0.454622  0.909232  0.750000  1
  Hf  Hf17  1  0.090764  0.545382  0.750000  1
  Ti  Ti18  1  0.000005  0.000007  0.500690  1
  Ti  Ti19  1  0.000005  0.000007  0.999310  1
  Re  Re20  1  0.887208  0.112791  0.250000  1
  Re  Re21  1  0.887208  0.774397  0.250000  1
  Re  Re22  1  0.225594  0.112791  0.250000  1
  Re  Re23  1  0.112045  0.887980  0.750000  1
  Re  Re24  1  0.112058  0.224082  0.750000  1
  Re  Re25  1  0.775901  0.887954  0.750000  1
  Pd  Pd26  1  0.333331  0.666668  0.250000  1
  Se  Se27  1  0.666658  0.333333  0.750000  1
