# generated using pymatgen
data_LiLaDy15Cd3Ni4
_symmetry_space_group_name_H-M   'P 1'
_cell_length_a   9.57091031
_cell_length_b   9.57090996
_cell_length_c   9.57091007
_cell_angle_alpha   59.97552990
_cell_angle_beta   59.97552955
_cell_angle_gamma   59.97553246
_symmetry_Int_Tables_number   1
_chemical_formula_structural   LiLaDy15Cd3Ni4
_chemical_formula_sum   'Li1 La1 Dy15 Cd3 Ni4'
_cell_volume   619.58896199
_cell_formula_units_Z   1
loop_
 _symmetry_equiv_pos_site_id
 _symmetry_equiv_pos_as_xyz
  1  'x, y, z'
loop_
 _atom_site_type_symbol
 _atom_site_label
 _atom_site_symmetry_multiplicity
 _atom_site_fract_x
 _atom_site_fract_y
 _atom_site_fract_z
 _atom_site_occupancy
  Li  Li0  1  0.821523  0.821523  0.821523  1
  La  La1  1  0.596886  0.596886  0.596886  1
  Dy  Dy2  1  0.598203  0.598203  0.202494  1
  Dy  Dy3  1  0.598203  0.202494  0.598203  1
  Dy  Dy4  1  0.202494  0.598203  0.598203  1
  Dy  Dy5  1  0.064368  0.439599  0.439599  1
  Dy  Dy6  1  0.437398  0.064194  0.064194  1
  Dy  Dy7  1  0.439599  0.064368  0.439599  1
  Dy  Dy8  1  0.064194  0.437398  0.064194  1
  Dy  Dy9  1  0.439599  0.439599  0.064368  1
  Dy  Dy10  1  0.064194  0.064194  0.437398  1
  Dy  Dy11  1  0.185077  0.815343  0.815343  1
  Dy  Dy12  1  0.814201  0.186532  0.186532  1
  Dy  Dy13  1  0.815343  0.185077  0.815343  1
  Dy  Dy14  1  0.186532  0.814201  0.186532  1
  Dy  Dy15  1  0.815343  0.815343  0.185077  1
  Dy  Dy16  1  0.186532  0.186532  0.814201  1
  Cd  Cd17  1  0.833635  0.833635  0.505239  1
  Cd  Cd18  1  0.833635  0.505239  0.833635  1
  Cd  Cd19  1  0.505239  0.833635  0.833635  1
  Ni  Ni20  1  0.393582  0.393582  0.393582  1
  Ni  Ni21  1  0.389739  0.389739  0.824747  1
  Ni  Ni22  1  0.389739  0.824747  0.389739  1
  Ni  Ni23  1  0.824747  0.389739  0.389739  1
