# generated using pymatgen
data_Er20Ir3Os4Pd5
_symmetry_space_group_name_H-M   'P 1'
_cell_length_a   10.87878158
_cell_length_b   10.87878158
_cell_length_c   6.38369504
_cell_angle_alpha   90.00947577
_cell_angle_beta   90.00947577
_cell_angle_gamma   89.49523305
_symmetry_Int_Tables_number   1
_chemical_formula_structural   Er20Ir3Os4Pd5
_chemical_formula_sum   'Er20 Ir3 Os4 Pd5'
_cell_volume   755.46749153
_cell_formula_units_Z   1
loop_
 _symmetry_equiv_pos_site_id
 _symmetry_equiv_pos_as_xyz
  1  'x, y, z'
loop_
 _atom_site_type_symbol
 _atom_site_label
 _atom_site_symmetry_multiplicity
 _atom_site_fract_x
 _atom_site_fract_y
 _atom_site_fract_z
 _atom_site_occupancy
  Er  Er0  1  0.298077  0.088832  0.371170  1
  Er  Er1  1  0.298995  0.910602  0.869904  1
  Er  Er2  1  0.700886  0.083220  0.870060  1
  Er  Er3  1  0.701370  0.910093  0.370077  1
  Er  Er4  1  0.582399  0.791349  0.876506  1
  Er  Er5  1  0.580121  0.204552  0.370206  1
  Er  Er6  1  0.417497  0.793439  0.375445  1
  Er  Er7  1  0.413039  0.205297  0.878455  1
  Er  Er8  1  0.208651  0.417601  0.623494  1
  Er  Er9  1  0.206561  0.582503  0.124555  1
  Er  Er10  1  0.795448  0.419879  0.129794  1
  Er  Er11  1  0.794703  0.586961  0.621545  1
  Er  Er12  1  0.911168  0.701923  0.128830  1
  Er  Er13  1  0.916780  0.299114  0.629940  1
  Er  Er14  1  0.089398  0.701005  0.630096  1
  Er  Er15  1  0.089907  0.298630  0.129923  1
  Er  Er16  1  0.999594  0.999689  0.499306  1
  Er  Er17  1  0.000311  0.000406  0.000694  1
  Er  Er18  1  0.497499  0.501987  0.001249  1
  Er  Er19  1  0.498013  0.502501  0.498751  1
  Ir  Ir20  1  0.652734  0.651757  0.250149  1
  Ir  Ir21  1  0.348243  0.347266  0.249851  1
  Ir  Ir22  1  0.346724  0.653276  0.750000  1
  Os  Os23  1  0.500049  0.000165  0.122891  1
  Os  Os24  1  0.499986  0.000246  0.623789  1
  Os  Os25  1  0.999754  0.500014  0.876211  1
  Os  Os26  1  0.999835  0.499951  0.377109  1
  Pd  Pd27  1  0.846526  0.153474  0.250000  1
  Pd  Pd28  1  0.847521  0.848130  0.750384  1
  Pd  Pd29  1  0.151870  0.152479  0.749616  1
  Pd  Pd30  1  0.152685  0.847315  0.250000  1
  Pd  Pd31  1  0.653656  0.346344  0.750000  1
