# generated using pymatgen
data_Ca17Th3Pt16
_symmetry_space_group_name_H-M   'P 1'
_cell_length_a   7.57854413
_cell_length_b   7.69041481
_cell_length_c   14.88009300
_cell_angle_alpha   90.13093142
_cell_angle_beta   89.98937783
_cell_angle_gamma   89.82294563
_symmetry_Int_Tables_number   1
_chemical_formula_structural   Ca17Th3Pt16
_chemical_formula_sum   'Ca17 Th3 Pt16'
_cell_volume   867.23736140
_cell_formula_units_Z   1
loop_
 _symmetry_equiv_pos_site_id
 _symmetry_equiv_pos_as_xyz
  1  'x, y, z'
loop_
 _atom_site_type_symbol
 _atom_site_label
 _atom_site_symmetry_multiplicity
 _atom_site_fract_x
 _atom_site_fract_y
 _atom_site_fract_z
 _atom_site_occupancy
  Ca  Ca0  1  0.163871  0.332936  0.123376  1
  Ca  Ca1  1  0.662766  0.169894  0.120024  1
  Ca  Ca2  1  0.160537  0.332479  0.379564  1
  Ca  Ca3  1  0.340169  0.831086  0.619417  1
  Ca  Ca4  1  0.837697  0.671460  0.879604  1
  Ca  Ca5  1  0.497603  0.325706  0.905792  1
  Ca  Ca6  1  0.999321  0.176219  0.595970  1
  Ca  Ca7  1  0.501230  0.676463  0.401123  1
  Ca  Ca8  1  0.003338  0.819069  0.096290  1
  Ca  Ca9  1  0.504172  0.678024  0.096818  1
  Ca  Ca10  1  0.010576  0.817768  0.402284  1
  Ca  Ca11  1  0.491824  0.316539  0.596098  1
  Ca  Ca12  1  0.993707  0.186329  0.908013  1
  Ca  Ca13  1  0.178137  0.484295  0.750820  1
  Ca  Ca14  1  0.678619  0.018001  0.750905  1
  Ca  Ca15  1  0.830745  0.511866  0.246462  1
  Ca  Ca16  1  0.317248  0.989476  0.247065  1
  Th  Th17  1  0.335026  0.836003  0.876894  1
  Th  Th18  1  0.836775  0.663109  0.624014  1
  Th  Th19  1  0.661257  0.163486  0.375022  1
  Pt  Pt20  1  0.317300  0.028376  0.036884  1
  Pt  Pt21  1  0.811697  0.457664  0.463052  1
  Pt  Pt22  1  0.689975  0.958556  0.537771  1
  Pt  Pt23  1  0.178436  0.545097  0.959789  1
  Pt  Pt24  1  0.658143  0.971787  0.954649  1
  Pt  Pt25  1  0.154717  0.531973  0.545189  1
  Pt  Pt26  1  0.345491  0.034860  0.455603  1
  Pt  Pt27  1  0.839584  0.472727  0.041352  1
  Pt  Pt28  1  0.539934  0.624174  0.752364  1
  Pt  Pt29  1  0.040672  0.876713  0.746079  1
  Pt  Pt30  1  0.463654  0.379770  0.255115  1
  Pt  Pt31  1  0.952149  0.118140  0.254050  1
  Pt  Pt32  1  0.299813  0.128307  0.754760  1
  Pt  Pt33  1  0.801981  0.372744  0.745718  1
  Pt  Pt34  1  0.694044  0.867114  0.251727  1
  Pt  Pt35  1  0.207793  0.631790  0.250345  1
