# generated using pymatgen
data_Tm20Ir7OsRh4
_symmetry_space_group_name_H-M   'P 1'
_cell_length_a   10.71159100
_cell_length_b   10.70915219
_cell_length_c   6.33745900
_cell_angle_alpha   89.99980777
_cell_angle_beta   89.99870896
_cell_angle_gamma   89.92851648
_symmetry_Int_Tables_number   1
_chemical_formula_structural   Tm20Ir7OsRh4
_chemical_formula_sum   'Tm20 Ir7 Os1 Rh4'
_cell_volume   726.98240029
_cell_formula_units_Z   1
loop_
 _symmetry_equiv_pos_site_id
 _symmetry_equiv_pos_as_xyz
  1  'x, y, z'
loop_
 _atom_site_type_symbol
 _atom_site_label
 _atom_site_symmetry_multiplicity
 _atom_site_fract_x
 _atom_site_fract_y
 _atom_site_fract_z
 _atom_site_occupancy
  Tm  Tm0  1  0.292034  0.087178  0.375822  1
  Tm  Tm1  1  0.292828  0.912896  0.879921  1
  Tm  Tm2  1  0.706725  0.086773  0.879660  1
  Tm  Tm3  1  0.707156  0.910989  0.376003  1
  Tm  Tm4  1  0.587116  0.792581  0.880444  1
  Tm  Tm5  1  0.585959  0.207953  0.375374  1
  Tm  Tm6  1  0.412401  0.792219  0.375538  1
  Tm  Tm7  1  0.412674  0.207198  0.880052  1
  Tm  Tm8  1  0.209877  0.411815  0.621517  1
  Tm  Tm9  1  0.209620  0.588314  0.121410  1
  Tm  Tm10  1  0.790213  0.413424  0.121600  1
  Tm  Tm11  1  0.790359  0.588422  0.621895  1
  Tm  Tm12  1  0.912121  0.709795  0.121153  1
  Tm  Tm13  1  0.912155  0.290899  0.622425  1
  Tm  Tm14  1  0.088207  0.709660  0.622074  1
  Tm  Tm15  1  0.089799  0.291121  0.120907  1
  Tm  Tm16  1  0.999950  0.999807  0.499512  1
  Tm  Tm17  1  0.000208  0.000083  0.999662  1
  Tm  Tm18  1  0.499902  0.499718  0.999454  1
  Tm  Tm19  1  0.500280  0.500056  0.499824  1
  Ir  Ir20  1  0.847251  0.846499  0.750120  1
  Ir  Ir21  1  0.151918  0.154295  0.750019  1
  Ir  Ir22  1  0.152715  0.845581  0.250614  1
  Ir  Ir23  1  0.654937  0.346632  0.750125  1
  Ir  Ir24  1  0.654549  0.652402  0.250420  1
  Ir  Ir25  1  0.345843  0.347146  0.250934  1
  Ir  Ir26  1  0.345793  0.652703  0.750070  1
  Os  Os27  1  0.500364  0.000174  0.126102  1
  Rh  Rh28  1  0.846983  0.154432  0.250579  1
  Rh  Rh29  1  0.500456  0.000206  0.623548  1
  Rh  Rh30  1  0.999817  0.499564  0.876882  1
  Rh  Rh31  1  0.999789  0.499465  0.376341  1
