# generated using pymatgen
data_Pa3Co7B2
_symmetry_space_group_name_H-M   'P 1'
_cell_length_a   5.02141100
_cell_length_b   5.02158580
_cell_length_c   14.23320100
_cell_angle_alpha   90.00000000
_cell_angle_beta   90.00000000
_cell_angle_gamma   120.00161733
_symmetry_Int_Tables_number   1
_chemical_formula_structural   Pa3Co7B2
_chemical_formula_sum   'Pa6 Co14 B4'
_cell_volume   310.80843287
_cell_formula_units_Z   2
loop_
 _symmetry_equiv_pos_site_id
 _symmetry_equiv_pos_as_xyz
  1  'x, y, z'
loop_
 _atom_site_type_symbol
 _atom_site_label
 _atom_site_symmetry_multiplicity
 _atom_site_fract_x
 _atom_site_fract_y
 _atom_site_fract_z
 _atom_site_occupancy
  Pa  Pa0  1  0.333300  0.666643  0.029030  1
  Pa  Pa1  1  0.333340  0.666671  0.250000  1
  Pa  Pa2  1  0.333300  0.666643  0.470970  1
  Pa  Pa3  1  0.666667  0.333358  0.529031  1
  Pa  Pa4  1  0.666662  0.333328  0.750000  1
  Pa  Pa5  1  0.666667  0.333358  0.970969  1
  Co  Co6  1  0.999998  0.999985  0.000004  1
  Co  Co7  1  0.834894  0.669788  0.147241  1
  Co  Co8  1  0.330152  0.165065  0.147252  1
  Co  Co9  1  0.834911  0.165067  0.147254  1
  Co  Co10  1  0.330152  0.165065  0.352748  1
  Co  Co11  1  0.834911  0.165067  0.352746  1
  Co  Co12  1  0.834894  0.669788  0.352759  1
  Co  Co13  1  0.999998  0.999985  0.499996  1
  Co  Co14  1  0.165101  0.330200  0.647230  1
  Co  Co15  1  0.165088  0.834933  0.647240  1
  Co  Co16  1  0.669877  0.834950  0.647231  1
  Co  Co17  1  0.165088  0.834933  0.852760  1
  Co  Co18  1  0.669877  0.834950  0.852769  1
  Co  Co19  1  0.165101  0.330200  0.852770  1
  B  B20  1  0.999993  0.999953  0.250000  1
  B  B21  1  0.666701  0.333401  0.250000  1
  B  B22  1  0.000066  0.000076  0.750000  1
  B  B23  1  0.333262  0.666592  0.750000  1
