# generated using pymatgen
data_Ca2DyY(ReB4)4
_symmetry_space_group_name_H-M   'P 1'
_cell_length_a   3.60611300
_cell_length_b   5.99232022
_cell_length_c   11.59365917
_cell_angle_alpha   90.01019052
_cell_angle_beta   90.00000000
_cell_angle_gamma   90.00000000
_symmetry_Int_Tables_number   1
_chemical_formula_structural   Ca2DyY(ReB4)4
_chemical_formula_sum   'Ca2 Dy1 Y1 Re4 B16'
_cell_volume   250.52718974
_cell_formula_units_Z   1
loop_
 _symmetry_equiv_pos_site_id
 _symmetry_equiv_pos_as_xyz
  1  'x, y, z'
loop_
 _atom_site_type_symbol
 _atom_site_label
 _atom_site_symmetry_multiplicity
 _atom_site_fract_x
 _atom_site_fract_y
 _atom_site_fract_z
 _atom_site_occupancy
  Ca  Ca0  1  0.000000  0.372813  0.650294  1
  Ca  Ca1  1  0.000000  0.127021  0.150270  1
  Dy  Dy2  1  0.000000  0.872525  0.849638  1
  Y  Y3  1  0.000000  0.627493  0.349663  1
  Re  Re4  1  0.000000  0.631694  0.084518  1
  Re  Re5  1  0.000000  0.368985  0.914995  1
  Re  Re6  1  0.000000  0.130931  0.415230  1
  Re  Re7  1  0.000000  0.868626  0.584608  1
  B  B8  1  0.500000  0.784960  0.184570  1
  B  B9  1  0.500000  0.214368  0.815639  1
  B  B10  1  0.500000  0.285407  0.315645  1
  B  B11  1  0.500000  0.715222  0.684780  1
  B  B12  1  0.500000  0.863664  0.031592  1
  B  B13  1  0.500000  0.136234  0.967972  1
  B  B14  1  0.500000  0.363667  0.468189  1
  B  B15  1  0.500000  0.636295  0.531866  1
  B  B16  1  0.500000  0.887130  0.452936  1
  B  B17  1  0.500000  0.114504  0.547700  1
  B  B18  1  0.500000  0.385443  0.047532  1
  B  B19  1  0.500000  0.612971  0.952796  1
  B  B20  1  0.500000  0.976875  0.307818  1
  B  B21  1  0.500000  0.022488  0.692047  1
  B  B22  1  0.500000  0.477319  0.191871  1
  B  B23  1  0.500000  0.523365  0.807836  1
