# generated using pymatgen
data_NdGd2In3O9
_symmetry_space_group_name_H-M   'P 1'
_cell_length_a   6.46498700
_cell_length_b   6.46498764
_cell_length_c   12.48674500
_cell_angle_alpha   90.00000000
_cell_angle_beta   90.00000000
_cell_angle_gamma   119.99999163
_symmetry_Int_Tables_number   1
_chemical_formula_structural   NdGd2In3O9
_chemical_formula_sum   'Nd2 Gd4 In6 O18'
_cell_volume   451.97588694
_cell_formula_units_Z   2
loop_
 _symmetry_equiv_pos_site_id
 _symmetry_equiv_pos_as_xyz
  1  'x, y, z'
loop_
 _atom_site_type_symbol
 _atom_site_label
 _atom_site_symmetry_multiplicity
 _atom_site_fract_x
 _atom_site_fract_y
 _atom_site_fract_z
 _atom_site_occupancy
  Nd  Nd0  1  0.666667  0.333333  0.961198  1
  Nd  Nd1  1  0.333333  0.666667  0.461198  1
  Gd  Gd2  1  0.666667  0.333333  0.461776  1
  Gd  Gd3  1  0.333333  0.666667  0.961776  1
  Gd  Gd4  1  0.000000  0.000000  0.997119  1
  Gd  Gd5  1  0.000000  0.000000  0.497119  1
  In  In6  1  0.667462  0.667952  0.726673  1
  In  In7  1  0.000490  0.332538  0.726673  1
  In  In8  1  0.332538  0.332048  0.226673  1
  In  In9  1  0.999510  0.667462  0.226673  1
  In  In10  1  0.332048  0.999510  0.726673  1
  In  In11  1  0.667952  0.000490  0.226673  1
  O  O12  1  0.692220  0.698683  0.896726  1
  O  O13  1  0.006464  0.307780  0.896726  1
  O  O14  1  0.307780  0.301317  0.396726  1
  O  O15  1  0.993536  0.692220  0.396726  1
  O  O16  1  0.301317  0.993536  0.896726  1
  O  O17  1  0.698683  0.006464  0.396726  1
  O  O18  1  0.645546  0.639822  0.558024  1
  O  O19  1  0.994276  0.354454  0.558024  1
  O  O20  1  0.354454  0.360178  0.058024  1
  O  O21  1  0.005724  0.645546  0.058024  1
  O  O22  1  0.360178  0.005724  0.558024  1
  O  O23  1  0.639822  0.994276  0.058024  1
  O  O24  1  0.000000  0.000000  0.696591  1
  O  O25  1  0.000000  0.000000  0.196591  1
  O  O26  1  0.666667  0.333333  0.753840  1
  O  O27  1  0.333333  0.666667  0.253840  1
  O  O28  1  0.666667  0.333333  0.251100  1
  O  O29  1  0.333333  0.666667  0.751100  1
