# generated using pymatgen
data_Ho3Sc3Al6PtAu5
_symmetry_space_group_name_H-M   'P 1'
_cell_length_a   7.23128700
_cell_length_b   7.23128877
_cell_length_c   7.84129500
_cell_angle_alpha   90.00000000
_cell_angle_beta   90.00000000
_cell_angle_gamma   119.99999647
_symmetry_Int_Tables_number   1
_chemical_formula_structural   Ho3Sc3Al6PtAu5
_chemical_formula_sum   'Ho3 Sc3 Al6 Pt1 Au5'
_cell_volume   355.09924036
_cell_formula_units_Z   1
loop_
 _symmetry_equiv_pos_site_id
 _symmetry_equiv_pos_as_xyz
  1  'x, y, z'
loop_
 _atom_site_type_symbol
 _atom_site_label
 _atom_site_symmetry_multiplicity
 _atom_site_fract_x
 _atom_site_fract_y
 _atom_site_fract_z
 _atom_site_occupancy
  Ho  Ho0  1  0.580221  0.993683  0.750000  1
  Ho  Ho1  1  0.006317  0.586539  0.750000  1
  Ho  Ho2  1  0.413461  0.419779  0.750000  1
  Sc  Sc3  1  0.991324  0.594507  0.250000  1
  Sc  Sc4  1  0.603183  0.008676  0.250000  1
  Sc  Sc5  1  0.405493  0.396817  0.250000  1
  Al  Al6  1  0.751538  0.752825  0.014381  1
  Al  Al7  1  0.247175  0.998713  0.014381  1
  Al  Al8  1  0.001287  0.248462  0.014381  1
  Al  Al9  1  0.751538  0.752825  0.485619  1
  Al  Al10  1  0.247175  0.998713  0.485619  1
  Al  Al11  1  0.001287  0.248462  0.485619  1
  Pt  Pt12  1  0.000000  0.000000  0.250000  1
  Au  Au13  1  0.000000  0.000000  0.750000  1
  Au  Au14  1  0.666667  0.333333  0.011010  1
  Au  Au15  1  0.666667  0.333333  0.488990  1
  Au  Au16  1  0.333333  0.666667  0.470018  1
  Au  Au17  1  0.333333  0.666667  0.029982  1
