# generated using pymatgen
data_Y7Ho3(Bi2Ru)2
_symmetry_space_group_name_H-M   'P 1'
_cell_length_a   7.99053181
_cell_length_b   9.01128089
_cell_length_c   12.49865810
_cell_angle_alpha   89.99327270
_cell_angle_beta   89.98757891
_cell_angle_gamma   90.05020379
_symmetry_Int_Tables_number   1
_chemical_formula_structural   Y7Ho3(Bi2Ru)2
_chemical_formula_sum   'Y14 Ho6 Bi8 Ru4'
_cell_volume   899.96458535
_cell_formula_units_Z   2
loop_
 _symmetry_equiv_pos_site_id
 _symmetry_equiv_pos_as_xyz
  1  'x, y, z'
loop_
 _atom_site_type_symbol
 _atom_site_label
 _atom_site_symmetry_multiplicity
 _atom_site_fract_x
 _atom_site_fract_y
 _atom_site_fract_z
 _atom_site_occupancy
  Y  Y0  1  0.840898  0.749996  0.791784  1
  Y  Y1  1  0.159102  0.250004  0.208216  1
  Y  Y2  1  0.340749  0.250576  0.708264  1
  Y  Y3  1  0.659251  0.749424  0.291736  1
  Y  Y4  1  0.374567  0.749217  0.691961  1
  Y  Y5  1  0.625433  0.250783  0.308039  1
  Y  Y6  1  0.874337  0.249958  0.808015  1
  Y  Y7  1  0.125663  0.750042  0.191985  1
  Y  Y8  1  0.946545  0.748488  0.503889  1
  Y  Y9  1  0.053455  0.251512  0.496111  1
  Y  Y10  1  0.446259  0.250053  0.996078  1
  Y  Y11  1  0.553741  0.749947  0.003922  1
  Y  Y12  1  0.674976  0.041670  0.565323  1
  Y  Y13  1  0.325024  0.958330  0.434677  1
  Ho  Ho14  1  0.173316  0.958170  0.935582  1
  Ho  Ho15  1  0.326576  0.542030  0.435274  1
  Ho  Ho16  1  0.826684  0.041830  0.064418  1
  Ho  Ho17  1  0.673424  0.457970  0.564726  1
  Ho  Ho18  1  0.826691  0.458094  0.064366  1
  Ho  Ho19  1  0.173309  0.541906  0.935634  1
  Bi  Bi20  1  0.567847  0.493032  0.827755  1
  Bi  Bi21  1  0.432153  0.506968  0.172245  1
  Bi  Bi22  1  0.067759  0.506996  0.672886  1
  Bi  Bi23  1  0.432597  0.993156  0.172454  1
  Bi  Bi24  1  0.932241  0.493004  0.327114  1
  Bi  Bi25  1  0.567403  0.006844  0.827546  1
  Bi  Bi26  1  0.931640  0.006992  0.327798  1
  Bi  Bi27  1  0.068360  0.993008  0.672202  1
  Ru  Ru28  1  0.573640  0.747757  0.510196  1
  Ru  Ru29  1  0.426360  0.252243  0.489804  1
  Ru  Ru30  1  0.072674  0.249816  0.989946  1
  Ru  Ru31  1  0.927326  0.750184  0.010054  1
