# generated using pymatgen
data_LiGd(SO4)2
_symmetry_space_group_name_H-M   'P 1'
_cell_length_a   4.70250489
_cell_length_b   9.73341701
_cell_length_c   6.81777600
_cell_angle_alpha   90.00000000
_cell_angle_beta   90.00000000
_cell_angle_gamma   95.80101844
_symmetry_Int_Tables_number   1
_chemical_formula_structural   LiGd(SO4)2
_chemical_formula_sum   'Li2 Gd2 S4 O16'
_cell_volume   310.46134878
_cell_formula_units_Z   2
loop_
 _symmetry_equiv_pos_site_id
 _symmetry_equiv_pos_as_xyz
  1  'x, y, z'
loop_
 _atom_site_type_symbol
 _atom_site_label
 _atom_site_symmetry_multiplicity
 _atom_site_fract_x
 _atom_site_fract_y
 _atom_site_fract_z
 _atom_site_occupancy
  Li  Li0  1  0.368827  0.612928  0.249999  1
  Li  Li1  1  0.631173  0.387072  0.750000  1
  Gd  Gd2  1  0.343831  0.184224  0.249999  1
  Gd  Gd3  1  0.656169  0.815776  0.750000  1
  S  S4  1  0.819136  0.419922  0.249999  1
  S  S5  1  0.864710  0.929900  0.249999  1
  S  S6  1  0.135291  0.070100  0.750000  1
  S  S7  1  0.180864  0.580078  0.750000  1
  O  O8  1  0.743361  0.855955  0.075543  1
  O  O9  1  0.681197  0.345604  0.074812  1
  O  O10  1  0.790045  0.077798  0.249999  1
  O  O11  1  0.133260  0.404099  0.249999  1
  O  O12  1  0.776367  0.566712  0.249999  1
  O  O13  1  0.181079  0.939333  0.249999  1
  O  O14  1  0.681197  0.345604  0.425188  1
  O  O15  1  0.743361  0.855955  0.424458  1
  O  O16  1  0.256639  0.144045  0.575543  1
  O  O17  1  0.318803  0.654396  0.574812  1
  O  O18  1  0.818921  0.060667  0.750000  1
  O  O19  1  0.223633  0.433288  0.750000  1
  O  O20  1  0.866740  0.595901  0.750000  1
  O  O21  1  0.209955  0.922202  0.750000  1
  O  O22  1  0.318803  0.654396  0.925188  1
  O  O23  1  0.256639  0.144045  0.924456  1
