# generated using pymatgen
data_TbEr3Cr3Fe(WO6)4
_symmetry_space_group_name_H-M   'P 1'
_cell_length_a   5.21166476
_cell_length_b   7.42287649
_cell_length_c   11.09670700
_cell_angle_alpha   89.94195453
_cell_angle_beta   89.95285876
_cell_angle_gamma   89.97542959
_symmetry_Int_Tables_number   1
_chemical_formula_structural   TbEr3Cr3Fe(WO6)4
_chemical_formula_sum   'Tb1 Er3 Cr3 Fe1 W4 O24'
_cell_volume   429.28174028
_cell_formula_units_Z   1
loop_
 _symmetry_equiv_pos_site_id
 _symmetry_equiv_pos_as_xyz
  1  'x, y, z'
loop_
 _atom_site_type_symbol
 _atom_site_label
 _atom_site_symmetry_multiplicity
 _atom_site_fract_x
 _atom_site_fract_y
 _atom_site_fract_z
 _atom_site_occupancy
  Tb  Tb0  1  0.044302  0.754240  0.955737  1
  Er  Er1  1  0.952073  0.252569  0.046525  1
  Er  Er2  1  0.452906  0.753965  0.454134  1
  Er  Er3  1  0.546341  0.254594  0.544671  1
  Cr  Cr4  1  0.448849  0.505096  0.134524  1
  Cr  Cr5  1  0.949662  0.006352  0.365303  1
  Cr  Cr6  1  0.051080  0.505548  0.633769  1
  Fe  Fe7  1  0.544295  0.009463  0.862210  1
  W  W8  1  0.444741  0.998469  0.143885  1
  W  W9  1  0.942116  0.498619  0.356791  1
  W  W10  1  0.055401  0.997920  0.641878  1
  W  W11  1  0.557566  0.497435  0.856569  1
  O  O12  1  0.743857  0.542035  0.021003  1
  O  O13  1  0.736686  0.960825  0.029040  1
  O  O14  1  0.324264  0.755668  0.117338  1
  O  O15  1  0.568348  0.246352  0.144277  1
  O  O16  1  0.121773  0.071069  0.207838  1
  O  O17  1  0.109402  0.436421  0.213497  1
  O  O18  1  0.609881  0.936536  0.288079  1
  O  O19  1  0.621384  0.571046  0.292664  1
  O  O20  1  0.068280  0.745713  0.357264  1
  O  O21  1  0.820406  0.255769  0.384402  1
  O  O22  1  0.235782  0.458633  0.474027  1
  O  O23  1  0.245899  0.044625  0.478688  1
  O  O24  1  0.754174  0.544878  0.520786  1
  O  O25  1  0.764258  0.958422  0.525769  1
  O  O26  1  0.180237  0.755619  0.615507  1
  O  O27  1  0.931222  0.245485  0.642274  1
  O  O28  1  0.377905  0.072068  0.705912  1
  O  O29  1  0.389154  0.435504  0.713481  1
  O  O30  1  0.890946  0.936381  0.785992  1
  O  O31  1  0.877757  0.569061  0.791212  1
  O  O32  1  0.436963  0.745745  0.856809  1
  O  O33  1  0.681768  0.255074  0.883635  1
  O  O34  1  0.265497  0.456919  0.974276  1
  O  O35  1  0.254830  0.046293  0.980237  1
