# generated using pymatgen
data_LiTc(NiP)2
_symmetry_space_group_name_H-M   'P 1'
_cell_length_a   3.64492500
_cell_length_b   5.76297900
_cell_length_c   6.84566200
_cell_angle_alpha   90.00000000
_cell_angle_beta   90.00000000
_cell_angle_gamma   90.00000000
_symmetry_Int_Tables_number   1
_chemical_formula_structural   LiTc(NiP)2
_chemical_formula_sum   'Li2 Tc2 Ni4 P4'
_cell_volume   143.79741728
_cell_formula_units_Z   2
loop_
 _symmetry_equiv_pos_site_id
 _symmetry_equiv_pos_as_xyz
  1  'x, y, z'
loop_
 _atom_site_type_symbol
 _atom_site_label
 _atom_site_symmetry_multiplicity
 _atom_site_fract_x
 _atom_site_fract_y
 _atom_site_fract_z
 _atom_site_occupancy
  Li  Li0  1  0.750000  0.469319  0.679219  1
  Li  Li1  1  0.750000  0.969319  0.820781  1
  Tc  Tc2  1  0.250000  0.528773  0.323761  1
  Tc  Tc3  1  0.250000  0.028773  0.176239  1
  Ni  Ni4  1  0.750000  0.356287  0.056018  1
  Ni  Ni5  1  0.750000  0.856287  0.443982  1
  Ni  Ni6  1  0.250000  0.646460  0.933536  1
  Ni  Ni7  1  0.250000  0.146460  0.566464  1
  P  P8  1  0.750000  0.740158  0.125675  1
  P  P9  1  0.750000  0.240158  0.374325  1
  P  P10  1  0.250000  0.259001  0.881523  1
  P  P11  1  0.250000  0.759001  0.618477  1
