# generated using pymatgen
data_Sc8Cr9Re3Si15Ge
_symmetry_space_group_name_H-M   'P 1'
_cell_length_a   6.56478281
_cell_length_b   6.56007876
_cell_length_c   12.12689595
_cell_angle_alpha   90.02568561
_cell_angle_beta   90.01754870
_cell_angle_gamma   90.31619089
_symmetry_Int_Tables_number   1
_chemical_formula_structural   Sc8Cr9Re3Si15Ge
_chemical_formula_sum   'Sc8 Cr9 Re3 Si15 Ge1'
_cell_volume   522.24271389
_cell_formula_units_Z   1
loop_
 _symmetry_equiv_pos_site_id
 _symmetry_equiv_pos_as_xyz
  1  'x, y, z'
loop_
 _atom_site_type_symbol
 _atom_site_label
 _atom_site_symmetry_multiplicity
 _atom_site_fract_x
 _atom_site_fract_y
 _atom_site_fract_z
 _atom_site_occupancy
  Sc  Sc0  1  0.004057  0.664228  0.028972  1
  Sc  Sc1  1  0.997267  0.332930  0.530407  1
  Sc  Sc2  1  0.336305  0.996469  0.470810  1
  Sc  Sc3  1  0.162884  0.495855  0.778779  1
  Sc  Sc4  1  0.834774  0.500487  0.276591  1
  Sc  Sc5  1  0.495568  0.163386  0.221154  1
  Sc  Sc6  1  0.503592  0.837451  0.721773  1
  Sc  Sc7  1  0.664349  0.003401  0.970764  1
  Cr  Cr8  1  0.661233  0.666604  0.501354  1
  Cr  Cr9  1  0.006260  0.829749  0.627888  1
  Cr  Cr10  1  0.988900  0.171498  0.127731  1
  Cr  Cr11  1  0.825491  0.009790  0.374031  1
  Cr  Cr12  1  0.338566  0.491400  0.377824  1
  Cr  Cr13  1  0.670942  0.509802  0.876643  1
  Cr  Cr14  1  0.492911  0.335155  0.621913  1
  Cr  Cr15  1  0.510200  0.670652  0.122796  1
  Cr  Cr16  1  0.170947  0.988226  0.872084  1
  Re  Re17  1  0.167897  0.836117  0.246654  1
  Re  Re18  1  0.333222  0.333514  0.999797  1
  Re  Re19  1  0.834902  0.166505  0.750908  1
  Si  Si20  1  0.622913  0.300653  0.433599  1
  Si  Si21  1  0.380228  0.700536  0.932115  1
  Si  Si22  1  0.201893  0.120784  0.682272  1
  Si  Si23  1  0.302433  0.622038  0.568383  1
  Si  Si24  1  0.700581  0.379899  0.067007  1
  Si  Si25  1  0.798213  0.879594  0.182553  1
  Si  Si26  1  0.121277  0.200737  0.318386  1
  Si  Si27  1  0.967129  0.286038  0.935460  1
  Si  Si28  1  0.711143  0.031107  0.565028  1
  Si  Si29  1  0.214349  0.467086  0.185623  1
  Si  Si30  1  0.785493  0.534207  0.684257  1
  Si  Si31  1  0.467207  0.214239  0.814439  1
  Si  Si32  1  0.533983  0.785682  0.315655  1
  Si  Si33  1  0.286703  0.967647  0.063665  1
  Si  Si34  1  0.879441  0.797828  0.817819  1
  Ge  Ge35  1  0.026744  0.708706  0.434864  1
