# generated using pymatgen
data_PrBi3Ir2(RhO7)2
_symmetry_space_group_name_H-M   'P 1'
_cell_length_a   7.35702663
_cell_length_b   7.35702663
_cell_length_c   7.34717052
_cell_angle_alpha   60.48842623
_cell_angle_beta   60.48842007
_cell_angle_gamma   60.43839280
_symmetry_Int_Tables_number   1
_chemical_formula_structural   PrBi3Ir2(RhO7)2
_chemical_formula_sum   'Pr1 Bi3 Ir2 Rh2 O14'
_cell_volume   284.19477649
_cell_formula_units_Z   1
loop_
 _symmetry_equiv_pos_site_id
 _symmetry_equiv_pos_as_xyz
  1  'x, y, z'
loop_
 _atom_site_type_symbol
 _atom_site_label
 _atom_site_symmetry_multiplicity
 _atom_site_fract_x
 _atom_site_fract_y
 _atom_site_fract_z
 _atom_site_occupancy
  Pr  Pr0  1  0.125000  0.125000  0.125000  1
  Bi  Bi1  1  0.125000  0.625000  0.125000  1
  Bi  Bi2  1  0.625000  0.125000  0.125000  1
  Bi  Bi3  1  0.125000  0.125000  0.625000  1
  Ir  Ir4  1  0.625000  0.625000  0.625000  1
  Ir  Ir5  1  0.625000  0.625000  0.125000  1
  Rh  Rh6  1  0.125000  0.625000  0.625000  1
  Rh  Rh7  1  0.625000  0.125000  0.625000  1
  O  O8  1  0.254169  0.254169  0.252309  1
  O  O9  1  0.294906  0.706965  0.288968  1
  O  O10  1  0.959615  0.959615  0.540337  1
  O  O11  1  0.545663  0.951533  0.543391  1
  O  O12  1  0.703752  0.703752  0.296883  1
  O  O13  1  0.951533  0.545663  0.543391  1
  O  O14  1  0.704337  0.298467  0.706609  1
  O  O15  1  0.290385  0.290385  0.709663  1
  O  O16  1  0.706965  0.294906  0.288968  1
  O  O17  1  0.298467  0.704337  0.706609  1
  O  O18  1  0.955094  0.543035  0.961032  1
  O  O19  1  0.546248  0.546248  0.953117  1
  O  O20  1  0.995831  0.995831  0.997691  1
  O  O21  1  0.543035  0.955094  0.961032  1
