# generated using pymatgen
data_Tb3ZnCd3HgAu
_symmetry_space_group_name_H-M   'P 1'
_cell_length_a   8.03694900
_cell_length_b   8.03695011
_cell_length_c   3.77257000
_cell_angle_alpha   90.00000000
_cell_angle_beta   90.00000000
_cell_angle_gamma   119.99999953
_symmetry_Int_Tables_number   1
_chemical_formula_structural   Tb3ZnCd3HgAu
_chemical_formula_sum   'Tb3 Zn1 Cd3 Hg1 Au1'
_cell_volume   211.03302567
_cell_formula_units_Z   1
loop_
 _symmetry_equiv_pos_site_id
 _symmetry_equiv_pos_as_xyz
  1  'x, y, z'
loop_
 _atom_site_type_symbol
 _atom_site_label
 _atom_site_symmetry_multiplicity
 _atom_site_fract_x
 _atom_site_fract_y
 _atom_site_fract_z
 _atom_site_occupancy
  Tb  Tb0  1  0.605349  0.015067  0.000000  1
  Tb  Tb1  1  0.984933  0.590283  0.000000  1
  Tb  Tb2  1  0.409717  0.394651  0.000000  1
  Zn  Zn3  1  0.000000  0.000000  0.000000  1
  Cd  Cd4  1  0.254602  0.995656  0.500000  1
  Cd  Cd5  1  0.004344  0.258945  0.500000  1
  Cd  Cd6  1  0.741055  0.745398  0.500000  1
  Hg  Hg7  1  0.333333  0.666667  0.500000  1
  Au  Au8  1  0.666667  0.333333  0.500000  1
