# generated using pymatgen
data_Y2Np3(AlGa4)3
_symmetry_space_group_name_H-M   'P 1'
_cell_length_a   12.58466413
_cell_length_b   12.58466455
_cell_length_c   12.58466500
_cell_angle_alpha   28.20524375
_cell_angle_beta   28.20524021
_cell_angle_gamma   28.20524854
_symmetry_Int_Tables_number   1
_chemical_formula_structural   Y2Np3(AlGa4)3
_chemical_formula_sum   'Y2 Np3 Al3 Ga12'
_cell_volume   393.34533469
_cell_formula_units_Z   1
loop_
 _symmetry_equiv_pos_site_id
 _symmetry_equiv_pos_as_xyz
  1  'x, y, z'
loop_
 _atom_site_type_symbol
 _atom_site_label
 _atom_site_symmetry_multiplicity
 _atom_site_fract_x
 _atom_site_fract_y
 _atom_site_fract_z
 _atom_site_occupancy
  Y  Y0  1  0.999212  0.999212  0.999212  1
  Y  Y1  1  0.598903  0.598903  0.598903  1
  Np  Np2  1  0.129110  0.129110  0.129110  1
  Np  Np3  1  0.870421  0.870421  0.870421  1
  Np  Np4  1  0.402380  0.402380  0.402380  1
  Al  Al5  1  0.496681  0.496681  0.008060  1
  Al  Al6  1  0.496681  0.008060  0.496681  1
  Al  Al7  1  0.008060  0.496681  0.496681  1
  Ga  Ga8  1  0.126715  0.638874  0.638874  1
  Ga  Ga9  1  0.638874  0.638874  0.126715  1
  Ga  Ga10  1  0.638874  0.126715  0.638874  1
  Ga  Ga11  1  0.360331  0.876900  0.360331  1
  Ga  Ga12  1  0.360331  0.360331  0.876900  1
  Ga  Ga13  1  0.876900  0.360331  0.360331  1
  Ga  Ga14  1  0.427566  0.883250  0.883250  1
  Ga  Ga15  1  0.883250  0.883250  0.427566  1
  Ga  Ga16  1  0.883250  0.427566  0.883250  1
  Ga  Ga17  1  0.116739  0.568982  0.116739  1
  Ga  Ga18  1  0.116739  0.116739  0.568982  1
  Ga  Ga19  1  0.568982  0.116739  0.116739  1
