# generated using pymatgen
data_Ho4C2SCl
_symmetry_space_group_name_H-M   'P 1'
_cell_length_a   3.66728900
_cell_length_b   3.66729010
_cell_length_c   13.16532800
_cell_angle_alpha   90.00000000
_cell_angle_beta   90.00000000
_cell_angle_gamma   119.99998103
_symmetry_Int_Tables_number   1
_chemical_formula_structural   Ho4C2SCl
_chemical_formula_sum   'Ho4 C2 S1 Cl1'
_cell_volume   153.33906140
_cell_formula_units_Z   1
loop_
 _symmetry_equiv_pos_site_id
 _symmetry_equiv_pos_as_xyz
  1  'x, y, z'
loop_
 _atom_site_type_symbol
 _atom_site_label
 _atom_site_symmetry_multiplicity
 _atom_site_fract_x
 _atom_site_fract_y
 _atom_site_fract_z
 _atom_site_occupancy
  Ho  Ho0  1  0.333333  0.666667  0.587763  1
  Ho  Ho1  1  0.666667  0.333333  0.390416  1
  Ho  Ho2  1  0.666667  0.333333  0.109584  1
  Ho  Ho3  1  0.333333  0.666667  0.912237  1
  C  C4  1  0.000000  0.000000  0.001468  1
  C  C5  1  0.000000  0.000000  0.498532  1
  S  S6  1  0.333333  0.666667  0.250000  1
  Cl  Cl7  1  0.666667  0.333333  0.750000  1
