# generated using pymatgen
data_Mn3Nb2Fe9P7
_symmetry_space_group_name_H-M   'P 1'
_cell_length_a   8.88064000
_cell_length_b   8.88064064
_cell_length_c   3.53301400
_cell_angle_alpha   90.00000000
_cell_angle_beta   90.00000000
_cell_angle_gamma   120.00000508
_symmetry_Int_Tables_number   1
_chemical_formula_structural   Mn3Nb2Fe9P7
_chemical_formula_sum   'Mn3 Nb2 Fe9 P7'
_cell_volume   241.30400457
_cell_formula_units_Z   1
loop_
 _symmetry_equiv_pos_site_id
 _symmetry_equiv_pos_as_xyz
  1  'x, y, z'
loop_
 _atom_site_type_symbol
 _atom_site_label
 _atom_site_symmetry_multiplicity
 _atom_site_fract_x
 _atom_site_fract_y
 _atom_site_fract_z
 _atom_site_occupancy
  Mn  Mn0  1  0.557518  0.769966  0.500000  1
  Mn  Mn1  1  0.230034  0.787553  0.500000  1
  Mn  Mn2  1  0.212447  0.442482  0.500000  1
  Nb  Nb3  1  0.666667  0.333333  0.000000  1
  Nb  Nb4  1  0.000000  0.000000  0.500000  1
  Fe  Fe5  1  0.766537  0.733019  0.000000  1
  Fe  Fe6  1  0.266981  0.033519  0.000000  1
  Fe  Fe7  1  0.966481  0.233463  0.000000  1
  Fe  Fe8  1  0.491732  0.946582  0.000000  1
  Fe  Fe9  1  0.053418  0.545149  0.000000  1
  Fe  Fe10  1  0.454851  0.508268  0.000000  1
  Fe  Fe11  1  0.721862  0.108694  0.500000  1
  Fe  Fe12  1  0.891306  0.613169  0.500000  1
  Fe  Fe13  1  0.386831  0.278138  0.500000  1
  P  P14  1  0.456970  0.077998  0.500000  1
  P  P15  1  0.922002  0.378971  0.500000  1
  P  P16  1  0.621029  0.543030  0.500000  1
  P  P17  1  0.750913  0.967975  0.000000  1
  P  P18  1  0.032025  0.782939  0.000000  1
  P  P19  1  0.217061  0.249087  0.000000  1
  P  P20  1  0.333333  0.666667  0.000000  1
