# generated using pymatgen
data_Li4PrY3Si8
_symmetry_space_group_name_H-M   'P 1'
_cell_length_a   3.83235400
_cell_length_b   7.65076183
_cell_length_c   10.29058512
_cell_angle_alpha   89.76963411
_cell_angle_beta   90.00000000
_cell_angle_gamma   90.00000000
_symmetry_Int_Tables_number   1
_chemical_formula_structural   Li4PrY3Si8
_chemical_formula_sum   'Li4 Pr1 Y3 Si8'
_cell_volume   301.72191838
_cell_formula_units_Z   1
loop_
 _symmetry_equiv_pos_site_id
 _symmetry_equiv_pos_as_xyz
  1  'x, y, z'
loop_
 _atom_site_type_symbol
 _atom_site_label
 _atom_site_symmetry_multiplicity
 _atom_site_fract_x
 _atom_site_fract_y
 _atom_site_fract_z
 _atom_site_occupancy
  Li  Li0  1  0.250000  0.991510  0.391867  1
  Li  Li1  1  0.750000  0.009992  0.609461  1
  Li  Li2  1  0.250000  0.489936  0.107311  1
  Li  Li3  1  0.750000  0.509603  0.892011  1
  Pr  Pr4  1  0.750000  0.357728  0.363742  1
  Y  Y5  1  0.250000  0.137717  0.863771  1
  Y  Y6  1  0.750000  0.861250  0.135065  1
  Y  Y7  1  0.250000  0.639690  0.636771  1
  Si  Si8  1  0.750000  0.264340  0.064346  1
  Si  Si9  1  0.250000  0.731634  0.930745  1
  Si  Si10  1  0.750000  0.773041  0.431255  1
  Si  Si11  1  0.250000  0.229422  0.575405  1
  Si  Si12  1  0.750000  0.843401  0.821121  1
  Si  Si13  1  0.250000  0.153327  0.174327  1
  Si  Si14  1  0.750000  0.343007  0.682702  1
  Si  Si15  1  0.250000  0.664401  0.320099  1
