# generated using pymatgen
data_TbHo3Mg2CoCu3
_symmetry_space_group_name_H-M   'P 1'
_cell_length_a   7.56150516
_cell_length_b   7.56150517
_cell_length_c   3.68496200
_cell_angle_alpha   90.00000000
_cell_angle_beta   90.00000000
_cell_angle_gamma   90.72775942
_symmetry_Int_Tables_number   1
_chemical_formula_structural   TbHo3Mg2CoCu3
_chemical_formula_sum   'Tb1 Ho3 Mg2 Co1 Cu3'
_cell_volume   210.67571945
_cell_formula_units_Z   1
loop_
 _symmetry_equiv_pos_site_id
 _symmetry_equiv_pos_as_xyz
  1  'x, y, z'
loop_
 _atom_site_type_symbol
 _atom_site_label
 _atom_site_symmetry_multiplicity
 _atom_site_fract_x
 _atom_site_fract_y
 _atom_site_fract_z
 _atom_site_occupancy
  Tb  Tb0  1  0.311604  0.811604  0.500000  1
  Ho  Ho1  1  0.668321  0.168321  0.500000  1
  Ho  Ho2  1  0.177905  0.346821  0.500000  1
  Ho  Ho3  1  0.846821  0.677905  0.500000  1
  Mg  Mg4  1  0.002058  0.006553  0.000000  1
  Mg  Mg5  1  0.506553  0.502058  0.000000  1
  Co  Co6  1  0.116600  0.616600  0.000000  1
  Cu  Cu7  1  0.878421  0.378421  0.000000  1
  Cu  Cu8  1  0.616979  0.874738  0.000000  1
  Cu  Cu9  1  0.374738  0.116979  0.000000  1
