# generated using pymatgen
data_TbDyMo(SeO4)3
_symmetry_space_group_name_H-M   'P 1'
_cell_length_a   6.61013286
_cell_length_b   7.17316067
_cell_length_c   10.91509466
_cell_angle_alpha   84.87276339
_cell_angle_beta   73.25680094
_cell_angle_gamma   86.48508908
_symmetry_Int_Tables_number   1
_chemical_formula_structural   TbDyMo(SeO4)3
_chemical_formula_sum   'Tb2 Dy2 Mo2 Se6 O24'
_cell_volume   493.27780596
_cell_formula_units_Z   2
loop_
 _symmetry_equiv_pos_site_id
 _symmetry_equiv_pos_as_xyz
  1  'x, y, z'
loop_
 _atom_site_type_symbol
 _atom_site_label
 _atom_site_symmetry_multiplicity
 _atom_site_fract_x
 _atom_site_fract_y
 _atom_site_fract_z
 _atom_site_occupancy
  Tb  Tb0  1  0.732598  0.638750  0.508710  1
  Tb  Tb1  1  0.267402  0.361250  0.491290  1
  Dy  Dy2  1  0.204893  0.181790  0.168247  1
  Dy  Dy3  1  0.795107  0.818210  0.831753  1
  Mo  Mo4  1  0.722428  0.893333  0.205418  1
  Mo  Mo5  1  0.277572  0.106667  0.794582  1
  Se  Se6  1  0.201949  0.659822  0.215850  1
  Se  Se7  1  0.798051  0.340178  0.784150  1
  Se  Se8  1  0.657334  0.363411  0.142243  1
  Se  Se9  1  0.342666  0.636589  0.857757  1
  Se  Se10  1  0.789526  0.139897  0.492970  1
  Se  Se11  1  0.210474  0.860103  0.507030  1
  O  O12  1  0.693893  0.672901  0.298261  1
  O  O13  1  0.306107  0.327099  0.701739  1
  O  O14  1  0.718577  0.960429  0.416466  1
  O  O15  1  0.281423  0.039571  0.583534  1
  O  O16  1  0.451095  0.974613  0.232569  1
  O  O17  1  0.548905  0.025387  0.767431  1
  O  O18  1  0.824136  0.171226  0.178510  1
  O  O19  1  0.175864  0.828774  0.821490  1
  O  O20  1  0.783576  0.833547  0.044243  1
  O  O21  1  0.216424  0.166453  0.955757  1
  O  O22  1  0.058713  0.873285  0.194100  1
  O  O23  1  0.941287  0.126715  0.805900  1
  O  O24  1  0.099853  0.496772  0.148810  1
  O  O25  1  0.900147  0.503228  0.851190  1
  O  O26  1  0.082238  0.602177  0.382228  1
  O  O27  1  0.917762  0.397823  0.617772  1
  O  O28  1  0.548953  0.272544  0.038074  1
  O  O29  1  0.451047  0.727456  0.961926  1
  O  O30  1  0.424821  0.346826  0.270216  1
  O  O31  1  0.575179  0.653174  0.729784  1
  O  O32  1  0.042708  0.190919  0.391803  1
  O  O33  1  0.957292  0.809081  0.608197  1
  O  O34  1  0.641195  0.338445  0.460172  1
  O  O35  1  0.358805  0.661555  0.539828  1
