# generated using pymatgen
data_Nd12CuOs2Au
_symmetry_space_group_name_H-M   'P 1'
_cell_length_a   6.56328717
_cell_length_b   7.42455494
_cell_length_c   9.89576800
_cell_angle_alpha   90.00000000
_cell_angle_beta   90.00000000
_cell_angle_gamma   90.17716333
_symmetry_Int_Tables_number   1
_chemical_formula_structural   Nd12CuOs2Au
_chemical_formula_sum   'Nd12 Cu1 Os2 Au1'
_cell_volume   482.21338488
_cell_formula_units_Z   1
loop_
 _symmetry_equiv_pos_site_id
 _symmetry_equiv_pos_as_xyz
  1  'x, y, z'
loop_
 _atom_site_type_symbol
 _atom_site_label
 _atom_site_symmetry_multiplicity
 _atom_site_fract_x
 _atom_site_fract_y
 _atom_site_fract_z
 _atom_site_occupancy
  Nd  Nd0  1  0.338665  0.671159  0.060036  1
  Nd  Nd1  1  0.174088  0.188695  0.439742  1
  Nd  Nd2  1  0.665939  0.324877  0.563047  1
  Nd  Nd3  1  0.827638  0.818682  0.934325  1
  Nd  Nd4  1  0.665939  0.324877  0.936953  1
  Nd  Nd5  1  0.827638  0.818682  0.565675  1
  Nd  Nd6  1  0.338665  0.671159  0.439964  1
  Nd  Nd7  1  0.174088  0.188695  0.060258  1
  Nd  Nd8  1  0.854560  0.520345  0.250000  1
  Nd  Nd9  1  0.621904  0.043319  0.250000  1
  Nd  Nd10  1  0.142196  0.476092  0.750000  1
  Nd  Nd11  1  0.369623  0.953272  0.750000  1
  Cu  Cu12  1  0.943022  0.114905  0.750000  1
  Os  Os13  1  0.433672  0.383520  0.250000  1
  Os  Os14  1  0.563810  0.615037  0.750000  1
  Au  Au15  1  0.058554  0.886687  0.250000  1
