# generated using pymatgen
data_Nd3Dy5(AlIr)2
_symmetry_space_group_name_H-M   'P 1'
_cell_length_a   9.65653334
_cell_length_b   9.65653364
_cell_length_c   9.65653400
_cell_angle_alpha   59.99999878
_cell_angle_beta   59.99999776
_cell_angle_gamma   60.00000546
_symmetry_Int_Tables_number   1
_chemical_formula_structural   Nd3Dy5(AlIr)2
_chemical_formula_sum   'Nd6 Dy10 Al4 Ir4'
_cell_volume   636.72043007
_cell_formula_units_Z   2
loop_
 _symmetry_equiv_pos_site_id
 _symmetry_equiv_pos_as_xyz
  1  'x, y, z'
loop_
 _atom_site_type_symbol
 _atom_site_label
 _atom_site_symmetry_multiplicity
 _atom_site_fract_x
 _atom_site_fract_y
 _atom_site_fract_z
 _atom_site_occupancy
  Nd  Nd0  1  0.939403  0.560597  0.560597  1
  Nd  Nd1  1  0.560597  0.939403  0.939403  1
  Nd  Nd2  1  0.560597  0.939403  0.560597  1
  Nd  Nd3  1  0.939403  0.560597  0.939403  1
  Nd  Nd4  1  0.560597  0.560597  0.939403  1
  Nd  Nd5  1  0.939403  0.939403  0.560597  1
  Dy  Dy6  1  0.350242  0.350242  0.350242  1
  Dy  Dy7  1  0.350242  0.350242  0.949274  1
  Dy  Dy8  1  0.350242  0.949274  0.350242  1
  Dy  Dy9  1  0.949274  0.350242  0.350242  1
  Dy  Dy10  1  0.808757  0.191243  0.191243  1
  Dy  Dy11  1  0.191243  0.808757  0.808757  1
  Dy  Dy12  1  0.191243  0.808757  0.191243  1
  Dy  Dy13  1  0.808757  0.191243  0.808757  1
  Dy  Dy14  1  0.191243  0.191243  0.808757  1
  Dy  Dy15  1  0.808757  0.808757  0.191243  1
  Al  Al16  1  0.574484  0.574484  0.574484  1
  Al  Al17  1  0.574484  0.574484  0.276546  1
  Al  Al18  1  0.574484  0.276546  0.574484  1
  Al  Al19  1  0.276546  0.574484  0.574484  1
  Ir  Ir20  1  0.141099  0.141099  0.141099  1
  Ir  Ir21  1  0.141099  0.141099  0.576704  1
  Ir  Ir22  1  0.141099  0.576704  0.141099  1
  Ir  Ir23  1  0.576704  0.141099  0.141099  1
