# generated using pymatgen
data_KCrPt3O8
_symmetry_space_group_name_H-M   'P 1'
_cell_length_a   7.40178615
_cell_length_b   7.40178625
_cell_length_c   10.18563057
_cell_angle_alpha   46.18719129
_cell_angle_beta   46.18718909
_cell_angle_gamma   24.69425680
_symmetry_Int_Tables_number   1
_chemical_formula_structural   KCrPt3O8
_chemical_formula_sum   'K1 Cr1 Pt3 O8'
_cell_volume   164.47871334
_cell_formula_units_Z   1
loop_
 _symmetry_equiv_pos_site_id
 _symmetry_equiv_pos_as_xyz
  1  'x, y, z'
loop_
 _atom_site_type_symbol
 _atom_site_label
 _atom_site_symmetry_multiplicity
 _atom_site_fract_x
 _atom_site_fract_y
 _atom_site_fract_z
 _atom_site_occupancy
  K  K0  1  0.494121  0.494121  0.001515  1
  Cr  Cr1  1  0.350713  0.350713  0.816577  1
  Pt  Pt2  1  0.650728  0.650728  0.180106  1
  Pt  Pt3  1  0.167659  0.167659  0.482066  1
  Pt  Pt4  1  0.830416  0.830416  0.524259  1
  O  O5  1  0.151055  0.151055  0.049658  1
  O  O6  1  0.847824  0.847824  0.951387  1
  O  O7  1  0.197789  0.197789  0.653791  1
  O  O8  1  0.799586  0.799586  0.351582  1
  O  O9  1  0.545855  0.545855  0.623514  1
  O  O10  1  0.451038  0.451038  0.376329  1
  O  O11  1  0.176941  0.176941  0.275852  1
  O  O12  1  0.836277  0.836277  0.713364  1
