# generated using pymatgen
data_Ba12BiRh3I8
_symmetry_space_group_name_H-M   'P 1'
_cell_length_a   16.18454094
_cell_length_b   15.41798590
_cell_length_c   8.59899095
_cell_angle_alpha   79.19298403
_cell_angle_beta   69.34818290
_cell_angle_gamma   32.70158070
_symmetry_Int_Tables_number   1
_chemical_formula_structural   Ba12BiRh3I8
_chemical_formula_sum   'Ba12 Bi1 Rh3 I8'
_cell_volume   1059.11938360
_cell_formula_units_Z   1
loop_
 _symmetry_equiv_pos_site_id
 _symmetry_equiv_pos_as_xyz
  1  'x, y, z'
loop_
 _atom_site_type_symbol
 _atom_site_label
 _atom_site_symmetry_multiplicity
 _atom_site_fract_x
 _atom_site_fract_y
 _atom_site_fract_z
 _atom_site_occupancy
  Ba  Ba0  1  0.041054  0.451047  0.456066  1
  Ba  Ba1  1  0.809663  0.213245  0.190616  1
  Ba  Ba2  1  0.113435  0.557533  0.954653  1
  Ba  Ba3  1  0.888545  0.299588  0.647868  1
  Ba  Ba4  1  0.557533  0.113435  0.374380  1
  Ba  Ba5  1  0.173787  0.635836  0.317038  1
  Ba  Ba6  1  0.299588  0.888545  0.163997  1
  Ba  Ba7  1  0.364057  0.955114  0.587825  1
  Ba  Ba8  1  0.213245  0.809663  0.786477  1
  Ba  Ba9  1  0.451047  0.041054  0.051832  1
  Ba  Ba10  1  0.955114  0.364057  0.093004  1
  Ba  Ba11  1  0.635836  0.173787  0.873337  1
  Bi  Bi12  1  0.915431  0.915431  0.084569  1
  Rh  Rh13  1  0.332949  0.332949  0.167051  1
  Rh  Rh14  1  0.165627  0.165627  0.334373  1
  Rh  Rh15  1  0.085678  0.085678  0.914322  1
  I  I16  1  0.580166  0.580166  0.419834  1
  I  I17  1  0.671671  0.671671  0.828329  1
  I  I18  1  0.252628  0.252628  0.747372  1
  I  I19  1  0.421597  0.421597  0.578403  1
  I  I20  1  0.993620  0.993620  0.506380  1
  I  I21  1  0.746432  0.746432  0.253568  1
  I  I22  1  0.827291  0.827291  0.672709  1
  I  I23  1  0.504004  0.504004  0.995996  1
