# generated using pymatgen
data_Tb18SnBi9O10
_symmetry_space_group_name_H-M   'P 1'
_cell_length_a   10.01485141
_cell_length_b   10.01935596
_cell_length_c   8.98290100
_cell_angle_alpha   90.03360196
_cell_angle_beta   89.98356333
_cell_angle_gamma   89.97148572
_symmetry_Int_Tables_number   1
_chemical_formula_structural   Tb18SnBi9O10
_chemical_formula_sum   'Tb18 Sn1 Bi9 O10'
_cell_volume   901.36519325
_cell_formula_units_Z   1
loop_
 _symmetry_equiv_pos_site_id
 _symmetry_equiv_pos_as_xyz
  1  'x, y, z'
loop_
 _atom_site_type_symbol
 _atom_site_label
 _atom_site_symmetry_multiplicity
 _atom_site_fract_x
 _atom_site_fract_y
 _atom_site_fract_z
 _atom_site_occupancy
  Tb  Tb0  1  0.502150  0.992912  0.678031  1
  Tb  Tb1  1  0.793247  0.105358  0.336340  1
  Tb  Tb2  1  0.275234  0.082353  0.001589  1
  Tb  Tb3  1  0.583115  0.225281  0.001509  1
  Tb  Tb4  1  0.207052  0.894780  0.336531  1
  Tb  Tb5  1  0.605085  0.706628  0.342033  1
  Tb  Tb6  1  0.300244  0.606244  0.663675  1
  Tb  Tb7  1  0.418813  0.772797  0.999776  1
  Tb  Tb8  1  0.225307  0.416722  0.997711  1
  Tb  Tb9  1  0.888489  0.791605  0.663514  1
  Tb  Tb10  1  0.999635  0.500082  0.320635  1
  Tb  Tb11  1  0.083510  0.725508  0.998446  1
  Tb  Tb12  1  0.916367  0.275125  0.998044  1
  Tb  Tb13  1  0.771336  0.584687  0.995570  1
  Tb  Tb14  1  0.724781  0.916293  0.001020  1
  Tb  Tb15  1  0.394868  0.293473  0.336650  1
  Tb  Tb16  1  0.703524  0.401569  0.663419  1
  Tb  Tb17  1  0.104979  0.206417  0.663046  1
  Sn  Sn18  1  0.595880  0.695107  0.699720  1
  Bi  Bi19  1  0.905460  0.806301  0.303187  1
  Bi  Bi20  1  0.694084  0.404769  0.302262  1
  Bi  Bi21  1  0.002081  0.500635  0.680549  1
  Bi  Bi22  1  0.305479  0.594905  0.302534  1
  Bi  Bi23  1  0.805588  0.097152  0.696100  1
  Bi  Bi24  1  0.405149  0.303751  0.696699  1
  Bi  Bi25  1  0.192110  0.904147  0.696564  1
  Bi  Bi26  1  0.095101  0.193890  0.303456  1
  Bi  Bi27  1  0.499804  0.000751  0.318633  1
  O  O28  1  0.226252  0.879433  0.084737  1
  O  O29  1  0.274086  0.619778  0.914619  1
  O  O30  1  0.120356  0.225095  0.914986  1
  O  O31  1  0.880885  0.775296  0.915914  1
  O  O32  1  0.725590  0.379089  0.914450  1
  O  O33  1  0.498871  0.001772  0.936975  1
  O  O34  1  0.774554  0.120027  0.084416  1
  O  O35  1  0.000771  0.499108  0.063147  1
  O  O36  1  0.379767  0.274806  0.085151  1
  O  O37  1  0.620396  0.726351  0.088367  1
