# generated using pymatgen
data_La3Nd13Cd4OsPt3
_symmetry_space_group_name_H-M   'P 1'
_cell_length_a   10.06988915
_cell_length_b   10.09154476
_cell_length_c   10.09154514
_cell_angle_alpha   59.54039728
_cell_angle_beta   59.63296702
_cell_angle_gamma   59.63296636
_symmetry_Int_Tables_number   1
_chemical_formula_structural   La3Nd13Cd4OsPt3
_chemical_formula_sum   'La3 Nd13 Cd4 Os1 Pt3'
_cell_volume   718.58617214
_cell_formula_units_Z   1
loop_
 _symmetry_equiv_pos_site_id
 _symmetry_equiv_pos_as_xyz
  1  'x, y, z'
loop_
 _atom_site_type_symbol
 _atom_site_label
 _atom_site_symmetry_multiplicity
 _atom_site_fract_x
 _atom_site_fract_y
 _atom_site_fract_z
 _atom_site_occupancy
  La  La0  1  0.350518  0.351215  0.351215  1
  La  La1  1  0.345924  0.346488  0.953668  1
  La  La2  1  0.345924  0.953668  0.346488  1
  Nd  Nd3  1  0.950036  0.348666  0.348666  1
  Nd  Nd4  1  0.817299  0.188695  0.188695  1
  Nd  Nd5  1  0.188875  0.809394  0.809394  1
  Nd  Nd6  1  0.188499  0.816405  0.188292  1
  Nd  Nd7  1  0.809414  0.188823  0.808582  1
  Nd  Nd8  1  0.188499  0.188292  0.816405  1
  Nd  Nd9  1  0.809414  0.808582  0.188823  1
  Nd  Nd10  1  0.936690  0.564179  0.564179  1
  Nd  Nd11  1  0.557963  0.936935  0.936935  1
  Nd  Nd12  1  0.564467  0.936014  0.564535  1
  Nd  Nd13  1  0.937219  0.557945  0.937429  1
  Nd  Nd14  1  0.564467  0.564535  0.936014  1
  Nd  Nd15  1  0.937219  0.937429  0.557945  1
  Cd  Cd16  1  0.580687  0.579443  0.579443  1
  Cd  Cd17  1  0.581578  0.579983  0.257800  1
  Cd  Cd18  1  0.581578  0.257800  0.579983  1
  Cd  Cd19  1  0.257523  0.580534  0.580534  1
  Os  Os20  1  0.144538  0.142621  0.142621  1
  Pt  Pt21  1  0.143697  0.144718  0.573356  1
  Pt  Pt22  1  0.143697  0.573356  0.144718  1
  Pt  Pt23  1  0.574273  0.144283  0.144283  1
