# generated using pymatgen
data_RbBaAsO4
_symmetry_space_group_name_H-M   'P 1'
_cell_length_a   6.02966400
_cell_length_b   8.04144700
_cell_length_c   10.56019500
_cell_angle_alpha   90.00000000
_cell_angle_beta   90.00000000
_cell_angle_gamma   90.00000000
_symmetry_Int_Tables_number   1
_chemical_formula_structural   RbBaAsO4
_chemical_formula_sum   'Rb4 Ba4 As4 O16'
_cell_volume   512.03453500
_cell_formula_units_Z   4
loop_
 _symmetry_equiv_pos_site_id
 _symmetry_equiv_pos_as_xyz
  1  'x, y, z'
loop_
 _atom_site_type_symbol
 _atom_site_label
 _atom_site_symmetry_multiplicity
 _atom_site_fract_x
 _atom_site_fract_y
 _atom_site_fract_z
 _atom_site_occupancy
  Rb  Rb0  1  0.250000  0.657821  0.582199  1
  Rb  Rb1  1  0.749999  0.342179  0.417801  1
  Rb  Rb2  1  0.749999  0.842180  0.082200  1
  Rb  Rb3  1  0.250000  0.157821  0.917801  1
  Ba  Ba4  1  0.749999  0.000689  0.695301  1
  Ba  Ba5  1  0.250000  0.999311  0.304698  1
  Ba  Ba6  1  0.749999  0.500688  0.804699  1
  Ba  Ba7  1  0.250000  0.499311  0.195301  1
  As  As8  1  0.749999  0.772847  0.415533  1
  As  As9  1  0.250000  0.227152  0.584467  1
  As  As10  1  0.749999  0.272848  0.084467  1
  As  As11  1  0.250000  0.727153  0.915534  1
  O  O12  1  0.513523  0.708499  0.336986  1
  O  O13  1  0.013524  0.291500  0.663013  1
  O  O14  1  0.986477  0.208500  0.163013  1
  O  O15  1  0.486477  0.791500  0.836986  1
  O  O16  1  0.486477  0.291500  0.663013  1
  O  O17  1  0.986477  0.708499  0.336986  1
  O  O18  1  0.013524  0.791500  0.836986  1
  O  O19  1  0.513523  0.208500  0.163013  1
  O  O20  1  0.250000  0.513009  0.923323  1
  O  O21  1  0.749999  0.486991  0.076677  1
  O  O22  1  0.250000  0.013009  0.576677  1
  O  O23  1  0.749999  0.986992  0.423324  1
  O  O24  1  0.749999  0.192847  0.931742  1
  O  O25  1  0.250000  0.807153  0.068258  1
  O  O26  1  0.250000  0.307153  0.431743  1
  O  O27  1  0.749999  0.692846  0.568258  1
