# generated using pymatgen
data_CeTa6HgO18
_symmetry_space_group_name_H-M   'P 1'
_cell_length_a   7.58582400
_cell_length_b   5.37689642
_cell_length_c   8.41407445
_cell_angle_alpha   88.12017448
_cell_angle_beta   89.99999991
_cell_angle_gamma   90.00002575
_symmetry_Int_Tables_number   1
_chemical_formula_structural   CeTa6HgO18
_chemical_formula_sum   'Ce1 Ta6 Hg1 O18'
_cell_volume   343.01016877
_cell_formula_units_Z   1
loop_
 _symmetry_equiv_pos_site_id
 _symmetry_equiv_pos_as_xyz
  1  'x, y, z'
loop_
 _atom_site_type_symbol
 _atom_site_label
 _atom_site_symmetry_multiplicity
 _atom_site_fract_x
 _atom_site_fract_y
 _atom_site_fract_z
 _atom_site_occupancy
  Ce  Ce0  1  0.250001  0.964797  0.440366  1
  Ta  Ta1  1  0.495427  0.522049  0.697154  1
  Ta  Ta2  1  0.004574  0.522049  0.697154  1
  Ta  Ta3  1  0.993127  0.472917  0.301801  1
  Ta  Ta4  1  0.998525  0.996464  0.999877  1
  Ta  Ta5  1  0.506873  0.472918  0.301801  1
  Ta  Ta6  1  0.501476  0.996463  0.999877  1
  Hg  Hg7  1  0.750001  0.021179  0.555979  1
  O  O8  1  0.951654  0.680936  0.124871  1
  O  O9  1  0.046772  0.311635  0.872275  1
  O  O10  1  0.063152  0.157029  0.214779  1
  O  O11  1  0.750000  0.367586  0.338342  1
  O  O12  1  0.060598  0.270687  0.523829  1
  O  O13  1  0.436847  0.157029  0.214780  1
  O  O14  1  0.548346  0.680936  0.124871  1
  O  O15  1  0.529630  0.741324  0.471189  1
  O  O16  1  0.750000  0.090902  0.023950  1
  O  O17  1  0.944692  0.827486  0.799312  1
  O  O18  1  0.750000  0.424639  0.674520  1
  O  O19  1  0.555307  0.827485  0.799312  1
  O  O20  1  0.250000  0.595468  0.310285  1
  O  O21  1  0.453227  0.311635  0.872275  1
  O  O22  1  0.970370  0.741324  0.471189  1
  O  O23  1  0.439402  0.270688  0.523829  1
  O  O24  1  0.250000  0.656063  0.659947  1
  O  O25  1  0.250000  0.918314  0.986439  1
