# generated using pymatgen
data_Cs2Er3Lu3Te10
_symmetry_space_group_name_H-M   'P 1'
_cell_length_a   4.38560800
_cell_length_b   13.40320682
_cell_length_c   23.52037500
_cell_angle_alpha   89.79024456
_cell_angle_beta   90.00000000
_cell_angle_gamma   90.00000000
_symmetry_Int_Tables_number   1
_chemical_formula_structural   Cs2Er3Lu3Te10
_chemical_formula_sum   'Cs4 Er6 Lu6 Te20'
_cell_volume   1382.54686194
_cell_formula_units_Z   2
loop_
 _symmetry_equiv_pos_site_id
 _symmetry_equiv_pos_as_xyz
  1  'x, y, z'
loop_
 _atom_site_type_symbol
 _atom_site_label
 _atom_site_symmetry_multiplicity
 _atom_site_fract_x
 _atom_site_fract_y
 _atom_site_fract_z
 _atom_site_occupancy
  Cs  Cs0  1  0.250000  0.352047  0.089512  1
  Cs  Cs1  1  0.750000  0.647953  0.910488  1
  Cs  Cs2  1  0.750000  0.851319  0.409833  1
  Cs  Cs3  1  0.250000  0.148681  0.590167  1
  Er  Er4  1  0.250000  0.454366  0.698922  1
  Er  Er5  1  0.750000  0.545634  0.301078  1
  Er  Er6  1  0.750000  0.956208  0.801756  1
  Er  Er7  1  0.250000  0.043792  0.198244  1
  Er  Er8  1  0.250000  0.796058  0.673852  1
  Er  Er9  1  0.750000  0.203942  0.326148  1
  Lu  Lu10  1  0.750000  0.295531  0.826060  1
  Lu  Lu11  1  0.250000  0.704469  0.173940  1
  Lu  Lu12  1  0.250000  0.394087  0.444391  1
  Lu  Lu13  1  0.750000  0.605913  0.555609  1
  Lu  Lu14  1  0.750000  0.893794  0.056090  1
  Lu  Lu15  1  0.250000  0.106206  0.943910  1
  Te  Te16  1  0.250000  0.447039  0.568872  1
  Te  Te17  1  0.750000  0.552961  0.431128  1
  Te  Te18  1  0.750000  0.947200  0.931509  1
  Te  Te19  1  0.250000  0.052800  0.068491  1
  Te  Te20  1  0.250000  0.761681  0.545415  1
  Te  Te21  1  0.750000  0.238319  0.454585  1
  Te  Te22  1  0.750000  0.261997  0.953146  1
  Te  Te23  1  0.250000  0.738003  0.046854  1
  Te  Te24  1  0.250000  0.802298  0.803107  1
  Te  Te25  1  0.750000  0.197702  0.196893  1
  Te  Te26  1  0.750000  0.300800  0.698047  1
  Te  Te27  1  0.250000  0.699200  0.301953  1
  Te  Te28  1  0.250000  0.447927  0.828973  1
  Te  Te29  1  0.750000  0.552073  0.171027  1
  Te  Te30  1  0.750000  0.951489  0.671690  1
  Te  Te31  1  0.250000  0.048511  0.328310  1
  Te  Te32  1  0.250000  0.375386  0.313619  1
  Te  Te33  1  0.750000  0.624614  0.686381  1
  Te  Te34  1  0.750000  0.873504  0.186387  1
  Te  Te35  1  0.250000  0.126496  0.813613  1
