# generated using pymatgen
data_Li12ReAsN8
_symmetry_space_group_name_H-M   'P 1'
_cell_length_a   6.61469000
_cell_length_b   6.61469000
_cell_length_c   4.90699800
_cell_angle_alpha   90.00000000
_cell_angle_beta   90.00000000
_cell_angle_gamma   90.00000000
_symmetry_Int_Tables_number   1
_chemical_formula_structural   Li12ReAsN8
_chemical_formula_sum   'Li12 Re1 As1 N8'
_cell_volume   214.70139796
_cell_formula_units_Z   1
loop_
 _symmetry_equiv_pos_site_id
 _symmetry_equiv_pos_as_xyz
  1  'x, y, z'
loop_
 _atom_site_type_symbol
 _atom_site_label
 _atom_site_symmetry_multiplicity
 _atom_site_fract_x
 _atom_site_fract_y
 _atom_site_fract_z
 _atom_site_occupancy
  Li  Li0  1  0.500000  0.000000  0.609561  1
  Li  Li1  1  0.000000  0.500000  0.913787  1
  Li  Li2  1  0.000000  0.500000  0.390439  1
  Li  Li3  1  0.500000  0.000000  0.086213  1
  Li  Li4  1  0.204616  0.204616  0.500000  1
  Li  Li5  1  0.795384  0.795384  0.500000  1
  Li  Li6  1  0.722739  0.722739  0.000000  1
  Li  Li7  1  0.277261  0.277261  0.000000  1
  Li  Li8  1  0.204616  0.795384  0.500000  1
  Li  Li9  1  0.795384  0.204616  0.500000  1
  Li  Li10  1  0.722739  0.277261  0.000000  1
  Li  Li11  1  0.277261  0.722739  0.000000  1
  Re  Re12  1  0.500000  0.500000  0.500000  1
  As  As13  1  0.000000  0.000000  0.000000  1
  N  N14  1  0.500000  0.263193  0.302505  1
  N  N15  1  0.500000  0.736807  0.302505  1
  N  N16  1  0.000000  0.758300  0.192342  1
  N  N17  1  0.000000  0.241700  0.192342  1
  N  N18  1  0.263193  0.500000  0.697495  1
  N  N19  1  0.736807  0.500000  0.697495  1
  N  N20  1  0.758300  0.000000  0.807658  1
  N  N21  1  0.241700  0.000000  0.807658  1
