# generated using pymatgen
data_Nb3Ga(AsO4)6
_symmetry_space_group_name_H-M   'P 1'
_cell_length_a   9.36276619
_cell_length_b   9.36276525
_cell_length_c   9.36276441
_cell_angle_alpha   57.01614622
_cell_angle_beta   57.01615118
_cell_angle_gamma   57.01615305
_symmetry_Int_Tables_number   1
_chemical_formula_structural   Nb3Ga(AsO4)6
_chemical_formula_sum   'Nb3 Ga1 As6 O24'
_cell_volume   540.43392666
_cell_formula_units_Z   1
loop_
 _symmetry_equiv_pos_site_id
 _symmetry_equiv_pos_as_xyz
  1  'x, y, z'
loop_
 _atom_site_type_symbol
 _atom_site_label
 _atom_site_symmetry_multiplicity
 _atom_site_fract_x
 _atom_site_fract_y
 _atom_site_fract_z
 _atom_site_occupancy
  Nb  Nb0  1  0.856605  0.856605  0.856605  1
  Nb  Nb1  1  0.641583  0.641583  0.641583  1
  Nb  Nb2  1  0.361966  0.361966  0.361966  1
  Ga  Ga3  1  0.145156  0.145156  0.145156  1
  As  As4  1  0.255322  0.512941  0.972327  1
  As  As5  1  0.972327  0.255322  0.512941  1
  As  As6  1  0.512941  0.972327  0.255322  1
  As  As7  1  0.459878  0.031066  0.765597  1
  As  As8  1  0.031066  0.765597  0.459878  1
  As  As9  1  0.765597  0.459878  0.031066  1
  O  O10  1  0.702717  0.500701  0.866961  1
  O  O11  1  0.500701  0.866961  0.702717  1
  O  O12  1  0.048566  0.688021  0.966541  1
  O  O13  1  0.866961  0.702717  0.500701  1
  O  O14  1  0.412598  0.592829  0.770137  1
  O  O15  1  0.287133  0.312194  0.983349  1
  O  O16  1  0.966541  0.048566  0.688021  1
  O  O17  1  0.770137  0.412598  0.592829  1
  O  O18  1  0.592829  0.770137  0.412598  1
  O  O19  1  0.666396  0.010445  0.739921  1
  O  O20  1  0.302013  0.007774  0.975706  1
  O  O21  1  0.010445  0.739921  0.666396  1
  O  O22  1  0.983349  0.287133  0.312194  1
  O  O23  1  0.688021  0.966541  0.048566  1
  O  O24  1  0.312194  0.983349  0.287133  1
  O  O25  1  0.400524  0.234690  0.595970  1
  O  O26  1  0.234690  0.595970  0.400524  1
  O  O27  1  0.007774  0.975706  0.302013  1
  O  O28  1  0.739921  0.666396  0.010445  1
  O  O29  1  0.595970  0.400524  0.234690  1
  O  O30  1  0.141622  0.288626  0.502123  1
  O  O31  1  0.975706  0.302013  0.007774  1
  O  O32  1  0.502123  0.141622  0.288626  1
  O  O33  1  0.288626  0.502123  0.141622  1
