# generated using pymatgen
data_Ca3Er5(Sc3Sn4)4
_symmetry_space_group_name_H-M   'P 1'
_cell_length_a   7.65793001
_cell_length_b   7.97913138
_cell_length_c   14.92039400
_cell_angle_alpha   90.13351813
_cell_angle_beta   89.24320740
_cell_angle_gamma   90.08143369
_symmetry_Int_Tables_number   1
_chemical_formula_structural   Ca3Er5(Sc3Sn4)4
_chemical_formula_sum   'Ca3 Er5 Sc12 Sn16'
_cell_volume   911.60734476
_cell_formula_units_Z   1
loop_
 _symmetry_equiv_pos_site_id
 _symmetry_equiv_pos_as_xyz
  1  'x, y, z'
loop_
 _atom_site_type_symbol
 _atom_site_label
 _atom_site_symmetry_multiplicity
 _atom_site_fract_x
 _atom_site_fract_y
 _atom_site_fract_z
 _atom_site_occupancy
  Ca  Ca0  1  0.994038  0.176495  0.093670  1
  Ca  Ca1  1  0.005134  0.822764  0.907090  1
  Ca  Ca2  1  0.504896  0.676996  0.906543  1
  Er  Er3  1  0.003921  0.820795  0.591764  1
  Er  Er4  1  0.495523  0.320952  0.097141  1
  Er  Er5  1  0.995829  0.178955  0.406647  1
  Er  Er6  1  0.494810  0.321785  0.407020  1
  Er  Er7  1  0.504620  0.678847  0.591691  1
  Sc  Sc8  1  0.166054  0.497841  0.748249  1
  Sc  Sc9  1  0.834069  0.502229  0.252184  1
  Sc  Sc10  1  0.334482  0.997687  0.251317  1
  Sc  Sc11  1  0.665767  0.002233  0.747878  1
  Sc  Sc12  1  0.337465  0.160008  0.626044  1
  Sc  Sc13  1  0.662703  0.839108  0.372418  1
  Sc  Sc14  1  0.161951  0.660472  0.373388  1
  Sc  Sc15  1  0.669325  0.840509  0.128368  1
  Sc  Sc16  1  0.838442  0.339707  0.625933  1
  Sc  Sc17  1  0.332301  0.159437  0.872032  1
  Sc  Sc18  1  0.830502  0.340451  0.872303  1
  Sc  Sc19  1  0.169431  0.659854  0.127980  1
  Sn  Sn20  1  0.027677  0.125642  0.748841  1
  Sn  Sn21  1  0.973006  0.874803  0.250998  1
  Sn  Sn22  1  0.472425  0.623929  0.249633  1
  Sn  Sn23  1  0.528072  0.374973  0.748518  1
  Sn  Sn24  1  0.307075  0.850823  0.745548  1
  Sn  Sn25  1  0.691272  0.151096  0.253329  1
  Sn  Sn26  1  0.193522  0.349215  0.252683  1
  Sn  Sn27  1  0.807391  0.649306  0.746046  1
  Sn  Sn28  1  0.183918  0.455342  0.540960  1
  Sn  Sn29  1  0.815411  0.544585  0.458379  1
  Sn  Sn30  1  0.317021  0.955677  0.457992  1
  Sn  Sn31  1  0.825153  0.539805  0.045600  1
  Sn  Sn32  1  0.683294  0.044350  0.540700  1
  Sn  Sn33  1  0.174068  0.455290  0.957671  1
  Sn  Sn34  1  0.669480  0.045713  0.957890  1
  Sn  Sn35  1  0.329954  0.962323  0.045551  1
