# generated using pymatgen
data_Sm3ErTh6(Tl3C)2
_symmetry_space_group_name_H-M   'P 1'
_cell_length_a   9.43222100
_cell_length_b   9.43221902
_cell_length_c   6.41858300
_cell_angle_alpha   90.00000000
_cell_angle_beta   90.00000000
_cell_angle_gamma   120.00000344
_symmetry_Int_Tables_number   1
_chemical_formula_structural   Sm3ErTh6(Tl3C)2
_chemical_formula_sum   'Sm3 Er1 Th6 Tl6 C2'
_cell_volume   494.53567074
_cell_formula_units_Z   1
loop_
 _symmetry_equiv_pos_site_id
 _symmetry_equiv_pos_as_xyz
  1  'x, y, z'
loop_
 _atom_site_type_symbol
 _atom_site_label
 _atom_site_symmetry_multiplicity
 _atom_site_fract_x
 _atom_site_fract_y
 _atom_site_fract_z
 _atom_site_occupancy
  Sm  Sm0  1  0.333333  0.666667  0.500000  1
  Sm  Sm1  1  0.333333  0.666667  0.000000  1
  Sm  Sm2  1  0.666667  0.333333  0.000000  1
  Er  Er3  1  0.666667  0.333333  0.500000  1
  Th  Th4  1  0.782683  0.782521  0.250424  1
  Th  Th5  1  0.217479  0.000162  0.250424  1
  Th  Th6  1  0.999838  0.217317  0.250424  1
  Th  Th7  1  0.217479  0.217317  0.749576  1
  Th  Th8  1  0.782683  0.000162  0.749576  1
  Th  Th9  1  0.999838  0.782521  0.749576  1
  Tl  Tl10  1  0.409632  0.406826  0.252717  1
  Tl  Tl11  1  0.593174  0.002807  0.252717  1
  Tl  Tl12  1  0.997193  0.590368  0.252717  1
  Tl  Tl13  1  0.593174  0.590368  0.747283  1
  Tl  Tl14  1  0.409632  0.002807  0.747283  1
  Tl  Tl15  1  0.997193  0.406826  0.747283  1
  C  C16  1  0.000000  0.000000  0.500000  1
  C  C17  1  0.000000  0.000000  0.000000  1
