# generated using pymatgen
data_Tb4In2Ga3Si
_symmetry_space_group_name_H-M   'P 1'
_cell_length_a   7.25544020
_cell_length_b   7.25544020
_cell_length_c   4.38989800
_cell_angle_alpha   90.00000000
_cell_angle_beta   90.00000000
_cell_angle_gamma   90.58393389
_symmetry_Int_Tables_number   1
_chemical_formula_structural   Tb4In2Ga3Si
_chemical_formula_sum   'Tb4 In2 Ga3 Si1'
_cell_volume   231.07843013
_cell_formula_units_Z   1
loop_
 _symmetry_equiv_pos_site_id
 _symmetry_equiv_pos_as_xyz
  1  'x, y, z'
loop_
 _atom_site_type_symbol
 _atom_site_label
 _atom_site_symmetry_multiplicity
 _atom_site_fract_x
 _atom_site_fract_y
 _atom_site_fract_z
 _atom_site_occupancy
  Tb  Tb0  1  0.325362  0.172269  0.499999  1
  Tb  Tb1  1  0.825846  0.325846  0.499999  1
  Tb  Tb2  1  0.177314  0.677315  0.499999  1
  Tb  Tb3  1  0.672270  0.825362  0.499999  1
  In  In4  1  0.999701  0.999659  0.000000  1
  In  In5  1  0.499659  0.499701  0.000000  1
  Ga  Ga6  1  0.620842  0.120842  0.000000  1
  Ga  Ga7  1  0.122852  0.376752  0.000000  1
  Ga  Ga8  1  0.876752  0.622852  0.000000  1
  Si  Si9  1  0.379403  0.879403  0.000000  1
