# generated using pymatgen
data_Tb6Dy4Si5Bi
_symmetry_space_group_name_H-M   'P 1'
_cell_length_a   8.57282000
_cell_length_b   8.61882611
_cell_length_c   6.39772700
_cell_angle_alpha   90.00000000
_cell_angle_beta   90.00000000
_cell_angle_gamma   119.82358147
_symmetry_Int_Tables_number   1
_chemical_formula_structural   Tb6Dy4Si5Bi
_chemical_formula_sum   'Tb6 Dy4 Si5 Bi1'
_cell_volume   410.10726930
_cell_formula_units_Z   1
loop_
 _symmetry_equiv_pos_site_id
 _symmetry_equiv_pos_as_xyz
  1  'x, y, z'
loop_
 _atom_site_type_symbol
 _atom_site_label
 _atom_site_symmetry_multiplicity
 _atom_site_fract_x
 _atom_site_fract_y
 _atom_site_fract_z
 _atom_site_occupancy
  Tb  Tb0  1  0.984888  0.744483  0.750000  1
  Tb  Tb1  1  0.998189  0.243667  0.250000  1
  Tb  Tb2  1  0.754521  0.756333  0.250000  1
  Tb  Tb3  1  0.767314  0.000000  0.750000  1
  Tb  Tb4  1  0.240406  0.255517  0.750000  1
  Tb  Tb5  1  0.240792  0.000000  0.250000  1
  Dy  Dy6  1  0.676817  0.346120  0.005009  1
  Dy  Dy7  1  0.330697  0.653880  0.494991  1
  Dy  Dy8  1  0.330697  0.653880  0.005009  1
  Dy  Dy9  1  0.676817  0.346120  0.494991  1
  Si  Si10  1  0.393119  0.390590  0.250000  1
  Si  Si11  1  0.002529  0.609410  0.250000  1
  Si  Si12  1  0.998628  0.394375  0.750000  1
  Si  Si13  1  0.604253  0.605625  0.750000  1
  Si  Si14  1  0.606926  0.000000  0.250000  1
  Bi  Bi15  1  0.393406  0.000000  0.750000  1
