# generated using pymatgen
data_Sc11PaTc3Br16
_symmetry_space_group_name_H-M   'P 1'
_cell_length_a   9.14614255
_cell_length_b   11.29142722
_cell_length_c   12.15783958
_cell_angle_alpha   118.55439969
_cell_angle_beta   101.32995937
_cell_angle_gamma   100.21603982
_symmetry_Int_Tables_number   1
_chemical_formula_structural   Sc11PaTc3Br16
_chemical_formula_sum   'Sc11 Pa1 Tc3 Br16'
_cell_volume   1026.32127218
_cell_formula_units_Z   1
loop_
 _symmetry_equiv_pos_site_id
 _symmetry_equiv_pos_as_xyz
  1  'x, y, z'
loop_
 _atom_site_type_symbol
 _atom_site_label
 _atom_site_symmetry_multiplicity
 _atom_site_fract_x
 _atom_site_fract_y
 _atom_site_fract_z
 _atom_site_occupancy
  Sc  Sc0  1  0.928039  0.723208  0.635970  1
  Sc  Sc1  1  0.770995  0.525906  0.316131  1
  Sc  Sc2  1  0.243775  0.479446  0.706242  1
  Sc  Sc3  1  0.297078  0.748828  0.654105  1
  Sc  Sc4  1  0.708183  0.253679  0.347909  1
  Sc  Sc5  1  0.148993  0.560356  0.323424  1
  Sc  Sc6  1  0.857449  0.454880  0.668914  1
  Sc  Sc7  1  0.406497  0.350013  0.260469  1
  Sc  Sc8  1  0.601161  0.639324  0.723768  1
  Sc  Sc9  1  0.464509  0.298610  0.520832  1
  Sc  Sc10  1  0.544839  0.687819  0.477116  1
  Pa  Pa11  1  0.094914  0.288007  0.370537  1
  Tc  Tc12  1  0.000400  0.488455  0.492621  1
  Tc  Tc13  1  0.326599  0.491455  0.494235  1
  Tc  Tc14  1  0.653897  0.488649  0.492620  1
  Br  Br15  1  0.407082  0.751303  0.890835  1
  Br  Br16  1  0.599525  0.244104  0.110822  1
  Br  Br17  1  0.183697  0.960207  0.783088  1
  Br  Br18  1  0.827998  0.038968  0.219218  1
  Br  Br19  1  0.296711  0.094808  0.250399  1
  Br  Br20  1  0.625232  0.897391  0.743707  1
  Br  Br21  1  0.552021  0.441456  0.797314  1
  Br  Br22  1  0.453107  0.560582  0.203367  1
  Br  Br23  1  0.317712  0.835182  0.468037  1
  Br  Br24  1  0.688220  0.163885  0.527495  1
  Br  Br25  1  0.179625  0.185461  0.551459  1
  Br  Br26  1  0.830538  0.820912  0.472552  1
  Br  Br27  1  0.919442  0.579381  0.165413  1
  Br  Br28  1  0.068852  0.431457  0.840738  1
  Br  Br29  1  0.918490  0.735212  0.871827  1
  Br  Br30  1  0.084422  0.281058  0.118837  1
