# generated using pymatgen
data_TbPr4(SnBi)2
_symmetry_space_group_name_H-M   'P 1'
_cell_length_a   8.42169800
_cell_length_b   8.49134300
_cell_length_c   16.25175500
_cell_angle_alpha   90.00000000
_cell_angle_beta   90.00000000
_cell_angle_gamma   90.00000000
_symmetry_Int_Tables_number   1
_chemical_formula_structural   TbPr4(SnBi)2
_chemical_formula_sum   'Tb4 Pr16 Sn8 Bi8'
_cell_volume   1162.18780609
_cell_formula_units_Z   4
loop_
 _symmetry_equiv_pos_site_id
 _symmetry_equiv_pos_as_xyz
  1  'x, y, z'
loop_
 _atom_site_type_symbol
 _atom_site_label
 _atom_site_symmetry_multiplicity
 _atom_site_fract_x
 _atom_site_fract_y
 _atom_site_fract_z
 _atom_site_occupancy
  Tb  Tb0  1  0.217138  0.496073  0.750000  1
  Tb  Tb1  1  0.717138  0.003927  0.750000  1
  Tb  Tb2  1  0.782862  0.503927  0.250000  1
  Tb  Tb3  1  0.282862  0.996073  0.250000  1
  Pr  Pr4  1  0.387893  0.838189  0.878799  1
  Pr  Pr5  1  0.887893  0.661811  0.621201  1
  Pr  Pr6  1  0.612107  0.161811  0.378799  1
  Pr  Pr7  1  0.112107  0.338189  0.121201  1
  Pr  Pr8  1  0.612107  0.161811  0.121201  1
  Pr  Pr9  1  0.112107  0.338189  0.378799  1
  Pr  Pr10  1  0.387893  0.838189  0.621201  1
  Pr  Pr11  1  0.887893  0.661811  0.878799  1
  Pr  Pr12  1  0.550942  0.326804  0.890776  1
  Pr  Pr13  1  0.050942  0.173196  0.609224  1
  Pr  Pr14  1  0.449058  0.673196  0.390776  1
  Pr  Pr15  1  0.949058  0.826804  0.109224  1
  Pr  Pr16  1  0.449058  0.673196  0.109224  1
  Pr  Pr17  1  0.949058  0.826804  0.390776  1
  Pr  Pr18  1  0.550942  0.326804  0.609224  1
  Pr  Pr19  1  0.050942  0.173196  0.890776  1
  Sn  Sn20  1  0.585203  0.625258  0.750000  1
  Sn  Sn21  1  0.085203  0.874742  0.750000  1
  Sn  Sn22  1  0.414797  0.374742  0.250000  1
  Sn  Sn23  1  0.914797  0.125258  0.250000  1
  Sn  Sn24  1  0.354813  0.143464  0.750000  1
  Sn  Sn25  1  0.854813  0.356536  0.750000  1
  Sn  Sn26  1  0.645187  0.856536  0.250000  1
  Sn  Sn27  1  0.145187  0.643464  0.250000  1
  Bi  Bi28  1  0.270308  0.019869  0.047564  1
  Bi  Bi29  1  0.770308  0.480131  0.452436  1
  Bi  Bi30  1  0.729692  0.980131  0.547564  1
  Bi  Bi31  1  0.229692  0.519869  0.952436  1
  Bi  Bi32  1  0.729692  0.980131  0.952436  1
  Bi  Bi33  1  0.229692  0.519869  0.547564  1
  Bi  Bi34  1  0.270308  0.019869  0.452436  1
  Bi  Bi35  1  0.770308  0.480131  0.047564  1
