# generated using pymatgen
data_Tb4Ga24IrPt8
_symmetry_space_group_name_H-M   'P 1'
_cell_length_a   7.49389458
_cell_length_b   7.57962214
_cell_length_c   13.31023077
_cell_angle_alpha   84.77793770
_cell_angle_beta   79.49337300
_cell_angle_gamma   60.26540600
_symmetry_Int_Tables_number   1
_chemical_formula_structural   Tb4Ga24IrPt8
_chemical_formula_sum   'Tb4 Ga24 Ir1 Pt8'
_cell_volume   645.48081996
_cell_formula_units_Z   1
loop_
 _symmetry_equiv_pos_site_id
 _symmetry_equiv_pos_as_xyz
  1  'x, y, z'
loop_
 _atom_site_type_symbol
 _atom_site_label
 _atom_site_symmetry_multiplicity
 _atom_site_fract_x
 _atom_site_fract_y
 _atom_site_fract_z
 _atom_site_occupancy
  Tb  Tb0  1  0.395113  0.168260  0.810887  1
  Tb  Tb1  1  0.604887  0.831740  0.189113  1
  Tb  Tb2  1  0.730939  0.499093  0.811450  1
  Tb  Tb3  1  0.269061  0.500907  0.188550  1
  Ga  Ga4  1  0.688607  0.831526  0.939682  1
  Ga  Ga5  1  0.311393  0.168474  0.060318  1
  Ga  Ga6  1  0.144939  0.832606  0.559835  1
  Ga  Ga7  1  0.855061  0.167394  0.440165  1
  Ga  Ga8  1  0.477906  0.166490  0.556757  1
  Ga  Ga9  1  0.522094  0.833510  0.443243  1
  Ga  Ga10  1  0.221313  0.165661  0.322225  1
  Ga  Ga11  1  0.778687  0.834339  0.677775  1
  Ga  Ga12  1  0.436731  0.503744  0.676236  1
  Ga  Ga13  1  0.563269  0.496256  0.323764  1
  Ga  Ga14  1  0.106235  0.163481  0.674964  1
  Ga  Ga15  1  0.893765  0.836519  0.325036  1
  Ga  Ga16  1  0.354880  0.498243  0.940651  1
  Ga  Ga17  1  0.645120  0.501757  0.059349  1
  Ga  Ga18  1  0.019755  0.173261  0.945507  1
  Ga  Ga19  1  0.980245  0.826739  0.054493  1
  Ga  Ga20  1  0.187648  0.498640  0.442622  1
  Ga  Ga21  1  0.812352  0.501360  0.557378  1
  Ga  Ga22  1  0.735353  0.163708  0.181931  1
  Ga  Ga23  1  0.264647  0.836292  0.818069  1
  Ga  Ga24  1  0.061580  0.629144  0.818624  1
  Ga  Ga25  1  0.938420  0.370856  0.181376  1
  Ga  Ga26  1  0.858121  0.039838  0.816996  1
  Ga  Ga27  1  0.141879  0.960162  0.183005  1
  Ir  Ir28  1  0.000000  0.500000  0.000000  1
  Pt  Pt29  1  0.117041  0.495533  0.639411  1
  Pt  Pt30  1  0.882959  0.504467  0.360589  1
  Pt  Pt31  1  0.660148  0.169540  0.999248  1
  Pt  Pt32  1  0.339852  0.830460  0.000752  1
  Pt  Pt33  1  0.541470  0.166913  0.360389  1
  Pt  Pt34  1  0.458530  0.833087  0.639611  1
  Pt  Pt35  1  0.778761  0.172069  0.637032  1
  Pt  Pt36  1  0.221239  0.827931  0.362968  1
