# generated using pymatgen
data_HfSi2Rh3
_symmetry_space_group_name_H-M   'P 1'
_cell_length_a   3.85138700
_cell_length_b   6.21078967
_cell_length_c   7.40529111
_cell_angle_alpha   91.09903863
_cell_angle_beta   90.00000000
_cell_angle_gamma   90.00000000
_symmetry_Int_Tables_number   1
_chemical_formula_structural   HfSi2Rh3
_chemical_formula_sum   'Hf2 Si4 Rh6'
_cell_volume   177.10312120
_cell_formula_units_Z   2
loop_
 _symmetry_equiv_pos_site_id
 _symmetry_equiv_pos_as_xyz
  1  'x, y, z'
loop_
 _atom_site_type_symbol
 _atom_site_label
 _atom_site_symmetry_multiplicity
 _atom_site_fract_x
 _atom_site_fract_y
 _atom_site_fract_z
 _atom_site_occupancy
  Hf  Hf0  1  0.250000  0.030346  0.310128  1
  Hf  Hf1  1  0.750000  0.969654  0.689872  1
  Si  Si2  1  0.250000  0.728720  0.891202  1
  Si  Si3  1  0.750000  0.271280  0.108798  1
  Si  Si4  1  0.250000  0.299095  0.637154  1
  Si  Si5  1  0.750000  0.700905  0.362846  1
  Rh  Rh6  1  0.250000  0.525693  0.171466  1
  Rh  Rh7  1  0.750000  0.474307  0.828534  1
  Rh  Rh8  1  0.750000  0.860085  0.069622  1
  Rh  Rh9  1  0.250000  0.139915  0.930378  1
  Rh  Rh10  1  0.750000  0.328340  0.436448  1
  Rh  Rh11  1  0.250000  0.671660  0.563552  1
