# generated using pymatgen
data_TiNb6Al5Os12
_symmetry_space_group_name_H-M   'P 1'
_cell_length_a   4.41079900
_cell_length_b   6.25021800
_cell_length_c   13.27150200
_cell_angle_alpha   90.00000000
_cell_angle_beta   89.99870293
_cell_angle_gamma   90.00000000
_symmetry_Int_Tables_number   1
_chemical_formula_structural   TiNb6Al5Os12
_chemical_formula_sum   'Ti1 Nb6 Al5 Os12'
_cell_volume   365.87480966
_cell_formula_units_Z   1
loop_
 _symmetry_equiv_pos_site_id
 _symmetry_equiv_pos_as_xyz
  1  'x, y, z'
loop_
 _atom_site_type_symbol
 _atom_site_label
 _atom_site_symmetry_multiplicity
 _atom_site_fract_x
 _atom_site_fract_y
 _atom_site_fract_z
 _atom_site_occupancy
  Ti  Ti0  1  0.000000  0.000000  0.000000  1
  Nb  Nb1  1  0.000000  0.500000  0.000000  1
  Nb  Nb2  1  0.499812  0.000000  0.168708  1
  Nb  Nb3  1  0.999797  0.500000  0.333705  1
  Nb  Nb4  1  0.499999  0.000000  0.500000  1
  Nb  Nb5  1  0.000203  0.500000  0.666295  1
  Nb  Nb6  1  0.500188  0.000000  0.831292  1
  Al  Al7  1  0.499761  0.500000  0.167332  1
  Al  Al8  1  0.999754  0.000000  0.333819  1
  Al  Al9  1  0.499999  0.500000  0.500000  1
  Al  Al10  1  0.000246  0.000000  0.666181  1
  Al  Al11  1  0.500239  0.500000  0.832668  1
  Os  Os12  1  0.499999  0.250294  0.000000  1
  Os  Os13  1  0.499999  0.749706  0.000000  1
  Os  Os14  1  0.999812  0.249983  0.166263  1
  Os  Os15  1  0.999812  0.750017  0.166263  1
  Os  Os16  1  0.499806  0.250393  0.333310  1
  Os  Os17  1  0.499806  0.749607  0.333310  1
  Os  Os18  1  0.000000  0.250537  0.500000  1
  Os  Os19  1  0.000000  0.749463  0.500000  1
  Os  Os20  1  0.500194  0.250393  0.666690  1
  Os  Os21  1  0.500194  0.749607  0.666690  1
  Os  Os22  1  0.000188  0.249983  0.833737  1
  Os  Os23  1  0.000188  0.750017  0.833737  1
