# generated using pymatgen
data_Pr4Al18Ir5Pt
_symmetry_space_group_name_H-M   'P 1'
_cell_length_a   7.64406344
_cell_length_b   7.64406236
_cell_length_c   9.63418002
_cell_angle_alpha   90.00370819
_cell_angle_beta   90.00370982
_cell_angle_gamma   119.47856030
_symmetry_Int_Tables_number   1
_chemical_formula_structural   Pr4Al18Ir5Pt
_chemical_formula_sum   'Pr4 Al18 Ir5 Pt1'
_cell_volume   490.06302581
_cell_formula_units_Z   1
loop_
 _symmetry_equiv_pos_site_id
 _symmetry_equiv_pos_as_xyz
  1  'x, y, z'
loop_
 _atom_site_type_symbol
 _atom_site_label
 _atom_site_symmetry_multiplicity
 _atom_site_fract_x
 _atom_site_fract_y
 _atom_site_fract_z
 _atom_site_occupancy
  Pr  Pr0  1  0.994441  0.669324  0.250019  1
  Pr  Pr1  1  0.004874  0.330232  0.750113  1
  Pr  Pr2  1  0.669768  0.995126  0.249887  1
  Pr  Pr3  1  0.330676  0.005559  0.749981  1
  Al  Al4  1  0.130263  0.129469  0.250215  1
  Al  Al5  1  0.870531  0.869737  0.749785  1
  Al  Al6  1  0.005992  0.334867  0.074114  1
  Al  Al7  1  0.000521  0.668717  0.926087  1
  Al  Al8  1  0.997801  0.665083  0.572124  1
  Al  Al9  1  0.334917  0.002199  0.427876  1
  Al  Al10  1  0.002647  0.334660  0.427531  1
  Al  Al11  1  0.665340  0.997353  0.572469  1
  Al  Al12  1  0.665133  0.994008  0.925886  1
  Al  Al13  1  0.331283  0.999479  0.073913  1
  Al  Al14  1  0.334057  0.334139  0.547381  1
  Al  Al15  1  0.665861  0.665943  0.452619  1
  Al  Al16  1  0.665175  0.668224  0.049540  1
  Al  Al17  1  0.331776  0.334825  0.950460  1
  Al  Al18  1  0.340206  0.546360  0.250086  1
  Al  Al19  1  0.660201  0.455698  0.747307  1
  Al  Al20  1  0.544302  0.339799  0.252693  1
  Al  Al21  1  0.453640  0.659794  0.749914  1
  Ir  Ir22  1  0.329195  0.670805  0.000000  1
  Ir  Ir23  1  0.329415  0.670585  0.500000  1
  Ir  Ir24  1  0.670879  0.329121  0.500000  1
  Ir  Ir25  1  0.999899  0.000101  0.000000  1
  Ir  Ir26  1  0.000151  0.999849  0.500000  1
  Pt  Pt27  1  0.671058  0.328942  0.000000  1
