# generated using pymatgen
data_Ba6DyY3(PS4)8
_symmetry_space_group_name_H-M   'P 1'
_cell_length_a   10.41338900
_cell_length_b   12.84083801
_cell_length_c   19.44552101
_cell_angle_alpha   89.99672572
_cell_angle_beta   90.00000000
_cell_angle_gamma   90.00000000
_symmetry_Int_Tables_number   1
_chemical_formula_structural   Ba6DyY3(PS4)8
_chemical_formula_sum   'Ba12 Dy2 Y6 P16 S64'
_cell_volume   2600.18975199
_cell_formula_units_Z   2
loop_
 _symmetry_equiv_pos_site_id
 _symmetry_equiv_pos_as_xyz
  1  'x, y, z'
loop_
 _atom_site_type_symbol
 _atom_site_label
 _atom_site_symmetry_multiplicity
 _atom_site_fract_x
 _atom_site_fract_y
 _atom_site_fract_z
 _atom_site_occupancy
  Ba  Ba0  1  0.616745  0.250050  0.000015  1
  Ba  Ba1  1  0.383256  0.750050  0.000015  1
  Ba  Ba2  1  0.289633  0.392272  0.227174  1
  Ba  Ba3  1  0.710366  0.892273  0.227174  1
  Ba  Ba4  1  0.789647  0.392285  0.272796  1
  Ba  Ba5  1  0.210352  0.892286  0.272796  1
  Ba  Ba6  1  0.116733  0.250001  0.499997  1
  Ba  Ba7  1  0.883267  0.750001  0.499997  1
  Ba  Ba8  1  0.789698  0.107713  0.727218  1
  Ba  Ba9  1  0.210301  0.607713  0.727218  1
  Ba  Ba10  1  0.289587  0.107702  0.772803  1
  Ba  Ba11  1  0.710412  0.607702  0.772803  1
  Dy  Dy12  1  0.128446  0.387476  0.926394  1
  Dy  Dy13  1  0.871554  0.887476  0.926394  1
  Y  Y14  1  0.128426  0.112512  0.073580  1
  Y  Y15  1  0.871574  0.612512  0.073580  1
  Y  Y16  1  0.628429  0.112502  0.426391  1
  Y  Y17  1  0.371572  0.612502  0.426391  1
  Y  Y18  1  0.628427  0.387496  0.573601  1
  Y  Y19  1  0.371574  0.887496  0.573601  1
  P  P20  1  0.995983  0.360130  0.102223  1
  P  P21  1  0.004018  0.860130  0.102223  1
  P  P22  1  0.436983  0.048110  0.130990  1
  P  P23  1  0.563017  0.548110  0.130990  1
  P  P24  1  0.936987  0.048110  0.369003  1
  P  P25  1  0.063013  0.548110  0.369003  1
  P  P26  1  0.495948  0.360108  0.397716  1
  P  P27  1  0.504052  0.860108  0.397716  1
  P  P28  1  0.495950  0.139892  0.602286  1
  P  P29  1  0.504050  0.639891  0.602286  1
  P  P30  1  0.936988  0.451889  0.630994  1
  P  P31  1  0.063012  0.951889  0.630994  1
  P  P32  1  0.436857  0.451880  0.869049  1
  P  P33  1  0.563143  0.951880  0.869049  1
  P  P34  1  0.995926  0.139883  0.897744  1
  P  P35  1  0.004075  0.639882  0.897744  1
  S  S36  1  0.888713  0.401519  0.016968  1
  S  S37  1  0.111288  0.901519  0.016968  1
  S  S38  1  0.379862  0.084809  0.032505  1
  S  S39  1  0.620139  0.584810  0.032505  1
  S  S40  1  0.179770  0.330310  0.067992  1
  S  S41  1  0.820230  0.830309  0.067992  1
  S  S42  1  0.569771  0.388863  0.147140  1
  S  S43  1  0.430229  0.888863  0.147140  1
  S  S44  1  0.614797  0.104718  0.149560  1
  S  S45  1  0.385202  0.604718  0.149560  1
  S  S46  1  0.934669  0.230855  0.150577  1
  S  S47  1  0.065331  0.730854  0.150577  1
  S  S48  1  0.004403  0.484359  0.167494  1
  S  S49  1  0.995597  0.984358  0.167494  1
  S  S50  1  0.291474  0.113141  0.191085  1
  S  S51  1  0.708527  0.613141  0.191085  1
  S  S52  1  0.791479  0.113138  0.308908  1
  S  S53  1  0.208521  0.613138  0.308908  1
  S  S54  1  0.504399  0.484384  0.332485  1
  S  S55  1  0.495601  0.984383  0.332485  1
  S  S56  1  0.434620  0.230833  0.349391  1
  S  S57  1  0.565379  0.730832  0.349391  1
  S  S58  1  0.114801  0.104718  0.350439  1
  S  S59  1  0.885199  0.604718  0.350439  1
  S  S60  1  0.069772  0.388863  0.352865  1
  S  S61  1  0.930228  0.888863  0.352865  1
  S  S62  1  0.679791  0.330229  0.431868  1
  S  S63  1  0.320209  0.830228  0.431868  1
  S  S64  1  0.879866  0.084810  0.467488  1
  S  S65  1  0.120133  0.584811  0.467488  1
  S  S66  1  0.388542  0.401515  0.482923  1
  S  S67  1  0.611458  0.901515  0.482923  1
  S  S68  1  0.388541  0.098487  0.517080  1
  S  S69  1  0.611459  0.598487  0.517080  1
  S  S70  1  0.879865  0.415190  0.532511  1
  S  S71  1  0.120134  0.915190  0.532511  1
  S  S72  1  0.679791  0.169767  0.568132  1
  S  S73  1  0.320209  0.669767  0.568132  1
  S  S74  1  0.069767  0.111137  0.647138  1
  S  S75  1  0.930233  0.611137  0.647138  1
  S  S76  1  0.114800  0.395285  0.649563  1
  S  S77  1  0.885200  0.895285  0.649563  1
  S  S78  1  0.434613  0.269168  0.650612  1
  S  S79  1  0.565386  0.769167  0.650612  1
  S  S80  1  0.504404  0.015615  0.667517  1
  S  S81  1  0.495596  0.515615  0.667517  1
  S  S82  1  0.791477  0.386861  0.691090  1
  S  S83  1  0.208523  0.886862  0.691090  1
  S  S84  1  0.291115  0.386863  0.809091  1
  S  S85  1  0.708886  0.886864  0.809091  1
  S  S86  1  0.004327  0.015498  0.832613  1
  S  S87  1  0.995673  0.515498  0.832613  1
  S  S88  1  0.934803  0.269272  0.849458  1
  S  S89  1  0.065197  0.769271  0.849458  1
  S  S90  1  0.614672  0.395265  0.850443  1
  S  S91  1  0.385327  0.895265  0.850443  1
  S  S92  1  0.569775  0.111116  0.852862  1
  S  S93  1  0.430225  0.611116  0.852862  1
  S  S94  1  0.179719  0.170077  0.931871  1
  S  S95  1  0.820281  0.670077  0.931871  1
  S  S96  1  0.379591  0.415125  0.967493  1
  S  S97  1  0.620410  0.915125  0.967493  1
  S  S98  1  0.888459  0.098198  0.982863  1
  S  S99  1  0.111542  0.598198  0.982863  1
