# generated using pymatgen
data_ScTaSiRh5
_symmetry_space_group_name_H-M   'P 1'
_cell_length_a   4.03223500
_cell_length_b   5.53953146
_cell_length_c   10.74888000
_cell_angle_alpha   89.78650813
_cell_angle_beta   90.00000000
_cell_angle_gamma   90.00000000
_symmetry_Int_Tables_number   1
_chemical_formula_structural   ScTaSiRh5
_chemical_formula_sum   'Sc2 Ta2 Si2 Rh10'
_cell_volume   240.09276181
_cell_formula_units_Z   2
loop_
 _symmetry_equiv_pos_site_id
 _symmetry_equiv_pos_as_xyz
  1  'x, y, z'
loop_
 _atom_site_type_symbol
 _atom_site_label
 _atom_site_symmetry_multiplicity
 _atom_site_fract_x
 _atom_site_fract_y
 _atom_site_fract_z
 _atom_site_occupancy
  Sc  Sc0  1  0.500000  0.675219  0.862430  1
  Sc  Sc1  1  0.500000  0.324781  0.137570  1
  Ta  Ta2  1  0.500000  0.173362  0.644577  1
  Ta  Ta3  1  0.500000  0.826638  0.355423  1
  Si  Si4  1  0.000000  0.500000  0.500000  1
  Si  Si5  1  0.000000  0.000000  0.000000  1
  Rh  Rh6  1  0.500000  0.177715  0.892614  1
  Rh  Rh7  1  0.500000  0.822285  0.107386  1
  Rh  Rh8  1  0.500000  0.685956  0.598077  1
  Rh  Rh9  1  0.500000  0.314044  0.401923  1
  Rh  Rh10  1  0.000000  0.425686  0.735017  1
  Rh  Rh11  1  0.000000  0.574314  0.264983  1
  Rh  Rh12  1  0.000000  0.000000  0.500000  1
  Rh  Rh13  1  0.000000  0.500000  0.000000  1
  Rh  Rh14  1  0.000000  0.067961  0.245643  1
  Rh  Rh15  1  0.000000  0.932039  0.754357  1
