# generated using pymatgen
data_Dy3Ho2Tm2P12Ir17
_symmetry_space_group_name_H-M   'P 1'
_cell_length_a   12.70977200
_cell_length_b   12.99553888
_cell_length_c   3.98079300
_cell_angle_alpha   90.00000000
_cell_angle_beta   90.00000000
_cell_angle_gamma   119.27521675
_symmetry_Int_Tables_number   1
_chemical_formula_structural   Dy3Ho2Tm2P12Ir17
_chemical_formula_sum   'Dy3 Ho2 Tm2 P12 Ir17'
_cell_volume   573.53245310
_cell_formula_units_Z   1
loop_
 _symmetry_equiv_pos_site_id
 _symmetry_equiv_pos_as_xyz
  1  'x, y, z'
loop_
 _atom_site_type_symbol
 _atom_site_label
 _atom_site_symmetry_multiplicity
 _atom_site_fract_x
 _atom_site_fract_y
 _atom_site_fract_z
 _atom_site_occupancy
  Dy  Dy0  1  0.329817  0.661996  0.500000  1
  Dy  Dy1  1  0.667822  0.338004  0.500000  1
  Dy  Dy2  1  0.810826  0.000000  0.000000  1
  Ho  Ho3  1  0.002497  0.816498  0.000000  1
  Ho  Ho4  1  0.185999  0.183502  0.000000  1
  Tm  Tm5  1  0.996008  0.443849  0.500000  1
  Tm  Tm6  1  0.552159  0.556151  0.500000  1
  P  P7  1  0.009704  0.658083  0.500000  1
  P  P8  1  0.351621  0.341917  0.500000  1
  P  P9  1  0.644136  0.000000  0.500000  1
  P  P10  1  0.516397  0.690554  0.000000  1
  P  P11  1  0.309128  0.824398  0.000000  1
  P  P12  1  0.166692  0.480535  0.000000  1
  P  P13  1  0.484729  0.175602  0.000000  1
  P  P14  1  0.686158  0.519465  0.000000  1
  P  P15  1  0.825843  0.309446  0.000000  1
  P  P16  1  0.999494  0.174646  0.500000  1
  P  P17  1  0.824848  0.825354  0.500000  1
  P  P18  1  0.181527  0.000000  0.500000  1
  Ir  Ir19  1  0.504357  0.865949  0.000000  1
  Ir  Ir20  1  0.121782  0.645346  0.000000  1
  Ir  Ir21  1  0.357801  0.501455  0.000000  1
  Ir  Ir22  1  0.476436  0.354654  0.000000  1
  Ir  Ir23  1  0.856347  0.498545  0.000000  1
  Ir  Ir24  1  0.638408  0.134051  0.000000  1
  Ir  Ir25  1  0.464951  0.000000  0.500000  1
  Ir  Ir26  1  0.996596  0.272280  0.000000  1
  Ir  Ir27  1  0.724315  0.727720  0.000000  1
  Ir  Ir28  1  0.286936  0.000000  0.000000  1
  Ir  Ir29  1  0.623928  0.810574  0.500000  1
  Ir  Ir30  1  0.208511  0.828501  0.500000  1
  Ir  Ir31  1  0.180600  0.364114  0.500000  1
  Ir  Ir32  1  0.380010  0.171499  0.500000  1
  Ir  Ir33  1  0.816486  0.635886  0.500000  1
  Ir  Ir34  1  0.813353  0.189426  0.500000  1
  Ir  Ir35  1  0.003776  0.000000  0.500000  1
