# generated using pymatgen
data_CaIn(FeI4)4
_symmetry_space_group_name_H-M   'P 1'
_cell_length_a   11.86688079
_cell_length_b   11.86688064
_cell_length_c   14.19041500
_cell_angle_alpha   55.83463560
_cell_angle_beta   55.83463609
_cell_angle_gamma   49.23060049
_symmetry_Int_Tables_number   1
_chemical_formula_structural   CaIn(FeI4)4
_chemical_formula_sum   'Ca1 In1 Fe4 I16'
_cell_volume   1190.15768363
_cell_formula_units_Z   1
loop_
 _symmetry_equiv_pos_site_id
 _symmetry_equiv_pos_as_xyz
  1  'x, y, z'
loop_
 _atom_site_type_symbol
 _atom_site_label
 _atom_site_symmetry_multiplicity
 _atom_site_fract_x
 _atom_site_fract_y
 _atom_site_fract_z
 _atom_site_occupancy
  Ca  Ca0  1  0.995332  0.004668  0.750000  1
  In  In1  1  0.009334  0.990666  0.250000  1
  Fe  Fe2  1  0.157274  0.675775  0.528731  1
  Fe  Fe3  1  0.324225  0.842726  0.971269  1
  Fe  Fe4  1  0.845351  0.318092  0.467672  1
  Fe  Fe5  1  0.681908  0.154649  0.032328  1
  I  I6  1  0.297521  0.397983  0.539208  1
  I  I7  1  0.602017  0.702479  0.960792  1
  I  I8  1  0.699619  0.602402  0.443085  1
  I  I9  1  0.397598  0.300381  0.056915  1
  I  I10  1  0.881881  0.828848  0.506597  1
  I  I11  1  0.171152  0.118119  0.993403  1
  I  I12  1  0.121161  0.182615  0.478398  1
  I  I13  1  0.817385  0.878839  0.021602  1
  I  I14  1  0.142480  0.684937  0.713878  1
  I  I15  1  0.315063  0.857520  0.786122  1
  I  I16  1  0.860456  0.301377  0.285645  1
  I  I17  1  0.698623  0.139544  0.214355  1
  I  I18  1  0.281835  0.835855  0.328033  1
  I  I19  1  0.164145  0.718165  0.171967  1
  I  I20  1  0.707380  0.171739  0.665908  1
  I  I21  1  0.828261  0.292620  0.834092  1
