# generated using pymatgen
data_HfPa2Mn2Ga3Ni
_symmetry_space_group_name_H-M   'P 1'
_cell_length_a   6.91216104
_cell_length_b   6.64241187
_cell_length_c   3.72389900
_cell_angle_alpha   90.00000000
_cell_angle_beta   90.00000000
_cell_angle_gamma   118.71722746
_symmetry_Int_Tables_number   1
_chemical_formula_structural   HfPa2Mn2Ga3Ni
_chemical_formula_sum   'Hf1 Pa2 Mn2 Ga3 Ni1'
_cell_volume   149.94707345
_cell_formula_units_Z   1
loop_
 _symmetry_equiv_pos_site_id
 _symmetry_equiv_pos_as_xyz
  1  'x, y, z'
loop_
 _atom_site_type_symbol
 _atom_site_label
 _atom_site_symmetry_multiplicity
 _atom_site_fract_x
 _atom_site_fract_y
 _atom_site_fract_z
 _atom_site_occupancy
  Hf  Hf0  1  0.000000  0.588197  0.500000  1
  Pa  Pa1  1  0.423444  0.431197  0.500000  1
  Pa  Pa2  1  0.576556  0.007752  0.500000  1
  Mn  Mn3  1  0.637825  0.304320  0.000000  1
  Mn  Mn4  1  0.362175  0.666495  0.000000  1
  Ga  Ga5  1  0.775016  0.755378  0.000000  1
  Ga  Ga6  1  0.224984  0.980364  0.000000  1
  Ga  Ga7  1  0.000000  0.263576  0.000000  1
  Ni  Ni8  1  0.000000  0.002720  0.500000  1
