# generated using pymatgen
data_Ho4TmPt15
_symmetry_space_group_name_H-M   'P 1'
_cell_length_a   4.11609500
_cell_length_b   4.11609500
_cell_length_c   20.50036000
_cell_angle_alpha   90.00000000
_cell_angle_beta   90.00000000
_cell_angle_gamma   90.00000000
_symmetry_Int_Tables_number   1
_chemical_formula_structural   Ho4TmPt15
_chemical_formula_sum   'Ho4 Tm1 Pt15'
_cell_volume   347.32197921
_cell_formula_units_Z   1
loop_
 _symmetry_equiv_pos_site_id
 _symmetry_equiv_pos_as_xyz
  1  'x, y, z'
loop_
 _atom_site_type_symbol
 _atom_site_label
 _atom_site_symmetry_multiplicity
 _atom_site_fract_x
 _atom_site_fract_y
 _atom_site_fract_z
 _atom_site_occupancy
  Ho  Ho0  1  0.000000  0.000000  0.198533  1
  Ho  Ho1  1  0.000000  0.000000  0.399260  1
  Ho  Ho2  1  0.000000  0.000000  0.600740  1
  Ho  Ho3  1  0.000000  0.000000  0.801467  1
  Tm  Tm4  1  0.000000  0.000000  0.000000  1
  Pt  Pt5  1  0.500000  0.500000  0.000000  1
  Pt  Pt6  1  0.500000  0.500000  0.198209  1
  Pt  Pt7  1  0.500000  0.500000  0.399260  1
  Pt  Pt8  1  0.500000  0.500000  0.600740  1
  Pt  Pt9  1  0.500000  0.500000  0.801791  1
  Pt  Pt10  1  0.500000  0.000000  0.098436  1
  Pt  Pt11  1  0.500000  0.000000  0.298640  1
  Pt  Pt12  1  0.500000  0.000000  0.500000  1
  Pt  Pt13  1  0.500000  0.000000  0.701360  1
  Pt  Pt14  1  0.500000  0.000000  0.901564  1
  Pt  Pt15  1  0.000000  0.500000  0.098436  1
  Pt  Pt16  1  0.000000  0.500000  0.298640  1
  Pt  Pt17  1  0.000000  0.500000  0.500000  1
  Pt  Pt18  1  0.000000  0.500000  0.701360  1
  Pt  Pt19  1  0.000000  0.500000  0.901564  1
