# generated using pymatgen
data_Ta2VCrF20
_symmetry_space_group_name_H-M   'P 1'
_cell_length_a   5.77619400
_cell_length_b   8.03396735
_cell_length_c   8.55481905
_cell_angle_alpha   89.79944766
_cell_angle_beta   90.00000000
_cell_angle_gamma   90.00000000
_symmetry_Int_Tables_number   1
_chemical_formula_structural   Ta2VCrF20
_chemical_formula_sum   'Ta2 V1 Cr1 F20'
_cell_volume   396.99039652
_cell_formula_units_Z   1
loop_
 _symmetry_equiv_pos_site_id
 _symmetry_equiv_pos_as_xyz
  1  'x, y, z'
loop_
 _atom_site_type_symbol
 _atom_site_label
 _atom_site_symmetry_multiplicity
 _atom_site_fract_x
 _atom_site_fract_y
 _atom_site_fract_z
 _atom_site_occupancy
  Ta  Ta0  1  0.250000  0.585655  0.742854  1
  Ta  Ta1  1  0.250000  0.086694  0.257891  1
  V  V2  1  0.750000  0.916710  0.743705  1
  Cr  Cr3  1  0.750000  0.413672  0.257282  1
  F  F4  1  0.750000  0.467725  0.452939  1
  F  F5  1  0.250000  0.220267  0.075351  1
  F  F6  1  0.250000  0.721065  0.922787  1
  F  F7  1  0.250000  0.032478  0.473134  1
  F  F8  1  0.995828  0.253162  0.328252  1
  F  F9  1  0.250000  0.532866  0.527798  1
  F  F10  1  0.750000  0.970381  0.543977  1
  F  F11  1  0.014736  0.441015  0.803882  1
  F  F12  1  0.532454  0.548724  0.197922  1
  F  F13  1  0.967546  0.548724  0.197922  1
  F  F14  1  0.485264  0.441015  0.803882  1
  F  F15  1  0.750000  0.291262  0.090858  1
  F  F16  1  0.504172  0.253162  0.328252  1
  F  F17  1  0.485371  0.942759  0.196621  1
  F  F18  1  0.750000  0.789864  0.912080  1
  F  F19  1  0.527299  0.048402  0.801253  1
  F  F20  1  0.972701  0.048402  0.801253  1
  F  F21  1  0.993071  0.751621  0.671743  1
  F  F22  1  0.506929  0.751621  0.671743  1
  F  F23  1  0.014629  0.942759  0.196621  1
