# generated using pymatgen
data_RbNb8NiSe16
_symmetry_space_group_name_H-M   'P 1'
_cell_length_a   6.97211311
_cell_length_b   6.97196179
_cell_length_c   14.98678100
_cell_angle_alpha   89.99796193
_cell_angle_beta   90.01019013
_cell_angle_gamma   119.99901401
_symmetry_Int_Tables_number   1
_chemical_formula_structural   RbNb8NiSe16
_chemical_formula_sum   'Rb1 Nb8 Ni1 Se16'
_cell_volume   630.90318845
_cell_formula_units_Z   1
loop_
 _symmetry_equiv_pos_site_id
 _symmetry_equiv_pos_as_xyz
  1  'x, y, z'
loop_
 _atom_site_type_symbol
 _atom_site_label
 _atom_site_symmetry_multiplicity
 _atom_site_fract_x
 _atom_site_fract_y
 _atom_site_fract_z
 _atom_site_occupancy
  Rb  Rb0  1  0.000000  0.000000  0.500000  1
  Nb  Nb1  1  0.999984  0.000000  0.206075  1
  Nb  Nb2  1  0.000016  0.000000  0.793925  1
  Nb  Nb3  1  0.507216  0.014738  0.204004  1
  Nb  Nb4  1  0.985266  0.492620  0.203958  1
  Nb  Nb5  1  0.507194  0.492481  0.203996  1
  Nb  Nb6  1  0.492784  0.985262  0.795996  1
  Nb  Nb7  1  0.014734  0.507380  0.796042  1
  Nb  Nb8  1  0.492806  0.507519  0.796004  1
  Ni  Ni9  1  0.000000  0.000000  0.000000  1
  Se  Se10  1  0.333474  0.666720  0.911618  1
  Se  Se11  1  0.666526  0.333280  0.088382  1
  Se  Se12  1  0.666453  0.333213  0.321710  1
  Se  Se13  1  0.333547  0.666787  0.678290  1
  Se  Se14  1  0.168662  0.831280  0.315712  1
  Se  Se15  1  0.168666  0.337379  0.315710  1
  Se  Se16  1  0.662768  0.831379  0.315716  1
  Se  Se17  1  0.831338  0.168720  0.684288  1
  Se  Se18  1  0.831334  0.662621  0.684290  1
  Se  Se19  1  0.337232  0.168621  0.684284  1
  Se  Se20  1  0.831826  0.168478  0.904482  1
  Se  Se21  1  0.831819  0.663326  0.904486  1
  Se  Se22  1  0.336833  0.168405  0.904456  1
  Se  Se23  1  0.168174  0.831522  0.095518  1
  Se  Se24  1  0.168181  0.336674  0.095514  1
  Se  Se25  1  0.663167  0.831595  0.095544  1
