# generated using pymatgen
data_Pa4ReMo3C8
_symmetry_space_group_name_H-M   'P 1'
_cell_length_a   3.31261900
_cell_length_b   5.73616817
_cell_length_c   11.05142855
_cell_angle_alpha   90.06023002
_cell_angle_beta   90.00000000
_cell_angle_gamma   90.00000000
_symmetry_Int_Tables_number   1
_chemical_formula_structural   Pa4ReMo3C8
_chemical_formula_sum   'Pa4 Re1 Mo3 C8'
_cell_volume   209.99625237
_cell_formula_units_Z   1
loop_
 _symmetry_equiv_pos_site_id
 _symmetry_equiv_pos_as_xyz
  1  'x, y, z'
loop_
 _atom_site_type_symbol
 _atom_site_label
 _atom_site_symmetry_multiplicity
 _atom_site_fract_x
 _atom_site_fract_y
 _atom_site_fract_z
 _atom_site_occupancy
  Pa  Pa0  1  0.250000  0.080612  0.857579  1
  Pa  Pa1  1  0.250000  0.580572  0.642423  1
  Pa  Pa2  1  0.750000  0.920508  0.142147  1
  Pa  Pa3  1  0.750000  0.418883  0.358684  1
  Re  Re4  1  0.750000  0.080058  0.601011  1
  Mo  Mo5  1  0.250000  0.420599  0.100065  1
  Mo  Mo6  1  0.250000  0.918682  0.400142  1
  Mo  Mo7  1  0.750000  0.580084  0.898653  1
  C  C8  1  0.250000  0.163446  0.245431  1
  C  C9  1  0.250000  0.663652  0.255277  1
  C  C10  1  0.750000  0.840144  0.751955  1
  C  C11  1  0.750000  0.334164  0.744044  1
  C  C12  1  0.250000  0.742912  0.990595  1
  C  C13  1  0.250000  0.238745  0.510571  1
  C  C14  1  0.750000  0.258951  0.008668  1
  C  C15  1  0.750000  0.757989  0.492752  1
