# generated using pymatgen
data_Ho4Lu8In2Fe2Tc
_symmetry_space_group_name_H-M   'P 1'
_cell_length_a   8.23251729
_cell_length_b   8.23251735
_cell_length_c   8.23251687
_cell_angle_alpha   108.75339192
_cell_angle_beta   108.75338175
_cell_angle_gamma   110.91662296
_symmetry_Int_Tables_number   1
_chemical_formula_structural   Ho4Lu8In2Fe2Tc
_chemical_formula_sum   'Ho4 Lu8 In2 Fe2 Tc1'
_cell_volume   429.30717263
_cell_formula_units_Z   1
loop_
 _symmetry_equiv_pos_site_id
 _symmetry_equiv_pos_as_xyz
  1  'x, y, z'
loop_
 _atom_site_type_symbol
 _atom_site_label
 _atom_site_symmetry_multiplicity
 _atom_site_fract_x
 _atom_site_fract_y
 _atom_site_fract_z
 _atom_site_occupancy
  Ho  Ho0  1  0.306472  0.306472  0.612946  1
  Ho  Ho1  1  0.693528  0.693528  0.387054  1
  Ho  Ho2  1  0.693528  0.306472  0.000000  1
  Ho  Ho3  1  0.306472  0.693528  0.000000  1
  Lu  Lu4  1  0.192164  0.430161  0.237997  1
  Lu  Lu5  1  0.807836  0.569839  0.762003  1
  Lu  Lu6  1  0.192164  0.954166  0.762003  1
  Lu  Lu7  1  0.954166  0.192164  0.762003  1
  Lu  Lu8  1  0.807836  0.045834  0.237997  1
  Lu  Lu9  1  0.045834  0.807836  0.237997  1
  Lu  Lu10  1  0.430161  0.192164  0.237997  1
  Lu  Lu11  1  0.569839  0.807836  0.762003  1
  In  In12  1  0.000000  0.500000  0.500000  1
  In  In13  1  0.500000  0.000000  0.500000  1
  Fe  Fe14  1  0.381525  0.381525  0.000000  1
  Fe  Fe15  1  0.618475  0.618475  0.000000  1
  Tc  Tc16  1  0.000000  0.000000  0.000000  1
