# generated using pymatgen
data_NdTh3TlPd4Pb
_symmetry_space_group_name_H-M   'P 1'
_cell_length_a   3.78793100
_cell_length_b   8.06371861
_cell_length_c   8.07198425
_cell_angle_alpha   90.84303288
_cell_angle_beta   90.00000000
_cell_angle_gamma   90.00000000
_symmetry_Int_Tables_number   1
_chemical_formula_structural   NdTh3TlPd4Pb
_chemical_formula_sum   'Nd1 Th3 Tl1 Pd4 Pb1'
_cell_volume   246.53053419
_cell_formula_units_Z   1
loop_
 _symmetry_equiv_pos_site_id
 _symmetry_equiv_pos_as_xyz
  1  'x, y, z'
loop_
 _atom_site_type_symbol
 _atom_site_label
 _atom_site_symmetry_multiplicity
 _atom_site_fract_x
 _atom_site_fract_y
 _atom_site_fract_z
 _atom_site_occupancy
  Nd  Nd0  1  0.500000  0.675022  0.825418  1
  Th  Th1  1  0.500000  0.173117  0.674573  1
  Th  Th2  1  0.500000  0.825799  0.326518  1
  Th  Th3  1  0.500000  0.327952  0.172309  1
  Tl  Tl4  1  0.000000  0.995950  0.997569  1
  Pd  Pd5  1  0.000000  0.622317  0.132438  1
  Pd  Pd6  1  0.000000  0.366847  0.878521  1
  Pd  Pd7  1  0.000000  0.882631  0.618338  1
  Pd  Pd8  1  0.000000  0.128480  0.369944  1
  Pb  Pb9  1  0.000000  0.501885  0.504371  1
