# generated using pymatgen
data_Lu8Re9Si16Tc3
_symmetry_space_group_name_H-M   'P 1'
_cell_length_a   6.73406419
_cell_length_b   6.73137929
_cell_length_c   12.61634402
_cell_angle_alpha   89.95178278
_cell_angle_beta   90.04354140
_cell_angle_gamma   89.80552056
_symmetry_Int_Tables_number   1
_chemical_formula_structural   Lu8Re9Si16Tc3
_chemical_formula_sum   'Lu8 Re9 Si16 Tc3'
_cell_volume   571.88941074
_cell_formula_units_Z   1
loop_
 _symmetry_equiv_pos_site_id
 _symmetry_equiv_pos_as_xyz
  1  'x, y, z'
loop_
 _atom_site_type_symbol
 _atom_site_label
 _atom_site_symmetry_multiplicity
 _atom_site_fract_x
 _atom_site_fract_y
 _atom_site_fract_z
 _atom_site_occupancy
  Lu  Lu0  1  0.007033  0.661385  0.030514  1
  Lu  Lu1  1  0.993075  0.339429  0.530838  1
  Lu  Lu2  1  0.339837  0.993008  0.469002  1
  Lu  Lu3  1  0.159716  0.493189  0.780381  1
  Lu  Lu4  1  0.840015  0.506912  0.280125  1
  Lu  Lu5  1  0.493149  0.160451  0.219776  1
  Lu  Lu6  1  0.506517  0.839288  0.719750  1
  Lu  Lu7  1  0.659847  0.007391  0.969138  1
  Re  Re8  1  0.665165  0.664540  0.500075  1
  Re  Re9  1  0.168308  0.831496  0.250092  1
  Re  Re10  1  0.334419  0.334601  0.000049  1
  Re  Re11  1  0.313082  0.475526  0.381764  1
  Re  Re12  1  0.687685  0.522771  0.881390  1
  Re  Re13  1  0.474904  0.312570  0.617882  1
  Re  Re14  1  0.524956  0.688111  0.118275  1
  Re  Re15  1  0.183472  0.980572  0.869645  1
  Re  Re16  1  0.831716  0.167901  0.749857  1
  Si  Si17  1  0.023562  0.722954  0.437508  1
  Si  Si18  1  0.617957  0.304048  0.432818  1
  Si  Si19  1  0.383685  0.695354  0.932912  1
  Si  Si20  1  0.192817  0.115131  0.683495  1
  Si  Si21  1  0.304349  0.617711  0.566945  1
  Si  Si22  1  0.695288  0.382998  0.067279  1
  Si  Si23  1  0.808022  0.885522  0.184290  1
  Si  Si24  1  0.114963  0.192344  0.315945  1
  Si  Si25  1  0.976688  0.276775  0.938510  1
  Si  Si26  1  0.723381  0.022844  0.562691  1
  Si  Si27  1  0.226864  0.476997  0.187261  1
  Si  Si28  1  0.773273  0.522902  0.686826  1
  Si  Si29  1  0.476528  0.226476  0.812107  1
  Si  Si30  1  0.523415  0.773283  0.312781  1
  Si  Si31  1  0.275889  0.977355  0.063088  1
  Si  Si32  1  0.883881  0.806920  0.815783  1
  Tc  Tc33  1  0.020578  0.816538  0.629997  1
  Tc  Tc34  1  0.979013  0.185228  0.130912  1
  Tc  Tc35  1  0.816953  0.019477  0.370297  1
