# generated using pymatgen
data_Ac3TmAu5
_symmetry_space_group_name_H-M   'P 1'
_cell_length_a   8.51924872
_cell_length_b   8.51924987
_cell_length_c   8.51924874
_cell_angle_alpha   65.79562282
_cell_angle_beta   65.79562120
_cell_angle_gamma   65.79560355
_symmetry_Int_Tables_number   1
_chemical_formula_structural   Ac3TmAu5
_chemical_formula_sum   'Ac6 Tm2 Au10'
_cell_volume   492.14743683
_cell_formula_units_Z   2
loop_
 _symmetry_equiv_pos_site_id
 _symmetry_equiv_pos_as_xyz
  1  'x, y, z'
loop_
 _atom_site_type_symbol
 _atom_site_label
 _atom_site_symmetry_multiplicity
 _atom_site_fract_x
 _atom_site_fract_y
 _atom_site_fract_z
 _atom_site_occupancy
  Ac  Ac0  1  0.890733  0.186149  0.624075  1
  Ac  Ac1  1  0.624075  0.890733  0.186149  1
  Ac  Ac2  1  0.186149  0.624075  0.890733  1
  Ac  Ac3  1  0.109267  0.813851  0.375925  1
  Ac  Ac4  1  0.375925  0.109267  0.813851  1
  Ac  Ac5  1  0.813851  0.375925  0.109267  1
  Tm  Tm6  1  0.657107  0.657107  0.657107  1
  Tm  Tm7  1  0.342893  0.342893  0.342893  1
  Au  Au8  1  0.000000  0.000000  0.000000  1
  Au  Au9  1  0.500000  0.500000  0.500000  1
  Au  Au10  1  0.801168  0.801168  0.801168  1
  Au  Au11  1  0.198832  0.198832  0.198832  1
  Au  Au12  1  0.941454  0.547249  0.327255  1
  Au  Au13  1  0.327255  0.941454  0.547249  1
  Au  Au14  1  0.547249  0.327255  0.941454  1
  Au  Au15  1  0.058546  0.452751  0.672745  1
  Au  Au16  1  0.672745  0.058546  0.452751  1
  Au  Au17  1  0.452751  0.672745  0.058546  1
