# generated using pymatgen
data_TmTh3(CuGe)4
_symmetry_space_group_name_H-M   'P 1'
_cell_length_a   4.22481700
_cell_length_b   4.22481602
_cell_length_c   15.83748100
_cell_angle_alpha   90.00000000
_cell_angle_beta   90.00000000
_cell_angle_gamma   119.99999988
_symmetry_Int_Tables_number   1
_chemical_formula_structural   TmTh3(CuGe)4
_chemical_formula_sum   'Tm1 Th3 Cu4 Ge4'
_cell_volume   244.81185344
_cell_formula_units_Z   1
loop_
 _symmetry_equiv_pos_site_id
 _symmetry_equiv_pos_as_xyz
  1  'x, y, z'
loop_
 _atom_site_type_symbol
 _atom_site_label
 _atom_site_symmetry_multiplicity
 _atom_site_fract_x
 _atom_site_fract_y
 _atom_site_fract_z
 _atom_site_occupancy
  Tm  Tm0  1  0.000000  0.000000  0.750000  1
  Th  Th1  1  0.000000  0.000000  0.250000  1
  Th  Th2  1  0.000000  0.000000  0.992484  1
  Th  Th3  1  0.000000  0.000000  0.507516  1
  Cu  Cu4  1  0.333333  0.666667  0.127204  1
  Cu  Cu5  1  0.666667  0.333333  0.851400  1
  Cu  Cu6  1  0.666667  0.333333  0.648600  1
  Cu  Cu7  1  0.333333  0.666667  0.372796  1
  Ge  Ge8  1  0.333333  0.666667  0.624847  1
  Ge  Ge9  1  0.666667  0.333333  0.380740  1
  Ge  Ge10  1  0.666667  0.333333  0.119260  1
  Ge  Ge11  1  0.333333  0.666667  0.875153  1
