# generated using pymatgen
data_SnAs3Rh4
_symmetry_space_group_name_H-M   'P 1'
_cell_length_a   5.79554238
_cell_length_b   3.67767600
_cell_length_c   6.29203512
_cell_angle_alpha   90.00000000
_cell_angle_beta   89.96808928
_cell_angle_gamma   90.00000000
_symmetry_Int_Tables_number   1
_chemical_formula_structural   SnAs3Rh4
_chemical_formula_sum   'Sn1 As3 Rh4'
_cell_volume   134.10921559
_cell_formula_units_Z   1
loop_
 _symmetry_equiv_pos_site_id
 _symmetry_equiv_pos_as_xyz
  1  'x, y, z'
loop_
 _atom_site_type_symbol
 _atom_site_label
 _atom_site_symmetry_multiplicity
 _atom_site_fract_x
 _atom_site_fract_y
 _atom_site_fract_z
 _atom_site_occupancy
  Sn  Sn0  1  0.807852  0.250001  0.911800  1
  As  As1  1  0.194275  0.749999  0.088219  1
  As  As2  1  0.699532  0.749999  0.415027  1
  As  As3  1  0.306352  0.250001  0.585965  1
  Rh  Rh4  1  0.492105  0.250001  0.212933  1
  Rh  Rh5  1  0.003734  0.250001  0.306141  1
  Rh  Rh6  1  0.010920  0.749999  0.674086  1
  Rh  Rh7  1  0.485229  0.749999  0.805829  1
