# generated using pymatgen
data_TbCeTa3Si4
_symmetry_space_group_name_H-M   'P 1'
_cell_length_a   7.07260789
_cell_length_b   7.07256711
_cell_length_c   13.13148438
_cell_angle_alpha   90.07200976
_cell_angle_beta   90.03299831
_cell_angle_gamma   90.09981447
_symmetry_Int_Tables_number   1
_chemical_formula_structural   TbCeTa3Si4
_chemical_formula_sum   'Tb4 Ce4 Ta12 Si16'
_cell_volume   656.85484170
_cell_formula_units_Z   4
loop_
 _symmetry_equiv_pos_site_id
 _symmetry_equiv_pos_as_xyz
  1  'x, y, z'
loop_
 _atom_site_type_symbol
 _atom_site_label
 _atom_site_symmetry_multiplicity
 _atom_site_fract_x
 _atom_site_fract_y
 _atom_site_fract_z
 _atom_site_occupancy
  Tb  Tb0  1  0.160965  0.503306  0.782923  1
  Tb  Tb1  1  0.660762  0.998786  0.966999  1
  Tb  Tb2  1  0.001457  0.338604  0.532899  1
  Tb  Tb3  1  0.999449  0.661113  0.032319  1
  Ce  Ce4  1  0.337455  0.001261  0.467628  1
  Ce  Ce5  1  0.496456  0.838577  0.717036  1
  Ce  Ce6  1  0.505716  0.163579  0.217205  1
  Ce  Ce7  1  0.835479  0.494169  0.282353  1
  Ta  Ta8  1  0.330841  0.330442  0.000084  1
  Ta  Ta9  1  0.170190  0.830387  0.249989  1
  Ta  Ta10  1  0.829005  0.169371  0.750385  1
  Ta  Ta11  1  0.668085  0.670120  0.500375  1
  Ta  Ta12  1  0.155075  0.008197  0.874444  1
  Ta  Ta13  1  0.493207  0.654350  0.124233  1
  Ta  Ta14  1  0.508566  0.343896  0.625613  1
  Ta  Ta15  1  0.654807  0.494588  0.874661  1
  Ta  Ta16  1  0.344791  0.505742  0.375149  1
  Ta  Ta17  1  0.844684  0.992110  0.374459  1
  Ta  Ta18  1  0.007206  0.155326  0.124595  1
  Ta  Ta19  1  0.994458  0.846324  0.625802  1
  Si  Si20  1  0.203167  0.133788  0.684211  1
  Si  Si21  1  0.368054  0.704132  0.933465  1
  Si  Si22  1  0.631112  0.294380  0.435680  1
  Si  Si23  1  0.705862  0.369600  0.064486  1
  Si  Si24  1  0.294959  0.628346  0.566849  1
  Si  Si25  1  0.797331  0.867554  0.182307  1
  Si  Si26  1  0.130909  0.203786  0.315999  1
  Si  Si27  1  0.868986  0.797202  0.817431  1
  Si  Si28  1  0.293793  0.956933  0.062767  1
  Si  Si29  1  0.541879  0.792889  0.313734  1
  Si  Si30  1  0.457230  0.207939  0.814737  1
  Si  Si31  1  0.795719  0.542795  0.686763  1
  Si  Si32  1  0.205355  0.458869  0.185302  1
  Si  Si33  1  0.707862  0.042037  0.564118  1
  Si  Si34  1  0.957896  0.295273  0.936011  1
  Si  Si35  1  0.041231  0.704232  0.436992  1
