# generated using pymatgen
data_Zr4PdRhO
_symmetry_space_group_name_H-M   'P 1'
_cell_length_a   8.85427124
_cell_length_b   8.85429183
_cell_length_c   8.85430440
_cell_angle_alpha   60.22883436
_cell_angle_beta   60.22841838
_cell_angle_gamma   60.22862207
_symmetry_Int_Tables_number   1
_chemical_formula_structural   Zr4PdRhO
_chemical_formula_sum   'Zr16 Pd4 Rh4 O4'
_cell_volume   493.38757062
_cell_formula_units_Z   4
loop_
 _symmetry_equiv_pos_site_id
 _symmetry_equiv_pos_as_xyz
  1  'x, y, z'
loop_
 _atom_site_type_symbol
 _atom_site_label
 _atom_site_symmetry_multiplicity
 _atom_site_fract_x
 _atom_site_fract_y
 _atom_site_fract_z
 _atom_site_occupancy
  Zr  Zr0  1  0.056809  0.691887  0.691888  1
  Zr  Zr1  1  0.308767  0.941332  0.941329  1
  Zr  Zr2  1  0.691886  0.056810  0.691887  1
  Zr  Zr3  1  0.691884  0.691890  0.056811  1
  Zr  Zr4  1  0.057271  0.057271  0.692716  1
  Zr  Zr5  1  0.057277  0.692711  0.057270  1
  Zr  Zr6  1  0.307812  0.940271  0.307814  1
  Zr  Zr7  1  0.941332  0.308771  0.941324  1
  Zr  Zr8  1  0.491910  0.491914  0.491915  1
  Zr  Zr9  1  0.500306  0.500308  0.006166  1
  Zr  Zr10  1  0.006170  0.500301  0.500306  1
  Zr  Zr11  1  0.500304  0.006167  0.500308  1
  Zr  Zr12  1  0.940271  0.307815  0.307810  1
  Zr  Zr13  1  0.307816  0.307814  0.940264  1
  Zr  Zr14  1  0.941332  0.941326  0.308772  1
  Zr  Zr15  1  0.692717  0.057268  0.057273  1
  Pd  Pd16  1  0.711943  0.711942  0.358960  1
  Pd  Pd17  1  0.283543  0.283543  0.283539  1
  Pd  Pd18  1  0.711944  0.358955  0.711945  1
  Pd  Pd19  1  0.358959  0.711941  0.711944  1
  Rh  Rh20  1  0.275378  0.667378  0.275380  1
  Rh  Rh21  1  0.720898  0.720889  0.720893  1
  Rh  Rh22  1  0.275386  0.275384  0.667368  1
  Rh  Rh23  1  0.667363  0.275392  0.275387  1
  O  O24  1  0.000539  0.499645  0.000540  1
  O  O25  1  0.499647  0.000541  0.000540  1
  O  O26  1  0.000539  0.000542  0.499646  1
  O  O27  1  0.999997  0.000002  0.000004  1
