# generated using pymatgen
data_Tm5Tc3(P3Ir4)4
_symmetry_space_group_name_H-M   'P 1'
_cell_length_a   12.64506200
_cell_length_b   12.64506207
_cell_length_c   3.96908400
_cell_angle_alpha   90.00000000
_cell_angle_beta   90.00000000
_cell_angle_gamma   119.99999983
_symmetry_Int_Tables_number   1
_chemical_formula_structural   Tm5Tc3(P3Ir4)4
_chemical_formula_sum   'Tm5 Tc3 P12 Ir16'
_cell_volume   549.62040913
_cell_formula_units_Z   1
loop_
 _symmetry_equiv_pos_site_id
 _symmetry_equiv_pos_as_xyz
  1  'x, y, z'
loop_
 _atom_site_type_symbol
 _atom_site_label
 _atom_site_symmetry_multiplicity
 _atom_site_fract_x
 _atom_site_fract_y
 _atom_site_fract_z
 _atom_site_occupancy
  Tm  Tm0  1  0.333333  0.666667  0.000000  1
  Tm  Tm1  1  0.666667  0.333333  0.000000  1
  Tm  Tm2  1  0.819629  0.000000  0.500000  1
  Tm  Tm3  1  0.000000  0.819629  0.500000  1
  Tm  Tm4  1  0.180371  0.180371  0.500000  1
  Tc  Tc5  1  0.455383  0.000000  0.000000  1
  Tc  Tc6  1  0.000000  0.455383  0.000000  1
  Tc  Tc7  1  0.544617  0.544617  0.000000  1
  P  P8  1  0.175463  0.000000  0.000000  1
  P  P9  1  0.000000  0.175463  0.000000  1
  P  P10  1  0.824537  0.824537  0.000000  1
  P  P11  1  0.169380  0.484789  0.500000  1
  P  P12  1  0.515211  0.684590  0.500000  1
  P  P13  1  0.315410  0.830620  0.500000  1
  P  P14  1  0.684590  0.515211  0.500000  1
  P  P15  1  0.830620  0.315410  0.500000  1
  P  P16  1  0.484789  0.169380  0.500000  1
  P  P17  1  0.639895  0.000000  0.000000  1
  P  P18  1  0.000000  0.639895  0.000000  1
  P  P19  1  0.360105  0.360105  0.000000  1
  Ir  Ir20  1  0.357351  0.490225  0.500000  1
  Ir  Ir21  1  0.509775  0.867126  0.500000  1
  Ir  Ir22  1  0.132874  0.642649  0.500000  1
  Ir  Ir23  1  0.867126  0.509775  0.500000  1
  Ir  Ir24  1  0.642649  0.132874  0.500000  1
  Ir  Ir25  1  0.490225  0.357351  0.500000  1
  Ir  Ir26  1  0.178903  0.371063  0.000000  1
  Ir  Ir27  1  0.628937  0.807841  0.000000  1
  Ir  Ir28  1  0.192159  0.821097  0.000000  1
  Ir  Ir29  1  0.807841  0.628937  0.000000  1
  Ir  Ir30  1  0.821097  0.192159  0.000000  1
  Ir  Ir31  1  0.371063  0.178903  0.000000  1
  Ir  Ir32  1  0.290990  0.000000  0.500000  1
  Ir  Ir33  1  0.000000  0.290990  0.500000  1
  Ir  Ir34  1  0.709010  0.709010  0.500000  1
  Ir  Ir35  1  0.000000  0.000000  0.000000  1
