# generated using pymatgen
data_FeSi4Pt3
_symmetry_space_group_name_H-M   'P 1'
_cell_length_a   3.51142800
_cell_length_b   5.42729950
_cell_length_c   6.06036637
_cell_angle_alpha   89.56149882
_cell_angle_beta   90.00000000
_cell_angle_gamma   90.00000000
_symmetry_Int_Tables_number   1
_chemical_formula_structural   FeSi4Pt3
_chemical_formula_sum   'Fe1 Si4 Pt3'
_cell_volume   115.49248252
_cell_formula_units_Z   1
loop_
 _symmetry_equiv_pos_site_id
 _symmetry_equiv_pos_as_xyz
  1  'x, y, z'
loop_
 _atom_site_type_symbol
 _atom_site_label
 _atom_site_symmetry_multiplicity
 _atom_site_fract_x
 _atom_site_fract_y
 _atom_site_fract_z
 _atom_site_occupancy
  Fe  Fe0  1  0.250000  0.502371  0.703323  1
  Si  Si1  1  0.250000  0.664440  0.060287  1
  Si  Si2  1  0.750000  0.337470  0.905423  1
  Si  Si3  1  0.250000  0.191893  0.429798  1
  Si  Si4  1  0.750000  0.791254  0.598397  1
  Pt  Pt5  1  0.750000  0.502439  0.309312  1
  Pt  Pt6  1  0.250000  0.004232  0.796279  1
  Pt  Pt7  1  0.750000  0.005900  0.197181  1
