# generated using pymatgen
data_Tb17Ho2InIr12
_symmetry_space_group_name_H-M   'P 1'
_cell_length_a   10.91570900
_cell_length_b   10.91570900
_cell_length_c   6.33122900
_cell_angle_alpha   90.00000000
_cell_angle_beta   90.00000000
_cell_angle_gamma   90.00000000
_symmetry_Int_Tables_number   1
_chemical_formula_structural   Tb17Ho2InIr12
_chemical_formula_sum   'Tb17 Ho2 In1 Ir12'
_cell_volume   754.38304849
_cell_formula_units_Z   1
loop_
 _symmetry_equiv_pos_site_id
 _symmetry_equiv_pos_as_xyz
  1  'x, y, z'
loop_
 _atom_site_type_symbol
 _atom_site_label
 _atom_site_symmetry_multiplicity
 _atom_site_fract_x
 _atom_site_fract_y
 _atom_site_fract_z
 _atom_site_occupancy
  Tb  Tb0  1  0.284036  0.085141  0.379694  1
  Tb  Tb1  1  0.290701  0.911519  0.879742  1
  Tb  Tb2  1  0.709299  0.088481  0.879742  1
  Tb  Tb3  1  0.715964  0.914859  0.379694  1
  Tb  Tb4  1  0.588201  0.791180  0.880954  1
  Tb  Tb5  1  0.588080  0.208599  0.377402  1
  Tb  Tb6  1  0.411920  0.791401  0.377402  1
  Tb  Tb7  1  0.411799  0.208820  0.880954  1
  Tb  Tb8  1  0.208599  0.411920  0.622598  1
  Tb  Tb9  1  0.208820  0.588201  0.119046  1
  Tb  Tb10  1  0.791180  0.411799  0.119046  1
  Tb  Tb11  1  0.791401  0.588080  0.622598  1
  Tb  Tb12  1  0.911519  0.709299  0.120258  1
  Tb  Tb13  1  0.914859  0.284036  0.620306  1
  Tb  Tb14  1  0.085141  0.715964  0.620306  1
  Tb  Tb15  1  0.088481  0.290701  0.120258  1
  Tb  Tb16  1  0.000000  0.000000  0.000000  1
  Ho  Ho17  1  0.500000  0.500000  0.000000  1
  Ho  Ho18  1  0.500000  0.500000  0.500000  1
  In  In19  1  0.000000  0.000000  0.500000  1
  Ir  Ir20  1  0.845657  0.155732  0.246043  1
  Ir  Ir21  1  0.844268  0.845657  0.753957  1
  Ir  Ir22  1  0.155732  0.154343  0.753957  1
  Ir  Ir23  1  0.154343  0.844268  0.246043  1
  Ir  Ir24  1  0.653954  0.347103  0.747328  1
  Ir  Ir25  1  0.652897  0.653954  0.252672  1
  Ir  Ir26  1  0.347103  0.346046  0.252672  1
  Ir  Ir27  1  0.346046  0.652897  0.747328  1
  Ir  Ir28  1  0.500000  0.000000  0.124413  1
  Ir  Ir29  1  0.500000  0.000000  0.620424  1
  Ir  Ir30  1  0.000000  0.500000  0.875587  1
  Ir  Ir31  1  0.000000  0.500000  0.379576  1
