# generated using pymatgen
data_Sc2Ga3MoRu6
_symmetry_space_group_name_H-M   'P 1'
_cell_length_a   4.36960900
_cell_length_b   6.26960700
_cell_length_c   13.11412500
_cell_angle_alpha   90.00000000
_cell_angle_beta   89.99775825
_cell_angle_gamma   90.00000000
_symmetry_Int_Tables_number   1
_chemical_formula_structural   Sc2Ga3MoRu6
_chemical_formula_sum   'Sc4 Ga6 Mo2 Ru12'
_cell_volume   359.27104294
_cell_formula_units_Z   2
loop_
 _symmetry_equiv_pos_site_id
 _symmetry_equiv_pos_as_xyz
  1  'x, y, z'
loop_
 _atom_site_type_symbol
 _atom_site_label
 _atom_site_symmetry_multiplicity
 _atom_site_fract_x
 _atom_site_fract_y
 _atom_site_fract_z
 _atom_site_occupancy
  Sc  Sc0  1  0.999795  0.000000  0.332893  1
  Sc  Sc1  1  0.499986  0.499999  0.499245  1
  Sc  Sc2  1  0.000228  0.000000  0.667428  1
  Sc  Sc3  1  0.500196  0.499999  0.833840  1
  Ga  Ga4  1  0.000048  0.499999  0.997906  1
  Ga  Ga5  1  0.499759  0.000000  0.168781  1
  Ga  Ga6  1  0.999788  0.499999  0.334486  1
  Ga  Ga7  1  0.499998  0.000000  0.499465  1
  Ga  Ga8  1  0.000205  0.499999  0.667201  1
  Ga  Ga9  1  0.500219  0.000000  0.832185  1
  Mo  Mo10  1  0.999981  0.000000  0.995157  1
  Mo  Mo11  1  0.499734  0.499999  0.171562  1
  Ru  Ru12  1  0.500014  0.242344  0.006021  1
  Ru  Ru13  1  0.500014  0.757657  0.006021  1
  Ru  Ru14  1  0.999795  0.257620  0.160582  1
  Ru  Ru15  1  0.999795  0.742379  0.160582  1
  Ru  Ru16  1  0.499807  0.254763  0.326356  1
  Ru  Ru17  1  0.499807  0.745238  0.326356  1
  Ru  Ru18  1  0.999996  0.252297  0.499146  1
  Ru  Ru19  1  0.999996  0.747702  0.499146  1
  Ru  Ru20  1  0.500214  0.247644  0.667472  1
  Ru  Ru21  1  0.500214  0.752357  0.667472  1
  Ru  Ru22  1  0.000208  0.245176  0.840348  1
  Ru  Ru23  1  0.000208  0.754823  0.840348  1
