# generated using pymatgen
data_Er6Sc4Si5Sn
_symmetry_space_group_name_H-M   'P 1'
_cell_length_a   8.30326200
_cell_length_b   8.32013356
_cell_length_c   6.04636600
_cell_angle_alpha   90.00000000
_cell_angle_beta   90.00000000
_cell_angle_gamma   119.93292768
_symmetry_Int_Tables_number   1
_chemical_formula_structural   Er6Sc4Si5Sn
_chemical_formula_sum   'Er6 Sc4 Si5 Sn1'
_cell_volume   361.99054896
_cell_formula_units_Z   1
loop_
 _symmetry_equiv_pos_site_id
 _symmetry_equiv_pos_as_xyz
  1  'x, y, z'
loop_
 _atom_site_type_symbol
 _atom_site_label
 _atom_site_symmetry_multiplicity
 _atom_site_fract_x
 _atom_site_fract_y
 _atom_site_fract_z
 _atom_site_occupancy
  Er  Er0  1  0.989966  0.747362  0.750000  1
  Er  Er1  1  0.998385  0.245235  0.250000  1
  Er  Er2  1  0.753149  0.754765  0.250000  1
  Er  Er3  1  0.765779  0.000000  0.750000  1
  Er  Er4  1  0.242604  0.252638  0.750000  1
  Er  Er5  1  0.241579  0.000000  0.250000  1
  Sc  Sc6  1  0.331181  0.657266  0.496839  1
  Sc  Sc7  1  0.673916  0.342734  0.003161  1
  Sc  Sc8  1  0.673916  0.342734  0.496839  1
  Sc  Sc9  1  0.331181  0.657266  0.003161  1
  Si  Si10  1  0.397754  0.396714  0.250000  1
  Si  Si11  1  0.001040  0.603286  0.250000  1
  Si  Si12  1  0.998115  0.398213  0.750000  1
  Si  Si13  1  0.599901  0.601787  0.750000  1
  Si  Si14  1  0.600859  0.000000  0.250000  1
  Sn  Sn15  1  0.400676  0.000000  0.750000  1
