# generated using pymatgen
data_Lu2V3Co9As7
_symmetry_space_group_name_H-M   'P 1'
_cell_length_a   3.74597600
_cell_length_b   9.36717877
_cell_length_c   9.36717900
_cell_angle_alpha   119.99999728
_cell_angle_beta   90.00000000
_cell_angle_gamma   90.00000000
_symmetry_Int_Tables_number   1
_chemical_formula_structural   Lu2V3Co9As7
_chemical_formula_sum   'Lu2 V3 Co9 As7'
_cell_volume   284.65135946
_cell_formula_units_Z   1
loop_
 _symmetry_equiv_pos_site_id
 _symmetry_equiv_pos_as_xyz
  1  'x, y, z'
loop_
 _atom_site_type_symbol
 _atom_site_label
 _atom_site_symmetry_multiplicity
 _atom_site_fract_x
 _atom_site_fract_y
 _atom_site_fract_z
 _atom_site_occupancy
  Lu  Lu0  1  0.000000  0.666667  0.333333  1
  Lu  Lu1  1  0.500000  0.333333  0.666667  1
  V  V2  1  0.500000  0.782020  0.899511  1
  V  V3  1  0.500000  0.117492  0.217980  1
  V  V4  1  0.500000  0.100489  0.882508  1
  Co  Co5  1  0.000000  0.568080  0.939961  1
  Co  Co6  1  0.000000  0.371880  0.431920  1
  Co  Co7  1  0.000000  0.060039  0.628120  1
  Co  Co8  1  0.000000  0.877824  0.158342  1
  Co  Co9  1  0.000000  0.280518  0.122176  1
  Co  Co10  1  0.000000  0.841658  0.719482  1
  Co  Co11  1  0.500000  0.949619  0.383019  1
  Co  Co12  1  0.500000  0.433400  0.050381  1
  Co  Co13  1  0.500000  0.616981  0.566600  1
  As  As14  1  0.000000  0.000000  0.000000  1
  As  As15  1  0.500000  0.707687  0.119586  1
  As  As16  1  0.500000  0.411899  0.292313  1
  As  As17  1  0.500000  0.880414  0.588101  1
  As  As18  1  0.000000  0.585813  0.702554  1
  As  As19  1  0.000000  0.116743  0.414187  1
  As  As20  1  0.000000  0.297446  0.883257  1
