# generated using pymatgen
data_Gd4Tm2AuO12
_symmetry_space_group_name_H-M   'P 1'
_cell_length_a   6.52411301
_cell_length_b   6.51364791
_cell_length_c   6.52773395
_cell_angle_alpha   98.52686801
_cell_angle_beta   99.11980545
_cell_angle_gamma   98.76551678
_symmetry_Int_Tables_number   1
_chemical_formula_structural   Gd4Tm2AuO12
_chemical_formula_sum   'Gd4 Tm2 Au1 O12'
_cell_volume   266.43611328
_cell_formula_units_Z   1
loop_
 _symmetry_equiv_pos_site_id
 _symmetry_equiv_pos_as_xyz
  1  'x, y, z'
loop_
 _atom_site_type_symbol
 _atom_site_label
 _atom_site_symmetry_multiplicity
 _atom_site_fract_x
 _atom_site_fract_y
 _atom_site_fract_z
 _atom_site_occupancy
  Gd  Gd0  1  0.306330  0.143762  0.610793  1
  Gd  Gd1  1  0.699896  0.861861  0.391715  1
  Gd  Gd2  1  0.392381  0.693894  0.859959  1
  Gd  Gd3  1  0.139210  0.605650  0.299871  1
  Tm  Tm4  1  0.856347  0.388097  0.697875  1
  Tm  Tm5  1  0.610866  0.300940  0.137901  1
  Au  Au6  1  0.999358  0.001351  0.999320  1
  O  O7  1  0.938790  0.052602  0.693803  1
  O  O8  1  0.948667  0.307850  0.057125  1
  O  O9  1  0.594691  0.181980  0.436401  1
  O  O10  1  0.819971  0.557125  0.411477  1
  O  O11  1  0.310652  0.064332  0.959978  1
  O  O12  1  0.569019  0.408746  0.825700  1
  O  O13  1  0.439243  0.582743  0.178784  1
  O  O14  1  0.690898  0.945495  0.044446  1
  O  O15  1  0.171288  0.436774  0.591920  1
  O  O16  1  0.410590  0.823173  0.562069  1
  O  O17  1  0.041900  0.690590  0.934848  1
  O  O18  1  0.059902  0.953035  0.306016  1
