# generated using pymatgen
data_BaSr(Al2Au5)2
_symmetry_space_group_name_H-M   'P 1'
_cell_length_a   7.27067600
_cell_length_b   9.03004000
_cell_length_c   10.15145600
_cell_angle_alpha   90.00000000
_cell_angle_beta   90.00000000
_cell_angle_gamma   90.00000000
_symmetry_Int_Tables_number   1
_chemical_formula_structural   BaSr(Al2Au5)2
_chemical_formula_sum   'Ba2 Sr2 Al8 Au20'
_cell_volume   666.48871828
_cell_formula_units_Z   2
loop_
 _symmetry_equiv_pos_site_id
 _symmetry_equiv_pos_as_xyz
  1  'x, y, z'
loop_
 _atom_site_type_symbol
 _atom_site_label
 _atom_site_symmetry_multiplicity
 _atom_site_fract_x
 _atom_site_fract_y
 _atom_site_fract_z
 _atom_site_occupancy
  Ba  Ba0  1  0.750000  0.747332  0.873268  1
  Ba  Ba1  1  0.750000  0.247332  0.626732  1
  Sr  Sr2  1  0.250000  0.251957  0.127699  1
  Sr  Sr3  1  0.250000  0.751957  0.372301  1
  Al  Al4  1  0.250000  0.050799  0.619240  1
  Al  Al5  1  0.250000  0.550799  0.880760  1
  Al  Al6  1  0.750000  0.947539  0.379808  1
  Al  Al7  1  0.750000  0.447539  0.120192  1
  Al  Al8  1  0.250000  0.350805  0.484101  1
  Al  Al9  1  0.250000  0.850805  0.015899  1
  Al  Al10  1  0.750000  0.649643  0.514250  1
  Al  Al11  1  0.750000  0.149643  0.985750  1
  Au  Au12  1  0.057039  0.106612  0.396792  1
  Au  Au13  1  0.442961  0.606612  0.103208  1
  Au  Au14  1  0.551561  0.889701  0.595345  1
  Au  Au15  1  0.948439  0.389701  0.904655  1
  Au  Au16  1  0.948439  0.889701  0.595345  1
  Au  Au17  1  0.551561  0.389701  0.904655  1
  Au  Au18  1  0.442961  0.106612  0.396792  1
  Au  Au19  1  0.057039  0.606612  0.103208  1
  Au  Au20  1  0.041271  0.060769  0.867787  1
  Au  Au21  1  0.458729  0.560769  0.632213  1
  Au  Au22  1  0.534753  0.943161  0.137249  1
  Au  Au23  1  0.965247  0.443161  0.362751  1
  Au  Au24  1  0.965247  0.943161  0.137249  1
  Au  Au25  1  0.534753  0.443161  0.362751  1
  Au  Au26  1  0.458729  0.060769  0.867787  1
  Au  Au27  1  0.041271  0.560769  0.632213  1
  Au  Au28  1  0.250000  0.302605  0.733241  1
  Au  Au29  1  0.250000  0.802605  0.766759  1
  Au  Au30  1  0.750000  0.698833  0.264456  1
  Au  Au31  1  0.750000  0.198833  0.235544  1
