# generated using pymatgen
data_TbTh7(Si4Mo3)4
_symmetry_space_group_name_H-M   'P 1'
_cell_length_a   7.00238013
_cell_length_b   7.06663306
_cell_length_c   13.17237860
_cell_angle_alpha   90.04652479
_cell_angle_beta   89.90538571
_cell_angle_gamma   89.83444093
_symmetry_Int_Tables_number   1
_chemical_formula_structural   TbTh7(Si4Mo3)4
_chemical_formula_sum   'Tb1 Th7 Si16 Mo12'
_cell_volume   651.80828851
_cell_formula_units_Z   1
loop_
 _symmetry_equiv_pos_site_id
 _symmetry_equiv_pos_as_xyz
  1  'x, y, z'
loop_
 _atom_site_type_symbol
 _atom_site_label
 _atom_site_symmetry_multiplicity
 _atom_site_fract_x
 _atom_site_fract_y
 _atom_site_fract_z
 _atom_site_occupancy
  Tb  Tb0  1  0.993951  0.167328  0.095561  1
  Th  Th1  1  0.491502  0.338440  0.095967  1
  Th  Th2  1  0.991995  0.161584  0.404755  1
  Th  Th3  1  0.508681  0.664117  0.595449  1
  Th  Th4  1  0.006398  0.834777  0.905516  1
  Th  Th5  1  0.508032  0.663226  0.906361  1
  Th  Th6  1  0.009686  0.837522  0.594797  1
  Th  Th7  1  0.490016  0.334693  0.402826  1
  Si  Si8  1  0.655862  0.049631  0.548549  1
  Si  Si9  1  0.152621  0.447665  0.953114  1
  Si  Si10  1  0.338896  0.954112  0.049390  1
  Si  Si11  1  0.841698  0.547855  0.451697  1
  Si  Si12  1  0.348322  0.946859  0.449139  1
  Si  Si13  1  0.846667  0.543993  0.049044  1
  Si  Si14  1  0.657183  0.049068  0.954230  1
  Si  Si15  1  0.155754  0.450803  0.548010  1
  Si  Si16  1  0.538708  0.350906  0.750016  1
  Si  Si17  1  0.038789  0.147711  0.751417  1
  Si  Si18  1  0.460736  0.651937  0.253465  1
  Si  Si19  1  0.963138  0.858034  0.245596  1
  Si  Si20  1  0.816520  0.615048  0.750207  1
  Si  Si21  1  0.314715  0.884491  0.751124  1
  Si  Si22  1  0.179871  0.382068  0.248276  1
  Si  Si23  1  0.690873  0.117287  0.246386  1
  Mo  Mo24  1  0.832595  0.335871  0.625743  1
  Mo  Mo25  1  0.333992  0.163728  0.875695  1
  Mo  Mo26  1  0.166834  0.662535  0.125162  1
  Mo  Mo27  1  0.679993  0.840634  0.373053  1
  Mo  Mo28  1  0.160173  0.661948  0.372875  1
  Mo  Mo29  1  0.662998  0.834608  0.124319  1
  Mo  Mo30  1  0.830062  0.337249  0.874687  1
  Mo  Mo31  1  0.331753  0.161513  0.625938  1
  Mo  Mo32  1  0.670575  0.997627  0.751537  1
  Mo  Mo33  1  0.172366  0.500719  0.750073  1
  Mo  Mo34  1  0.330381  0.003175  0.249716  1
  Mo  Mo35  1  0.827661  0.501237  0.250310  1
