# generated using pymatgen
data_MnV(NiAs)2
_symmetry_space_group_name_H-M   'P 1'
_cell_length_a   6.08527000
_cell_length_b   3.69445100
_cell_length_c   7.08316500
_cell_angle_alpha   90.00000000
_cell_angle_beta   90.00000000
_cell_angle_gamma   90.00000000
_symmetry_Int_Tables_number   1
_chemical_formula_structural   MnV(NiAs)2
_chemical_formula_sum   'Mn2 V2 Ni4 As4'
_cell_volume   159.24181609
_cell_formula_units_Z   2
loop_
 _symmetry_equiv_pos_site_id
 _symmetry_equiv_pos_as_xyz
  1  'x, y, z'
loop_
 _atom_site_type_symbol
 _atom_site_label
 _atom_site_symmetry_multiplicity
 _atom_site_fract_x
 _atom_site_fract_y
 _atom_site_fract_z
 _atom_site_occupancy
  Mn  Mn0  1  0.967588  0.750000  0.669966  1
  Mn  Mn1  1  0.467588  0.750000  0.830034  1
  V  V2  1  0.029998  0.250000  0.324794  1
  V  V3  1  0.529998  0.250000  0.175206  1
  Ni  Ni4  1  0.145879  0.250000  0.935736  1
  Ni  Ni5  1  0.645879  0.250000  0.564264  1
  Ni  Ni6  1  0.859945  0.750000  0.057939  1
  Ni  Ni7  1  0.359945  0.750000  0.442061  1
  As  As8  1  0.256088  0.250000  0.622367  1
  As  As9  1  0.756088  0.250000  0.877633  1
  As  As10  1  0.740502  0.750000  0.369975  1
  As  As11  1  0.240502  0.750000  0.130025  1
