# generated using pymatgen
data_TbTm4Tl5
_symmetry_space_group_name_H-M   'P 1'
_cell_length_a   3.56482400
_cell_length_b   3.56482400
_cell_length_c   20.89858900
_cell_angle_alpha   90.00000000
_cell_angle_beta   90.00000000
_cell_angle_gamma   90.00000000
_symmetry_Int_Tables_number   1
_chemical_formula_structural   TbTm4Tl5
_chemical_formula_sum   'Tb1 Tm4 Tl5'
_cell_volume   265.57864521
_cell_formula_units_Z   1
loop_
 _symmetry_equiv_pos_site_id
 _symmetry_equiv_pos_as_xyz
  1  'x, y, z'
loop_
 _atom_site_type_symbol
 _atom_site_label
 _atom_site_symmetry_multiplicity
 _atom_site_fract_x
 _atom_site_fract_y
 _atom_site_fract_z
 _atom_site_occupancy
  Tb  Tb0  1  0.000000  0.000000  0.000000  1
  Tm  Tm1  1  0.000000  0.000000  0.202600  1
  Tm  Tm2  1  0.000000  0.000000  0.400832  1
  Tm  Tm3  1  0.000000  0.000000  0.599168  1
  Tm  Tm4  1  0.000000  0.000000  0.797400  1
  Tl  Tl5  1  0.500000  0.500000  0.103097  1
  Tl  Tl6  1  0.500000  0.500000  0.301875  1
  Tl  Tl7  1  0.500000  0.500000  0.500000  1
  Tl  Tl8  1  0.500000  0.500000  0.698125  1
  Tl  Tl9  1  0.500000  0.500000  0.896903  1
