# generated using pymatgen
data_Y11In9(IrAu)2
_symmetry_space_group_name_H-M   'P 1'
_cell_length_a   13.23108802
_cell_length_b   13.28875106
_cell_length_c   3.68335900
_cell_angle_alpha   90.00000000
_cell_angle_beta   90.00000000
_cell_angle_gamma   110.75735811
_symmetry_Int_Tables_number   1
_chemical_formula_structural   Y11In9(IrAu)2
_chemical_formula_sum   'Y11 In9 Ir2 Au2'
_cell_volume   605.58770402
_cell_formula_units_Z   1
loop_
 _symmetry_equiv_pos_site_id
 _symmetry_equiv_pos_as_xyz
  1  'x, y, z'
loop_
 _atom_site_type_symbol
 _atom_site_label
 _atom_site_symmetry_multiplicity
 _atom_site_fract_x
 _atom_site_fract_y
 _atom_site_fract_z
 _atom_site_occupancy
  Y  Y0  1  0.068993  0.417572  0.000000  1
  Y  Y1  1  0.931007  0.582428  0.000000  1
  Y  Y2  1  0.417825  0.074059  0.000000  1
  Y  Y3  1  0.582175  0.925941  0.000000  1
  Y  Y4  1  0.619541  0.360081  0.000000  1
  Y  Y5  1  0.380459  0.639919  0.000000  1
  Y  Y6  1  0.841366  0.157261  0.000000  1
  Y  Y7  1  0.158634  0.842739  0.000000  1
  Y  Y8  1  0.000000  0.000000  0.000000  1
  Y  Y9  1  0.315697  0.301725  0.000000  1
  Y  Y10  1  0.684303  0.698275  0.000000  1
  In  In11  1  0.844886  0.364951  0.500000  1
  In  In12  1  0.155114  0.635049  0.500000  1
  In  In13  1  0.365904  0.844144  0.500000  1
  In  In14  1  0.634096  0.155856  0.500000  1
  In  In15  1  0.069849  0.215643  0.500000  1
  In  In16  1  0.930151  0.784357  0.500000  1
  In  In17  1  0.218278  0.073478  0.500000  1
  In  In18  1  0.781722  0.926522  0.500000  1
  In  In19  1  0.500000  0.500000  0.500000  1
  Ir  Ir20  1  0.451052  0.243206  0.500000  1
  Ir  Ir21  1  0.548948  0.756794  0.500000  1
  Au  Au22  1  0.251604  0.452811  0.500000  1
  Au  Au23  1  0.748396  0.547189  0.500000  1
