# generated using pymatgen
data_Dy4HoEr3(ReB6)4
_symmetry_space_group_name_H-M   'P 1'
_cell_length_a   3.67158900
_cell_length_b   9.15329700
_cell_length_c   11.54070700
_cell_angle_alpha   89.99976192
_cell_angle_beta   90.00000000
_cell_angle_gamma   90.00000000
_symmetry_Int_Tables_number   1
_chemical_formula_structural   Dy4HoEr3(ReB6)4
_chemical_formula_sum   'Dy4 Ho1 Er3 Re4 B24'
_cell_volume   387.85020869
_cell_formula_units_Z   1
loop_
 _symmetry_equiv_pos_site_id
 _symmetry_equiv_pos_as_xyz
  1  'x, y, z'
loop_
 _atom_site_type_symbol
 _atom_site_label
 _atom_site_symmetry_multiplicity
 _atom_site_fract_x
 _atom_site_fract_y
 _atom_site_fract_z
 _atom_site_occupancy
  Dy  Dy0  1  0.000000  0.323605  0.413886  1
  Dy  Dy1  1  0.000000  0.676402  0.586193  1
  Dy  Dy2  1  0.000000  0.823538  0.086074  1
  Dy  Dy3  1  0.000000  0.176461  0.913828  1
  Ho  Ho4  1  0.000000  0.943420  0.370208  1
  Er  Er5  1  0.000000  0.056664  0.630019  1
  Er  Er6  1  0.000000  0.443397  0.129842  1
  Er  Er7  1  0.000000  0.556588  0.870107  1
  Re  Re8  1  0.000000  0.638797  0.320553  1
  Re  Re9  1  0.000000  0.360956  0.679452  1
  Re  Re10  1  0.000000  0.139246  0.179250  1
  Re  Re11  1  0.000000  0.860950  0.820613  1
  B  B12  1  0.500000  0.553497  0.432807  1
  B  B13  1  0.500000  0.446429  0.567220  1
  B  B14  1  0.500000  0.053558  0.067154  1
  B  B15  1  0.500000  0.946447  0.932781  1
  B  B16  1  0.500000  0.749496  0.418672  1
  B  B17  1  0.500000  0.250210  0.581349  1
  B  B18  1  0.500000  0.249851  0.081309  1
  B  B19  1  0.500000  0.750175  0.918651  1
  B  B20  1  0.500000  0.792376  0.265670  1
  B  B21  1  0.500000  0.207392  0.734265  1
  B  B22  1  0.500000  0.292719  0.234241  1
  B  B23  1  0.500000  0.707382  0.765731  1
  B  B24  1  0.500000  0.630823  0.185547  1
  B  B25  1  0.500000  0.369133  0.814427  1
  B  B26  1  0.500000  0.131126  0.314288  1
  B  B27  1  0.500000  0.869096  0.685589  1
  B  B28  1  0.500000  0.982522  0.212048  1
  B  B29  1  0.500000  0.017579  0.787767  1
  B  B30  1  0.500000  0.482367  0.287753  1
  B  B31  1  0.500000  0.517584  0.712238  1
  B  B32  1  0.500000  0.599476  0.027805  1
  B  B33  1  0.500000  0.400528  0.972164  1
  B  B34  1  0.500000  0.099785  0.472377  1
  B  B35  1  0.500000  0.900424  0.528123  1
