# generated using pymatgen
data_Pr3Nd13Cd2(InIr2)2
_symmetry_space_group_name_H-M   'P 1'
_cell_length_a   9.99568807
_cell_length_b   9.99479381
_cell_length_c   9.99524702
_cell_angle_alpha   60.00465383
_cell_angle_beta   60.00210226
_cell_angle_gamma   59.96673016
_symmetry_Int_Tables_number   1
_chemical_formula_structural   Pr3Nd13Cd2(InIr2)2
_chemical_formula_sum   'Pr3 Nd13 Cd2 In2 Ir4'
_cell_volume   705.95645328
_cell_formula_units_Z   1
loop_
 _symmetry_equiv_pos_site_id
 _symmetry_equiv_pos_as_xyz
  1  'x, y, z'
loop_
 _atom_site_type_symbol
 _atom_site_label
 _atom_site_symmetry_multiplicity
 _atom_site_fract_x
 _atom_site_fract_y
 _atom_site_fract_z
 _atom_site_occupancy
  Pr  Pr0  1  0.941257  0.560774  0.937342  1
  Pr  Pr1  1  0.560891  0.561055  0.938973  1
  Pr  Pr2  1  0.939493  0.939643  0.560364  1
  Nd  Nd3  1  0.348216  0.348209  0.346968  1
  Nd  Nd4  1  0.348354  0.348151  0.956624  1
  Nd  Nd5  1  0.349653  0.954836  0.347771  1
  Nd  Nd6  1  0.954846  0.349586  0.347902  1
  Nd  Nd7  1  0.808810  0.190158  0.191685  1
  Nd  Nd8  1  0.190335  0.808931  0.809240  1
  Nd  Nd9  1  0.190254  0.808863  0.191626  1
  Nd  Nd10  1  0.808863  0.190245  0.809267  1
  Nd  Nd11  1  0.188856  0.188665  0.811194  1
  Nd  Nd12  1  0.807315  0.807433  0.192715  1
  Nd  Nd13  1  0.941299  0.560680  0.560339  1
  Nd  Nd14  1  0.560557  0.941416  0.937534  1
  Nd  Nd15  1  0.560706  0.941269  0.560525  1
  Cd  Cd16  1  0.578670  0.260056  0.580637  1
  Cd  Cd17  1  0.260264  0.578669  0.580423  1
  In  In18  1  0.580151  0.580162  0.581351  1
  In  In19  1  0.579965  0.580159  0.258526  1
  Ir  Ir20  1  0.141872  0.141646  0.140822  1
  Ir  Ir21  1  0.141798  0.141832  0.575609  1
  Ir  Ir22  1  0.141838  0.575778  0.141311  1
  Ir  Ir23  1  0.575733  0.141778  0.141248  1
