# generated using pymatgen
data_SmAlCuSi
_symmetry_space_group_name_H-M   'P 1'
_cell_length_a   9.05688767
_cell_length_b   9.05688711
_cell_length_c   4.04209100
_cell_angle_alpha   90.00000000
_cell_angle_beta   90.00000000
_cell_angle_gamma   153.67997364
_symmetry_Int_Tables_number   1
_chemical_formula_structural   SmAlCuSi
_chemical_formula_sum   'Sm2 Al2 Cu2 Si2'
_cell_volume   147.00920813
_cell_formula_units_Z   2
loop_
 _symmetry_equiv_pos_site_id
 _symmetry_equiv_pos_as_xyz
  1  'x, y, z'
loop_
 _atom_site_type_symbol
 _atom_site_label
 _atom_site_symmetry_multiplicity
 _atom_site_fract_x
 _atom_site_fract_y
 _atom_site_fract_z
 _atom_site_occupancy
  Sm  Sm0  1  0.902922  0.097078  0.750000  1
  Sm  Sm1  1  0.097078  0.902922  0.250000  1
  Al  Al2  1  0.248828  0.751172  0.750000  1
  Al  Al3  1  0.751172  0.248828  0.250000  1
  Cu  Cu4  1  0.667820  0.332180  0.750000  1
  Cu  Cu5  1  0.332180  0.667820  0.250000  1
  Si  Si6  1  0.536358  0.463642  0.750000  1
  Si  Si7  1  0.463642  0.536358  0.250000  1
