# generated using pymatgen
data_Nd3Sm(CuP2)4
_symmetry_space_group_name_H-M   'P 1'
_cell_length_a   3.77391800
_cell_length_b   3.87197130
_cell_length_c   20.03359474
_cell_angle_alpha   90.02463851
_cell_angle_beta   90.00000000
_cell_angle_gamma   90.00000000
_symmetry_Int_Tables_number   1
_chemical_formula_structural   Nd3Sm(CuP2)4
_chemical_formula_sum   'Nd3 Sm1 Cu4 P8'
_cell_volume   292.74091953
_cell_formula_units_Z   1
loop_
 _symmetry_equiv_pos_site_id
 _symmetry_equiv_pos_as_xyz
  1  'x, y, z'
loop_
 _atom_site_type_symbol
 _atom_site_label
 _atom_site_symmetry_multiplicity
 _atom_site_fract_x
 _atom_site_fract_y
 _atom_site_fract_z
 _atom_site_occupancy
  Nd  Nd0  1  0.250000  0.713637  0.379169  1
  Nd  Nd1  1  0.250000  0.786983  0.883604  1
  Nd  Nd2  1  0.750000  0.286755  0.619182  1
  Sm  Sm3  1  0.750000  0.211863  0.118842  1
  Cu  Cu4  1  0.250000  0.214636  0.247032  1
  Cu  Cu5  1  0.750000  0.785287  0.752133  1
  Cu  Cu6  1  0.250000  0.285488  0.751453  1
  Cu  Cu7  1  0.750000  0.714748  0.247561  1
  P  P8  1  0.750000  0.817378  0.501522  1
  P  P9  1  0.750000  0.682942  0.005049  1
  P  P10  1  0.250000  0.183488  0.496542  1
  P  P11  1  0.250000  0.317370  0.000079  1
  P  P12  1  0.250000  0.712976  0.173979  1
  P  P13  1  0.750000  0.214029  0.320384  1
  P  P14  1  0.750000  0.286309  0.825037  1
  P  P15  1  0.250000  0.786114  0.678432  1
