# generated using pymatgen
data_GdDy3Tm4(MoO6)4
_symmetry_space_group_name_H-M   'P 1'
_cell_length_a   5.37183200
_cell_length_b   7.68082011
_cell_length_c   11.38807623
_cell_angle_alpha   75.49889479
_cell_angle_beta   90.00000000
_cell_angle_gamma   90.00000000
_symmetry_Int_Tables_number   1
_chemical_formula_structural   GdDy3Tm4(MoO6)4
_chemical_formula_sum   'Gd1 Dy3 Tm4 Mo4 O24'
_cell_volume   454.90405266
_cell_formula_units_Z   1
loop_
 _symmetry_equiv_pos_site_id
 _symmetry_equiv_pos_as_xyz
  1  'x, y, z'
loop_
 _atom_site_type_symbol
 _atom_site_label
 _atom_site_symmetry_multiplicity
 _atom_site_fract_x
 _atom_site_fract_y
 _atom_site_fract_z
 _atom_site_occupancy
  Gd  Gd0  1  0.681863  0.500000  0.750000  1
  Dy  Dy1  1  0.741805  0.000000  0.750000  1
  Dy  Dy2  1  0.259248  0.000000  0.250000  1
  Dy  Dy3  1  0.318711  0.500000  0.250000  1
  Tm  Tm4  1  0.181861  0.797077  0.578766  1
  Tm  Tm5  1  0.818629  0.796109  0.079776  1
  Tm  Tm6  1  0.181861  0.202923  0.921234  1
  Tm  Tm7  1  0.818629  0.203891  0.420224  1
  Mo  Mo8  1  0.255431  0.723098  0.887387  1
  Mo  Mo9  1  0.744371  0.722301  0.386258  1
  Mo  Mo10  1  0.255431  0.276902  0.612613  1
  Mo  Mo11  1  0.744371  0.277699  0.113742  1
  O  O12  1  0.041475  0.939201  0.899226  1
  O  O13  1  0.534763  0.843102  0.931544  1
  O  O14  1  0.957818  0.939882  0.397656  1
  O  O15  1  0.460259  0.790392  0.724336  1
  O  O16  1  0.466504  0.843577  0.431410  1
  O  O17  1  0.985813  0.716563  0.768507  1
  O  O18  1  0.538005  0.788585  0.224319  1
  O  O19  1  0.851013  0.634523  0.547834  1
  O  O20  1  0.349116  0.489855  0.887529  1
  O  O21  1  0.015911  0.713332  0.269000  1
  O  O22  1  0.349116  0.510145  0.612471  1
  O  O23  1  0.851013  0.365477  0.952166  1
  O  O24  1  0.151678  0.635238  0.049947  1
  O  O25  1  0.646542  0.489738  0.386346  1
  O  O26  1  0.985813  0.283437  0.731493  1
  O  O27  1  0.646542  0.510262  0.113654  1
  O  O28  1  0.151678  0.364762  0.450053  1
  O  O29  1  0.460259  0.209608  0.775664  1
  O  O30  1  0.015911  0.286668  0.231000  1
  O  O31  1  0.534763  0.156898  0.568456  1
  O  O32  1  0.538005  0.211415  0.275681  1
  O  O33  1  0.041475  0.060799  0.600774  1
  O  O34  1  0.466504  0.156423  0.068590  1
  O  O35  1  0.957818  0.060118  0.102344  1
