# generated using pymatgen
data_Tb17Y(TmPb8)2
_symmetry_space_group_name_H-M   'P 1'
_cell_length_a   8.22287900
_cell_length_b   8.31266945
_cell_length_c   15.71302000
_cell_angle_alpha   90.00000000
_cell_angle_beta   90.00000000
_cell_angle_gamma   90.03383570
_symmetry_Int_Tables_number   1
_chemical_formula_structural   Tb17Y(TmPb8)2
_chemical_formula_sum   'Tb17 Y1 Tm2 Pb16'
_cell_volume   1074.04876106
_cell_formula_units_Z   1
loop_
 _symmetry_equiv_pos_site_id
 _symmetry_equiv_pos_as_xyz
  1  'x, y, z'
loop_
 _atom_site_type_symbol
 _atom_site_label
 _atom_site_symmetry_multiplicity
 _atom_site_fract_x
 _atom_site_fract_y
 _atom_site_fract_z
 _atom_site_occupancy
  Tb  Tb0  1  0.377750  0.841225  0.879520  1
  Tb  Tb1  1  0.876927  0.659351  0.620388  1
  Tb  Tb2  1  0.623005  0.159175  0.379582  1
  Tb  Tb3  1  0.122359  0.341274  0.120668  1
  Tb  Tb4  1  0.623005  0.159175  0.120418  1
  Tb  Tb5  1  0.122359  0.341274  0.379332  1
  Tb  Tb6  1  0.377750  0.841225  0.620480  1
  Tb  Tb7  1  0.876927  0.659351  0.879612  1
  Tb  Tb8  1  0.534721  0.323135  0.900034  1
  Tb  Tb9  1  0.034282  0.176186  0.600035  1
  Tb  Tb10  1  0.465626  0.676367  0.399837  1
  Tb  Tb11  1  0.965271  0.823292  0.099940  1
  Tb  Tb12  1  0.465626  0.676367  0.100163  1
  Tb  Tb13  1  0.965271  0.823292  0.400060  1
  Tb  Tb14  1  0.534721  0.323135  0.599966  1
  Tb  Tb15  1  0.034282  0.176186  0.899965  1
  Tb  Tb16  1  0.209040  0.503616  0.750000  1
  Y  Y17  1  0.290909  0.003649  0.250000  1
  Tm  Tm18  1  0.709362  0.995925  0.750000  1
  Tm  Tm19  1  0.790679  0.495972  0.250000  1
  Pb  Pb20  1  0.281097  0.033078  0.043043  1
  Pb  Pb21  1  0.781197  0.467229  0.456573  1
  Pb  Pb22  1  0.718779  0.967159  0.543346  1
  Pb  Pb23  1  0.218898  0.533272  0.957290  1
  Pb  Pb24  1  0.718779  0.967159  0.956654  1
  Pb  Pb25  1  0.218898  0.533272  0.542710  1
  Pb  Pb26  1  0.281097  0.033078  0.456957  1
  Pb  Pb27  1  0.781197  0.467229  0.043427  1
  Pb  Pb28  1  0.573771  0.626356  0.750000  1
  Pb  Pb29  1  0.072143  0.875125  0.750000  1
  Pb  Pb30  1  0.427776  0.374664  0.250000  1
  Pb  Pb31  1  0.926768  0.126026  0.250000  1
  Pb  Pb32  1  0.346790  0.151850  0.750000  1
  Pb  Pb33  1  0.845740  0.346142  0.750000  1
  Pb  Pb34  1  0.654113  0.846341  0.250000  1
  Pb  Pb35  1  0.153089  0.652850  0.250000  1
