# generated using pymatgen
data_HfNb11Sn10
_symmetry_space_group_name_H-M   'P 1'
_cell_length_a   10.13689892
_cell_length_b   10.13689867
_cell_length_c   10.13689884
_cell_angle_alpha   147.42202174
_cell_angle_beta   125.15886340
_cell_angle_gamma   65.25976471
_symmetry_Int_Tables_number   1
_chemical_formula_structural   HfNb11Sn10
_chemical_formula_sum   'Hf1 Nb11 Sn10'
_cell_volume   453.23996059
_cell_formula_units_Z   1
loop_
 _symmetry_equiv_pos_site_id
 _symmetry_equiv_pos_as_xyz
  1  'x, y, z'
loop_
 _atom_site_type_symbol
 _atom_site_label
 _atom_site_symmetry_multiplicity
 _atom_site_fract_x
 _atom_site_fract_y
 _atom_site_fract_z
 _atom_site_occupancy
  Hf  Hf0  1  0.654421  0.654421  0.000000  1
  Nb  Nb1  1  0.346259  0.346259  0.000000  1
  Nb  Nb2  1  0.999910  0.761779  0.761869  1
  Nb  Nb3  1  0.999910  0.238041  0.238131  1
  Nb  Nb4  1  0.499516  0.999577  0.998504  1
  Nb  Nb5  1  0.001072  0.501012  0.001496  1
  Nb  Nb6  1  0.001072  0.999577  0.500061  1
  Nb  Nb7  1  0.499516  0.501012  0.499939  1
  Nb  Nb8  1  0.644996  0.916043  0.728954  1
  Nb  Nb9  1  0.187089  0.916043  0.271046  1
  Nb  Nb10  1  0.811396  0.083794  0.727602  1
  Nb  Nb11  1  0.356192  0.083794  0.272398  1
  Sn  Sn12  1  0.832843  0.832843  0.000000  1
  Sn  Sn13  1  0.167552  0.167552  0.000000  1
  Sn  Sn14  1  0.294842  0.794842  0.500000  1
  Sn  Sn15  1  0.706082  0.206082  0.500000  1
  Sn  Sn16  1  0.498917  0.744473  0.245556  1
  Sn  Sn17  1  0.498917  0.253361  0.754444  1
  Sn  Sn18  1  0.295264  0.603870  0.691394  1
  Sn  Sn19  1  0.912477  0.603870  0.308606  1
  Sn  Sn20  1  0.089664  0.395877  0.693787  1
  Sn  Sn21  1  0.702090  0.395877  0.306213  1
