# generated using pymatgen
data_Hf2Zr2Ir2Ru10C3
_symmetry_space_group_name_H-M   'P 1'
_cell_length_a   4.08288700
_cell_length_b   4.08288700
_cell_length_c   16.12154400
_cell_angle_alpha   90.00000000
_cell_angle_beta   90.00000000
_cell_angle_gamma   90.00000000
_symmetry_Int_Tables_number   1
_chemical_formula_structural   Hf2Zr2Ir2Ru10C3
_chemical_formula_sum   'Hf2 Zr2 Ir2 Ru10 C3'
_cell_volume   268.74559445
_cell_formula_units_Z   1
loop_
 _symmetry_equiv_pos_site_id
 _symmetry_equiv_pos_as_xyz
  1  'x, y, z'
loop_
 _atom_site_type_symbol
 _atom_site_label
 _atom_site_symmetry_multiplicity
 _atom_site_fract_x
 _atom_site_fract_y
 _atom_site_fract_z
 _atom_site_occupancy
  Hf  Hf0  1  0.000000  0.000000  0.372933  1
  Hf  Hf1  1  0.000000  0.000000  0.627067  1
  Zr  Zr2  1  0.000000  0.000000  0.881339  1
  Zr  Zr3  1  0.000000  0.000000  0.118661  1
  Ir  Ir4  1  0.500000  0.000000  0.000000  1
  Ir  Ir5  1  0.000000  0.500000  0.000000  1
  Ru  Ru6  1  0.500000  0.500000  0.881654  1
  Ru  Ru7  1  0.500000  0.500000  0.118346  1
  Ru  Ru8  1  0.500000  0.500000  0.373330  1
  Ru  Ru9  1  0.500000  0.500000  0.626670  1
  Ru  Ru10  1  0.500000  0.000000  0.250400  1
  Ru  Ru11  1  0.500000  0.000000  0.500000  1
  Ru  Ru12  1  0.500000  0.000000  0.749600  1
  Ru  Ru13  1  0.000000  0.500000  0.250400  1
  Ru  Ru14  1  0.000000  0.500000  0.500000  1
  Ru  Ru15  1  0.000000  0.500000  0.749600  1
  C  C16  1  0.500000  0.500000  0.240188  1
  C  C17  1  0.500000  0.500000  0.500000  1
  C  C18  1  0.500000  0.500000  0.759812  1
