# generated using pymatgen
data_La4TmIr2Rh
_symmetry_space_group_name_H-M   'P 1'
_cell_length_a   11.31799600
_cell_length_b   11.31799600
_cell_length_c   6.60001600
_cell_angle_alpha   90.00000000
_cell_angle_beta   90.00000000
_cell_angle_gamma   90.00000000
_symmetry_Int_Tables_number   1
_chemical_formula_structural   La4TmIr2Rh
_chemical_formula_sum   'La16 Tm4 Ir8 Rh4'
_cell_volume   845.44247036
_cell_formula_units_Z   4
loop_
 _symmetry_equiv_pos_site_id
 _symmetry_equiv_pos_as_xyz
  1  'x, y, z'
loop_
 _atom_site_type_symbol
 _atom_site_label
 _atom_site_symmetry_multiplicity
 _atom_site_fract_x
 _atom_site_fract_y
 _atom_site_fract_z
 _atom_site_occupancy
  La  La0  1  0.286167  0.087455  0.390410  1
  La  La1  1  0.286167  0.912545  0.890410  1
  La  La2  1  0.713833  0.087455  0.890410  1
  La  La3  1  0.713833  0.912545  0.390410  1
  La  La4  1  0.587455  0.786167  0.890410  1
  La  La5  1  0.587455  0.213833  0.390410  1
  La  La6  1  0.412545  0.786167  0.390410  1
  La  La7  1  0.412545  0.213833  0.890410  1
  La  La8  1  0.213833  0.412545  0.609590  1
  La  La9  1  0.213833  0.587455  0.109590  1
  La  La10  1  0.786167  0.412545  0.109590  1
  La  La11  1  0.786167  0.587455  0.609590  1
  La  La12  1  0.912545  0.713833  0.109590  1
  La  La13  1  0.912545  0.286167  0.609590  1
  La  La14  1  0.087455  0.713833  0.609590  1
  La  La15  1  0.087455  0.286167  0.109590  1
  Tm  Tm16  1  0.000000  0.000000  0.500000  1
  Tm  Tm17  1  0.000000  0.000000  0.000000  1
  Tm  Tm18  1  0.500000  0.500000  0.000000  1
  Tm  Tm19  1  0.500000  0.500000  0.500000  1
  Ir  Ir20  1  0.852257  0.147743  0.250000  1
  Ir  Ir21  1  0.852257  0.852257  0.750000  1
  Ir  Ir22  1  0.147743  0.147743  0.750000  1
  Ir  Ir23  1  0.147743  0.852257  0.250000  1
  Ir  Ir24  1  0.647743  0.352257  0.750000  1
  Ir  Ir25  1  0.647743  0.647743  0.250000  1
  Ir  Ir26  1  0.352257  0.352257  0.250000  1
  Ir  Ir27  1  0.352257  0.647743  0.750000  1
  Rh  Rh28  1  0.500000  0.000000  0.118325  1
  Rh  Rh29  1  0.500000  0.000000  0.618325  1
  Rh  Rh30  1  0.000000  0.500000  0.881675  1
  Rh  Rh31  1  0.000000  0.500000  0.381675  1
