# generated using pymatgen
data_Nd8Cu3Si12Ir
_symmetry_space_group_name_H-M   'P 1'
_cell_length_a   8.15775400
_cell_length_b   8.15775469
_cell_length_c   8.54208000
_cell_angle_alpha   90.00000000
_cell_angle_beta   90.00000000
_cell_angle_gamma   119.99999720
_symmetry_Int_Tables_number   1
_chemical_formula_structural   Nd8Cu3Si12Ir
_chemical_formula_sum   'Nd8 Cu3 Si12 Ir1'
_cell_volume   492.30644909
_cell_formula_units_Z   1
loop_
 _symmetry_equiv_pos_site_id
 _symmetry_equiv_pos_as_xyz
  1  'x, y, z'
loop_
 _atom_site_type_symbol
 _atom_site_label
 _atom_site_symmetry_multiplicity
 _atom_site_fract_x
 _atom_site_fract_y
 _atom_site_fract_z
 _atom_site_occupancy
  Nd  Nd0  1  0.501104  0.498896  0.748147  1
  Nd  Nd1  1  0.501161  0.498839  0.251851  1
  Nd  Nd2  1  0.997794  0.498896  0.748147  1
  Nd  Nd3  1  0.997679  0.498839  0.251851  1
  Nd  Nd4  1  0.501104  0.002206  0.748147  1
  Nd  Nd5  1  0.501161  0.002321  0.251851  1
  Nd  Nd6  1  0.000000  0.000000  0.751097  1
  Nd  Nd7  1  0.000000  0.000000  0.248881  1
  Cu  Cu8  1  0.666667  0.333333  0.999923  1
  Cu  Cu9  1  0.333333  0.666667  0.000297  1
  Cu  Cu10  1  0.333333  0.666667  0.499848  1
  Si  Si11  1  0.831103  0.168897  0.000005  1
  Si  Si12  1  0.168601  0.831399  0.999967  1
  Si  Si13  1  0.337793  0.168897  0.000005  1
  Si  Si14  1  0.167814  0.832186  0.499940  1
  Si  Si15  1  0.662799  0.831399  0.999967  1
  Si  Si16  1  0.832357  0.167643  0.500065  1
  Si  Si17  1  0.831103  0.662207  0.000005  1
  Si  Si18  1  0.664370  0.832186  0.499940  1
  Si  Si19  1  0.168601  0.337201  0.999967  1
  Si  Si20  1  0.335287  0.167643  0.500065  1
  Si  Si21  1  0.167814  0.335630  0.499940  1
  Si  Si22  1  0.832357  0.664713  0.500065  1
  Ir  Ir23  1  0.666667  0.333333  0.500027  1
