# generated using pymatgen
data_Y2Ni11As7Pd
_symmetry_space_group_name_H-M   'P 1'
_cell_length_a   9.40073832
_cell_length_b   9.39136501
_cell_length_c   3.86190800
_cell_angle_alpha   90.00000000
_cell_angle_beta   90.00000000
_cell_angle_gamma   120.09777383
_symmetry_Int_Tables_number   1
_chemical_formula_structural   Y2Ni11As7Pd
_chemical_formula_sum   'Y2 Ni11 As7 Pd1'
_cell_volume   294.98131971
_cell_formula_units_Z   1
loop_
 _symmetry_equiv_pos_site_id
 _symmetry_equiv_pos_as_xyz
  1  'x, y, z'
loop_
 _atom_site_type_symbol
 _atom_site_label
 _atom_site_symmetry_multiplicity
 _atom_site_fract_x
 _atom_site_fract_y
 _atom_site_fract_z
 _atom_site_occupancy
  Y  Y0  1  0.332853  0.663257  0.000000  1
  Y  Y1  1  0.668664  0.335327  0.499999  1
  Ni  Ni2  1  0.437172  0.059357  0.000000  1
  Ni  Ni3  1  0.148759  0.277753  0.000000  1
  Ni  Ni4  1  0.942602  0.379317  0.000000  1
  Ni  Ni5  1  0.625661  0.567471  0.000000  1
  Ni  Ni6  1  0.128602  0.848059  0.000000  1
  Ni  Ni7  1  0.715637  0.870040  0.000000  1
  Ni  Ni8  1  0.901149  0.114994  0.499999  1
  Ni  Ni9  1  0.378243  0.431693  0.499999  1
  Ni  Ni10  1  0.048464  0.622296  0.499999  1
  Ni  Ni11  1  0.882294  0.785995  0.499999  1
  Ni  Ni12  1  0.576353  0.951836  0.499999  1
  As  As13  1  0.991647  0.994926  0.000000  1
  As  As14  1  0.710400  0.115904  0.000000  1
  As  As15  1  0.410450  0.297609  0.000000  1
  As  As16  1  0.886362  0.596210  0.000000  1
  As  As17  1  0.106766  0.404386  0.499999  1
  As  As18  1  0.594793  0.703335  0.499999  1
  As  As19  1  0.300727  0.883316  0.499999  1
  Pd  Pd20  1  0.212403  0.096917  0.499999  1
