# generated using pymatgen
data_Yb2U(SnIr)3
_symmetry_space_group_name_H-M   'P 1'
_cell_length_a   7.42792544
_cell_length_b   7.64241962
_cell_length_c   3.94594300
_cell_angle_alpha   90.00000000
_cell_angle_beta   90.00000000
_cell_angle_gamma   120.95991384
_symmetry_Int_Tables_number   1
_chemical_formula_structural   Yb2U(SnIr)3
_chemical_formula_sum   'Yb2 U1 Sn3 Ir3'
_cell_volume   192.08667706
_cell_formula_units_Z   1
loop_
 _symmetry_equiv_pos_site_id
 _symmetry_equiv_pos_as_xyz
  1  'x, y, z'
loop_
 _atom_site_type_symbol
 _atom_site_label
 _atom_site_symmetry_multiplicity
 _atom_site_fract_x
 _atom_site_fract_y
 _atom_site_fract_z
 _atom_site_occupancy
  Yb  Yb0  1  0.593951  0.592598  0.500000  1
  Yb  Yb1  1  0.406049  0.998646  0.500000  1
  U  U2  1  0.000000  0.413078  0.500000  1
  Sn  Sn3  1  0.000000  0.760763  0.000000  1
  Sn  Sn4  1  0.277702  0.259566  0.000000  1
  Sn  Sn5  1  0.722298  0.981864  0.000000  1
  Ir  Ir6  1  0.287367  0.627965  0.000000  1
  Ir  Ir7  1  0.712633  0.340597  0.000000  1
  Ir  Ir8  1  0.000000  0.024924  0.500000  1
