# generated using pymatgen
data_Sc5Tc2C7
_symmetry_space_group_name_H-M   'P 1'
_cell_length_a   7.87568010
_cell_length_b   7.87568036
_cell_length_c   3.23228000
_cell_angle_alpha   90.00000000
_cell_angle_beta   90.00000000
_cell_angle_gamma   120.65646819
_symmetry_Int_Tables_number   1
_chemical_formula_structural   Sc5Tc2C7
_chemical_formula_sum   'Sc5 Tc2 C7'
_cell_volume   172.46648685
_cell_formula_units_Z   1
loop_
 _symmetry_equiv_pos_site_id
 _symmetry_equiv_pos_as_xyz
  1  'x, y, z'
loop_
 _atom_site_type_symbol
 _atom_site_label
 _atom_site_symmetry_multiplicity
 _atom_site_fract_x
 _atom_site_fract_y
 _atom_site_fract_z
 _atom_site_occupancy
  Sc  Sc0  1  0.084439  0.340671  0.500000  1
  Sc  Sc1  1  0.340671  0.084439  0.500000  1
  Sc  Sc2  1  0.500000  0.500000  0.000000  1
  Sc  Sc3  1  0.915561  0.659329  0.500000  1
  Sc  Sc4  1  0.659329  0.915561  0.500000  1
  Tc  Tc5  1  0.714236  0.285764  0.000000  1
  Tc  Tc6  1  0.285764  0.714236  0.000000  1
  C  C7  1  0.000000  0.000000  0.000000  1
  C  C8  1  0.000000  0.500000  0.000000  1
  C  C9  1  0.500000  0.000000  0.000000  1
  C  C10  1  0.173624  0.173624  0.000000  1
  C  C11  1  0.826376  0.826376  0.000000  1
  C  C12  1  0.618506  0.381494  0.500000  1
  C  C13  1  0.381494  0.618506  0.500000  1
