# generated using pymatgen
data_CaMgIn3Pt
_symmetry_space_group_name_H-M   'P 1'
_cell_length_a   4.30821600
_cell_length_b   7.58134000
_cell_length_c   8.54933800
_cell_angle_alpha   90.00000000
_cell_angle_beta   90.00000000
_cell_angle_gamma   90.00000000
_symmetry_Int_Tables_number   1
_chemical_formula_structural   CaMgIn3Pt
_chemical_formula_sum   'Ca2 Mg2 In6 Pt2'
_cell_volume   279.23890770
_cell_formula_units_Z   2
loop_
 _symmetry_equiv_pos_site_id
 _symmetry_equiv_pos_as_xyz
  1  'x, y, z'
loop_
 _atom_site_type_symbol
 _atom_site_label
 _atom_site_symmetry_multiplicity
 _atom_site_fract_x
 _atom_site_fract_y
 _atom_site_fract_z
 _atom_site_occupancy
  Ca  Ca0  1  0.000000  0.401256  0.250000  1
  Ca  Ca1  1  0.000000  0.598744  0.750000  1
  Mg  Mg2  1  0.000000  0.000000  0.000000  1
  Mg  Mg3  1  0.000000  0.000000  0.500000  1
  In  In4  1  0.500000  0.308291  0.555696  1
  In  In5  1  0.500000  0.062686  0.250000  1
  In  In6  1  0.500000  0.937314  0.750000  1
  In  In7  1  0.500000  0.308291  0.944304  1
  In  In8  1  0.500000  0.691709  0.055696  1
  In  In9  1  0.500000  0.691709  0.444304  1
  Pt  Pt10  1  0.000000  0.799450  0.250000  1
  Pt  Pt11  1  0.000000  0.200550  0.750000  1
