# generated using pymatgen
data_Ho3BePd5
_symmetry_space_group_name_H-M   'P 1'
_cell_length_a   8.05181510
_cell_length_b   8.05181555
_cell_length_c   8.05181476
_cell_angle_alpha   127.12230501
_cell_angle_beta   124.22384643
_cell_angle_gamma   80.44780987
_symmetry_Int_Tables_number   1
_chemical_formula_structural   Ho3BePd5
_chemical_formula_sum   'Ho6 Be2 Pd10'
_cell_volume   332.02598080
_cell_formula_units_Z   2
loop_
 _symmetry_equiv_pos_site_id
 _symmetry_equiv_pos_as_xyz
  1  'x, y, z'
loop_
 _atom_site_type_symbol
 _atom_site_label
 _atom_site_symmetry_multiplicity
 _atom_site_fract_x
 _atom_site_fract_y
 _atom_site_fract_z
 _atom_site_occupancy
  Ho  Ho0  1  0.221538  0.446471  0.775066  1
  Ho  Ho1  1  0.778462  0.553529  0.224934  1
  Ho  Ho2  1  0.828595  0.053529  0.775066  1
  Ho  Ho3  1  0.171405  0.946471  0.224934  1
  Ho  Ho4  1  0.406992  0.250000  0.156992  1
  Ho  Ho5  1  0.593008  0.750000  0.843008  1
  Be  Be6  1  0.792762  0.250000  0.542762  1
  Be  Be7  1  0.207238  0.750000  0.457238  1
  Pd  Pd8  1  0.171978  0.406406  0.356264  1
  Pd  Pd9  1  0.828022  0.184287  0.234429  1
  Pd  Pd10  1  0.449858  0.093594  0.765571  1
  Pd  Pd11  1  0.550142  0.315713  0.643736  1
  Pd  Pd12  1  0.000000  0.500000  0.000000  1
  Pd  Pd13  1  0.000000  0.000000  0.500000  1
  Pd  Pd14  1  0.449858  0.684287  0.356264  1
  Pd  Pd15  1  0.550142  0.906406  0.234429  1
  Pd  Pd16  1  0.171978  0.815713  0.765571  1
  Pd  Pd17  1  0.828022  0.593594  0.643736  1
