# generated using pymatgen
data_Pr4Nd3USe12
_symmetry_space_group_name_H-M   'P 1'
_cell_length_a   4.19217100
_cell_length_b   11.20674604
_cell_length_c   11.49503483
_cell_angle_alpha   89.88511851
_cell_angle_beta   90.00000000
_cell_angle_gamma   90.00000000
_symmetry_Int_Tables_number   1
_chemical_formula_structural   Pr4Nd3USe12
_chemical_formula_sum   'Pr4 Nd3 U1 Se12'
_cell_volume   540.04249879
_cell_formula_units_Z   1
loop_
 _symmetry_equiv_pos_site_id
 _symmetry_equiv_pos_as_xyz
  1  'x, y, z'
loop_
 _atom_site_type_symbol
 _atom_site_label
 _atom_site_symmetry_multiplicity
 _atom_site_fract_x
 _atom_site_fract_y
 _atom_site_fract_z
 _atom_site_occupancy
  Pr  Pr0  1  0.750000  0.813843  0.488877  1
  Pr  Pr1  1  0.750000  0.496738  0.308089  1
  Pr  Pr2  1  0.250000  0.996015  0.192571  1
  Pr  Pr3  1  0.750000  0.004123  0.804609  1
  Nd  Nd4  1  0.250000  0.313058  0.011074  1
  Nd  Nd5  1  0.750000  0.687175  0.988113  1
  Nd  Nd6  1  0.250000  0.503451  0.693948  1
  U  U7  1  0.250000  0.187564  0.509346  1
  Se  Se8  1  0.250000  0.553661  0.121267  1
  Se  Se9  1  0.750000  0.366303  0.547677  1
  Se  Se10  1  0.250000  0.623861  0.456065  1
  Se  Se11  1  0.250000  0.297143  0.275723  1
  Se  Se12  1  0.250000  0.203333  0.765495  1
  Se  Se13  1  0.750000  0.127409  0.045366  1
  Se  Se14  1  0.750000  0.699488  0.728349  1
  Se  Se15  1  0.250000  0.873299  0.953958  1
  Se  Se16  1  0.750000  0.800100  0.228689  1
  Se  Se17  1  0.750000  0.061024  0.382366  1
  Se  Se18  1  0.750000  0.444612  0.878900  1
  Se  Se19  1  0.250000  0.947800  0.619519  1
