# generated using pymatgen
data_LaPr7(DyIr3)2
_symmetry_space_group_name_H-M   'P 1'
_cell_length_a   11.25269175
_cell_length_b   11.26398800
_cell_length_c   6.57485895
_cell_angle_alpha   90.00000000
_cell_angle_beta   89.87443617
_cell_angle_gamma   90.00000000
_symmetry_Int_Tables_number   1
_chemical_formula_structural   LaPr7(DyIr3)2
_chemical_formula_sum   'La2 Pr14 Dy4 Ir12'
_cell_volume   833.36258605
_cell_formula_units_Z   2
loop_
 _symmetry_equiv_pos_site_id
 _symmetry_equiv_pos_as_xyz
  1  'x, y, z'
loop_
 _atom_site_type_symbol
 _atom_site_label
 _atom_site_symmetry_multiplicity
 _atom_site_fract_x
 _atom_site_fract_y
 _atom_site_fract_z
 _atom_site_occupancy
  La  La0  1  0.289093  0.088573  0.384041  1
  La  La1  1  0.289093  0.911427  0.884041  1
  Pr  Pr2  1  0.710962  0.088071  0.883213  1
  Pr  Pr3  1  0.710962  0.911929  0.383213  1
  Pr  Pr4  1  0.588468  0.788858  0.882994  1
  Pr  Pr5  1  0.588468  0.211142  0.382994  1
  Pr  Pr6  1  0.412454  0.788301  0.383027  1
  Pr  Pr7  1  0.412454  0.211699  0.883027  1
  Pr  Pr8  1  0.210823  0.412370  0.617148  1
  Pr  Pr9  1  0.210823  0.587630  0.117148  1
  Pr  Pr10  1  0.789119  0.412131  0.116776  1
  Pr  Pr11  1  0.789119  0.587869  0.616776  1
  Pr  Pr12  1  0.911855  0.710856  0.116687  1
  Pr  Pr13  1  0.911855  0.289144  0.616687  1
  Pr  Pr14  1  0.087720  0.710583  0.616634  1
  Pr  Pr15  1  0.087720  0.289417  0.116634  1
  Dy  Dy16  1  0.999374  0.999694  0.499985  1
  Dy  Dy17  1  0.999374  0.000306  0.999985  1
  Dy  Dy18  1  0.500163  0.499951  0.000192  1
  Dy  Dy19  1  0.500163  0.500049  0.500192  1
  Ir  Ir20  1  0.851999  0.147835  0.249953  1
  Ir  Ir21  1  0.851999  0.852165  0.749953  1
  Ir  Ir22  1  0.148581  0.147785  0.748859  1
  Ir  Ir23  1  0.148581  0.852215  0.248859  1
  Ir  Ir24  1  0.647884  0.352038  0.749926  1
  Ir  Ir25  1  0.647884  0.647962  0.249926  1
  Ir  Ir26  1  0.352082  0.351955  0.250197  1
  Ir  Ir27  1  0.352082  0.648045  0.750197  1
  Ir  Ir28  1  0.499383  0.000213  0.119016  1
  Ir  Ir29  1  0.499383  0.999787  0.619016  1
  Ir  Ir30  1  0.000040  0.499801  0.881350  1
  Ir  Ir31  1  0.000040  0.500199  0.381350  1
