# generated using pymatgen
data_Ta6Be3Ga
_symmetry_space_group_name_H-M   'P 1'
_cell_length_a   6.63039049
_cell_length_b   6.63039049
_cell_length_c   3.38602100
_cell_angle_alpha   90.00000000
_cell_angle_beta   90.00000000
_cell_angle_gamma   89.95608446
_symmetry_Int_Tables_number   1
_chemical_formula_structural   Ta6Be3Ga
_chemical_formula_sum   'Ta6 Be3 Ga1'
_cell_volume   148.85647562
_cell_formula_units_Z   1
loop_
 _symmetry_equiv_pos_site_id
 _symmetry_equiv_pos_as_xyz
  1  'x, y, z'
loop_
 _atom_site_type_symbol
 _atom_site_label
 _atom_site_symmetry_multiplicity
 _atom_site_fract_x
 _atom_site_fract_y
 _atom_site_fract_z
 _atom_site_occupancy
  Ta  Ta0  1  0.506323  0.497279  0.000000  1
  Ta  Ta1  1  0.997279  0.006323  0.000000  1
  Ta  Ta2  1  0.677110  0.177110  0.500000  1
  Ta  Ta3  1  0.334262  0.834262  0.500000  1
  Ta  Ta4  1  0.182560  0.305250  0.500000  1
  Ta  Ta5  1  0.805250  0.682560  0.500000  1
  Be  Be6  1  0.878008  0.378008  0.000000  1
  Be  Be7  1  0.615100  0.888237  0.000000  1
  Be  Be8  1  0.388237  0.115100  0.000000  1
  Ga  Ga9  1  0.115871  0.615871  0.000000  1
