# generated using pymatgen
data_DyEr3(Re3Tc)2
_symmetry_space_group_name_H-M   'P 1'
_cell_length_a   5.37345700
_cell_length_b   5.37345702
_cell_length_c   8.93449500
_cell_angle_alpha   90.00000000
_cell_angle_beta   90.00000000
_cell_angle_gamma   120.00000605
_symmetry_Int_Tables_number   1
_chemical_formula_structural   DyEr3(Re3Tc)2
_chemical_formula_sum   'Dy1 Er3 Re6 Tc2'
_cell_volume   223.41286224
_cell_formula_units_Z   1
loop_
 _symmetry_equiv_pos_site_id
 _symmetry_equiv_pos_as_xyz
  1  'x, y, z'
loop_
 _atom_site_type_symbol
 _atom_site_label
 _atom_site_symmetry_multiplicity
 _atom_site_fract_x
 _atom_site_fract_y
 _atom_site_fract_z
 _atom_site_occupancy
  Dy  Dy0  1  0.333333  0.666667  0.436873  1
  Er  Er1  1  0.666667  0.333333  0.563326  1
  Er  Er2  1  0.666667  0.333333  0.936833  1
  Er  Er3  1  0.333333  0.666667  0.063112  1
  Re  Re4  1  0.828398  0.171602  0.249706  1
  Re  Re5  1  0.828398  0.656797  0.249706  1
  Re  Re6  1  0.343203  0.171602  0.249706  1
  Re  Re7  1  0.171564  0.828436  0.750270  1
  Re  Re8  1  0.171564  0.343126  0.750270  1
  Re  Re9  1  0.656874  0.828436  0.750270  1
  Tc  Tc10  1  0.000000  0.000000  0.500096  1
  Tc  Tc11  1  0.000000  0.000000  0.999832  1
