# generated using pymatgen
data_Li3Ca7DySi12Ag
_symmetry_space_group_name_H-M   'P 1'
_cell_length_a   4.35236700
_cell_length_b   10.51719117
_cell_length_c   11.15079555
_cell_angle_alpha   89.50904030
_cell_angle_beta   90.00000000
_cell_angle_gamma   90.00000000
_symmetry_Int_Tables_number   1
_chemical_formula_structural   Li3Ca7DySi12Ag
_chemical_formula_sum   'Li3 Ca7 Dy1 Si12 Ag1'
_cell_volume   510.40531227
_cell_formula_units_Z   1
loop_
 _symmetry_equiv_pos_site_id
 _symmetry_equiv_pos_as_xyz
  1  'x, y, z'
loop_
 _atom_site_type_symbol
 _atom_site_label
 _atom_site_symmetry_multiplicity
 _atom_site_fract_x
 _atom_site_fract_y
 _atom_site_fract_z
 _atom_site_occupancy
  Li  Li0  1  0.500000  0.137684  0.717501  1
  Li  Li1  1  0.000000  0.359597  0.217622  1
  Li  Li2  1  0.000000  0.640580  0.783355  1
  Ca  Ca3  1  0.500000  0.552211  0.347805  1
  Ca  Ca4  1  0.500000  0.450297  0.650269  1
  Ca  Ca5  1  0.000000  0.947799  0.849771  1
  Ca  Ca6  1  0.500000  0.822612  0.575203  1
  Ca  Ca7  1  0.500000  0.178707  0.422129  1
  Ca  Ca8  1  0.000000  0.322620  0.927025  1
  Ca  Ca9  1  0.000000  0.675875  0.076820  1
  Dy  Dy10  1  0.000000  0.049404  0.149110  1
  Si  Si11  1  0.500000  0.893521  0.045704  1
  Si  Si12  1  0.500000  0.107758  0.962104  1
  Si  Si13  1  0.000000  0.392492  0.459016  1
  Si  Si14  1  0.000000  0.610711  0.539045  1
  Si  Si15  1  0.000000  0.970963  0.396299  1
  Si  Si16  1  0.000000  0.034017  0.597025  1
  Si  Si17  1  0.500000  0.463179  0.100656  1
  Si  Si18  1  0.500000  0.534072  0.901823  1
  Si  Si19  1  0.000000  0.255326  0.633134  1
  Si  Si20  1  0.000000  0.746069  0.362389  1
  Si  Si21  1  0.500000  0.755138  0.870383  1
  Si  Si22  1  0.500000  0.239525  0.137144  1
  Ag  Ag23  1  0.500000  0.859844  0.278668  1
