# generated using pymatgen
data_CeAl2SiPt
_symmetry_space_group_name_H-M   'P 1'
_cell_length_a   6.06374468
_cell_length_b   6.06374439
_cell_length_c   6.06374476
_cell_angle_alpha   139.12348487
_cell_angle_beta   139.12348222
_cell_angle_gamma   59.18661273
_symmetry_Int_Tables_number   1
_chemical_formula_structural   CeAl2SiPt
_chemical_formula_sum   'Ce1 Al2 Si1 Pt1'
_cell_volume   94.56308299
_cell_formula_units_Z   1
loop_
 _symmetry_equiv_pos_site_id
 _symmetry_equiv_pos_as_xyz
  1  'x, y, z'
loop_
 _atom_site_type_symbol
 _atom_site_label
 _atom_site_symmetry_multiplicity
 _atom_site_fract_x
 _atom_site_fract_y
 _atom_site_fract_z
 _atom_site_occupancy
  Ce  Ce0  1  0.596056  0.596056  0.000000  1
  Al  Al1  1  0.862057  0.362057  0.500000  1
  Al  Al2  1  0.362057  0.862057  0.500000  1
  Si  Si3  1  0.017663  0.017663  0.000000  1
  Pt  Pt4  1  0.242266  0.242266  0.000000  1
