# generated using pymatgen
data_Tb5Dy3(Er3Pb4)4
_symmetry_space_group_name_H-M   'P 1'
_cell_length_a   8.17623701
_cell_length_b   8.24815903
_cell_length_c   15.57276800
_cell_angle_alpha   90.00072244
_cell_angle_beta   89.99660832
_cell_angle_gamma   90.00497373
_symmetry_Int_Tables_number   1
_chemical_formula_structural   Tb5Dy3(Er3Pb4)4
_chemical_formula_sum   'Tb5 Dy3 Er12 Pb16'
_cell_volume   1050.21038744
_cell_formula_units_Z   1
loop_
 _symmetry_equiv_pos_site_id
 _symmetry_equiv_pos_as_xyz
  1  'x, y, z'
loop_
 _atom_site_type_symbol
 _atom_site_label
 _atom_site_symmetry_multiplicity
 _atom_site_fract_x
 _atom_site_fract_y
 _atom_site_fract_z
 _atom_site_occupancy
  Tb  Tb0  1  0.536393  0.323440  0.900229  1
  Tb  Tb1  1  0.036424  0.176571  0.599789  1
  Tb  Tb2  1  0.463544  0.676520  0.400012  1
  Tb  Tb3  1  0.963601  0.823452  0.099981  1
  Tb  Tb4  1  0.463546  0.676545  0.100045  1
  Dy  Dy5  1  0.963442  0.823547  0.399953  1
  Dy  Dy6  1  0.536559  0.323488  0.599865  1
  Dy  Dy7  1  0.036519  0.176546  0.900142  1
  Er  Er8  1  0.376353  0.841614  0.878888  1
  Er  Er9  1  0.876479  0.658473  0.621073  1
  Er  Er10  1  0.623560  0.158488  0.378700  1
  Er  Er11  1  0.123490  0.341475  0.121398  1
  Er  Er12  1  0.623523  0.158481  0.121389  1
  Er  Er13  1  0.123456  0.341458  0.378567  1
  Er  Er14  1  0.376488  0.841578  0.621089  1
  Er  Er15  1  0.876449  0.658496  0.878869  1
  Er  Er16  1  0.208306  0.504794  0.749976  1
  Er  Er17  1  0.708322  0.995185  0.749971  1
  Er  Er18  1  0.791820  0.495094  0.250064  1
  Er  Er19  1  0.291719  0.004862  0.250070  1
  Pb  Pb20  1  0.282304  0.034422  0.043082  1
  Pb  Pb21  1  0.782490  0.465955  0.456856  1
  Pb  Pb22  1  0.717595  0.965900  0.542554  1
  Pb  Pb23  1  0.217230  0.533853  0.957239  1
  Pb  Pb24  1  0.717900  0.966150  0.957236  1
  Pb  Pb25  1  0.217817  0.533801  0.542799  1
  Pb  Pb26  1  0.282106  0.033853  0.456629  1
  Pb  Pb27  1  0.782528  0.465948  0.043277  1
  Pb  Pb28  1  0.571137  0.626639  0.750002  1
  Pb  Pb29  1  0.071249  0.873343  0.749990  1
  Pb  Pb30  1  0.429029  0.373053  0.250052  1
  Pb  Pb31  1  0.928745  0.126785  0.249894  1
  Pb  Pb32  1  0.347540  0.153584  0.749865  1
  Pb  Pb33  1  0.847512  0.346449  0.750144  1
  Pb  Pb34  1  0.652589  0.846588  0.250097  1
  Pb  Pb35  1  0.152236  0.653570  0.250212  1
