# generated using pymatgen
data_Y5Mn2O11F
_symmetry_space_group_name_H-M   'P 1'
_cell_length_a   6.87878014
_cell_length_b   6.81485359
_cell_length_c   7.23295900
_cell_angle_alpha   74.66761775
_cell_angle_beta   74.86582688
_cell_angle_gamma   50.48107711
_symmetry_Int_Tables_number   1
_chemical_formula_structural   Y5Mn2O11F
_chemical_formula_sum   'Y5 Mn2 O11 F1'
_cell_volume   250.27972307
_cell_formula_units_Z   1
loop_
 _symmetry_equiv_pos_site_id
 _symmetry_equiv_pos_as_xyz
  1  'x, y, z'
loop_
 _atom_site_type_symbol
 _atom_site_label
 _atom_site_symmetry_multiplicity
 _atom_site_fract_x
 _atom_site_fract_y
 _atom_site_fract_z
 _atom_site_occupancy
  Y  Y0  1  0.710159  0.684785  0.649440  1
  Y  Y1  1  0.708409  0.680955  0.153355  1
  Y  Y2  1  0.964601  0.016205  0.003694  1
  Y  Y3  1  0.296473  0.326417  0.851835  1
  Y  Y4  1  0.308181  0.303889  0.341084  1
  Mn  Mn5  1  0.247475  0.756986  0.497382  1
  Mn  Mn6  1  0.757654  0.239466  0.502571  1
  O  O7  1  0.578447  0.094339  0.590412  1
  O  O8  1  0.904994  0.419995  0.418245  1
  O  O9  1  0.095649  0.602926  0.076652  1
  O  O10  1  0.999130  0.000444  0.320276  1
  O  O11  1  0.502461  0.501511  0.680580  1
  O  O12  1  0.902006  0.407109  0.923253  1
  O  O13  1  0.103148  0.577285  0.578552  1
  O  O14  1  0.426147  0.899579  0.416494  1
  O  O15  1  0.591491  0.093101  0.070367  1
  O  O16  1  0.504788  0.494992  0.319594  1
  O  O17  1  0.005030  0.998317  0.679016  1
  F  F18  1  0.393759  0.901697  0.927198  1
