# generated using pymatgen
data_Li2Sm3HfIr3
_symmetry_space_group_name_H-M   'P 1'
_cell_length_a   7.30222100
_cell_length_b   7.14909840
_cell_length_c   4.13128100
_cell_angle_alpha   90.00000000
_cell_angle_beta   90.00000000
_cell_angle_gamma   119.30872819
_symmetry_Int_Tables_number   1
_chemical_formula_structural   Li2Sm3HfIr3
_chemical_formula_sum   'Li2 Sm3 Hf1 Ir3'
_cell_volume   188.06363852
_cell_formula_units_Z   1
loop_
 _symmetry_equiv_pos_site_id
 _symmetry_equiv_pos_as_xyz
  1  'x, y, z'
loop_
 _atom_site_type_symbol
 _atom_site_label
 _atom_site_symmetry_multiplicity
 _atom_site_fract_x
 _atom_site_fract_y
 _atom_site_fract_z
 _atom_site_occupancy
  Li  Li0  1  0.247177  0.244194  0.500000  1
  Li  Li1  1  0.752823  0.997017  0.500000  1
  Sm  Sm2  1  0.573284  0.582359  0.000000  1
  Sm  Sm3  1  0.426716  0.009076  0.000000  1
  Sm  Sm4  1  0.000000  0.391393  0.000000  1
  Hf  Hf5  1  0.000000  0.758673  0.500000  1
  Ir  Ir6  1  0.000000  0.980175  0.000000  1
  Ir  Ir7  1  0.683736  0.360425  0.500000  1
  Ir  Ir8  1  0.316264  0.676690  0.500000  1
