# generated using pymatgen
data_Ho7Er4Tm5(InIr)4
_symmetry_space_group_name_H-M   'P 1'
_cell_length_a   9.61124248
_cell_length_b   9.61124294
_cell_length_c   9.62148500
_cell_angle_alpha   59.96473944
_cell_angle_beta   59.96473785
_cell_angle_gamma   60.03382684
_symmetry_Int_Tables_number   1
_chemical_formula_structural   Ho7Er4Tm5(InIr)4
_chemical_formula_sum   'Ho7 Er4 Tm5 In4 Ir4'
_cell_volume   628.29746684
_cell_formula_units_Z   1
loop_
 _symmetry_equiv_pos_site_id
 _symmetry_equiv_pos_as_xyz
  1  'x, y, z'
loop_
 _atom_site_type_symbol
 _atom_site_label
 _atom_site_symmetry_multiplicity
 _atom_site_fract_x
 _atom_site_fract_y
 _atom_site_fract_z
 _atom_site_occupancy
  Ho  Ho0  1  0.060153  0.060153  0.439847  1
  Ho  Ho1  1  0.190482  0.809653  0.810249  1
  Ho  Ho2  1  0.809653  0.190482  0.189614  1
  Ho  Ho3  1  0.809653  0.190482  0.810249  1
  Ho  Ho4  1  0.190482  0.809653  0.189614  1
  Ho  Ho5  1  0.810234  0.810234  0.189766  1
  Ho  Ho6  1  0.190512  0.190512  0.809488  1
  Er  Er7  1  0.598681  0.598681  0.598179  1
  Er  Er8  1  0.598681  0.598681  0.204462  1
  Er  Er9  1  0.599115  0.203893  0.598495  1
  Er  Er10  1  0.203893  0.599115  0.598495  1
  Tm  Tm11  1  0.059578  0.439781  0.440402  1
  Tm  Tm12  1  0.439781  0.059578  0.060239  1
  Tm  Tm13  1  0.439781  0.059578  0.440402  1
  Tm  Tm14  1  0.059578  0.439781  0.060239  1
  Tm  Tm15  1  0.439331  0.439331  0.060669  1
  In  In16  1  0.833000  0.833000  0.833358  1
  In  In17  1  0.833000  0.833000  0.500644  1
  In  In18  1  0.832668  0.501537  0.832898  1
  In  In19  1  0.501537  0.832668  0.832898  1
  Ir  Ir20  1  0.390550  0.390550  0.391179  1
  Ir  Ir21  1  0.390550  0.390550  0.827722  1
  Ir  Ir22  1  0.392333  0.826776  0.390447  1
  Ir  Ir23  1  0.826776  0.392333  0.390447  1
