# generated using pymatgen
data_Pr17Eu3Si15Rh
_symmetry_space_group_name_H-M   'P 1'
_cell_length_a   8.09138661
_cell_length_b   8.04043539
_cell_length_c   15.54820600
_cell_angle_alpha   90.09342131
_cell_angle_beta   89.70449802
_cell_angle_gamma   90.18721531
_symmetry_Int_Tables_number   1
_chemical_formula_structural   Pr17Eu3Si15Rh
_chemical_formula_sum   'Pr17 Eu3 Si15 Rh1'
_cell_volume   1011.51923393
_cell_formula_units_Z   1
loop_
 _symmetry_equiv_pos_site_id
 _symmetry_equiv_pos_as_xyz
  1  'x, y, z'
loop_
 _atom_site_type_symbol
 _atom_site_label
 _atom_site_symmetry_multiplicity
 _atom_site_fract_x
 _atom_site_fract_y
 _atom_site_fract_z
 _atom_site_occupancy
  Pr  Pr0  1  0.692101  0.688106  0.500954  1
  Pr  Pr1  1  0.379316  0.008089  0.446806  1
  Pr  Pr2  1  0.493207  0.878854  0.696617  1
  Pr  Pr3  1  0.509454  0.120651  0.196680  1
  Pr  Pr4  1  0.877346  0.490899  0.301429  1
  Pr  Pr5  1  0.121235  0.506468  0.800944  1
  Pr  Pr6  1  0.622346  0.992056  0.946105  1
  Pr  Pr7  1  0.001699  0.381023  0.554578  1
  Pr  Pr8  1  0.990976  0.621156  0.052628  1
  Pr  Pr9  1  0.131812  0.987219  0.872646  1
  Pr  Pr10  1  0.516567  0.628211  0.125948  1
  Pr  Pr11  1  0.471210  0.361137  0.629551  1
  Pr  Pr12  1  0.628501  0.514479  0.874635  1
  Pr  Pr13  1  0.374454  0.481531  0.374204  1
  Pr  Pr14  1  0.873668  0.020920  0.376387  1
  Pr  Pr15  1  0.982978  0.125069  0.124454  1
  Pr  Pr16  1  0.026639  0.882699  0.625494  1
  Eu  Eu17  1  0.307677  0.307845  0.997920  1
  Eu  Eu18  1  0.190083  0.808955  0.250563  1
  Eu  Eu19  1  0.817214  0.190808  0.748277  1
  Si  Si20  1  0.332624  0.697486  0.950985  1
  Si  Si21  1  0.664991  0.302558  0.453697  1
  Si  Si22  1  0.701127  0.333908  0.050066  1
  Si  Si23  1  0.305560  0.670407  0.546415  1
  Si  Si24  1  0.801502  0.832542  0.203454  1
  Si  Si25  1  0.167309  0.200513  0.296564  1
  Si  Si26  1  0.834830  0.799984  0.798312  1
  Si  Si27  1  0.287445  0.917872  0.057269  1
  Si  Si28  1  0.582616  0.786233  0.310402  1
  Si  Si29  1  0.424453  0.205285  0.812057  1
  Si  Si30  1  0.782484  0.585021  0.690026  1
  Si  Si31  1  0.211715  0.420507  0.190661  1
  Si  Si32  1  0.702422  0.073529  0.557717  1
  Si  Si33  1  0.918203  0.287626  0.942471  1
  Si  Si34  1  0.079476  0.714761  0.442701  1
  Rh  Rh35  1  0.194758  0.175592  0.700382  1
