# generated using pymatgen
data_DyHo4Hf3(Co4P3)4
_symmetry_space_group_name_H-M   'P 1'
_cell_length_a   12.26763900
_cell_length_b   12.26763700
_cell_length_c   3.70033100
_cell_angle_alpha   90.00000000
_cell_angle_beta   90.00000000
_cell_angle_gamma   120.00000269
_symmetry_Int_Tables_number   1
_chemical_formula_structural   DyHo4Hf3(Co4P3)4
_chemical_formula_sum   'Dy1 Ho4 Hf3 Co16 P12'
_cell_volume   482.27316613
_cell_formula_units_Z   1
loop_
 _symmetry_equiv_pos_site_id
 _symmetry_equiv_pos_as_xyz
  1  'x, y, z'
loop_
 _atom_site_type_symbol
 _atom_site_label
 _atom_site_symmetry_multiplicity
 _atom_site_fract_x
 _atom_site_fract_y
 _atom_site_fract_z
 _atom_site_occupancy
  Dy  Dy0  1  0.666667  0.333333  0.000000  1
  Ho  Ho1  1  0.333333  0.666667  0.000000  1
  Ho  Ho2  1  0.817943  0.817928  0.500000  1
  Ho  Ho3  1  0.182072  0.000015  0.500000  1
  Ho  Ho4  1  0.999985  0.182057  0.500000  1
  Hf  Hf5  1  0.441392  0.441638  0.000000  1
  Hf  Hf6  1  0.558362  0.999753  0.000000  1
  Hf  Hf7  1  0.000247  0.558608  0.000000  1
  Co  Co8  1  0.876223  0.355553  0.500000  1
  Co  Co9  1  0.644447  0.520670  0.500000  1
  Co  Co10  1  0.479330  0.123777  0.500000  1
  Co  Co11  1  0.355794  0.875216  0.500000  1
  Co  Co12  1  0.519422  0.644206  0.500000  1
  Co  Co13  1  0.124784  0.480578  0.500000  1
  Co  Co14  1  0.804773  0.177509  0.000000  1
  Co  Co15  1  0.822491  0.627263  0.000000  1
  Co  Co16  1  0.372737  0.195227  0.000000  1
  Co  Co17  1  0.177991  0.804775  0.000000  1
  Co  Co18  1  0.626783  0.822009  0.000000  1
  Co  Co19  1  0.195225  0.373217  0.000000  1
  Co  Co20  1  0.278129  0.278429  0.500000  1
  Co  Co21  1  0.721571  0.999700  0.500000  1
  Co  Co22  1  0.000300  0.721871  0.500000  1
  Co  Co23  1  0.000000  0.000000  0.000000  1
  P  P24  1  0.692753  0.171002  0.500000  1
  P  P25  1  0.828998  0.521751  0.500000  1
  P  P26  1  0.478249  0.307247  0.500000  1
  P  P27  1  0.171574  0.692579  0.500000  1
  P  P28  1  0.521006  0.828426  0.500000  1
  P  P29  1  0.307421  0.478994  0.500000  1
  P  P30  1  0.177595  0.177797  0.000000  1
  P  P31  1  0.822203  0.999798  0.000000  1
  P  P32  1  0.000202  0.822405  0.000000  1
  P  P33  1  0.648796  0.648796  0.000000  1
  P  P34  1  0.351204  0.999999  0.000000  1
  P  P35  1  0.000001  0.351204  0.000000  1
