# generated using pymatgen
data_DyLuTcB6
_symmetry_space_group_name_H-M   'P 1'
_cell_length_a   3.64479900
_cell_length_b   9.09845900
_cell_length_c   11.48540400
_cell_angle_alpha   90.00000000
_cell_angle_beta   90.00000000
_cell_angle_gamma   90.00000000
_symmetry_Int_Tables_number   1
_chemical_formula_structural   DyLuTcB6
_chemical_formula_sum   'Dy4 Lu4 Tc4 B24'
_cell_volume   380.87959070
_cell_formula_units_Z   4
loop_
 _symmetry_equiv_pos_site_id
 _symmetry_equiv_pos_as_xyz
  1  'x, y, z'
loop_
 _atom_site_type_symbol
 _atom_site_label
 _atom_site_symmetry_multiplicity
 _atom_site_fract_x
 _atom_site_fract_y
 _atom_site_fract_z
 _atom_site_occupancy
  Dy  Dy0  1  0.000000  0.323725  0.414268  1
  Dy  Dy1  1  0.000000  0.676275  0.585732  1
  Dy  Dy2  1  0.000000  0.823725  0.085732  1
  Dy  Dy3  1  0.000000  0.176275  0.914268  1
  Lu  Lu4  1  0.000000  0.943245  0.369887  1
  Lu  Lu5  1  0.000000  0.056755  0.630113  1
  Lu  Lu6  1  0.000000  0.443245  0.130113  1
  Lu  Lu7  1  0.000000  0.556755  0.869887  1
  Tc  Tc8  1  0.000000  0.639633  0.319580  1
  Tc  Tc9  1  0.000000  0.360367  0.680420  1
  Tc  Tc10  1  0.000000  0.139633  0.180420  1
  Tc  Tc11  1  0.000000  0.860367  0.819580  1
  B  B12  1  0.500000  0.553777  0.432368  1
  B  B13  1  0.500000  0.446223  0.567632  1
  B  B14  1  0.500000  0.053777  0.067632  1
  B  B15  1  0.500000  0.946223  0.932368  1
  B  B16  1  0.500000  0.750443  0.418462  1
  B  B17  1  0.500000  0.249557  0.581538  1
  B  B18  1  0.500000  0.250443  0.081538  1
  B  B19  1  0.500000  0.749557  0.918462  1
  B  B20  1  0.500000  0.793099  0.265464  1
  B  B21  1  0.500000  0.206901  0.734536  1
  B  B22  1  0.500000  0.293099  0.234536  1
  B  B23  1  0.500000  0.706901  0.765464  1
  B  B24  1  0.500000  0.630427  0.184740  1
  B  B25  1  0.500000  0.369573  0.815260  1
  B  B26  1  0.500000  0.130427  0.315260  1
  B  B27  1  0.500000  0.869573  0.684740  1
  B  B28  1  0.500000  0.981952  0.212755  1
  B  B29  1  0.500000  0.018048  0.787245  1
  B  B30  1  0.500000  0.481952  0.287245  1
  B  B31  1  0.500000  0.518048  0.712755  1
  B  B32  1  0.500000  0.598645  0.027324  1
  B  B33  1  0.500000  0.401355  0.972676  1
  B  B34  1  0.500000  0.098645  0.472676  1
  B  B35  1  0.500000  0.901355  0.527324  1
