# generated using pymatgen
data_Ce2Tm10Tc3Ir
_symmetry_space_group_name_H-M   'P 1'
_cell_length_a   7.29941055
_cell_length_b   9.16182000
_cell_length_c   6.27344600
_cell_angle_alpha   90.00000000
_cell_angle_beta   87.89140286
_cell_angle_gamma   90.00000000
_symmetry_Int_Tables_number   1
_chemical_formula_structural   Ce2Tm10Tc3Ir
_chemical_formula_sum   'Ce2 Tm10 Tc3 Ir1'
_cell_volume   419.25817789
_cell_formula_units_Z   1
loop_
 _symmetry_equiv_pos_site_id
 _symmetry_equiv_pos_as_xyz
  1  'x, y, z'
loop_
 _atom_site_type_symbol
 _atom_site_label
 _atom_site_symmetry_multiplicity
 _atom_site_fract_x
 _atom_site_fract_y
 _atom_site_fract_z
 _atom_site_occupancy
  Ce  Ce0  1  0.063644  0.250000  0.634517  1
  Ce  Ce1  1  0.940609  0.750000  0.355782  1
  Tm  Tm2  1  0.463474  0.750000  0.125711  1
  Tm  Tm3  1  0.536138  0.250000  0.873260  1
  Tm  Tm4  1  0.174309  0.060958  0.164062  1
  Tm  Tm5  1  0.826095  0.937070  0.830321  1
  Tm  Tm6  1  0.325193  0.933213  0.664780  1
  Tm  Tm7  1  0.826095  0.562930  0.830321  1
  Tm  Tm8  1  0.677183  0.066158  0.333364  1
  Tm  Tm9  1  0.174309  0.439042  0.164062  1
  Tm  Tm10  1  0.677183  0.433842  0.333364  1
  Tm  Tm11  1  0.325193  0.566787  0.664780  1
  Tc  Tc12  1  0.359485  0.250000  0.474426  1
  Tc  Tc13  1  0.637985  0.750000  0.521839  1
  Tc  Tc14  1  0.111253  0.750000  0.996755  1
  Ir  Ir15  1  0.881855  0.250000  0.032657  1
