# generated using pymatgen
data_Tb3DyLu4(B6Ru)4
_symmetry_space_group_name_H-M   'P 1'
_cell_length_a   3.62747400
_cell_length_b   9.07524600
_cell_length_c   11.46335201
_cell_angle_alpha   90.00348187
_cell_angle_beta   90.00000000
_cell_angle_gamma   90.00000000
_symmetry_Int_Tables_number   1
_chemical_formula_structural   Tb3DyLu4(B6Ru)4
_chemical_formula_sum   'Tb3 Dy1 Lu4 B24 Ru4'
_cell_volume   377.37605692
_cell_formula_units_Z   1
loop_
 _symmetry_equiv_pos_site_id
 _symmetry_equiv_pos_as_xyz
  1  'x, y, z'
loop_
 _atom_site_type_symbol
 _atom_site_label
 _atom_site_symmetry_multiplicity
 _atom_site_fract_x
 _atom_site_fract_y
 _atom_site_fract_z
 _atom_site_occupancy
  Tb  Tb0  1  0.000000  0.321756  0.414138  1
  Tb  Tb1  1  0.000000  0.678240  0.585865  1
  Tb  Tb2  1  0.000000  0.821792  0.085838  1
  Dy  Dy3  1  0.000000  0.178324  0.914185  1
  Lu  Lu4  1  0.000000  0.943995  0.372500  1
  Lu  Lu5  1  0.000000  0.056038  0.627520  1
  Lu  Lu6  1  0.000000  0.443913  0.127427  1
  Lu  Lu7  1  0.000000  0.555949  0.872528  1
  B  B8  1  0.500000  0.554736  0.432569  1
  B  B9  1  0.500000  0.445247  0.567450  1
  B  B10  1  0.500000  0.054815  0.067269  1
  B  B11  1  0.500000  0.945453  0.932593  1
  B  B12  1  0.500000  0.749896  0.419135  1
  B  B13  1  0.500000  0.250108  0.580895  1
  B  B14  1  0.500000  0.249824  0.080659  1
  B  B15  1  0.500000  0.750149  0.919122  1
  B  B16  1  0.500000  0.791823  0.265996  1
  B  B17  1  0.500000  0.208092  0.734174  1
  B  B18  1  0.500000  0.291795  0.233958  1
  B  B19  1  0.500000  0.708202  0.766006  1
  B  B20  1  0.500000  0.630617  0.184313  1
  B  B21  1  0.500000  0.369203  0.815796  1
  B  B22  1  0.500000  0.130635  0.315654  1
  B  B23  1  0.500000  0.869393  0.684350  1
  B  B24  1  0.500000  0.983164  0.213637  1
  B  B25  1  0.500000  0.017073  0.786439  1
  B  B26  1  0.500000  0.483126  0.286324  1
  B  B27  1  0.500000  0.516824  0.713693  1
  B  B28  1  0.500000  0.603803  0.028483  1
  B  B29  1  0.500000  0.395905  0.971443  1
  B  B30  1  0.500000  0.103799  0.471529  1
  B  B31  1  0.500000  0.896211  0.528482  1
  Ru  Ru32  1  0.000000  0.638723  0.319996  1
  Ru  Ru33  1  0.000000  0.361178  0.680100  1
  Ru  Ru34  1  0.000000  0.138735  0.179882  1
  Ru  Ru35  1  0.000000  0.861462  0.820053  1
