# generated using pymatgen
data_Y8Lu2InSn5
_symmetry_space_group_name_H-M   'P 1'
_cell_length_a   8.96352611
_cell_length_b   8.96352678
_cell_length_c   6.56315400
_cell_angle_alpha   89.99815999
_cell_angle_beta   89.99815392
_cell_angle_gamma   120.03766647
_symmetry_Int_Tables_number   1
_chemical_formula_structural   Y8Lu2InSn5
_chemical_formula_sum   'Y8 Lu2 In1 Sn5'
_cell_volume   456.49504904
_cell_formula_units_Z   1
loop_
 _symmetry_equiv_pos_site_id
 _symmetry_equiv_pos_as_xyz
  1  'x, y, z'
loop_
 _atom_site_type_symbol
 _atom_site_label
 _atom_site_symmetry_multiplicity
 _atom_site_fract_x
 _atom_site_fract_y
 _atom_site_fract_z
 _atom_site_occupancy
  Y  Y0  1  0.665808  0.333266  0.999175  1
  Y  Y1  1  0.333266  0.665808  0.999175  1
  Y  Y2  1  0.761526  0.761526  0.749130  1
  Y  Y3  1  0.240195  0.002626  0.749323  1
  Y  Y4  1  0.002626  0.240195  0.749323  1
  Y  Y5  1  0.237455  0.237455  0.250854  1
  Y  Y6  1  0.760301  0.999022  0.250837  1
  Y  Y7  1  0.999022  0.760301  0.250837  1
  Lu  Lu8  1  0.333241  0.665892  0.500940  1
  Lu  Lu9  1  0.665892  0.333241  0.500940  1
  In  In10  1  0.398840  0.398840  0.746531  1
  Sn  Sn11  1  0.604531  0.000362  0.746280  1
  Sn  Sn12  1  0.000362  0.604531  0.746280  1
  Sn  Sn13  1  0.602471  0.602471  0.253456  1
  Sn  Sn14  1  0.395688  0.998780  0.253459  1
  Sn  Sn15  1  0.998780  0.395688  0.253459  1
