# generated using pymatgen
data_Tb2Co3Si6PRu9
_symmetry_space_group_name_H-M   'P 1'
_cell_length_a   9.47239477
_cell_length_b   9.50621079
_cell_length_c   3.85352200
_cell_angle_alpha   90.00000000
_cell_angle_beta   90.00000000
_cell_angle_gamma   120.13820720
_symmetry_Int_Tables_number   1
_chemical_formula_structural   Tb2Co3Si6PRu9
_chemical_formula_sum   'Tb2 Co3 Si6 P1 Ru9'
_cell_volume   300.08838742
_cell_formula_units_Z   1
loop_
 _symmetry_equiv_pos_site_id
 _symmetry_equiv_pos_as_xyz
  1  'x, y, z'
loop_
 _atom_site_type_symbol
 _atom_site_label
 _atom_site_symmetry_multiplicity
 _atom_site_fract_x
 _atom_site_fract_y
 _atom_site_fract_z
 _atom_site_occupancy
  Tb  Tb0  1  0.002788  0.000224  0.000000  1
  Tb  Tb1  1  0.333882  0.666504  0.500000  1
  Co  Co2  1  0.816993  0.604641  0.000000  1
  Co  Co3  1  0.395127  0.212364  0.000000  1
  Co  Co4  1  0.782337  0.177878  0.000000  1
  Si  Si5  1  0.775185  0.726424  0.500000  1
  Si  Si6  1  0.275012  0.050050  0.500000  1
  Si  Si7  1  0.946690  0.224009  0.500000  1
  Si  Si8  1  0.666850  0.333839  0.000000  1
  Si  Si9  1  0.069430  0.628380  0.000000  1
  Si  Si10  1  0.373737  0.440323  0.000000  1
  P  P11  1  0.561911  0.928158  0.000000  1
  Ru  Ru12  1  0.090819  0.388445  0.000000  1
  Ru  Ru13  1  0.610525  0.704441  0.000000  1
  Ru  Ru14  1  0.307813  0.909322  0.000000  1
  Ru  Ru15  1  0.049570  0.769456  0.500000  1
  Ru  Ru16  1  0.230346  0.279068  0.500000  1
  Ru  Ru17  1  0.713654  0.951518  0.500000  1
  Ru  Ru18  1  0.870035  0.430413  0.500000  1
  Ru  Ru19  1  0.568957  0.441339  0.500000  1
  Ru  Ru20  1  0.558340  0.133204  0.500000  1
