# generated using pymatgen
data_V10Si4Ge2N
_symmetry_space_group_name_H-M   'P 1'
_cell_length_a   7.17660929
_cell_length_b   7.19838859
_cell_length_c   4.84179919
_cell_angle_alpha   90.01616274
_cell_angle_beta   89.96757643
_cell_angle_gamma   119.89997875
_symmetry_Int_Tables_number   1
_chemical_formula_structural   V10Si4Ge2N
_chemical_formula_sum   'V10 Si4 Ge2 N1'
_cell_volume   216.83468905
_cell_formula_units_Z   1
loop_
 _symmetry_equiv_pos_site_id
 _symmetry_equiv_pos_as_xyz
  1  'x, y, z'
loop_
 _atom_site_type_symbol
 _atom_site_label
 _atom_site_symmetry_multiplicity
 _atom_site_fract_x
 _atom_site_fract_y
 _atom_site_fract_z
 _atom_site_occupancy
  V  V0  1  0.004722  0.768477  0.259735  1
  V  V1  1  0.236245  0.231523  0.259735  1
  V  V2  1  0.761950  0.000000  0.259683  1
  V  V3  1  0.999473  0.233381  0.740486  1
  V  V4  1  0.766092  0.766619  0.740486  1
  V  V5  1  0.237299  0.000000  0.741526  1
  V  V6  1  0.334007  0.670488  0.503712  1
  V  V7  1  0.663520  0.329512  0.503712  1
  V  V8  1  0.663744  0.329892  0.995710  1
  V  V9  1  0.333850  0.670108  0.995710  1
  Si  Si10  1  0.403333  0.000000  0.242180  1
  Si  Si11  1  0.998996  0.600348  0.756402  1
  Si  Si12  1  0.398648  0.399652  0.756402  1
  Si  Si13  1  0.598909  0.000000  0.757514  1
  Ge  Ge14  1  0.000628  0.401700  0.243578  1
  Ge  Ge15  1  0.598928  0.598300  0.243578  1
  N  N16  1  0.999655  0.000000  0.499850  1
