# generated using pymatgen
data_Ce3Pu(NiB4)4
_symmetry_space_group_name_H-M   'P 1'
_cell_length_a   6.85969951
_cell_length_b   6.85969958
_cell_length_c   6.85970028
_cell_angle_alpha   112.94639781
_cell_angle_beta   112.94639746
_cell_angle_gamma   102.72433416
_symmetry_Int_Tables_number   1
_chemical_formula_structural   Ce3Pu(NiB4)4
_chemical_formula_sum   'Ce3 Pu1 Ni4 B16'
_cell_volume   245.93912380
_cell_formula_units_Z   1
loop_
 _symmetry_equiv_pos_site_id
 _symmetry_equiv_pos_as_xyz
  1  'x, y, z'
loop_
 _atom_site_type_symbol
 _atom_site_label
 _atom_site_symmetry_multiplicity
 _atom_site_fract_x
 _atom_site_fract_y
 _atom_site_fract_z
 _atom_site_occupancy
  Ce  Ce0  1  0.200294  0.200294  0.000000  1
  Ce  Ce1  1  0.750550  0.250550  0.500000  1
  Ce  Ce2  1  0.250550  0.750550  0.500000  1
  Pu  Pu3  1  0.806380  0.806380  0.000000  1
  Ni  Ni4  1  0.272551  0.499977  0.772573  1
  Ni  Ni5  1  0.727404  0.499977  0.227427  1
  Ni  Ni6  1  0.499977  0.727404  0.227427  1
  Ni  Ni7  1  0.499977  0.272551  0.772573  1
  B  B8  1  0.273063  0.110467  0.384069  1
  B  B9  1  0.726398  0.888994  0.615931  1
  B  B10  1  0.273063  0.888994  0.162597  1
  B  B11  1  0.726398  0.110467  0.837403  1
  B  B12  1  0.110467  0.726398  0.837403  1
  B  B13  1  0.888994  0.273063  0.162597  1
  B  B14  1  0.110467  0.273063  0.384069  1
  B  B15  1  0.888994  0.726398  0.615931  1
  B  B16  1  0.110310  0.110310  0.528303  1
  B  B17  1  0.582006  0.582006  0.471697  1
  B  B18  1  0.110310  0.582006  0.000000  1
  B  B19  1  0.582006  0.110310  0.000000  1
  B  B20  1  0.883773  0.883773  0.462625  1
  B  B21  1  0.421148  0.421148  0.537375  1
  B  B22  1  0.883773  0.421148  0.000000  1
  B  B23  1  0.421148  0.883773  0.000000  1
