# generated using pymatgen
data_NaMg2Zn8Cu
_symmetry_space_group_name_H-M   'P 1'
_cell_length_a   9.04869369
_cell_length_b   9.04869468
_cell_length_c   9.04869400
_cell_angle_alpha   33.44393056
_cell_angle_beta   33.44392107
_cell_angle_gamma   33.44391772
_symmetry_Int_Tables_number   1
_chemical_formula_structural   NaMg2Zn8Cu
_chemical_formula_sum   'Na1 Mg2 Zn8 Cu1'
_cell_volume   200.40707515
_cell_formula_units_Z   1
loop_
 _symmetry_equiv_pos_site_id
 _symmetry_equiv_pos_as_xyz
  1  'x, y, z'
loop_
 _atom_site_type_symbol
 _atom_site_label
 _atom_site_symmetry_multiplicity
 _atom_site_fract_x
 _atom_site_fract_y
 _atom_site_fract_z
 _atom_site_occupancy
  Na  Na0  1  0.000000  0.000000  0.000000  1
  Mg  Mg1  1  0.855202  0.855202  0.855202  1
  Mg  Mg2  1  0.144798  0.144798  0.144798  1
  Zn  Zn3  1  0.667271  0.667271  0.667271  1
  Zn  Zn4  1  0.332728  0.332728  0.332728  1
  Zn  Zn5  1  0.412759  0.915058  0.412760  1
  Zn  Zn6  1  0.412760  0.412760  0.915057  1
  Zn  Zn7  1  0.915058  0.412759  0.412760  1
  Zn  Zn8  1  0.084942  0.587240  0.587239  1
  Zn  Zn9  1  0.587239  0.587239  0.084942  1
  Zn  Zn10  1  0.587240  0.084942  0.587239  1
  Cu  Cu11  1  0.500000  0.500000  0.500000  1
