# generated using pymatgen
data_Ho9Er10LuSn16
_symmetry_space_group_name_H-M   'P 1'
_cell_length_a   7.99356506
_cell_length_b   8.12612091
_cell_length_c   15.37364600
_cell_angle_alpha   90.02234403
_cell_angle_beta   90.00706739
_cell_angle_gamma   90.07130216
_symmetry_Int_Tables_number   1
_chemical_formula_structural   Ho9Er10LuSn16
_chemical_formula_sum   'Ho9 Er10 Lu1 Sn16'
_cell_volume   998.62008825
_cell_formula_units_Z   1
loop_
 _symmetry_equiv_pos_site_id
 _symmetry_equiv_pos_as_xyz
  1  'x, y, z'
loop_
 _atom_site_type_symbol
 _atom_site_label
 _atom_site_symmetry_multiplicity
 _atom_site_fract_x
 _atom_site_fract_y
 _atom_site_fract_z
 _atom_site_occupancy
  Ho  Ho0  1  0.865732  0.663071  0.877632  1
  Ho  Ho1  1  0.519642  0.320940  0.903876  1
  Ho  Ho2  1  0.019511  0.178944  0.595911  1
  Ho  Ho3  1  0.480232  0.678810  0.403652  1
  Ho  Ho4  1  0.979951  0.822153  0.097275  1
  Ho  Ho5  1  0.481103  0.678568  0.096586  1
  Ho  Ho6  1  0.980615  0.821513  0.403321  1
  Ho  Ho7  1  0.518894  0.321100  0.595841  1
  Ho  Ho8  1  0.019435  0.178786  0.903749  1
  Er  Er9  1  0.364779  0.837630  0.876618  1
  Er  Er10  1  0.865178  0.662075  0.622797  1
  Er  Er11  1  0.634657  0.161485  0.376795  1
  Er  Er12  1  0.135330  0.337707  0.123433  1
  Er  Er13  1  0.633756  0.162000  0.124129  1
  Er  Er14  1  0.134810  0.337535  0.376727  1
  Er  Er15  1  0.365704  0.837990  0.622501  1
  Er  Er16  1  0.196857  0.503825  0.749886  1
  Er  Er17  1  0.696521  0.996411  0.749646  1
  Er  Er18  1  0.803641  0.496309  0.250244  1
  Lu  Lu19  1  0.302908  0.003961  0.249962  1
  Sn  Sn20  1  0.294768  0.038102  0.041935  1
  Sn  Sn21  1  0.794767  0.461419  0.458357  1
  Sn  Sn22  1  0.705677  0.961438  0.540975  1
  Sn  Sn23  1  0.206192  0.537311  0.958525  1
  Sn  Sn24  1  0.703938  0.962664  0.959048  1
  Sn  Sn25  1  0.204889  0.538465  0.540981  1
  Sn  Sn26  1  0.294464  0.038210  0.457795  1
  Sn  Sn27  1  0.795270  0.461048  0.041944  1
  Sn  Sn28  1  0.562805  0.618129  0.749705  1
  Sn  Sn29  1  0.062581  0.882299  0.749704  1
  Sn  Sn30  1  0.437444  0.381838  0.250514  1
  Sn  Sn31  1  0.938337  0.117457  0.250080  1
  Sn  Sn32  1  0.330218  0.149632  0.749704  1
  Sn  Sn33  1  0.830252  0.350392  0.749751  1
  Sn  Sn34  1  0.669064  0.849867  0.250303  1
  Sn  Sn35  1  0.170078  0.650913  0.250096  1
