# generated using pymatgen
data_Ti4Be2Fe3Co7B4
_symmetry_space_group_name_H-M   'P 1'
_cell_length_a   8.42150558
_cell_length_b   8.44572053
_cell_length_c   2.82716800
_cell_angle_alpha   90.00000000
_cell_angle_beta   90.00000000
_cell_angle_gamma   89.89477118
_symmetry_Int_Tables_number   1
_chemical_formula_structural   Ti4Be2Fe3Co7B4
_chemical_formula_sum   'Ti4 Be2 Fe3 Co7 B4'
_cell_volume   201.08391465
_cell_formula_units_Z   1
loop_
 _symmetry_equiv_pos_site_id
 _symmetry_equiv_pos_as_xyz
  1  'x, y, z'
loop_
 _atom_site_type_symbol
 _atom_site_label
 _atom_site_symmetry_multiplicity
 _atom_site_fract_x
 _atom_site_fract_y
 _atom_site_fract_z
 _atom_site_occupancy
  Ti  Ti0  1  0.831632  0.323119  0.000000  1
  Ti  Ti1  1  0.321855  0.172493  0.000000  1
  Ti  Ti2  1  0.673074  0.826782  0.000000  1
  Ti  Ti3  1  0.174085  0.671968  0.000000  1
  Be  Be4  1  0.999503  0.002646  0.000000  1
  Be  Be5  1  0.500136  0.500856  0.000000  1
  Fe  Fe6  1  0.498996  0.000140  0.500000  1
  Fe  Fe7  1  0.000917  0.502137  0.500000  1
  Fe  Fe8  1  0.070125  0.210498  0.500000  1
  Co  Co9  1  0.208919  0.927801  0.500000  1
  Co  Co10  1  0.788800  0.068641  0.500000  1
  Co  Co11  1  0.929611  0.791175  0.500000  1
  Co  Co12  1  0.430917  0.710283  0.500000  1
  Co  Co13  1  0.570539  0.290372  0.500000  1
  Co  Co14  1  0.710387  0.569708  0.500000  1
  Co  Co15  1  0.291600  0.431912  0.500000  1
  B  B16  1  0.625060  0.126155  0.000000  1
  B  B17  1  0.125648  0.373143  0.000000  1
  B  B18  1  0.874737  0.625974  0.000000  1
  B  B19  1  0.373459  0.874198  0.000000  1
