# generated using pymatgen
data_CePr9SnBi5Br2
_symmetry_space_group_name_H-M   'P 1'
_cell_length_a   9.64517453
_cell_length_b   9.61643309
_cell_length_c   6.68371059
_cell_angle_alpha   90.01341591
_cell_angle_beta   90.00433868
_cell_angle_gamma   120.08130742
_symmetry_Int_Tables_number   1
_chemical_formula_structural   CePr9SnBi5Br2
_chemical_formula_sum   'Ce1 Pr9 Sn1 Bi5 Br2'
_cell_volume   536.43356756
_cell_formula_units_Z   1
loop_
 _symmetry_equiv_pos_site_id
 _symmetry_equiv_pos_as_xyz
  1  'x, y, z'
loop_
 _atom_site_type_symbol
 _atom_site_label
 _atom_site_symmetry_multiplicity
 _atom_site_fract_x
 _atom_site_fract_y
 _atom_site_fract_z
 _atom_site_occupancy
  Ce  Ce0  1  0.335057  0.669105  0.501203  1
  Pr  Pr1  1  0.275196  0.999540  0.749673  1
  Pr  Pr2  1  0.726954  0.999812  0.249896  1
  Pr  Pr3  1  0.995807  0.269031  0.749969  1
  Pr  Pr4  1  0.000783  0.728002  0.250348  1
  Pr  Pr5  1  0.726520  0.731268  0.749766  1
  Pr  Pr6  1  0.272156  0.272269  0.250489  1
  Pr  Pr7  1  0.666233  0.331361  0.501062  1
  Pr  Pr8  1  0.666381  0.331513  0.998744  1
  Pr  Pr9  1  0.334275  0.668351  0.998782  1
  Sn  Sn10  1  0.614070  0.999597  0.748859  1
  Bi  Bi11  1  0.385884  0.999983  0.250328  1
  Bi  Bi12  1  0.999043  0.615353  0.749541  1
  Bi  Bi13  1  0.000309  0.384753  0.251114  1
  Bi  Bi14  1  0.383509  0.384628  0.749373  1
  Bi  Bi15  1  0.615265  0.615595  0.250873  1
  Br  Br16  1  0.001265  0.999946  0.499742  1
  Br  Br17  1  0.001294  0.999892  0.000237  1
