# generated using pymatgen
data_La6AlGa5O18
_symmetry_space_group_name_H-M   'P 1'
_cell_length_a   7.17051001
_cell_length_b   7.17051017
_cell_length_c   10.43907600
_cell_angle_alpha   90.00000000
_cell_angle_beta   90.00000000
_cell_angle_gamma   120.11249375
_symmetry_Int_Tables_number   1
_chemical_formula_structural   La6AlGa5O18
_chemical_formula_sum   'La6 Al1 Ga5 O18'
_cell_volume   464.30074177
_cell_formula_units_Z   1
loop_
 _symmetry_equiv_pos_site_id
 _symmetry_equiv_pos_as_xyz
  1  'x, y, z'
loop_
 _atom_site_type_symbol
 _atom_site_label
 _atom_site_symmetry_multiplicity
 _atom_site_fract_x
 _atom_site_fract_y
 _atom_site_fract_z
 _atom_site_occupancy
  La  La0  1  0.830909  0.170531  0.499332  1
  La  La1  1  0.830909  0.170531  0.000668  1
  La  La2  1  0.170531  0.830909  0.499332  1
  La  La3  1  0.170531  0.830909  0.000668  1
  La  La4  1  0.497285  0.497285  0.001732  1
  La  La5  1  0.497285  0.497285  0.498268  1
  Al  Al6  1  0.098534  0.098534  0.250000  1
  Ga  Ga7  1  0.569838  0.835518  0.250000  1
  Ga  Ga8  1  0.165552  0.432967  0.750000  1
  Ga  Ga9  1  0.835518  0.569838  0.250000  1
  Ga  Ga10  1  0.432967  0.165552  0.750000  1
  Ga  Ga11  1  0.894721  0.894721  0.750000  1
  O  O12  1  0.905850  0.164224  0.750000  1
  O  O13  1  0.843094  0.087268  0.250000  1
  O  O14  1  0.480084  0.835786  0.413597  1
  O  O15  1  0.480084  0.835786  0.086403  1
  O  O16  1  0.166495  0.519414  0.584994  1
  O  O17  1  0.166495  0.519414  0.915006  1
  O  O18  1  0.835786  0.480084  0.413597  1
  O  O19  1  0.835786  0.480084  0.086403  1
  O  O20  1  0.519414  0.166495  0.584994  1
  O  O21  1  0.519414  0.166495  0.915006  1
  O  O22  1  0.087268  0.843094  0.250000  1
  O  O23  1  0.164224  0.905850  0.750000  1
  O  O24  1  0.424737  0.424737  0.750000  1
  O  O25  1  0.812594  0.812594  0.582019  1
  O  O26  1  0.812594  0.812594  0.917981  1
  O  O27  1  0.188365  0.188365  0.091414  1
  O  O28  1  0.188365  0.188365  0.408586  1
  O  O29  1  0.574772  0.574772  0.250000  1
