# generated using pymatgen
data_La3PrGa9SiPt6
_symmetry_space_group_name_H-M   'P 1'
_cell_length_a   8.60500316
_cell_length_b   8.65524817
_cell_length_c   8.65524769
_cell_angle_alpha   138.15147436
_cell_angle_beta   106.40435109
_cell_angle_gamma   88.51952967
_symmetry_Int_Tables_number   1
_chemical_formula_structural   La3PrGa9SiPt6
_chemical_formula_sum   'La3 Pr1 Ga9 Si1 Pt6'
_cell_volume   395.04388793
_cell_formula_units_Z   1
loop_
 _symmetry_equiv_pos_site_id
 _symmetry_equiv_pos_as_xyz
  1  'x, y, z'
loop_
 _atom_site_type_symbol
 _atom_site_label
 _atom_site_symmetry_multiplicity
 _atom_site_fract_x
 _atom_site_fract_y
 _atom_site_fract_z
 _atom_site_occupancy
  La  La0  1  0.864307  0.630250  0.234058  1
  La  La1  1  0.134720  0.370257  0.764462  1
  La  La2  1  0.392297  0.129898  0.262401  1
  Pr  Pr3  1  0.600928  0.868565  0.732363  1
  Ga  Ga4  1  0.502441  0.749823  0.249190  1
  Ga  Ga5  1  0.502441  0.253251  0.752618  1
  Ga  Ga6  1  0.230202  0.970075  0.744541  1
  Ga  Ga7  1  0.769007  0.523171  0.751513  1
  Ga  Ga8  1  0.769007  0.017494  0.245837  1
  Ga  Ga9  1  0.230202  0.485661  0.260127  1
  Ga  Ga10  1  0.039924  0.892194  0.147730  1
  Ga  Ga11  1  0.958163  0.104573  0.853590  1
  Ga  Ga12  1  0.743199  0.391963  0.351236  1
  Si  Si13  1  0.253727  0.606264  0.647463  1
  Pt  Pt14  1  0.009724  0.747316  0.750297  1
  Pt  Pt15  1  0.009724  0.259427  0.262408  1
  Pt  Pt16  1  0.251008  0.864678  0.386330  1
  Pt  Pt17  1  0.754658  0.138401  0.616256  1
  Pt  Pt18  1  0.473566  0.361089  0.112477  1
  Pt  Pt19  1  0.510756  0.635652  0.875104  1
