# generated using pymatgen
data_La2Nd2In16Pt5Au3
_symmetry_space_group_name_H-M   'P 1'
_cell_length_a   4.66352100
_cell_length_b   7.36820577
_cell_length_c   18.83050544
_cell_angle_alpha   90.14595869
_cell_angle_beta   90.00000000
_cell_angle_gamma   90.00000000
_symmetry_Int_Tables_number   1
_chemical_formula_structural   La2Nd2In16Pt5Au3
_chemical_formula_sum   'La2 Nd2 In16 Pt5 Au3'
_cell_volume   647.04762992
_cell_formula_units_Z   1
loop_
 _symmetry_equiv_pos_site_id
 _symmetry_equiv_pos_as_xyz
  1  'x, y, z'
loop_
 _atom_site_type_symbol
 _atom_site_label
 _atom_site_symmetry_multiplicity
 _atom_site_fract_x
 _atom_site_fract_y
 _atom_site_fract_z
 _atom_site_occupancy
  La  La0  1  0.250000  0.476645  0.858000  1
  La  La1  1  0.250000  0.024384  0.357759  1
  Nd  Nd2  1  0.750000  0.972469  0.641836  1
  Nd  Nd3  1  0.750000  0.526237  0.142972  1
  In  In4  1  0.250000  0.236591  0.190712  1
  In  In5  1  0.250000  0.505804  0.427193  1
  In  In6  1  0.250000  0.994016  0.930213  1
  In  In7  1  0.250000  0.826416  0.185841  1
  In  In8  1  0.250000  0.678492  0.684581  1
  In  In9  1  0.250000  0.257026  0.690005  1
  In  In10  1  0.250000  0.140103  0.535259  1
  In  In11  1  0.750000  0.986663  0.072891  1
  In  In12  1  0.750000  0.167917  0.814810  1
  In  In13  1  0.250000  0.359894  0.036693  1
  In  In14  1  0.750000  0.847578  0.465075  1
  In  In15  1  0.750000  0.653308  0.967487  1
  In  In16  1  0.750000  0.766772  0.810820  1
  In  In17  1  0.750000  0.516695  0.568124  1
  In  In18  1  0.750000  0.329899  0.311036  1
  In  In19  1  0.750000  0.736260  0.307805  1
  Pt  Pt20  1  0.250000  0.963586  0.783027  1
  Pt  Pt21  1  0.750000  0.035502  0.218060  1
  Pt  Pt22  1  0.250000  0.536542  0.281224  1
  Pt  Pt23  1  0.250000  0.750412  0.539506  1
  Pt  Pt24  1  0.250000  0.748258  0.041180  1
  Au  Au25  1  0.750000  0.248411  0.458587  1
  Au  Au26  1  0.750000  0.250753  0.961301  1
  Au  Au27  1  0.750000  0.463364  0.718007  1
