# generated using pymatgen
data_Y3ErAl18Ir5Pd
_symmetry_space_group_name_H-M   'P 1'
_cell_length_a   7.56701154
_cell_length_b   7.56848817
_cell_length_c   9.47357550
_cell_angle_alpha   89.97887655
_cell_angle_beta   89.96551036
_cell_angle_gamma   119.57088304
_symmetry_Int_Tables_number   1
_chemical_formula_structural   Y3ErAl18Ir5Pd
_chemical_formula_sum   'Y3 Er1 Al18 Ir5 Pd1'
_cell_volume   471.88872758
_cell_formula_units_Z   1
loop_
 _symmetry_equiv_pos_site_id
 _symmetry_equiv_pos_as_xyz
  1  'x, y, z'
loop_
 _atom_site_type_symbol
 _atom_site_label
 _atom_site_symmetry_multiplicity
 _atom_site_fract_x
 _atom_site_fract_y
 _atom_site_fract_z
 _atom_site_occupancy
  Y  Y0  1  0.995766  0.670709  0.248894  1
  Y  Y1  1  0.004336  0.329196  0.751138  1
  Y  Y2  1  0.670716  0.995649  0.248882  1
  Er  Er3  1  0.329253  0.004165  0.751284  1
  Al  Al4  1  0.129634  0.129503  0.247734  1
  Al  Al5  1  0.871056  0.870502  0.752165  1
  Al  Al6  1  0.000698  0.334481  0.074197  1
  Al  Al7  1  0.999874  0.666097  0.925398  1
  Al  Al8  1  0.998709  0.661684  0.576931  1
  Al  Al9  1  0.338851  0.001806  0.424075  1
  Al  Al10  1  0.001843  0.338937  0.423503  1
  Al  Al11  1  0.660494  0.998187  0.577024  1
  Al  Al12  1  0.665013  0.999322  0.925329  1
  Al  Al13  1  0.334444  0.000680  0.073602  1
  Al  Al14  1  0.337048  0.336591  0.555327  1
  Al  Al15  1  0.662872  0.662866  0.445275  1
  Al  Al16  1  0.666518  0.666509  0.051556  1
  Al  Al17  1  0.333512  0.333066  0.947864  1
  Al  Al18  1  0.338783  0.548259  0.249531  1
  Al  Al19  1  0.660610  0.451103  0.750454  1
  Al  Al20  1  0.548169  0.338655  0.249543  1
  Al  Al21  1  0.451716  0.661773  0.750454  1
  Ir  Ir22  1  0.671539  0.327987  0.999666  1
  Ir  Ir23  1  0.328200  0.671963  0.999692  1
  Ir  Ir24  1  0.328080  0.672091  0.500310  1
  Ir  Ir25  1  0.671669  0.327884  0.500302  1
  Ir  Ir26  1  0.000380  0.000199  0.999599  1
  Pd  Pd27  1  0.000217  0.000137  0.500267  1
