# generated using pymatgen
data_CeFeSiAg
_symmetry_space_group_name_H-M   'P 1'
_cell_length_a   9.52983341
_cell_length_b   9.52983429
_cell_length_c   4.08228000
_cell_angle_alpha   90.00000000
_cell_angle_beta   90.00000000
_cell_angle_gamma   155.91514001
_symmetry_Int_Tables_number   1
_chemical_formula_structural   CeFeSiAg
_chemical_formula_sum   'Ce2 Fe2 Si2 Ag2'
_cell_volume   151.29639733
_cell_formula_units_Z   2
loop_
 _symmetry_equiv_pos_site_id
 _symmetry_equiv_pos_as_xyz
  1  'x, y, z'
loop_
 _atom_site_type_symbol
 _atom_site_label
 _atom_site_symmetry_multiplicity
 _atom_site_fract_x
 _atom_site_fract_y
 _atom_site_fract_z
 _atom_site_occupancy
  Ce  Ce0  1  0.633383  0.366617  0.250000  1
  Ce  Ce1  1  0.366655  0.633345  0.750000  1
  Fe  Fe2  1  0.248643  0.751357  0.250000  1
  Fe  Fe3  1  0.751356  0.248644  0.750000  1
  Si  Si4  1  0.809998  0.190002  0.250000  1
  Si  Si5  1  0.189992  0.810008  0.750000  1
  Ag  Ag6  1  0.951564  0.048436  0.250000  1
  Ag  Ag7  1  0.048409  0.951591  0.750000  1
