# generated using pymatgen
data_YScB6Rh
_symmetry_space_group_name_H-M   'P 1'
_cell_length_a   9.01128100
_cell_length_b   11.37387000
_cell_length_c   3.55773100
_cell_angle_alpha   90.00000000
_cell_angle_beta   90.00000000
_cell_angle_gamma   90.00000000
_symmetry_Int_Tables_number   1
_chemical_formula_structural   YScB6Rh
_chemical_formula_sum   'Y4 Sc4 B24 Rh4'
_cell_volume   364.64301658
_cell_formula_units_Z   4
loop_
 _symmetry_equiv_pos_site_id
 _symmetry_equiv_pos_as_xyz
  1  'x, y, z'
loop_
 _atom_site_type_symbol
 _atom_site_label
 _atom_site_symmetry_multiplicity
 _atom_site_fract_x
 _atom_site_fract_y
 _atom_site_fract_z
 _atom_site_occupancy
  Y  Y0  1  0.679756  0.585998  0.000000  1
  Y  Y1  1  0.320244  0.414002  0.000000  1
  Y  Y2  1  0.179755  0.914002  0.000000  1
  Y  Y3  1  0.820244  0.085998  0.000000  1
  Sc  Sc4  1  0.055569  0.625162  0.000000  1
  Sc  Sc5  1  0.944431  0.374838  0.000000  1
  Sc  Sc6  1  0.555569  0.874839  0.000000  1
  Sc  Sc7  1  0.444431  0.125161  0.000000  1
  B  B8  1  0.245988  0.580827  0.499999  1
  B  B9  1  0.754012  0.419173  0.499999  1
  B  B10  1  0.745988  0.919173  0.499999  1
  B  B11  1  0.254012  0.080828  0.499999  1
  B  B12  1  0.018251  0.785178  0.499999  1
  B  B13  1  0.981749  0.214822  0.499999  1
  B  B14  1  0.518251  0.714821  0.499999  1
  B  B15  1  0.481749  0.285178  0.499999  1
  B  B16  1  0.204402  0.735538  0.499999  1
  B  B17  1  0.795597  0.264463  0.499999  1
  B  B18  1  0.704403  0.764462  0.499999  1
  B  B19  1  0.295598  0.235538  0.499999  1
  B  B20  1  0.445142  0.566062  0.499999  1
  B  B21  1  0.554858  0.433936  0.499999  1
  B  B22  1  0.945141  0.933937  0.499999  1
  B  B23  1  0.054858  0.066063  0.499999  1
  B  B24  1  0.400318  0.973151  0.499999  1
  B  B25  1  0.599683  0.026848  0.499999  1
  B  B26  1  0.900317  0.526849  0.499999  1
  B  B27  1  0.870343  0.681690  0.499999  1
  B  B28  1  0.129657  0.318308  0.499999  1
  B  B29  1  0.099683  0.473151  0.499999  1
  B  B30  1  0.370343  0.818309  0.499999  1
  B  B31  1  0.629655  0.181691  0.499999  1
  Rh  Rh32  1  0.358492  0.681825  0.000000  1
  Rh  Rh33  1  0.641508  0.318176  0.000000  1
  Rh  Rh34  1  0.858492  0.818175  0.000000  1
  Rh  Rh35  1  0.141508  0.181825  0.000000  1
