# generated using pymatgen
data_LiPr2AlPt2
_symmetry_space_group_name_H-M   'P 1'
_cell_length_a   4.34273300
_cell_length_b   7.19976700
_cell_length_c   8.22337000
_cell_angle_alpha   90.00000000
_cell_angle_beta   90.00000000
_cell_angle_gamma   90.00000000
_symmetry_Int_Tables_number   1
_chemical_formula_structural   LiPr2AlPt2
_chemical_formula_sum   'Li2 Pr4 Al2 Pt4'
_cell_volume   257.11736107
_cell_formula_units_Z   2
loop_
 _symmetry_equiv_pos_site_id
 _symmetry_equiv_pos_as_xyz
  1  'x, y, z'
loop_
 _atom_site_type_symbol
 _atom_site_label
 _atom_site_symmetry_multiplicity
 _atom_site_fract_x
 _atom_site_fract_y
 _atom_site_fract_z
 _atom_site_occupancy
  Li  Li0  1  0.250000  0.126947  0.064737  1
  Li  Li1  1  0.750000  0.373053  0.564737  1
  Pr  Pr2  1  0.250000  0.529961  0.810987  1
  Pr  Pr3  1  0.250000  0.031426  0.687089  1
  Pr  Pr4  1  0.750000  0.970039  0.310987  1
  Pr  Pr5  1  0.750000  0.468574  0.187089  1
  Al  Al6  1  0.250000  0.646337  0.434940  1
  Al  Al7  1  0.750000  0.853663  0.934940  1
  Pt  Pt8  1  0.250000  0.759981  0.108793  1
  Pt  Pt9  1  0.250000  0.278818  0.393454  1
  Pt  Pt10  1  0.750000  0.740019  0.608793  1
  Pt  Pt11  1  0.750000  0.221182  0.893454  1
