# generated using pymatgen
data_Y16In3HgPd4
_symmetry_space_group_name_H-M   'P 1'
_cell_length_a   9.76642495
_cell_length_b   9.75953257
_cell_length_c   9.75953300
_cell_angle_alpha   60.00000194
_cell_angle_beta   60.02334428
_cell_angle_gamma   60.02333403
_symmetry_Int_Tables_number   1
_chemical_formula_structural   Y16In3HgPd4
_chemical_formula_sum   'Y16 In3 Hg1 Pd4'
_cell_volume   658.00894426
_cell_formula_units_Z   1
loop_
 _symmetry_equiv_pos_site_id
 _symmetry_equiv_pos_as_xyz
  1  'x, y, z'
loop_
 _atom_site_type_symbol
 _atom_site_label
 _atom_site_symmetry_multiplicity
 _atom_site_fract_x
 _atom_site_fract_y
 _atom_site_fract_z
 _atom_site_occupancy
  Y  Y0  1  0.352494  0.353515  0.353515  1
  Y  Y1  1  0.352494  0.353515  0.940476  1
  Y  Y2  1  0.352494  0.940476  0.353515  1
  Y  Y3  1  0.942102  0.352634  0.352634  1
  Y  Y4  1  0.809928  0.190182  0.190182  1
  Y  Y5  1  0.190379  0.810338  0.810338  1
  Y  Y6  1  0.190379  0.810338  0.188944  1
  Y  Y7  1  0.809928  0.190182  0.809709  1
  Y  Y8  1  0.190379  0.188944  0.810338  1
  Y  Y9  1  0.809928  0.809709  0.190182  1
  Y  Y10  1  0.939875  0.563197  0.563197  1
  Y  Y11  1  0.564692  0.935896  0.935896  1
  Y  Y12  1  0.564692  0.935896  0.563514  1
  Y  Y13  1  0.939875  0.563197  0.933732  1
  Y  Y14  1  0.564692  0.563514  0.935896  1
  Y  Y15  1  0.939875  0.933732  0.563197  1
  In  In16  1  0.581944  0.583366  0.583366  1
  In  In17  1  0.581944  0.583366  0.251323  1
  In  In18  1  0.581944  0.251323  0.583366  1
  Hg  Hg19  1  0.239432  0.586856  0.586856  1
  Pd  Pd20  1  0.144361  0.143821  0.143821  1
  Pd  Pd21  1  0.144361  0.143821  0.567996  1
  Pd  Pd22  1  0.144361  0.567996  0.143821  1
  Pd  Pd23  1  0.567450  0.144183  0.144183  1
