# generated using pymatgen
data_Cr21GeMoC6
_symmetry_space_group_name_H-M   'P 1'
_cell_length_a   7.50936041
_cell_length_b   7.50936033
_cell_length_c   7.50936100
_cell_angle_alpha   60.00000147
_cell_angle_beta   60.00000181
_cell_angle_gamma   59.99999832
_symmetry_Int_Tables_number   1
_chemical_formula_structural   Cr21GeMoC6
_chemical_formula_sum   'Cr21 Ge1 Mo1 C6'
_cell_volume   299.42901608
_cell_formula_units_Z   1
loop_
 _symmetry_equiv_pos_site_id
 _symmetry_equiv_pos_as_xyz
  1  'x, y, z'
loop_
 _atom_site_type_symbol
 _atom_site_label
 _atom_site_symmetry_multiplicity
 _atom_site_fract_x
 _atom_site_fract_y
 _atom_site_fract_z
 _atom_site_occupancy
  Cr  Cr0  1  0.250000  0.250000  0.250000  1
  Cr  Cr1  1  0.615479  0.615479  0.153562  1
  Cr  Cr2  1  0.615479  0.153562  0.615479  1
  Cr  Cr3  1  0.153562  0.615479  0.615479  1
  Cr  Cr4  1  0.615479  0.615479  0.615479  1
  Cr  Cr5  1  0.379242  0.379242  0.862274  1
  Cr  Cr6  1  0.379242  0.862274  0.379242  1
  Cr  Cr7  1  0.862274  0.379242  0.379242  1
  Cr  Cr8  1  0.379242  0.379242  0.379242  1
  Cr  Cr9  1  0.000655  0.000655  0.340835  1
  Cr  Cr10  1  0.657855  0.000655  0.340835  1
  Cr  Cr11  1  0.000655  0.657855  0.340835  1
  Cr  Cr12  1  0.657855  0.340835  0.000655  1
  Cr  Cr13  1  0.000655  0.340835  0.000655  1
  Cr  Cr14  1  0.000655  0.340835  0.657855  1
  Cr  Cr15  1  0.340835  0.657855  0.000655  1
  Cr  Cr16  1  0.340835  0.000655  0.657855  1
  Cr  Cr17  1  0.340835  0.000655  0.000655  1
  Cr  Cr18  1  0.000655  0.000655  0.657855  1
  Cr  Cr19  1  0.000655  0.657855  0.000655  1
  Cr  Cr20  1  0.657855  0.000655  0.000655  1
  Ge  Ge21  1  0.000000  0.000000  0.000000  1
  Mo  Mo22  1  0.750000  0.750000  0.750000  1
  C  C23  1  0.720046  0.720046  0.279954  1
  C  C24  1  0.279954  0.720046  0.279954  1
  C  C25  1  0.720046  0.279954  0.279954  1
  C  C26  1  0.279954  0.279954  0.720046  1
  C  C27  1  0.720046  0.279954  0.720046  1
  C  C28  1  0.279954  0.720046  0.720046  1
