# generated using pymatgen
data_Tm8TcB24MoRu2
_symmetry_space_group_name_H-M   'P 1'
_cell_length_a   3.62312700
_cell_length_b   9.11304185
_cell_length_c   11.48900263
_cell_angle_alpha   89.80692123
_cell_angle_beta   90.00000000
_cell_angle_gamma   90.00000000
_symmetry_Int_Tables_number   1
_chemical_formula_structural   Tm8TcB24MoRu2
_chemical_formula_sum   'Tm8 Tc1 B24 Mo1 Ru2'
_cell_volume   379.33837993
_cell_formula_units_Z   1
loop_
 _symmetry_equiv_pos_site_id
 _symmetry_equiv_pos_as_xyz
  1  'x, y, z'
loop_
 _atom_site_type_symbol
 _atom_site_label
 _atom_site_symmetry_multiplicity
 _atom_site_fract_x
 _atom_site_fract_y
 _atom_site_fract_z
 _atom_site_occupancy
  Tm  Tm0  1  0.000000  0.324218  0.414271  1
  Tm  Tm1  1  0.000000  0.677678  0.584007  1
  Tm  Tm2  1  0.000000  0.820763  0.087474  1
  Tm  Tm3  1  0.000000  0.178421  0.913754  1
  Tm  Tm4  1  0.000000  0.941993  0.370441  1
  Tm  Tm5  1  0.000000  0.055087  0.628419  1
  Tm  Tm6  1  0.000000  0.442964  0.130115  1
  Tm  Tm7  1  0.000000  0.558130  0.871999  1
  Tc  Tc8  1  0.000000  0.639193  0.319043  1
  B  B9  1  0.500000  0.553210  0.432508  1
  B  B10  1  0.500000  0.449180  0.564372  1
  B  B11  1  0.500000  0.053541  0.066638  1
  B  B12  1  0.500000  0.946435  0.933615  1
  B  B13  1  0.500000  0.748956  0.419025  1
  B  B14  1  0.500000  0.248548  0.578045  1
  B  B15  1  0.500000  0.249013  0.080954  1
  B  B16  1  0.500000  0.751254  0.919568  1
  B  B17  1  0.500000  0.792414  0.264811  1
  B  B18  1  0.500000  0.204569  0.736330  1
  B  B19  1  0.500000  0.291081  0.234472  1
  B  B20  1  0.500000  0.709215  0.765934  1
  B  B21  1  0.500000  0.631405  0.184373  1
  B  B22  1  0.500000  0.368782  0.817919  1
  B  B23  1  0.500000  0.130531  0.314393  1
  B  B24  1  0.500000  0.869138  0.685777  1
  B  B25  1  0.500000  0.982232  0.211622  1
  B  B26  1  0.500000  0.017271  0.788236  1
  B  B27  1  0.500000  0.481705  0.287498  1
  B  B28  1  0.500000  0.522648  0.712988  1
  B  B29  1  0.500000  0.603228  0.028902  1
  B  B30  1  0.500000  0.397175  0.972595  1
  B  B31  1  0.500000  0.102362  0.470415  1
  B  B32  1  0.500000  0.896326  0.528574  1
  Mo  Mo33  1  0.000000  0.361491  0.679976  1
  Ru  Ru34  1  0.000000  0.137757  0.178771  1
  Ru  Ru35  1  0.000000  0.862086  0.822169  1
