# generated using pymatgen
data_Er16Cd4Ni3Ru
_symmetry_space_group_name_H-M   'P 1'
_cell_length_a   9.50230013
_cell_length_b   9.50230023
_cell_length_c   9.50230081
_cell_angle_alpha   59.56453303
_cell_angle_beta   59.56453562
_cell_angle_gamma   59.56453412
_symmetry_Int_Tables_number   1
_chemical_formula_structural   Er16Cd4Ni3Ru
_chemical_formula_sum   'Er16 Cd4 Ni3 Ru1'
_cell_volume   600.69003610
_cell_formula_units_Z   1
loop_
 _symmetry_equiv_pos_site_id
 _symmetry_equiv_pos_as_xyz
  1  'x, y, z'
loop_
 _atom_site_type_symbol
 _atom_site_label
 _atom_site_symmetry_multiplicity
 _atom_site_fract_x
 _atom_site_fract_y
 _atom_site_fract_z
 _atom_site_occupancy
  Er  Er0  1  0.347551  0.347551  0.347551  1
  Er  Er1  1  0.350915  0.350915  0.954068  1
  Er  Er2  1  0.350915  0.954068  0.350915  1
  Er  Er3  1  0.954068  0.350915  0.350915  1
  Er  Er4  1  0.809001  0.188292  0.188292  1
  Er  Er5  1  0.186538  0.811391  0.811391  1
  Er  Er6  1  0.188292  0.809001  0.188292  1
  Er  Er7  1  0.811391  0.186538  0.811391  1
  Er  Er8  1  0.188292  0.188292  0.809001  1
  Er  Er9  1  0.811391  0.811391  0.186538  1
  Er  Er10  1  0.935903  0.565707  0.565707  1
  Er  Er11  1  0.559863  0.937569  0.937569  1
  Er  Er12  1  0.565707  0.935903  0.565707  1
  Er  Er13  1  0.937569  0.559863  0.937569  1
  Er  Er14  1  0.565707  0.565707  0.935903  1
  Er  Er15  1  0.937569  0.937569  0.559863  1
  Cd  Cd16  1  0.580289  0.580289  0.580289  1
  Cd  Cd17  1  0.580322  0.580322  0.255807  1
  Cd  Cd18  1  0.580322  0.255807  0.580322  1
  Cd  Cd19  1  0.255807  0.580322  0.580322  1
  Ni  Ni20  1  0.142242  0.142242  0.574898  1
  Ni  Ni21  1  0.142242  0.574898  0.142242  1
  Ni  Ni22  1  0.574898  0.142242  0.142242  1
  Ru  Ru23  1  0.143205  0.143205  0.143205  1
