# generated using pymatgen
data_Er4As3Pt3Rh7
_symmetry_space_group_name_H-M   'P 1'
_cell_length_a   7.20798137
_cell_length_b   7.20798261
_cell_length_c   7.28753700
_cell_angle_alpha   109.69495311
_cell_angle_beta   109.69495665
_cell_angle_gamma   109.24656541
_symmetry_Int_Tables_number   1
_chemical_formula_structural   Er4As3Pt3Rh7
_chemical_formula_sum   'Er4 As3 Pt3 Rh7'
_cell_volume   290.65622663
_cell_formula_units_Z   1
loop_
 _symmetry_equiv_pos_site_id
 _symmetry_equiv_pos_as_xyz
  1  'x, y, z'
loop_
 _atom_site_type_symbol
 _atom_site_label
 _atom_site_symmetry_multiplicity
 _atom_site_fract_x
 _atom_site_fract_y
 _atom_site_fract_z
 _atom_site_occupancy
  Er  Er0  1  0.000000  0.000000  0.482165  1
  Er  Er1  1  0.000000  0.502613  0.979346  1
  Er  Er2  1  0.502613  0.000000  0.979346  1
  Er  Er3  1  0.497387  0.497387  0.476732  1
  As  As4  1  0.660031  0.660031  0.991602  1
  As  As5  1  0.339969  0.000000  0.331570  1
  As  As6  1  0.000000  0.339969  0.331570  1
  Pt  Pt7  1  0.252255  0.252255  0.967719  1
  Pt  Pt8  1  0.747745  0.000000  0.715464  1
  Pt  Pt9  1  0.000000  0.747745  0.715464  1
  Rh  Rh10  1  0.750964  0.258619  0.494075  1
  Rh  Rh11  1  0.741381  0.492345  0.235456  1
  Rh  Rh12  1  0.507655  0.249036  0.743112  1
  Rh  Rh13  1  0.249036  0.507655  0.743112  1
  Rh  Rh14  1  0.258619  0.750964  0.494075  1
  Rh  Rh15  1  0.492345  0.741381  0.235456  1
  Rh  Rh16  1  0.000000  0.000000  0.083735  1
