# generated using pymatgen
data_Tb2Pr2Al13Ga5Ir6
_symmetry_space_group_name_H-M   'P 1'
_cell_length_a   7.57270010
_cell_length_b   7.57326872
_cell_length_c   9.66162900
_cell_angle_alpha   90.00000000
_cell_angle_beta   90.00000000
_cell_angle_gamma   119.47363001
_symmetry_Int_Tables_number   1
_chemical_formula_structural   Tb2Pr2Al13Ga5Ir6
_chemical_formula_sum   'Tb2 Pr2 Al13 Ga5 Ir6'
_cell_volume   482.38554338
_cell_formula_units_Z   1
loop_
 _symmetry_equiv_pos_site_id
 _symmetry_equiv_pos_as_xyz
  1  'x, y, z'
loop_
 _atom_site_type_symbol
 _atom_site_label
 _atom_site_symmetry_multiplicity
 _atom_site_fract_x
 _atom_site_fract_y
 _atom_site_fract_z
 _atom_site_occupancy
  Tb  Tb0  1  0.000334  0.325228  0.750000  1
  Tb  Tb1  1  0.330235  0.007008  0.750000  1
  Pr  Pr2  1  0.995118  0.669841  0.250000  1
  Pr  Pr3  1  0.669852  0.996162  0.250000  1
  Al  Al4  1  0.004367  0.335015  0.067432  1
  Al  Al5  1  0.999471  0.665003  0.924511  1
  Al  Al6  1  0.999471  0.665003  0.575489  1
  Al  Al7  1  0.334956  0.003991  0.432610  1
  Al  Al8  1  0.004367  0.335015  0.432568  1
  Al  Al9  1  0.663947  0.997457  0.575788  1
  Al  Al10  1  0.663947  0.997457  0.924212  1
  Al  Al11  1  0.334956  0.003991  0.067390  1
  Al  Al12  1  0.333848  0.334439  0.557756  1
  Al  Al13  1  0.665114  0.664927  0.455354  1
  Al  Al14  1  0.665114  0.664927  0.044646  1
  Al  Al15  1  0.333848  0.334439  0.942244  1
  Al  Al16  1  0.449632  0.660714  0.750000  1
  Ga  Ga17  1  0.132245  0.132210  0.250000  1
  Ga  Ga18  1  0.869742  0.868791  0.750000  1
  Ga  Ga19  1  0.338249  0.543964  0.250000  1
  Ga  Ga20  1  0.661198  0.453959  0.750000  1
  Ga  Ga21  1  0.543947  0.338978  0.250000  1
  Ir  Ir22  1  0.671525  0.328538  0.998249  1
  Ir  Ir23  1  0.329946  0.670884  0.995882  1
  Ir  Ir24  1  0.329946  0.670884  0.504118  1
  Ir  Ir25  1  0.671525  0.328538  0.501751  1
  Ir  Ir26  1  0.001552  0.001320  0.997375  1
  Ir  Ir27  1  0.001552  0.001320  0.502625  1
