# generated using pymatgen
data_Ce2NdTh(Al3Rh)6
_symmetry_space_group_name_H-M   'P 1'
_cell_length_a   7.61934953
_cell_length_b   7.63832178
_cell_length_c   9.49659100
_cell_angle_alpha   90.00000000
_cell_angle_beta   90.00000000
_cell_angle_gamma   119.45097804
_symmetry_Int_Tables_number   1
_chemical_formula_structural   Ce2NdTh(Al3Rh)6
_chemical_formula_sum   'Ce2 Nd1 Th1 Al18 Rh6'
_cell_volume   481.27175750
_cell_formula_units_Z   1
loop_
 _symmetry_equiv_pos_site_id
 _symmetry_equiv_pos_as_xyz
  1  'x, y, z'
loop_
 _atom_site_type_symbol
 _atom_site_label
 _atom_site_symmetry_multiplicity
 _atom_site_fract_x
 _atom_site_fract_y
 _atom_site_fract_z
 _atom_site_occupancy
  Ce  Ce0  1  0.671333  0.995801  0.250000  1
  Ce  Ce1  1  0.328503  0.004761  0.750000  1
  Nd  Nd2  1  0.995339  0.671709  0.250000  1
  Th  Th3  1  0.004466  0.328671  0.750000  1
  Al  Al4  1  0.002464  0.335743  0.078187  1
  Al  Al5  1  0.997917  0.667240  0.925545  1
  Al  Al6  1  0.997917  0.667240  0.574455  1
  Al  Al7  1  0.335524  0.001801  0.425629  1
  Al  Al8  1  0.002464  0.335743  0.421813  1
  Al  Al9  1  0.661459  0.994886  0.573577  1
  Al  Al10  1  0.661459  0.994886  0.926423  1
  Al  Al11  1  0.335524  0.001801  0.074371  1
  Al  Al12  1  0.336105  0.334302  0.546692  1
  Al  Al13  1  0.666126  0.665944  0.451198  1
  Al  Al14  1  0.666126  0.665944  0.048802  1
  Al  Al15  1  0.336105  0.334302  0.953308  1
  Al  Al16  1  0.129590  0.129788  0.250000  1
  Al  Al17  1  0.868610  0.867108  0.750000  1
  Al  Al18  1  0.343954  0.549851  0.250000  1
  Al  Al19  1  0.656251  0.451943  0.750000  1
  Al  Al20  1  0.549084  0.339639  0.250000  1
  Al  Al21  1  0.453852  0.660759  0.750000  1
  Rh  Rh22  1  0.672279  0.327637  0.998541  1
  Rh  Rh23  1  0.327532  0.670413  0.998551  1
  Rh  Rh24  1  0.327532  0.670413  0.501449  1
  Rh  Rh25  1  0.672279  0.327637  0.501459  1
  Rh  Rh26  1  0.000103  0.002018  0.998300  1
  Rh  Rh27  1  0.000103  0.002018  0.501700  1
