# generated using pymatgen
data_Ti5Nb7(BOs)12
_symmetry_space_group_name_H-M   'P 1'
_cell_length_a   3.10053400
_cell_length_b   9.03477600
_cell_length_c   15.64077600
_cell_angle_alpha   89.99727677
_cell_angle_beta   90.00000000
_cell_angle_gamma   90.00000000
_symmetry_Int_Tables_number   1
_chemical_formula_structural   Ti5Nb7(BOs)12
_chemical_formula_sum   'Ti5 Nb7 B12 Os12'
_cell_volume   438.13927342
_cell_formula_units_Z   1
loop_
 _symmetry_equiv_pos_site_id
 _symmetry_equiv_pos_as_xyz
  1  'x, y, z'
loop_
 _atom_site_type_symbol
 _atom_site_label
 _atom_site_symmetry_multiplicity
 _atom_site_fract_x
 _atom_site_fract_y
 _atom_site_fract_z
 _atom_site_occupancy
  Ti  Ti0  1  0.000000  0.800417  0.495643  1
  Ti  Ti1  1  0.000000  0.198157  0.505974  1
  Ti  Ti2  1  0.000000  0.303745  0.005082  1
  Ti  Ti3  1  0.000000  0.696335  0.993733  1
  Ti  Ti4  1  0.000000  0.515491  0.594780  1
  Nb  Nb5  1  0.000000  0.482676  0.407840  1
  Nb  Nb6  1  0.000000  0.016975  0.905826  1
  Nb  Nb7  1  0.000000  0.982791  0.093480  1
  Nb  Nb8  1  0.000000  0.686944  0.204046  1
  Nb  Nb9  1  0.000000  0.314591  0.794847  1
  Nb  Nb10  1  0.000000  0.186314  0.296882  1
  Nb  Nb11  1  0.000000  0.814010  0.702796  1
  B  B12  1  0.500000  0.605788  0.498012  1
  B  B13  1  0.500000  0.393555  0.506949  1
  B  B14  1  0.500000  0.110605  0.004153  1
  B  B15  1  0.500000  0.889125  0.995310  1
  B  B16  1  0.000000  0.606597  0.833265  1
  B  B17  1  0.000000  0.392730  0.164254  1
  B  B18  1  0.000000  0.111245  0.663172  1
  B  B19  1  0.000000  0.892233  0.336670  1
  B  B20  1  0.500000  0.711846  0.597910  1
  B  B21  1  0.500000  0.282196  0.403886  1
  B  B22  1  0.500000  0.219514  0.902917  1
  B  B23  1  0.500000  0.780561  0.096226  1
  Os  Os24  1  0.500000  0.719356  0.359505  1
  Os  Os25  1  0.500000  0.283515  0.640313  1
  Os  Os26  1  0.500000  0.219321  0.141574  1
  Os  Os27  1  0.500000  0.780624  0.857770  1
  Os  Os28  1  0.500000  0.519195  0.092732  1
  Os  Os29  1  0.500000  0.481372  0.906478  1
  Os  Os30  1  0.500000  0.020051  0.408108  1
  Os  Os31  1  0.500000  0.979734  0.592440  1
  Os  Os32  1  0.500000  0.565563  0.731571  1
  Os  Os33  1  0.500000  0.435436  0.265932  1
  Os  Os34  1  0.500000  0.064335  0.764696  1
  Os  Os35  1  0.500000  0.937058  0.235230  1
