# generated using pymatgen
data_Er8Ti9Si16Mo3
_symmetry_space_group_name_H-M   'P 1'
_cell_length_a   6.98195350
_cell_length_b   6.98195459
_cell_length_c   12.82946504
_cell_angle_alpha   90.01472057
_cell_angle_beta   89.98527712
_cell_angle_gamma   89.99790144
_symmetry_Int_Tables_number   1
_chemical_formula_structural   Er8Ti9Si16Mo3
_chemical_formula_sum   'Er8 Ti9 Si16 Mo3'
_cell_volume   625.40664412
_cell_formula_units_Z   1
loop_
 _symmetry_equiv_pos_site_id
 _symmetry_equiv_pos_as_xyz
  1  'x, y, z'
loop_
 _atom_site_type_symbol
 _atom_site_label
 _atom_site_symmetry_multiplicity
 _atom_site_fract_x
 _atom_site_fract_y
 _atom_site_fract_z
 _atom_site_occupancy
  Er  Er0  1  0.340628  0.002146  0.466655  1
  Er  Er1  1  0.498728  0.842268  0.718104  1
  Er  Er2  1  0.500122  0.158337  0.216806  1
  Er  Er3  1  0.842268  0.498728  0.281896  1
  Er  Er4  1  0.158337  0.500122  0.783194  1
  Er  Er5  1  0.659062  0.999696  0.967068  1
  Er  Er6  1  0.002146  0.340628  0.533345  1
  Er  Er7  1  0.999696  0.659062  0.032932  1
  Ti  Ti8  1  0.672601  0.672601  0.500000  1
  Ti  Ti9  1  0.151992  0.008251  0.875725  1
  Ti  Ti10  1  0.491775  0.652313  0.124765  1
  Ti  Ti11  1  0.507167  0.347179  0.626686  1
  Ti  Ti12  1  0.652313  0.491775  0.875235  1
  Ti  Ti13  1  0.347179  0.507167  0.373314  1
  Ti  Ti14  1  0.848877  0.992212  0.374442  1
  Ti  Ti15  1  0.008251  0.151992  0.124275  1
  Ti  Ti16  1  0.992212  0.848877  0.625558  1
  Si  Si17  1  0.202657  0.130904  0.683616  1
  Si  Si18  1  0.368513  0.701815  0.933552  1
  Si  Si19  1  0.631526  0.296913  0.433627  1
  Si  Si20  1  0.701815  0.368513  0.066448  1
  Si  Si21  1  0.296913  0.631526  0.566373  1
  Si  Si22  1  0.797926  0.868884  0.183974  1
  Si  Si23  1  0.130904  0.202657  0.316384  1
  Si  Si24  1  0.868884  0.797926  0.816026  1
  Si  Si25  1  0.292106  0.953169  0.064858  1
  Si  Si26  1  0.546392  0.791457  0.314985  1
  Si  Si27  1  0.452621  0.208060  0.815261  1
  Si  Si28  1  0.791457  0.546392  0.685015  1
  Si  Si29  1  0.208060  0.452621  0.184739  1
  Si  Si30  1  0.707582  0.047896  0.565764  1
  Si  Si31  1  0.953169  0.292106  0.935142  1
  Si  Si32  1  0.047896  0.707582  0.434236  1
  Mo  Mo33  1  0.327251  0.327251  0.000000  1
  Mo  Mo34  1  0.173473  0.827504  0.249274  1
  Mo  Mo35  1  0.827504  0.173473  0.750726  1
