# generated using pymatgen
data_Cs2MgSiSe4
_symmetry_space_group_name_H-M   'P 1'
_cell_length_a   14.69414940
_cell_length_b   13.11067221
_cell_length_c   7.99678959
_cell_angle_alpha   84.54864478
_cell_angle_beta   62.64819616
_cell_angle_gamma   32.80315518
_symmetry_Int_Tables_number   1
_chemical_formula_structural   Cs2MgSiSe4
_chemical_formula_sum   'Cs4 Mg2 Si2 Se8'
_cell_volume   590.16982685
_cell_formula_units_Z   2
loop_
 _symmetry_equiv_pos_site_id
 _symmetry_equiv_pos_as_xyz
  1  'x, y, z'
loop_
 _atom_site_type_symbol
 _atom_site_label
 _atom_site_symmetry_multiplicity
 _atom_site_fract_x
 _atom_site_fract_y
 _atom_site_fract_z
 _atom_site_occupancy
  Cs  Cs0  1  0.571577  0.571577  0.928423  1
  Cs  Cs1  1  0.928423  0.928423  0.571577  1
  Cs  Cs2  1  0.321577  0.321577  0.678423  1
  Cs  Cs3  1  0.678423  0.678423  0.321577  1
  Mg  Mg4  1  0.000000  0.000000  0.000000  1
  Mg  Mg5  1  0.250000  0.250000  0.250000  1
  Si  Si6  1  0.750000  0.750000  0.750000  1
  Si  Si7  1  0.500000  0.500000  0.500000  1
  Se  Se8  1  0.244622  0.857880  0.574998  1
  Se  Se9  1  0.322501  0.574998  0.857880  1
  Se  Se10  1  0.574998  0.322501  0.244622  1
  Se  Se11  1  0.857880  0.244622  0.322501  1
  Se  Se12  1  0.392120  0.005378  0.927499  1
  Se  Se13  1  0.927499  0.675002  0.392120  1
  Se  Se14  1  0.675002  0.927499  0.005378  1
  Se  Se15  1  0.005378  0.392120  0.675002  1
