# generated using pymatgen
data_Ho3(ReSi2)2
_symmetry_space_group_name_H-M   'P 1'
_cell_length_a   10.56605159
_cell_length_b   10.56605234
_cell_length_c   14.29497296
_cell_angle_alpha   55.14460915
_cell_angle_beta   55.14460528
_cell_angle_gamma   30.61678893
_symmetry_Int_Tables_number   1
_chemical_formula_structural   Ho3(ReSi2)2
_chemical_formula_sum   'Ho12 Re8 Si16'
_cell_volume   654.73916109
_cell_formula_units_Z   4
loop_
 _symmetry_equiv_pos_site_id
 _symmetry_equiv_pos_as_xyz
  1  'x, y, z'
loop_
 _atom_site_type_symbol
 _atom_site_label
 _atom_site_symmetry_multiplicity
 _atom_site_fract_x
 _atom_site_fract_y
 _atom_site_fract_z
 _atom_site_occupancy
  Ho  Ho0  1  0.752508  0.483519  0.049204  1
  Ho  Ho1  1  0.535737  0.307288  0.154804  1
  Ho  Ho2  1  0.516481  0.247492  0.450796  1
  Ho  Ho3  1  0.464263  0.692712  0.845196  1
  Ho  Ho4  1  0.293016  0.040480  0.137926  1
  Ho  Ho5  1  0.959520  0.706984  0.362074  1
  Ho  Ho6  1  0.706984  0.959520  0.862074  1
  Ho  Ho7  1  0.040480  0.293016  0.637926  1
  Ho  Ho8  1  0.247492  0.516481  0.950796  1
  Ho  Ho9  1  0.483519  0.752508  0.549204  1
  Ho  Ho10  1  0.307288  0.535737  0.654804  1
  Ho  Ho11  1  0.692712  0.464263  0.345196  1
  Re  Re12  1  0.640508  0.831136  0.281215  1
  Re  Re13  1  0.831136  0.640508  0.781215  1
  Re  Re14  1  0.359492  0.168864  0.718785  1
  Re  Re15  1  0.168864  0.359492  0.218785  1
  Re  Re16  1  0.137375  0.911780  0.077433  1
  Re  Re17  1  0.088220  0.862625  0.422567  1
  Re  Re18  1  0.862625  0.088220  0.922567  1
  Re  Re19  1  0.911780  0.137375  0.577433  1
  Si  Si20  1  0.905552  0.094448  0.250000  1
  Si  Si21  1  0.094448  0.905552  0.750000  1
  Si  Si22  1  0.341802  0.658198  0.250000  1
  Si  Si23  1  0.658198  0.341802  0.750000  1
  Si  Si24  1  0.001534  0.227853  0.877197  1
  Si  Si25  1  0.772147  0.998466  0.622803  1
  Si  Si26  1  0.998466  0.772147  0.122803  1
  Si  Si27  1  0.227853  0.001534  0.377197  1
  Si  Si28  1  0.606798  0.047272  0.075398  1
  Si  Si29  1  0.952728  0.393202  0.424602  1
  Si  Si30  1  0.393202  0.952728  0.924602  1
  Si  Si31  1  0.047272  0.606798  0.575398  1
  Si  Si32  1  0.382198  0.160773  0.380598  1
  Si  Si33  1  0.839227  0.617802  0.119402  1
  Si  Si34  1  0.617802  0.839227  0.619402  1
  Si  Si35  1  0.160773  0.382198  0.880598  1
