# generated using pymatgen
data_TbPrAg2(Ir2O7)2
_symmetry_space_group_name_H-M   'P 1'
_cell_length_a   7.27532866
_cell_length_b   7.21151901
_cell_length_c   7.27726005
_cell_angle_alpha   60.29838304
_cell_angle_beta   61.38128028
_cell_angle_gamma   60.28969930
_symmetry_Int_Tables_number   1
_chemical_formula_structural   TbPrAg2(Ir2O7)2
_chemical_formula_sum   'Tb1 Pr1 Ag2 Ir4 O14'
_cell_volume   273.91671818
_cell_formula_units_Z   1
loop_
 _symmetry_equiv_pos_site_id
 _symmetry_equiv_pos_as_xyz
  1  'x, y, z'
loop_
 _atom_site_type_symbol
 _atom_site_label
 _atom_site_symmetry_multiplicity
 _atom_site_fract_x
 _atom_site_fract_y
 _atom_site_fract_z
 _atom_site_occupancy
  Tb  Tb0  1  0.625000  0.125000  0.125000  1
  Pr  Pr1  1  0.125000  0.125000  0.625000  1
  Ag  Ag2  1  0.125000  0.125000  0.125000  1
  Ag  Ag3  1  0.125000  0.625000  0.125000  1
  Ir  Ir4  1  0.625000  0.625000  0.625000  1
  Ir  Ir5  1  0.125000  0.625000  0.625000  1
  Ir  Ir6  1  0.625000  0.125000  0.625000  1
  Ir  Ir7  1  0.625000  0.625000  0.125000  1
  O  O8  1  0.949059  0.548338  0.548405  1
  O  O9  1  0.300941  0.295803  0.701595  1
  O  O10  1  0.940025  0.559312  0.941351  1
  O  O11  1  0.690774  0.296293  0.299956  1
  O  O12  1  0.559226  0.537023  0.950044  1
  O  O13  1  0.544273  0.961602  0.532523  1
  O  O14  1  0.559226  0.953707  0.950044  1
  O  O15  1  0.248565  0.260841  0.229753  1
  O  O16  1  0.300941  0.701662  0.701595  1
  O  O17  1  0.705727  0.288398  0.717477  1
  O  O18  1  0.001435  0.989159  0.020247  1
  O  O19  1  0.949059  0.954197  0.548405  1
  O  O20  1  0.309975  0.690688  0.308649  1
  O  O21  1  0.690774  0.712977  0.299956  1
