# generated using pymatgen
data_Dy4Tm16Ir7Au5
_symmetry_space_group_name_H-M   'P 1'
_cell_length_a   11.04968415
_cell_length_b   11.06357412
_cell_length_c   6.30491831
_cell_angle_alpha   89.91715890
_cell_angle_beta   89.91904866
_cell_angle_gamma   89.58765460
_symmetry_Int_Tables_number   1
_chemical_formula_structural   Dy4Tm16Ir7Au5
_chemical_formula_sum   'Dy4 Tm16 Ir7 Au5'
_cell_volume   770.74843142
_cell_formula_units_Z   1
loop_
 _symmetry_equiv_pos_site_id
 _symmetry_equiv_pos_as_xyz
  1  'x, y, z'
loop_
 _atom_site_type_symbol
 _atom_site_label
 _atom_site_symmetry_multiplicity
 _atom_site_fract_x
 _atom_site_fract_y
 _atom_site_fract_z
 _atom_site_occupancy
  Dy  Dy0  1  0.299103  0.090942  0.363859  1
  Dy  Dy1  1  0.300805  0.907467  0.861570  1
  Dy  Dy2  1  0.698021  0.080991  0.859401  1
  Dy  Dy3  1  0.698741  0.905727  0.360609  1
  Tm  Tm4  1  0.580303  0.785155  0.875592  1
  Tm  Tm5  1  0.575036  0.206924  0.363387  1
  Tm  Tm6  1  0.418722  0.788819  0.375329  1
  Tm  Tm7  1  0.411880  0.208010  0.878393  1
  Tm  Tm8  1  0.213764  0.419845  0.624083  1
  Tm  Tm9  1  0.210293  0.581177  0.124601  1
  Tm  Tm10  1  0.794122  0.425060  0.136541  1
  Tm  Tm11  1  0.792960  0.587976  0.621126  1
  Tm  Tm12  1  0.910415  0.698980  0.135009  1
  Tm  Tm13  1  0.920278  0.303424  0.639073  1
  Tm  Tm14  1  0.091401  0.697509  0.637061  1
  Tm  Tm15  1  0.092853  0.303297  0.138051  1
  Tm  Tm16  1  0.998578  0.000196  0.500198  1
  Tm  Tm17  1  0.999774  0.001381  0.001783  1
  Tm  Tm18  1  0.495934  0.502015  0.002030  1
  Tm  Tm19  1  0.497774  0.504042  0.498463  1
  Ir  Ir20  1  0.653199  0.650090  0.249079  1
  Ir  Ir21  1  0.348503  0.348007  0.249322  1
  Ir  Ir22  1  0.345577  0.652900  0.749193  1
  Ir  Ir23  1  0.499279  0.999317  0.111311  1
  Ir  Ir24  1  0.499161  0.000003  0.613201  1
  Ir  Ir25  1  0.000251  0.500849  0.886072  1
  Ir  Ir26  1  0.000837  0.500746  0.388307  1
  Au  Au27  1  0.842716  0.159925  0.252035  1
  Au  Au28  1  0.845166  0.843698  0.752748  1
  Au  Au29  1  0.153272  0.157824  0.751210  1
  Au  Au30  1  0.155122  0.842140  0.252068  1
  Au  Au31  1  0.656158  0.345565  0.749294  1
