# generated using pymatgen
data_Ta12Al8BPd4C3
_symmetry_space_group_name_H-M   'P 1'
_cell_length_a   8.36361247
_cell_length_b   8.36361319
_cell_length_c   8.39329620
_cell_angle_alpha   60.11692210
_cell_angle_beta   60.11692431
_cell_angle_gamma   60.00000410
_symmetry_Int_Tables_number   1
_chemical_formula_structural   Ta12Al8BPd4C3
_chemical_formula_sum   'Ta12 Al8 B1 Pd4 C3'
_cell_volume   415.88252782
_cell_formula_units_Z   1
loop_
 _symmetry_equiv_pos_site_id
 _symmetry_equiv_pos_as_xyz
  1  'x, y, z'
loop_
 _atom_site_type_symbol
 _atom_site_label
 _atom_site_symmetry_multiplicity
 _atom_site_fract_x
 _atom_site_fract_y
 _atom_site_fract_z
 _atom_site_occupancy
  Ta  Ta0  1  0.567632  0.932023  0.568322  1
  Ta  Ta1  1  0.317977  0.682368  0.681678  1
  Ta  Ta2  1  0.682837  0.313610  0.320717  1
  Ta  Ta3  1  0.313610  0.682837  0.320717  1
  Ta  Ta4  1  0.682837  0.682837  0.320717  1
  Ta  Ta5  1  0.317977  0.317977  0.681678  1
  Ta  Ta6  1  0.567163  0.567163  0.929283  1
  Ta  Ta7  1  0.932023  0.567632  0.568322  1
  Ta  Ta8  1  0.567163  0.936390  0.929283  1
  Ta  Ta9  1  0.932023  0.932023  0.568322  1
  Ta  Ta10  1  0.682368  0.317977  0.681678  1
  Ta  Ta11  1  0.936390  0.567163  0.929283  1
  Al  Al12  1  0.915390  0.915390  0.916262  1
  Al  Al13  1  0.997041  0.334610  0.333738  1
  Al  Al14  1  0.334610  0.997041  0.333738  1
  Al  Al15  1  0.333972  0.333972  0.998083  1
  Al  Al16  1  0.915390  0.252959  0.916262  1
  Al  Al17  1  0.916028  0.916028  0.251917  1
  Al  Al18  1  0.252959  0.915390  0.916262  1
  Al  Al19  1  0.334610  0.334610  0.333738  1
  B  B20  1  0.625000  0.625000  0.125000  1
  Pd  Pd21  1  0.125000  0.125000  0.125000  1
  Pd  Pd22  1  0.625000  0.125000  0.125000  1
  Pd  Pd23  1  0.125000  0.625000  0.125000  1
  Pd  Pd24  1  0.125000  0.125000  0.625000  1
  C  C25  1  0.625000  0.625000  0.625000  1
  C  C26  1  0.125000  0.625000  0.625000  1
  C  C27  1  0.625000  0.125000  0.625000  1
