# generated using pymatgen
data_Ca3(SmSn2)2
_symmetry_space_group_name_H-M   'P 1'
_cell_length_a   7.97856300
_cell_length_b   8.53513400
_cell_length_c   16.30076100
_cell_angle_alpha   90.00000000
_cell_angle_beta   90.00000000
_cell_angle_gamma   90.00000000
_symmetry_Int_Tables_number   1
_chemical_formula_structural   Ca3(SmSn2)2
_chemical_formula_sum   'Ca12 Sm8 Sn16'
_cell_volume   1110.05092328
_cell_formula_units_Z   4
loop_
 _symmetry_equiv_pos_site_id
 _symmetry_equiv_pos_as_xyz
  1  'x, y, z'
loop_
 _atom_site_type_symbol
 _atom_site_label
 _atom_site_symmetry_multiplicity
 _atom_site_fract_x
 _atom_site_fract_y
 _atom_site_fract_z
 _atom_site_occupancy
  Ca  Ca0  1  0.506619  0.688853  0.593191  1
  Ca  Ca1  1  0.006619  0.811147  0.906809  1
  Ca  Ca2  1  0.493381  0.311147  0.093191  1
  Ca  Ca3  1  0.993381  0.188853  0.406809  1
  Ca  Ca4  1  0.493381  0.311147  0.406809  1
  Ca  Ca5  1  0.993381  0.188853  0.093191  1
  Ca  Ca6  1  0.506619  0.688853  0.906809  1
  Ca  Ca7  1  0.006619  0.811147  0.593191  1
  Ca  Ca8  1  0.839572  0.510738  0.750000  1
  Ca  Ca9  1  0.339572  0.989262  0.750000  1
  Ca  Ca10  1  0.160428  0.489262  0.250000  1
  Ca  Ca11  1  0.660428  0.010738  0.250000  1
  Sm  Sm12  1  0.674049  0.167301  0.622096  1
  Sm  Sm13  1  0.174049  0.332699  0.877904  1
  Sm  Sm14  1  0.325951  0.832699  0.122096  1
  Sm  Sm15  1  0.825951  0.667301  0.377904  1
  Sm  Sm16  1  0.325951  0.832699  0.377904  1
  Sm  Sm17  1  0.825951  0.667301  0.122096  1
  Sm  Sm18  1  0.674049  0.167301  0.877904  1
  Sm  Sm19  1  0.174049  0.332699  0.622096  1
  Sn  Sn20  1  0.669199  0.965904  0.458881  1
  Sn  Sn21  1  0.169199  0.534096  0.041119  1
  Sn  Sn22  1  0.330801  0.034096  0.958881  1
  Sn  Sn23  1  0.830801  0.465904  0.541119  1
  Sn  Sn24  1  0.330801  0.034096  0.541119  1
  Sn  Sn25  1  0.830801  0.465904  0.958881  1
  Sn  Sn26  1  0.669199  0.965904  0.041119  1
  Sn  Sn27  1  0.169199  0.534096  0.458881  1
  Sn  Sn28  1  0.472853  0.381431  0.750000  1
  Sn  Sn29  1  0.972853  0.118569  0.750000  1
  Sn  Sn30  1  0.527147  0.618569  0.250000  1
  Sn  Sn31  1  0.027147  0.881431  0.250000  1
  Sn  Sn32  1  0.718776  0.870758  0.750000  1
  Sn  Sn33  1  0.218776  0.629242  0.750000  1
  Sn  Sn34  1  0.281224  0.129242  0.250000  1
  Sn  Sn35  1  0.781224  0.370758  0.250000  1
