# generated using pymatgen
data_Ba3LiIr2N3
_symmetry_space_group_name_H-M   'P 1'
_cell_length_a   5.73505300
_cell_length_b   9.87176000
_cell_length_c   14.09747800
_cell_angle_alpha   90.00000000
_cell_angle_beta   90.00000000
_cell_angle_gamma   90.00000000
_symmetry_Int_Tables_number   1
_chemical_formula_structural   Ba3LiIr2N3
_chemical_formula_sum   'Ba12 Li4 Ir8 N12'
_cell_volume   798.12965873
_cell_formula_units_Z   4
loop_
 _symmetry_equiv_pos_site_id
 _symmetry_equiv_pos_as_xyz
  1  'x, y, z'
loop_
 _atom_site_type_symbol
 _atom_site_label
 _atom_site_symmetry_multiplicity
 _atom_site_fract_x
 _atom_site_fract_y
 _atom_site_fract_z
 _atom_site_occupancy
  Ba  Ba0  1  0.488165  0.495466  0.753444  1
  Ba  Ba1  1  0.988165  0.004534  0.246556  1
  Ba  Ba2  1  0.011835  0.995466  0.746556  1
  Ba  Ba3  1  0.511835  0.504534  0.253444  1
  Ba  Ba4  1  0.998483  0.326722  0.421343  1
  Ba  Ba5  1  0.498483  0.173278  0.578657  1
  Ba  Ba6  1  0.501517  0.826722  0.078657  1
  Ba  Ba7  1  0.001517  0.673278  0.921343  1
  Ba  Ba8  1  0.040632  0.664420  0.590978  1
  Ba  Ba9  1  0.540632  0.835580  0.409022  1
  Ba  Ba10  1  0.459368  0.164420  0.909022  1
  Ba  Ba11  1  0.959368  0.335580  0.090978  1
  Li  Li12  1  0.452487  0.164468  0.149762  1
  Li  Li13  1  0.952487  0.335532  0.850238  1
  Li  Li14  1  0.047513  0.664468  0.350238  1
  Li  Li15  1  0.547513  0.835532  0.649762  1
  Ir  Ir16  1  0.530251  0.843775  0.832983  1
  Ir  Ir17  1  0.030251  0.656225  0.167017  1
  Ir  Ir18  1  0.969749  0.343775  0.667017  1
  Ir  Ir19  1  0.469749  0.156225  0.332983  1
  Ir  Ir20  1  0.971291  0.008005  0.994472  1
  Ir  Ir21  1  0.471291  0.491995  0.005528  1
  Ir  Ir22  1  0.528709  0.508005  0.505528  1
  Ir  Ir23  1  0.028709  0.991995  0.494472  1
  N  N24  1  0.313080  0.764058  0.748766  1
  N  N25  1  0.813080  0.735942  0.251234  1
  N  N26  1  0.186920  0.264058  0.751234  1
  N  N27  1  0.686920  0.235942  0.248766  1
  N  N28  1  0.252796  0.072316  0.415224  1
  N  N29  1  0.752796  0.427684  0.584776  1
  N  N30  1  0.247204  0.572316  0.084776  1
  N  N31  1  0.747204  0.927684  0.915224  1
  N  N32  1  0.788516  0.920767  0.571559  1
  N  N33  1  0.288516  0.579233  0.428441  1
  N  N34  1  0.711484  0.420767  0.928441  1
  N  N35  1  0.211484  0.079233  0.071559  1
