# generated using pymatgen
data_NpPd5
_symmetry_space_group_name_H-M   'P 1'
_cell_length_a   6.24538266
_cell_length_b   6.24538222
_cell_length_c   4.17908100
_cell_angle_alpha   90.00000000
_cell_angle_beta   90.00000000
_cell_angle_gamma   140.99282333
_symmetry_Int_Tables_number   1
_chemical_formula_structural   NpPd5
_chemical_formula_sum   'Np1 Pd5'
_cell_volume   102.59774968
_cell_formula_units_Z   1
loop_
 _symmetry_equiv_pos_site_id
 _symmetry_equiv_pos_as_xyz
  1  'x, y, z'
loop_
 _atom_site_type_symbol
 _atom_site_label
 _atom_site_symmetry_multiplicity
 _atom_site_fract_x
 _atom_site_fract_y
 _atom_site_fract_z
 _atom_site_occupancy
  Np  Np0  1  0.000000  0.000000  0.000000  1
  Pd  Pd1  1  0.665517  0.334481  0.000000  1
  Pd  Pd2  1  0.334481  0.665517  0.000000  1
  Pd  Pd3  1  0.832102  0.167896  0.499999  1
  Pd  Pd4  1  0.499999  0.499999  0.499999  1
  Pd  Pd5  1  0.167896  0.832102  0.499999  1
