# generated using pymatgen
data_Er7Tm13(BiPb7)2
_symmetry_space_group_name_H-M   'P 1'
_cell_length_a   8.18977601
_cell_length_b   8.21858558
_cell_length_c   15.43172275
_cell_angle_alpha   90.21772076
_cell_angle_beta   90.09016796
_cell_angle_gamma   90.04460327
_symmetry_Int_Tables_number   1
_chemical_formula_structural   Er7Tm13(BiPb7)2
_chemical_formula_sum   'Er7 Tm13 Bi2 Pb14'
_cell_volume   1038.67507706
_cell_formula_units_Z   1
loop_
 _symmetry_equiv_pos_site_id
 _symmetry_equiv_pos_as_xyz
  1  'x, y, z'
loop_
 _atom_site_type_symbol
 _atom_site_label
 _atom_site_symmetry_multiplicity
 _atom_site_fract_x
 _atom_site_fract_y
 _atom_site_fract_z
 _atom_site_occupancy
  Er  Er0  1  0.050063  0.167518  0.604403  1
  Er  Er1  1  0.449551  0.674725  0.396368  1
  Er  Er2  1  0.948509  0.825346  0.104062  1
  Er  Er3  1  0.454607  0.666970  0.102695  1
  Er  Er4  1  0.955343  0.832504  0.397647  1
  Er  Er5  1  0.540745  0.323618  0.603040  1
  Er  Er6  1  0.041615  0.176264  0.896746  1
  Tm  Tm7  1  0.382412  0.839929  0.878154  1
  Tm  Tm8  1  0.881898  0.660048  0.621959  1
  Tm  Tm9  1  0.619544  0.154743  0.377951  1
  Tm  Tm10  1  0.119185  0.345018  0.121991  1
  Tm  Tm11  1  0.622107  0.158185  0.121033  1
  Tm  Tm12  1  0.122962  0.341881  0.378625  1
  Tm  Tm13  1  0.379515  0.842882  0.621751  1
  Tm  Tm14  1  0.880336  0.657440  0.878428  1
  Tm  Tm15  1  0.552226  0.333763  0.894795  1
  Tm  Tm16  1  0.212021  0.502564  0.749678  1
  Tm  Tm17  1  0.711783  0.997716  0.750457  1
  Tm  Tm18  1  0.787838  0.497548  0.248026  1
  Tm  Tm19  1  0.287756  0.002247  0.251906  1
  Bi  Bi20  1  0.273553  0.025396  0.045249  1
  Bi  Bi21  1  0.774616  0.473255  0.454999  1
  Pb  Pb22  1  0.723186  0.971237  0.543732  1
  Pb  Pb23  1  0.224980  0.527297  0.956136  1
  Pb  Pb24  1  0.722768  0.970645  0.956401  1
  Pb  Pb25  1  0.222507  0.530302  0.543487  1
  Pb  Pb26  1  0.279761  0.031449  0.456963  1
  Pb  Pb27  1  0.779530  0.468877  0.042908  1
  Pb  Pb28  1  0.574358  0.629455  0.748264  1
  Pb  Pb29  1  0.074176  0.870747  0.751830  1
  Pb  Pb30  1  0.427144  0.369811  0.249849  1
  Pb  Pb31  1  0.927055  0.130109  0.250008  1
  Pb  Pb32  1  0.356409  0.154548  0.751944  1
  Pb  Pb33  1  0.856240  0.346046  0.748254  1
  Pb  Pb34  1  0.641773  0.845034  0.249512  1
  Pb  Pb35  1  0.141927  0.654883  0.250748  1
