# generated using pymatgen
data_YHo2Tm(CrB4)4
_symmetry_space_group_name_H-M   'P 1'
_cell_length_a   3.43332800
_cell_length_b   5.92406387
_cell_length_c   11.44628401
_cell_angle_alpha   89.96684681
_cell_angle_beta   90.00000000
_cell_angle_gamma   90.00000000
_symmetry_Int_Tables_number   1
_chemical_formula_structural   YHo2Tm(CrB4)4
_chemical_formula_sum   'Y1 Ho2 Tm1 Cr4 B16'
_cell_volume   232.80884293
_cell_formula_units_Z   1
loop_
 _symmetry_equiv_pos_site_id
 _symmetry_equiv_pos_as_xyz
  1  'x, y, z'
loop_
 _atom_site_type_symbol
 _atom_site_label
 _atom_site_symmetry_multiplicity
 _atom_site_fract_x
 _atom_site_fract_y
 _atom_site_fract_z
 _atom_site_occupancy
  Y  Y0  1  0.000000  0.624601  0.349172  1
  Ho  Ho1  1  0.000000  0.375369  0.651064  1
  Ho  Ho2  1  0.000000  0.124601  0.150503  1
  Tm  Tm3  1  0.000000  0.875293  0.849262  1
  Cr  Cr4  1  0.000000  0.624732  0.080474  1
  Cr  Cr5  1  0.000000  0.375364  0.918490  1
  Cr  Cr6  1  0.000000  0.124422  0.419359  1
  Cr  Cr7  1  0.000000  0.875705  0.581744  1
  B  B8  1  0.500000  0.781916  0.183624  1
  B  B9  1  0.500000  0.217342  0.815699  1
  B  B10  1  0.500000  0.281097  0.315706  1
  B  B11  1  0.500000  0.718504  0.684993  1
  B  B12  1  0.500000  0.863317  0.031507  1
  B  B13  1  0.500000  0.136488  0.967166  1
  B  B14  1  0.500000  0.362776  0.468174  1
  B  B15  1  0.500000  0.637254  0.533048  1
  B  B16  1  0.500000  0.887167  0.453591  1
  B  B17  1  0.500000  0.113313  0.547524  1
  B  B18  1  0.500000  0.386675  0.046361  1
  B  B19  1  0.500000  0.614027  0.952452  1
  B  B20  1  0.500000  0.975722  0.308308  1
  B  B21  1  0.500000  0.024237  0.692553  1
  B  B22  1  0.500000  0.474829  0.191105  1
  B  B23  1  0.500000  0.525250  0.808121  1
