# generated using pymatgen
data_Ti4Tc2RuPt
_symmetry_space_group_name_H-M   'P 1'
_cell_length_a   6.22359700
_cell_length_b   4.39990200
_cell_length_c   8.77997700
_cell_angle_alpha   89.99981749
_cell_angle_beta   90.00014543
_cell_angle_gamma   89.99970946
_symmetry_Int_Tables_number   1
_chemical_formula_structural   Ti4Tc2RuPt
_chemical_formula_sum   'Ti8 Tc4 Ru2 Pt2'
_cell_volume   240.42401446
_cell_formula_units_Z   2
loop_
 _symmetry_equiv_pos_site_id
 _symmetry_equiv_pos_as_xyz
  1  'x, y, z'
loop_
 _atom_site_type_symbol
 _atom_site_label
 _atom_site_symmetry_multiplicity
 _atom_site_fract_x
 _atom_site_fract_y
 _atom_site_fract_z
 _atom_site_occupancy
  Ti  Ti0  1  0.995487  0.749999  0.119483  1
  Ti  Ti1  1  0.504494  0.750001  0.119484  1
  Ti  Ti2  1  0.004495  0.250000  0.380511  1
  Ti  Ti3  1  0.495487  0.250003  0.380512  1
  Ti  Ti4  1  0.495611  0.750000  0.629950  1
  Ti  Ti5  1  0.004411  0.750002  0.629952  1
  Ti  Ti6  1  0.504409  0.249999  0.870053  1
  Ti  Ti7  1  0.995603  0.250005  0.870050  1
  Tc  Tc8  1  0.749995  0.249997  0.127115  1
  Tc  Tc9  1  0.249989  0.750000  0.372882  1
  Tc  Tc10  1  0.750010  0.250000  0.623051  1
  Tc  Tc11  1  0.250010  0.749999  0.876953  1
  Ru  Ru12  1  0.250009  0.250002  0.624885  1
  Ru  Ru13  1  0.750011  0.749997  0.875118  1
  Pt  Pt14  1  0.249988  0.249999  0.124770  1
  Pt  Pt15  1  0.749992  0.749999  0.375230  1
