# generated using pymatgen
data_CaTmZr2(Ga3Ir)6
_symmetry_space_group_name_H-M   'P 1'
_cell_length_a   7.53991763
_cell_length_b   7.53712840
_cell_length_c   9.41914100
_cell_angle_alpha   90.00000000
_cell_angle_beta   90.00000000
_cell_angle_gamma   119.90444144
_symmetry_Int_Tables_number   1
_chemical_formula_structural   CaTmZr2(Ga3Ir)6
_chemical_formula_sum   'Ca1 Tm1 Zr2 Ga18 Ir6'
_cell_volume   464.01479398
_cell_formula_units_Z   1
loop_
 _symmetry_equiv_pos_site_id
 _symmetry_equiv_pos_as_xyz
  1  'x, y, z'
loop_
 _atom_site_type_symbol
 _atom_site_label
 _atom_site_symmetry_multiplicity
 _atom_site_fract_x
 _atom_site_fract_y
 _atom_site_fract_z
 _atom_site_occupancy
  Ca  Ca0  1  0.669729  0.996038  0.750000  1
  Tm  Tm1  1  0.330759  0.004128  0.250000  1
  Zr  Zr2  1  0.997037  0.669541  0.750000  1
  Zr  Zr3  1  0.001985  0.328778  0.250000  1
  Ga  Ga4  1  0.127142  0.125072  0.750000  1
  Ga  Ga5  1  0.872610  0.873659  0.250000  1
  Ga  Ga6  1  0.997929  0.335657  0.580850  1
  Ga  Ga7  1  0.001822  0.663671  0.417549  1
  Ga  Ga8  1  0.001822  0.663671  0.082451  1
  Ga  Ga9  1  0.333198  0.997044  0.917666  1
  Ga  Ga10  1  0.997929  0.335657  0.919150  1
  Ga  Ga11  1  0.667040  0.002658  0.082742  1
  Ga  Ga12  1  0.667040  0.002658  0.417258  1
  Ga  Ga13  1  0.333198  0.997044  0.582334  1
  Ga  Ga14  1  0.330000  0.332242  0.070051  1
  Ga  Ga15  1  0.670241  0.668891  0.932184  1
  Ga  Ga16  1  0.670241  0.668891  0.567816  1
  Ga  Ga17  1  0.330000  0.332242  0.429949  1
  Ga  Ga18  1  0.336191  0.546320  0.750000  1
  Ga  Ga19  1  0.661634  0.453280  0.250000  1
  Ga  Ga20  1  0.553231  0.342997  0.750000  1
  Ga  Ga21  1  0.448156  0.659670  0.250000  1
  Ir  Ir22  1  0.672379  0.329491  0.497744  1
  Ir  Ir23  1  0.326117  0.670022  0.499402  1
  Ir  Ir24  1  0.326117  0.670022  0.000598  1
  Ir  Ir25  1  0.672379  0.329491  0.002256  1
  Ir  Ir26  1  0.002036  0.000582  0.498302  1
  Ir  Ir27  1  0.002036  0.000582  0.001698  1
