# generated using pymatgen
data_AlI31
_symmetry_space_group_name_H-M   'P 1'
_cell_length_a   9.16918000
_cell_length_b   10.38510117
_cell_length_c   20.67628600
_cell_angle_alpha   85.30545102
_cell_angle_beta   90.00000000
_cell_angle_gamma   90.00000000
_symmetry_Int_Tables_number   1
_chemical_formula_structural   AlI31
_chemical_formula_sum   'Al1 I31'
_cell_volume   1962.24996806
_cell_formula_units_Z   1
loop_
 _symmetry_equiv_pos_site_id
 _symmetry_equiv_pos_as_xyz
  1  'x, y, z'
loop_
 _atom_site_type_symbol
 _atom_site_label
 _atom_site_symmetry_multiplicity
 _atom_site_fract_x
 _atom_site_fract_y
 _atom_site_fract_z
 _atom_site_occupancy
  Al  Al0  1  0.750000  0.897319  0.158746  1
  I  I1  1  0.750000  0.421176  0.350888  1
  I  I2  1  0.250000  0.645921  0.662822  1
  I  I3  1  0.250000  0.110164  0.846118  1
  I  I4  1  0.250000  0.334683  0.166631  1
  I  I5  1  0.750000  0.955761  0.756028  1
  I  I6  1  0.750000  0.893132  0.281496  1
  I  I7  1  0.515698  0.788411  0.120034  1
  I  I8  1  0.250000  0.561277  0.296769  1
  I  I9  1  0.503800  0.791132  0.602541  1
  I  I10  1  0.250000  0.679655  0.809904  1
  I  I11  1  0.250000  0.067466  0.409183  1
  I  I12  1  0.750000  0.533702  0.481245  1
  I  I13  1  0.502906  0.245375  0.898658  1
  I  I14  1  0.250000  0.720493  0.944587  1
  I  I15  1  0.750000  0.319058  0.223492  1
  I  I16  1  0.497694  0.241288  0.384364  1
  I  I17  1  0.750000  0.215066  0.678694  1
  I  I18  1  0.250000  0.811017  0.331364  1
  I  I19  1  0.002306  0.241288  0.384364  1
  I  I20  1  0.750000  0.924050  0.541278  1
  I  I21  1  0.984302  0.788411  0.120034  1
  I  I22  1  0.250000  0.075256  0.144414  1
  I  I23  1  0.750000  0.127897  0.100475  1
  I  I24  1  0.750000  0.692054  0.815657  1
  I  I25  1  0.750000  0.456170  0.738651  1
  I  I26  1  0.250000  0.501207  0.044622  1
  I  I27  1  0.996200  0.791132  0.602541  1
  I  I28  1  0.750000  0.381898  0.947003  1
  I  I29  1  0.250000  0.317684  0.565197  1
  I  I30  1  0.250000  0.225477  0.693539  1
  I  I31  1  0.997094  0.245375  0.898658  1
