# generated using pymatgen
data_Hf5Zn6SiRh12
_symmetry_space_group_name_H-M   'P 1'
_cell_length_a   4.42213000
_cell_length_b   6.22780500
_cell_length_c   13.17964700
_cell_angle_alpha   90.00000000
_cell_angle_beta   89.99878233
_cell_angle_gamma   90.00005351
_symmetry_Int_Tables_number   1
_chemical_formula_structural   Hf5Zn6SiRh12
_chemical_formula_sum   'Hf5 Zn6 Si1 Rh12'
_cell_volume   362.96963090
_cell_formula_units_Z   1
loop_
 _symmetry_equiv_pos_site_id
 _symmetry_equiv_pos_as_xyz
  1  'x, y, z'
loop_
 _atom_site_type_symbol
 _atom_site_label
 _atom_site_symmetry_multiplicity
 _atom_site_fract_x
 _atom_site_fract_y
 _atom_site_fract_z
 _atom_site_occupancy
  Hf  Hf0  1  0.499950  0.500000  0.160134  1
  Hf  Hf1  1  0.999937  0.999999  0.331181  1
  Hf  Hf2  1  0.499999  0.500000  0.500000  1
  Hf  Hf3  1  0.000061  0.999999  0.668819  1
  Hf  Hf4  1  0.500051  0.500000  0.839866  1
  Zn  Zn5  1  0.000000  0.500000  0.000002  1
  Zn  Zn6  1  0.499942  0.999999  0.171245  1
  Zn  Zn7  1  0.999937  0.500000  0.325883  1
  Zn  Zn8  1  0.499999  0.000000  0.499999  1
  Zn  Zn9  1  0.000061  0.500000  0.674117  1
  Zn  Zn10  1  0.500059  0.000000  0.828755  1
  Si  Si11  1  0.000000  0.000000  0.000000  1
  Rh  Rh12  1  0.500000  0.227376  0.999999  1
  Rh  Rh13  1  0.500000  0.772623  0.000000  1
  Rh  Rh14  1  0.999945  0.236817  0.154572  1
  Rh  Rh15  1  0.999948  0.763183  0.154572  1
  Rh  Rh16  1  0.499931  0.252762  0.331384  1
  Rh  Rh17  1  0.499930  0.747238  0.331384  1
  Rh  Rh18  1  0.000002  0.250390  0.500000  1
  Rh  Rh19  1  0.000000  0.749610  0.500000  1
  Rh  Rh20  1  0.500069  0.252762  0.668616  1
  Rh  Rh21  1  0.500068  0.747239  0.668617  1
  Rh  Rh22  1  0.000050  0.236816  0.845428  1
  Rh  Rh23  1  0.000053  0.763184  0.845428  1
