# generated using pymatgen
data_Tb4Yb7Pd4Pb9
_symmetry_space_group_name_H-M   'P 1'
_cell_length_a   13.26764488
_cell_length_b   13.26764484
_cell_length_c   3.86458000
_cell_angle_alpha   90.00000000
_cell_angle_beta   90.00000000
_cell_angle_gamma   110.58079460
_symmetry_Int_Tables_number   1
_chemical_formula_structural   Tb4Yb7Pd4Pb9
_chemical_formula_sum   'Tb4 Yb7 Pd4 Pb9'
_cell_volume   636.86611115
_cell_formula_units_Z   1
loop_
 _symmetry_equiv_pos_site_id
 _symmetry_equiv_pos_as_xyz
  1  'x, y, z'
loop_
 _atom_site_type_symbol
 _atom_site_label
 _atom_site_symmetry_multiplicity
 _atom_site_fract_x
 _atom_site_fract_y
 _atom_site_fract_z
 _atom_site_occupancy
  Tb  Tb0  1  0.371225  0.628775  0.000000  1
  Tb  Tb1  1  0.628775  0.371225  0.000000  1
  Tb  Tb2  1  0.310878  0.310878  0.000000  1
  Tb  Tb3  1  0.689122  0.689122  0.000000  1
  Yb  Yb4  1  0.414745  0.074273  0.000000  1
  Yb  Yb5  1  0.585255  0.925727  0.000000  1
  Yb  Yb6  1  0.074273  0.414745  0.000000  1
  Yb  Yb7  1  0.925727  0.585255  0.000000  1
  Yb  Yb8  1  0.163606  0.836394  0.000000  1
  Yb  Yb9  1  0.836394  0.163606  0.000000  1
  Yb  Yb10  1  0.000000  0.000000  0.000000  1
  Pd  Pd11  1  0.451134  0.249630  0.500000  1
  Pd  Pd12  1  0.548866  0.750370  0.500000  1
  Pd  Pd13  1  0.249630  0.451134  0.500000  1
  Pd  Pd14  1  0.750370  0.548866  0.500000  1
  Pb  Pb15  1  0.372315  0.842751  0.500000  1
  Pb  Pb16  1  0.627685  0.157249  0.500000  1
  Pb  Pb17  1  0.842751  0.372315  0.500000  1
  Pb  Pb18  1  0.157249  0.627685  0.500000  1
  Pb  Pb19  1  0.218741  0.074482  0.500000  1
  Pb  Pb20  1  0.781259  0.925518  0.500000  1
  Pb  Pb21  1  0.074482  0.218741  0.500000  1
  Pb  Pb22  1  0.925518  0.781259  0.500000  1
  Pb  Pb23  1  0.500000  0.500000  0.500000  1
