# generated using pymatgen
data_Tb2YSc2Al3O12
_symmetry_space_group_name_H-M   'P 1'
_cell_length_a   10.78799723
_cell_length_b   10.78761342
_cell_length_c   10.78835300
_cell_angle_alpha   109.47566563
_cell_angle_beta   109.47036536
_cell_angle_gamma   109.46758014
_symmetry_Int_Tables_number   1
_chemical_formula_structural   Tb2YSc2Al3O12
_chemical_formula_sum   'Tb8 Y4 Sc8 Al12 O48'
_cell_volume   966.49526159
_cell_formula_units_Z   4
loop_
 _symmetry_equiv_pos_site_id
 _symmetry_equiv_pos_as_xyz
  1  'x, y, z'
loop_
 _atom_site_type_symbol
 _atom_site_label
 _atom_site_symmetry_multiplicity
 _atom_site_fract_x
 _atom_site_fract_y
 _atom_site_fract_z
 _atom_site_occupancy
  Tb  Tb0  1  0.374997  0.124996  0.250001  1
  Tb  Tb1  1  0.125005  0.375004  0.750001  1
  Tb  Tb2  1  0.374997  0.750002  0.124997  1
  Tb  Tb3  1  0.125005  0.250001  0.375004  1
  Tb  Tb4  1  0.249999  0.375000  0.125000  1
  Tb  Tb5  1  0.749997  0.124999  0.374999  1
  Tb  Tb6  1  0.874993  0.749996  0.625010  1
  Tb  Tb7  1  0.874993  0.624997  0.249983  1
  Y  Y8  1  0.624984  0.875003  0.749997  1
  Y  Y9  1  0.750006  0.625003  0.875003  1
  Y  Y10  1  0.250040  0.875020  0.625020  1
  Y  Y11  1  0.624984  0.249981  0.874987  1
  Sc  Sc12  1  0.499997  0.999998  0.999978  1
  Sc  Sc13  1  0.999984  0.500006  0.999987  1
  Sc  Sc14  1  0.000016  0.000000  0.499996  1
  Sc  Sc15  1  0.500002  0.499983  0.999984  1
  Sc  Sc16  1  0.500002  0.500019  0.500018  1
  Sc  Sc17  1  0.000016  0.500016  0.500020  1
  Sc  Sc18  1  0.499997  0.000000  0.500020  1
  Sc  Sc19  1  0.999984  0.999979  0.999998  1
  Al  Al20  1  0.124992  0.749999  0.874998  1
  Al  Al21  1  0.874961  0.249984  0.124952  1
  Al  Al22  1  0.625001  0.374991  0.249983  1
  Al  Al23  1  0.749992  0.874965  0.124957  1
  Al  Al24  1  0.874961  0.124977  0.750010  1
  Al  Al25  1  0.250023  0.625041  0.375052  1
  Al  Al26  1  0.749992  0.375026  0.625035  1
  Al  Al27  1  0.250023  0.124983  0.874971  1
  Al  Al28  1  0.124992  0.874993  0.249993  1
  Al  Al29  1  0.375031  0.249992  0.625032  1
  Al  Al30  1  0.625001  0.750010  0.375018  1
  Al  Al31  1  0.375031  0.625038  0.749999  1
  O  O32  1  0.474886  0.374705  0.286800  1
  O  O33  1  0.311921  0.899823  0.025123  1
  O  O34  1  0.600180  0.912101  0.125306  1
  O  O35  1  0.587903  0.188084  0.213207  1
  O  O36  1  0.125302  0.025128  0.213207  1
  O  O37  1  0.188076  0.213208  0.587902  1
  O  O38  1  0.188076  0.474869  0.600175  1
  O  O39  1  0.213200  0.587900  0.188082  1
  O  O40  1  0.374696  0.587899  0.899823  1
  O  O41  1  0.912099  0.286799  0.311918  1
  O  O42  1  0.286789  0.311920  0.912098  1
  O  O43  1  0.213200  0.125299  0.025118  1
  O  O44  1  0.474886  0.600181  0.188085  1
  O  O45  1  0.899821  0.374699  0.587903  1
  O  O46  1  0.025126  0.213207  0.125306  1
  O  O47  1  0.600180  0.188080  0.474874  1
  O  O48  1  0.587903  0.899819  0.374697  1
  O  O49  1  0.025126  0.311920  0.899820  1
  O  O50  1  0.912099  0.125299  0.600181  1
  O  O51  1  0.625300  0.412067  0.100176  1
  O  O52  1  0.125302  0.600175  0.912096  1
  O  O53  1  0.286789  0.474870  0.374692  1
  O  O54  1  0.899821  0.025122  0.311918  1
  O  O55  1  0.311921  0.912098  0.286797  1
  O  O56  1  0.525191  0.625440  0.713279  1
  O  O57  1  0.688093  0.100257  0.974819  1
  O  O58  1  0.399740  0.087828  0.874556  1
  O  O59  1  0.412171  0.811912  0.786724  1
  O  O60  1  0.874567  0.974824  0.786745  1
  O  O61  1  0.811906  0.786790  0.412083  1
  O  O62  1  0.811906  0.525115  0.399822  1
  O  O63  1  0.786724  0.412164  0.811912  1
  O  O64  1  0.688093  0.087836  0.713276  1
  O  O65  1  0.100253  0.974819  0.688074  1
  O  O66  1  0.713252  0.525178  0.625439  1
  O  O67  1  0.625300  0.713233  0.525124  1
  O  O68  1  0.874567  0.399744  0.087821  1
  O  O69  1  0.087934  0.874698  0.399831  1
  O  O70  1  0.974869  0.688102  0.100177  1
  O  O71  1  0.412171  0.100259  0.625446  1
  O  O72  1  0.399740  0.811912  0.525184  1
  O  O73  1  0.974869  0.786766  0.874692  1
  O  O74  1  0.100253  0.625434  0.412179  1
  O  O75  1  0.525191  0.399751  0.811913  1
  O  O76  1  0.786724  0.874561  0.974813  1
  O  O77  1  0.713252  0.688073  0.087812  1
  O  O78  1  0.087934  0.713237  0.688103  1
  O  O79  1  0.374696  0.286796  0.474873  1
