# generated using pymatgen
data_TbYLu2ScSi4
_symmetry_space_group_name_H-M   'P 1'
_cell_length_a   7.20544413
_cell_length_b   7.55064402
_cell_length_c   14.29667422
_cell_angle_alpha   89.99989409
_cell_angle_beta   89.97978203
_cell_angle_gamma   89.99212561
_symmetry_Int_Tables_number   1
_chemical_formula_structural   TbYLu2ScSi4
_chemical_formula_sum   'Tb4 Y4 Lu8 Sc4 Si16'
_cell_volume   777.82113645
_cell_formula_units_Z   4
loop_
 _symmetry_equiv_pos_site_id
 _symmetry_equiv_pos_as_xyz
  1  'x, y, z'
loop_
 _atom_site_type_symbol
 _atom_site_label
 _atom_site_symmetry_multiplicity
 _atom_site_fract_x
 _atom_site_fract_y
 _atom_site_fract_z
 _atom_site_occupancy
  Tb  Tb0  1  0.514350  0.321033  0.097894  1
  Tb  Tb1  1  0.014308  0.178903  0.402166  1
  Tb  Tb2  1  0.514323  0.321078  0.402080  1
  Tb  Tb3  1  0.485629  0.678958  0.597962  1
  Y  Y4  1  0.014224  0.178912  0.097895  1
  Y  Y5  1  0.985724  0.821068  0.902075  1
  Y  Y6  1  0.485715  0.678948  0.901997  1
  Y  Y7  1  0.985766  0.821124  0.597944  1
  Lu  Lu8  1  0.327808  0.177312  0.625253  1
  Lu  Lu9  1  0.672392  0.822733  0.374897  1
  Lu  Lu10  1  0.172165  0.677384  0.374820  1
  Lu  Lu11  1  0.672306  0.822673  0.125099  1
  Lu  Lu12  1  0.827844  0.322604  0.625232  1
  Lu  Lu13  1  0.327713  0.177310  0.874851  1
  Lu  Lu14  1  0.827935  0.322557  0.874775  1
  Lu  Lu15  1  0.172260  0.677393  0.125073  1
  Sc  Sc16  1  0.160363  0.509096  0.750006  1
  Sc  Sc17  1  0.839460  0.490850  0.250017  1
  Sc  Sc18  1  0.339572  0.009163  0.249997  1
  Sc  Sc19  1  0.660256  0.990887  0.749983  1
  Si  Si20  1  0.027778  0.104898  0.750036  1
  Si  Si21  1  0.972042  0.894969  0.249968  1
  Si  Si22  1  0.471946  0.605291  0.249966  1
  Si  Si23  1  0.527884  0.394834  0.750032  1
  Si  Si24  1  0.284443  0.867851  0.750010  1
  Si  Si25  1  0.715558  0.132054  0.249909  1
  Si  Si26  1  0.215346  0.368022  0.249986  1
  Si  Si27  1  0.784644  0.632086  0.750092  1
  Si  Si28  1  0.155797  0.468030  0.539562  1
  Si  Si29  1  0.844220  0.532146  0.460523  1
  Si  Si30  1  0.344237  0.967955  0.460499  1
  Si  Si31  1  0.844261  0.532090  0.039501  1
  Si  Si32  1  0.655883  0.032032  0.539611  1
  Si  Si33  1  0.155843  0.467930  0.960380  1
  Si  Si34  1  0.655825  0.031961  0.960360  1
  Si  Si35  1  0.344182  0.967862  0.039548  1
