# generated using pymatgen
data_In5B4Pt4Rh11
_symmetry_space_group_name_H-M   'P 1'
_cell_length_a   4.16295100
_cell_length_b   4.16295100
_cell_length_c   20.44797100
_cell_angle_alpha   90.00000000
_cell_angle_beta   90.00000000
_cell_angle_gamma   90.00000000
_symmetry_Int_Tables_number   1
_chemical_formula_structural   In5B4Pt4Rh11
_chemical_formula_sum   'In5 B4 Pt4 Rh11'
_cell_volume   354.36663013
_cell_formula_units_Z   1
loop_
 _symmetry_equiv_pos_site_id
 _symmetry_equiv_pos_as_xyz
  1  'x, y, z'
loop_
 _atom_site_type_symbol
 _atom_site_label
 _atom_site_symmetry_multiplicity
 _atom_site_fract_x
 _atom_site_fract_y
 _atom_site_fract_z
 _atom_site_occupancy
  In  In0  1  0.000000  0.000000  0.900457  1
  In  In1  1  0.000000  0.000000  0.099543  1
  In  In2  1  0.000000  0.000000  0.298651  1
  In  In3  1  0.000000  0.000000  0.500000  1
  In  In4  1  0.000000  0.000000  0.701349  1
  B  B5  1  0.500000  0.500000  0.194389  1
  B  B6  1  0.500000  0.500000  0.398566  1
  B  B7  1  0.500000  0.500000  0.601434  1
  B  B8  1  0.500000  0.500000  0.805611  1
  Pt  Pt9  1  0.500000  0.500000  0.906785  1
  Pt  Pt10  1  0.500000  0.500000  0.093215  1
  Pt  Pt11  1  0.500000  0.000000  0.000000  1
  Pt  Pt12  1  0.000000  0.500000  0.000000  1
  Rh  Rh13  1  0.500000  0.500000  0.297648  1
  Rh  Rh14  1  0.500000  0.500000  0.500000  1
  Rh  Rh15  1  0.500000  0.500000  0.702352  1
  Rh  Rh16  1  0.500000  0.000000  0.198023  1
  Rh  Rh17  1  0.500000  0.000000  0.399006  1
  Rh  Rh18  1  0.500000  0.000000  0.600994  1
  Rh  Rh19  1  0.500000  0.000000  0.801977  1
  Rh  Rh20  1  0.000000  0.500000  0.198023  1
  Rh  Rh21  1  0.000000  0.500000  0.399006  1
  Rh  Rh22  1  0.000000  0.500000  0.600994  1
  Rh  Rh23  1  0.000000  0.500000  0.801977  1
