# generated using pymatgen
data_Ca8Si6IrPd7
_symmetry_space_group_name_H-M   'P 1'
_cell_length_a   10.84092026
_cell_length_b   10.81390949
_cell_length_c   7.75416878
_cell_angle_alpha   71.83193841
_cell_angle_beta   72.00753849
_cell_angle_gamma   31.22307537
_symmetry_Int_Tables_number   1
_chemical_formula_structural   Ca8Si6IrPd7
_chemical_formula_sum   'Ca8 Si6 Ir1 Pd7'
_cell_volume   446.07900562
_cell_formula_units_Z   1
loop_
 _symmetry_equiv_pos_site_id
 _symmetry_equiv_pos_as_xyz
  1  'x, y, z'
loop_
 _atom_site_type_symbol
 _atom_site_label
 _atom_site_symmetry_multiplicity
 _atom_site_fract_x
 _atom_site_fract_y
 _atom_site_fract_z
 _atom_site_occupancy
  Ca  Ca0  1  0.936865  0.197877  0.327784  1
  Ca  Ca1  1  0.066857  0.796678  0.667226  1
  Ca  Ca2  1  0.798017  0.066361  0.172846  1
  Ca  Ca3  1  0.448929  0.210849  0.907024  1
  Ca  Ca4  1  0.794822  0.546688  0.590707  1
  Ca  Ca5  1  0.202575  0.456947  0.411095  1
  Ca  Ca6  1  0.205241  0.931264  0.828424  1
  Ca  Ca7  1  0.547878  0.792618  0.093403  1
  Si  Si8  1  0.303096  0.041113  0.434175  1
  Si  Si9  1  0.398434  0.596157  0.258065  1
  Si  Si10  1  0.042028  0.302346  0.932534  1
  Si  Si11  1  0.687845  0.975118  0.565322  1
  Si  Si12  1  0.957107  0.698540  0.066965  1
  Si  Si13  1  0.613344  0.381457  0.746363  1
  Ir  Ir14  1  0.577539  0.299897  0.526494  1
  Pd  Pd15  1  0.701010  0.420951  0.968818  1
  Pd  Pd16  1  0.297892  0.578319  0.027578  1
  Pd  Pd17  1  0.427441  0.698685  0.473988  1
  Pd  Pd18  1  0.641262  0.916564  0.320178  1
  Pd  Pd19  1  0.907939  0.648349  0.817425  1
  Pd  Pd20  1  0.361526  0.082497  0.682240  1
  Pd  Pd21  1  0.082353  0.360727  0.181346  1
