# generated using pymatgen
data_Tb9Tm(Pb3S)2
_symmetry_space_group_name_H-M   'P 1'
_cell_length_a   9.17657000
_cell_length_b   9.17657023
_cell_length_c   6.78602400
_cell_angle_alpha   90.00000000
_cell_angle_beta   90.00000000
_cell_angle_gamma   119.99999919
_symmetry_Int_Tables_number   1
_chemical_formula_structural   Tb9Tm(Pb3S)2
_chemical_formula_sum   'Tb9 Tm1 Pb6 S2'
_cell_volume   494.88786053
_cell_formula_units_Z   1
loop_
 _symmetry_equiv_pos_site_id
 _symmetry_equiv_pos_as_xyz
  1  'x, y, z'
loop_
 _atom_site_type_symbol
 _atom_site_label
 _atom_site_symmetry_multiplicity
 _atom_site_fract_x
 _atom_site_fract_y
 _atom_site_fract_z
 _atom_site_occupancy
  Tb  Tb0  1  0.242729  0.242825  0.749649  1
  Tb  Tb1  1  0.000096  0.757271  0.749649  1
  Tb  Tb2  1  0.242729  0.999904  0.250351  1
  Tb  Tb3  1  0.757175  0.999904  0.749649  1
  Tb  Tb4  1  0.666667  0.333333  0.500000  1
  Tb  Tb5  1  0.757175  0.757271  0.250351  1
  Tb  Tb6  1  0.000096  0.242825  0.250351  1
  Tb  Tb7  1  0.333333  0.666667  0.000000  1
  Tb  Tb8  1  0.666667  0.333333  0.000000  1
  Tm  Tm9  1  0.333333  0.666667  0.500000  1
  Pb  Pb10  1  0.601423  0.999193  0.250322  1
  Pb  Pb11  1  0.000807  0.602230  0.250322  1
  Pb  Pb12  1  0.601423  0.602230  0.749678  1
  Pb  Pb13  1  0.397770  0.398577  0.250322  1
  Pb  Pb14  1  0.000807  0.398577  0.749678  1
  Pb  Pb15  1  0.397770  0.999193  0.749678  1
  S  S16  1  0.000000  0.000000  0.000000  1
  S  S17  1  0.000000  0.000000  0.500000  1
