# generated using pymatgen
data_GdDy3Ho2Ta2O14
_symmetry_space_group_name_H-M   'P 1'
_cell_length_a   6.50303964
_cell_length_b   6.50262779
_cell_length_c   7.47922103
_cell_angle_alpha   89.98882981
_cell_angle_beta   89.97205458
_cell_angle_gamma   108.47397741
_symmetry_Int_Tables_number   1
_chemical_formula_structural   GdDy3Ho2Ta2O14
_chemical_formula_sum   'Gd1 Dy3 Ho2 Ta2 O14'
_cell_volume   299.97434642
_cell_formula_units_Z   1
loop_
 _symmetry_equiv_pos_site_id
 _symmetry_equiv_pos_as_xyz
  1  'x, y, z'
loop_
 _atom_site_type_symbol
 _atom_site_label
 _atom_site_symmetry_multiplicity
 _atom_site_fract_x
 _atom_site_fract_y
 _atom_site_fract_z
 _atom_site_occupancy
  Gd  Gd0  1  0.466622  0.466155  0.000468  1
  Dy  Dy1  1  0.540010  0.539481  0.499600  1
  Dy  Dy2  1  0.000089  0.464844  0.740442  1
  Dy  Dy3  1  0.535094  0.000149  0.758467  1
  Ho  Ho4  1  0.000437  0.535111  0.241362  1
  Ho  Ho5  1  0.464744  0.999758  0.259784  1
  Ta  Ta6  1  0.002230  0.002300  0.499354  1
  Ta  Ta7  1  0.997716  0.997796  0.000628  1
  O  O8  1  0.932069  0.067697  0.749991  1
  O  O9  1  0.640512  0.359350  0.747270  1
  O  O10  1  0.306593  0.048184  0.544436  1
  O  O11  1  0.950189  0.692341  0.955699  1
  O  O12  1  0.630582  0.369699  0.253039  1
  O  O13  1  0.917362  0.671623  0.523376  1
  O  O14  1  0.327740  0.079847  0.976324  1
  O  O15  1  0.079595  0.327608  0.025283  1
  O  O16  1  0.671743  0.917583  0.475002  1
  O  O17  1  0.370296  0.629984  0.746916  1
  O  O18  1  0.693287  0.952539  0.046534  1
  O  O19  1  0.045810  0.305665  0.453329  1
  O  O20  1  0.358174  0.641632  0.252692  1
  O  O21  1  0.069107  0.930651  0.250005  1
