# generated using pymatgen
data_Li30Si7Hg
_symmetry_space_group_name_H-M   'P 1'
_cell_length_a   9.22644679
_cell_length_b   9.23410610
_cell_length_c   9.22872360
_cell_angle_alpha   109.46523240
_cell_angle_beta   109.34132120
_cell_angle_gamma   109.31979881
_symmetry_Int_Tables_number   1
_chemical_formula_structural   Li30Si7Hg
_chemical_formula_sum   'Li30 Si7 Hg1'
_cell_volume   607.40573909
_cell_formula_units_Z   1
loop_
 _symmetry_equiv_pos_site_id
 _symmetry_equiv_pos_as_xyz
  1  'x, y, z'
loop_
 _atom_site_type_symbol
 _atom_site_label
 _atom_site_symmetry_multiplicity
 _atom_site_fract_x
 _atom_site_fract_y
 _atom_site_fract_z
 _atom_site_occupancy
  Li  Li0  1  0.057605  0.540013  0.287013  1
  Li  Li1  1  0.259479  0.787317  0.716159  1
  Li  Li2  1  0.184757  0.964663  0.973090  1
  Li  Li3  1  0.974611  0.192311  0.016925  1
  Li  Li4  1  0.035488  0.014476  0.222608  1
  Li  Li5  1  0.789759  0.812095  0.776313  1
  Li  Li6  1  0.469918  0.752931  0.543948  1
  Li  Li7  1  0.212370  0.934216  0.472883  1
  Li  Li8  1  0.715003  0.347195  0.059644  1
  Li  Li9  1  0.942825  0.393483  0.852200  1
  Li  Li10  1  0.289791  0.663130  0.932889  1
  Li  Li11  1  0.536567  0.089670  0.133323  1
  Li  Li12  1  0.686254  0.849300  0.088570  1
  Li  Li13  1  0.502922  0.917506  0.345519  1
  Li  Li14  1  0.560247  0.151486  0.664224  1
  Li  Li15  1  0.764502  0.599016  0.909124  1
  Li  Li16  1  0.841537  0.509357  0.411067  1
  Li  Li17  1  0.411802  0.305602  0.164871  1
  Li  Li18  1  0.140858  0.225134  0.818357  1
  Li  Li19  1  0.098702  0.436669  0.590227  1
  Li  Li20  1  0.902967  0.039411  0.437121  1
  Li  Li21  1  0.346282  0.284360  0.637984  1
  Li  Li22  1  0.597353  0.463359  0.558962  1
  Li  Li23  1  0.669795  0.720321  0.379656  1
  Li  Li24  1  0.004719  0.874332  0.626552  1
  Li  Li25  1  0.246991  0.368031  0.384406  1
  Li  Li26  1  0.118503  0.760355  0.122609  1
  Li  Li27  1  0.623955  0.000280  0.878251  1
  Li  Li28  1  0.510388  0.497063  0.992749  1
  Li  Li29  1  0.750885  0.253866  0.499588  1
  Si  Si30  1  0.373833  0.126911  0.837490  1
  Si  Si31  1  0.962391  0.624974  0.751194  1
  Si  Si32  1  0.877442  0.212912  0.249931  1
  Si  Si33  1  0.371108  0.122856  0.334849  1
  Si  Si34  1  0.790469  0.041528  0.666308  1
  Si  Si35  1  0.460070  0.621856  0.749289  1
  Si  Si36  1  0.873658  0.709471  0.245307  1
  Hg  Hg37  1  0.294195  0.542539  0.168804  1
