# generated using pymatgen
data_YbDy15(In3Pt)2
_symmetry_space_group_name_H-M   'P 1'
_cell_length_a   10.50704200
_cell_length_b   10.51553667
_cell_length_c   7.01656094
_cell_angle_alpha   90.05148454
_cell_angle_beta   90.00000000
_cell_angle_gamma   119.97324337
_symmetry_Int_Tables_number   1
_chemical_formula_structural   YbDy15(In3Pt)2
_chemical_formula_sum   'Yb1 Dy15 In6 Pt2'
_cell_volume   671.55817514
_cell_formula_units_Z   1
loop_
 _symmetry_equiv_pos_site_id
 _symmetry_equiv_pos_as_xyz
  1  'x, y, z'
loop_
 _atom_site_type_symbol
 _atom_site_label
 _atom_site_symmetry_multiplicity
 _atom_site_fract_x
 _atom_site_fract_y
 _atom_site_fract_z
 _atom_site_occupancy
  Yb  Yb0  1  0.530392  0.060784  0.516555  1
  Dy  Dy1  1  0.938163  0.469176  0.515009  1
  Dy  Dy2  1  0.531015  0.469177  0.515009  1
  Dy  Dy3  1  0.468196  0.936391  0.015797  1
  Dy  Dy4  1  0.061995  0.530806  0.015569  1
  Dy  Dy5  1  0.468809  0.530805  0.015569  1
  Dy  Dy6  1  0.174832  0.349664  0.723490  1
  Dy  Dy7  1  0.650388  0.825137  0.722733  1
  Dy  Dy8  1  0.174749  0.825137  0.722733  1
  Dy  Dy9  1  0.824847  0.649694  0.222583  1
  Dy  Dy10  1  0.351095  0.174831  0.223826  1
  Dy  Dy11  1  0.823736  0.174831  0.223826  1
  Dy  Dy12  1  0.665975  0.331949  0.890071  1
  Dy  Dy13  1  0.332856  0.665712  0.390071  1
  Dy  Dy14  1  0.000152  0.000305  0.498367  1
  Dy  Dy15  1  0.000059  0.000118  0.997874  1
  In  In16  1  0.837110  0.674221  0.759347  1
  In  In17  1  0.325417  0.163401  0.761429  1
  In  In18  1  0.837983  0.163401  0.761429  1
  In  In19  1  0.162785  0.325569  0.258936  1
  In  In20  1  0.674234  0.836830  0.259228  1
  In  In21  1  0.162597  0.836830  0.259228  1
  Pt  Pt22  1  0.668940  0.337878  0.286199  1
  Pt  Pt23  1  0.333675  0.667350  0.789324  1
