# generated using pymatgen
data_Dy4Co11(P4Rh3)3
_symmetry_space_group_name_H-M   'P 1'
_cell_length_a   3.75733900
_cell_length_b   10.52492743
_cell_length_c   12.15034926
_cell_angle_alpha   89.83173838
_cell_angle_beta   90.00000000
_cell_angle_gamma   90.00000000
_symmetry_Int_Tables_number   1
_chemical_formula_structural   Dy4Co11(P4Rh3)3
_chemical_formula_sum   'Dy4 Co11 P12 Rh9'
_cell_volume   480.49224150
_cell_formula_units_Z   1
loop_
 _symmetry_equiv_pos_site_id
 _symmetry_equiv_pos_as_xyz
  1  'x, y, z'
loop_
 _atom_site_type_symbol
 _atom_site_label
 _atom_site_symmetry_multiplicity
 _atom_site_fract_x
 _atom_site_fract_y
 _atom_site_fract_z
 _atom_site_occupancy
  Dy  Dy0  1  0.250000  0.584002  0.710934  1
  Dy  Dy1  1  0.250000  0.914038  0.212186  1
  Dy  Dy2  1  0.750000  0.420411  0.291582  1
  Dy  Dy3  1  0.750000  0.083461  0.787953  1
  Co  Co4  1  0.250000  0.278470  0.678217  1
  Co  Co5  1  0.750000  0.778459  0.821431  1
  Co  Co6  1  0.750000  0.721113  0.322677  1
  Co  Co7  1  0.250000  0.881348  0.696585  1
  Co  Co8  1  0.250000  0.621176  0.197020  1
  Co  Co9  1  0.750000  0.113514  0.304304  1
  Co  Co10  1  0.750000  0.382309  0.802140  1
  Co  Co11  1  0.250000  0.462801  0.930129  1
  Co  Co12  1  0.250000  0.035419  0.433007  1
  Co  Co13  1  0.750000  0.538947  0.067102  1
  Co  Co14  1  0.750000  0.962790  0.568516  1
  P  P15  1  0.250000  0.431342  0.109082  1
  P  P16  1  0.250000  0.076957  0.611085  1
  P  P17  1  0.750000  0.577877  0.888564  1
  P  P18  1  0.750000  0.921014  0.390472  1
  P  P19  1  0.250000  0.274271  0.861491  1
  P  P20  1  0.250000  0.225752  0.370632  1
  P  P21  1  0.750000  0.726219  0.138715  1
  P  P22  1  0.750000  0.774624  0.638367  1
  P  P23  1  0.250000  0.605835  0.379714  1
  P  P24  1  0.250000  0.893994  0.877857  1
  P  P25  1  0.750000  0.395929  0.621149  1
  P  P26  1  0.750000  0.098355  0.117025  1
  Rh  Rh27  1  0.250000  0.711271  0.984997  1
  Rh  Rh28  1  0.250000  0.787642  0.487531  1
  Rh  Rh29  1  0.750000  0.285726  0.008325  1
  Rh  Rh30  1  0.750000  0.213393  0.512987  1
  Rh  Rh31  1  0.250000  0.408860  0.481305  1
  Rh  Rh32  1  0.250000  0.090271  0.975542  1
  Rh  Rh33  1  0.750000  0.594224  0.522107  1
  Rh  Rh34  1  0.750000  0.904196  0.020109  1
  Rh  Rh35  1  0.250000  0.223993  0.179162  1
