# generated using pymatgen
data_Tm8Ti5Ge16Mo7
_symmetry_space_group_name_H-M   'P 1'
_cell_length_a   6.86524363
_cell_length_b   7.03719581
_cell_length_c   13.28057903
_cell_angle_alpha   89.98943921
_cell_angle_beta   89.97937135
_cell_angle_gamma   90.01464144
_symmetry_Int_Tables_number   1
_chemical_formula_structural   Tm8Ti5Ge16Mo7
_chemical_formula_sum   'Tm8 Ti5 Ge16 Mo7'
_cell_volume   641.61210652
_cell_formula_units_Z   1
loop_
 _symmetry_equiv_pos_site_id
 _symmetry_equiv_pos_as_xyz
  1  'x, y, z'
loop_
 _atom_site_type_symbol
 _atom_site_label
 _atom_site_symmetry_multiplicity
 _atom_site_fract_x
 _atom_site_fract_y
 _atom_site_fract_z
 _atom_site_occupancy
  Tm  Tm0  1  0.005183  0.175024  0.405558  1
  Tm  Tm1  1  0.504814  0.325362  0.094175  1
  Tm  Tm2  1  0.494872  0.675881  0.594876  1
  Tm  Tm3  1  0.994750  0.827522  0.905454  1
  Tm  Tm4  1  0.993368  0.828424  0.594063  1
  Tm  Tm5  1  0.495260  0.673583  0.905714  1
  Tm  Tm6  1  0.506992  0.329317  0.406355  1
  Tm  Tm7  1  0.006802  0.169978  0.095525  1
  Ti  Ti8  1  0.162456  0.332157  0.873194  1
  Ti  Ti9  1  0.158317  0.332409  0.626301  1
  Ti  Ti10  1  0.662581  0.166261  0.872483  1
  Ti  Ti11  1  0.840412  0.667167  0.127400  1
  Ti  Ti12  1  0.340541  0.833306  0.372776  1
  Ge  Ge13  1  0.326674  0.043041  0.543872  1
  Ge  Ge14  1  0.824495  0.457349  0.956725  1
  Ge  Ge15  1  0.672727  0.956504  0.044064  1
  Ge  Ge16  1  0.172897  0.543290  0.456409  1
  Ge  Ge17  1  0.174061  0.541304  0.043265  1
  Ge  Ge18  1  0.673845  0.956560  0.456271  1
  Ge  Ge19  1  0.825031  0.458099  0.543714  1
  Ge  Ge20  1  0.325854  0.043538  0.957305  1
  Ge  Ge21  1  0.808432  0.362444  0.248713  1
  Ge  Ge22  1  0.309269  0.138437  0.251317  1
  Ge  Ge23  1  0.691293  0.861972  0.750575  1
  Ge  Ge24  1  0.193435  0.638244  0.749924  1
  Ge  Ge25  1  0.035980  0.872883  0.251920  1
  Ge  Ge26  1  0.536192  0.626791  0.248717  1
  Ge  Ge27  1  0.464060  0.371769  0.748925  1
  Ge  Ge28  1  0.962492  0.125960  0.750497  1
  Mo  Mo29  1  0.334525  0.834417  0.126369  1
  Mo  Mo30  1  0.834761  0.664102  0.374742  1
  Mo  Mo31  1  0.666110  0.165086  0.624106  1
  Mo  Mo32  1  0.332783  0.010014  0.749123  1
  Mo  Mo33  1  0.666836  0.989419  0.250016  1
  Mo  Mo34  1  0.167153  0.511846  0.250471  1
  Mo  Mo35  1  0.834745  0.490540  0.749084  1
