# generated using pymatgen
data_Th7Re2Os
_symmetry_space_group_name_H-M   'P 1'
_cell_length_a   10.04471238
_cell_length_b   10.00161504
_cell_length_c   6.34613099
_cell_angle_alpha   90.00000386
_cell_angle_beta   89.84184444
_cell_angle_gamma   119.85817291
_symmetry_Int_Tables_number   1
_chemical_formula_structural   Th7Re2Os
_chemical_formula_sum   'Th14 Re4 Os2'
_cell_volume   552.92216658
_cell_formula_units_Z   2
loop_
 _symmetry_equiv_pos_site_id
 _symmetry_equiv_pos_as_xyz
  1  'x, y, z'
loop_
 _atom_site_type_symbol
 _atom_site_label
 _atom_site_symmetry_multiplicity
 _atom_site_fract_x
 _atom_site_fract_y
 _atom_site_fract_z
 _atom_site_occupancy
  Th  Th0  1  0.461059  0.537205  0.298261  1
  Th  Th1  1  0.075975  0.537987  0.297141  1
  Th  Th2  1  0.921047  0.460524  0.798698  1
  Th  Th3  1  0.253044  0.126522  0.507565  1
  Th  Th4  1  0.540270  0.077250  0.798271  1
  Th  Th5  1  0.749553  0.874776  0.007939  1
  Th  Th6  1  0.666420  0.333210  0.280449  1
  Th  Th7  1  0.126662  0.874014  0.005499  1
  Th  Th8  1  0.461059  0.923854  0.298261  1
  Th  Th9  1  0.540270  0.463020  0.798271  1
  Th  Th10  1  0.873266  0.125798  0.507239  1
  Th  Th11  1  0.126662  0.252648  0.005499  1
  Th  Th12  1  0.873266  0.747468  0.507239  1
  Th  Th13  1  0.332691  0.666346  0.781242  1
  Re  Re14  1  0.816347  0.630497  0.049137  1
  Re  Re15  1  0.816347  0.185850  0.049137  1
  Re  Re16  1  0.626138  0.813069  0.550529  1
  Re  Re17  1  0.369246  0.184623  0.046813  1
  Os  Os18  1  0.185339  0.373158  0.548403  1
  Os  Os19  1  0.185339  0.812181  0.548403  1
