# generated using pymatgen
data_Sr4YbCe(BiO6)2
_symmetry_space_group_name_H-M   'P 1'
_cell_length_a   5.97678047
_cell_length_b   6.05701810
_cell_length_c   8.47567500
_cell_angle_alpha   89.99541219
_cell_angle_beta   90.39282479
_cell_angle_gamma   90.04751655
_symmetry_Int_Tables_number   1
_chemical_formula_structural   Sr4YbCe(BiO6)2
_chemical_formula_sum   'Sr4 Yb1 Ce1 Bi2 O12'
_cell_volume   306.82455521
_cell_formula_units_Z   1
loop_
 _symmetry_equiv_pos_site_id
 _symmetry_equiv_pos_as_xyz
  1  'x, y, z'
loop_
 _atom_site_type_symbol
 _atom_site_label
 _atom_site_symmetry_multiplicity
 _atom_site_fract_x
 _atom_site_fract_y
 _atom_site_fract_z
 _atom_site_occupancy
  Sr  Sr0  1  0.009238  0.039542  0.235273  1
  Sr  Sr1  1  0.488102  0.548593  0.236319  1
  Sr  Sr2  1  0.511898  0.451408  0.763680  1
  Sr  Sr3  1  0.990761  0.960458  0.764728  1
  Yb  Yb4  1  0.500001  0.000000  0.000000  1
  Ce  Ce5  1  0.000000  0.500000  0.500000  1
  Bi  Bi6  1  0.000000  0.500000  0.000000  1
  Bi  Bi7  1  0.500001  0.000000  0.500000  1
  O  O8  1  0.283191  0.300828  0.044158  1
  O  O9  1  0.195530  0.784284  0.046660  1
  O  O10  1  0.903686  0.466731  0.248248  1
  O  O11  1  0.595945  0.964983  0.263253  1
  O  O12  1  0.302681  0.292379  0.443814  1
  O  O13  1  0.207852  0.798473  0.444453  1
  O  O14  1  0.792148  0.201526  0.555546  1
  O  O15  1  0.697319  0.707620  0.556185  1
  O  O16  1  0.404054  0.035017  0.736748  1
  O  O17  1  0.096314  0.533270  0.751752  1
  O  O18  1  0.804470  0.215716  0.953340  1
  O  O19  1  0.716809  0.699171  0.955843  1
