# generated using pymatgen
data_Ho8GaSi7Pd8
_symmetry_space_group_name_H-M   'P 1'
_cell_length_a   4.32546300
_cell_length_b   7.50640738
_cell_length_c   13.94558000
_cell_angle_alpha   89.73320571
_cell_angle_beta   90.00000000
_cell_angle_gamma   90.00000000
_symmetry_Int_Tables_number   1
_chemical_formula_structural   Ho8GaSi7Pd8
_chemical_formula_sum   'Ho8 Ga1 Si7 Pd8'
_cell_volume   452.78976849
_cell_formula_units_Z   1
loop_
 _symmetry_equiv_pos_site_id
 _symmetry_equiv_pos_as_xyz
  1  'x, y, z'
loop_
 _atom_site_type_symbol
 _atom_site_label
 _atom_site_symmetry_multiplicity
 _atom_site_fract_x
 _atom_site_fract_y
 _atom_site_fract_z
 _atom_site_occupancy
  Ho  Ho0  1  0.000000  0.208829  0.750302  1
  Ho  Ho1  1  0.000000  0.210256  0.250789  1
  Ho  Ho2  1  0.500000  0.790414  0.747426  1
  Ho  Ho3  1  0.500000  0.792000  0.250636  1
  Ho  Ho4  1  0.000000  0.291816  0.499964  1
  Ho  Ho5  1  0.500000  0.706261  0.000049  1
  Ho  Ho6  1  0.000000  0.299985  0.002422  1
  Ho  Ho7  1  0.500000  0.699776  0.499390  1
  Ga  Ga8  1  0.500000  0.093877  0.905883  1
  Si  Si9  1  0.000000  0.589580  0.854633  1
  Si  Si10  1  0.000000  0.594257  0.143525  1
  Si  Si11  1  0.500000  0.406772  0.643924  1
  Si  Si12  1  0.500000  0.407777  0.356983  1
  Si  Si13  1  0.000000  0.907563  0.406726  1
  Si  Si14  1  0.000000  0.907182  0.592363  1
  Si  Si15  1  0.500000  0.093557  0.097957  1
  Pd  Pd16  1  0.000000  0.912512  0.890154  1
  Pd  Pd17  1  0.000000  0.924196  0.108010  1
  Pd  Pd18  1  0.500000  0.076115  0.607817  1
  Pd  Pd19  1  0.500000  0.075682  0.392711  1
  Pd  Pd20  1  0.000000  0.579771  0.343400  1
  Pd  Pd21  1  0.000000  0.580212  0.656200  1
  Pd  Pd22  1  0.500000  0.423690  0.158890  1
  Pd  Pd23  1  0.500000  0.427923  0.839841  1
