# generated using pymatgen
data_TbSc6Fe5CoSn23
_symmetry_space_group_name_H-M   'P 1'
_cell_length_a   9.55943012
_cell_length_b   9.59154694
_cell_length_c   9.75088715
_cell_angle_alpha   89.99999950
_cell_angle_beta   89.98234674
_cell_angle_gamma   120.11120333
_symmetry_Int_Tables_number   1
_chemical_formula_structural   TbSc6Fe5CoSn23
_chemical_formula_sum   'Tb1 Sc6 Fe5 Co1 Sn23'
_cell_volume   773.40620080
_cell_formula_units_Z   1
loop_
 _symmetry_equiv_pos_site_id
 _symmetry_equiv_pos_as_xyz
  1  'x, y, z'
loop_
 _atom_site_type_symbol
 _atom_site_label
 _atom_site_symmetry_multiplicity
 _atom_site_fract_x
 _atom_site_fract_y
 _atom_site_fract_z
 _atom_site_occupancy
  Tb  Tb0  1  0.001890  0.000945  0.001433  1
  Sc  Sc1  1  0.488663  0.510677  0.302227  1
  Sc  Sc2  1  0.509810  0.485353  0.696343  1
  Sc  Sc3  1  0.488663  0.977986  0.302227  1
  Sc  Sc4  1  0.509810  0.024458  0.696343  1
  Sc  Sc5  1  0.023132  0.511565  0.302815  1
  Sc  Sc6  1  0.976185  0.488093  0.696769  1
  Fe  Fe7  1  0.829146  0.170276  0.202769  1
  Fe  Fe8  1  0.171758  0.829985  0.797387  1
  Fe  Fe9  1  0.829146  0.658869  0.202769  1
  Fe  Fe10  1  0.171758  0.341774  0.797387  1
  Fe  Fe11  1  0.341702  0.170850  0.201808  1
  Co  Co12  1  0.658261  0.829131  0.798652  1
  Sn  Sn13  1  0.347149  0.999916  0.000415  1
  Sn  Sn14  1  0.653507  0.001400  0.999287  1
  Sn  Sn15  1  0.000839  0.347041  0.000261  1
  Sn  Sn16  1  0.000839  0.653799  0.000261  1
  Sn  Sn17  1  0.653507  0.652106  0.999287  1
  Sn  Sn18  1  0.347149  0.347233  0.000415  1
  Sn  Sn19  1  0.332100  0.666051  0.824351  1
  Sn  Sn20  1  0.666958  0.333479  0.175676  1
  Sn  Sn21  1  0.999703  0.999852  0.500772  1
  Sn  Sn22  1  0.779475  0.221193  0.461172  1
  Sn  Sn23  1  0.220097  0.778700  0.538688  1
  Sn  Sn24  1  0.779475  0.558282  0.461172  1
  Sn  Sn25  1  0.220097  0.441397  0.538688  1
  Sn  Sn26  1  0.440499  0.220250  0.461057  1
  Sn  Sn27  1  0.558095  0.779048  0.539603  1
  Sn  Sn28  1  0.334267  0.667134  0.143477  1
  Sn  Sn29  1  0.667198  0.333599  0.856944  1
  Sn  Sn30  1  0.120496  0.880281  0.274724  1
  Sn  Sn31  1  0.879607  0.120695  0.724724  1
  Sn  Sn32  1  0.120496  0.240218  0.274724  1
  Sn  Sn33  1  0.879607  0.758910  0.724724  1
  Sn  Sn34  1  0.757909  0.878955  0.272583  1
  Sn  Sn35  1  0.241005  0.120502  0.728064  1
