# generated using pymatgen
data_Cs16Hf3MnSe16
_symmetry_space_group_name_H-M   'P 1'
_cell_length_a   9.02944042
_cell_length_b   10.73414200
_cell_length_c   15.83350700
_cell_angle_alpha   90.00000000
_cell_angle_beta   90.11256185
_cell_angle_gamma   90.00000000
_symmetry_Int_Tables_number   1
_chemical_formula_structural   Cs16Hf3MnSe16
_chemical_formula_sum   'Cs16 Hf3 Mn1 Se16'
_cell_volume   1534.63271943
_cell_formula_units_Z   1
loop_
 _symmetry_equiv_pos_site_id
 _symmetry_equiv_pos_as_xyz
  1  'x, y, z'
loop_
 _atom_site_type_symbol
 _atom_site_label
 _atom_site_symmetry_multiplicity
 _atom_site_fract_x
 _atom_site_fract_y
 _atom_site_fract_z
 _atom_site_occupancy
  Cs  Cs0  1  0.002292  0.003875  0.997816  1
  Cs  Cs1  1  0.499904  0.995853  0.499465  1
  Cs  Cs2  1  0.002292  0.496125  0.997816  1
  Cs  Cs3  1  0.499904  0.504147  0.499465  1
  Cs  Cs4  1  0.993504  0.750000  0.423918  1
  Cs  Cs5  1  0.487964  0.250000  0.072509  1
  Cs  Cs6  1  0.009287  0.250000  0.579028  1
  Cs  Cs7  1  0.502104  0.750000  0.919946  1
  Cs  Cs8  1  0.833132  0.055956  0.280965  1
  Cs  Cs9  1  0.332515  0.943753  0.218653  1
  Cs  Cs10  1  0.165830  0.550482  0.721166  1
  Cs  Cs11  1  0.667974  0.439478  0.782713  1
  Cs  Cs12  1  0.165830  0.949518  0.721166  1
  Cs  Cs13  1  0.667974  0.060522  0.782713  1
  Cs  Cs14  1  0.833132  0.444044  0.280965  1
  Cs  Cs15  1  0.332515  0.556247  0.218653  1
  Hf  Hf16  1  0.761653  0.750000  0.666593  1
  Hf  Hf17  1  0.238932  0.250000  0.334253  1
  Hf  Hf18  1  0.737171  0.750000  0.164267  1
  Mn  Mn19  1  0.265478  0.250000  0.837793  1
  Se  Se20  1  0.004730  0.250000  0.828400  1
  Se  Se21  1  0.517847  0.250000  0.326795  1
  Se  Se22  1  0.482567  0.750000  0.674400  1
  Se  Se23  1  0.016163  0.750000  0.173525  1
  Se  Se24  1  0.651925  0.558260  0.087453  1
  Se  Se25  1  0.153564  0.441082  0.411133  1
  Se  Se26  1  0.342450  0.065760  0.902811  1
  Se  Se27  1  0.845525  0.942277  0.589981  1
  Se  Se28  1  0.342450  0.434240  0.902811  1
  Se  Se29  1  0.845525  0.557723  0.589981  1
  Se  Se30  1  0.651925  0.941740  0.087453  1
  Se  Se31  1  0.153564  0.058918  0.411133  1
  Se  Se32  1  0.628988  0.750000  0.312722  1
  Se  Se33  1  0.129591  0.250000  0.186068  1
  Se  Se34  1  0.364791  0.250000  0.700617  1
  Se  Se35  1  0.869002  0.750000  0.814860  1
