# generated using pymatgen
data_Dy8Er2Ga3NiBi2
_symmetry_space_group_name_H-M   'P 1'
_cell_length_a   8.53657808
_cell_length_b   8.53657849
_cell_length_c   8.72173035
_cell_angle_alpha   124.28269361
_cell_angle_beta   124.28269646
_cell_angle_gamma   81.31587012
_symmetry_Int_Tables_number   1
_chemical_formula_structural   Dy8Er2Ga3NiBi2
_chemical_formula_sum   'Dy8 Er2 Ga3 Ni1 Bi2'
_cell_volume   420.85412294
_cell_formula_units_Z   1
loop_
 _symmetry_equiv_pos_site_id
 _symmetry_equiv_pos_as_xyz
  1  'x, y, z'
loop_
 _atom_site_type_symbol
 _atom_site_label
 _atom_site_symmetry_multiplicity
 _atom_site_fract_x
 _atom_site_fract_y
 _atom_site_fract_z
 _atom_site_occupancy
  Dy  Dy0  1  0.780879  0.297103  0.796410  1
  Dy  Dy1  1  0.202897  0.719121  0.203590  1
  Dy  Dy2  1  0.484468  0.000691  0.203590  1
  Dy  Dy3  1  0.304353  0.459103  0.500000  1
  Dy  Dy4  1  0.040897  0.195647  0.500000  1
  Dy  Dy5  1  0.499309  0.015532  0.796410  1
  Dy  Dy6  1  0.704043  0.516639  0.500000  1
  Dy  Dy7  1  0.983361  0.795957  0.500000  1
  Er  Er8  1  0.994109  0.997138  0.991247  1
  Er  Er9  1  0.502862  0.505891  0.008753  1
  Ga  Ga10  1  0.145092  0.644546  0.789638  1
  Ga  Ga11  1  0.855454  0.354908  0.210362  1
  Ga  Ga12  1  0.633124  0.866876  0.500000  1
  Ni  Ni13  1  0.380122  0.119878  0.500000  1
  Bi  Bi14  1  0.244515  0.255485  0.000000  1
  Bi  Bi15  1  0.744515  0.755485  0.000000  1
