# generated using pymatgen
data_Zr3Sc5V12Si15As
_symmetry_space_group_name_H-M   'P 1'
_cell_length_a   6.63756922
_cell_length_b   6.64007460
_cell_length_c   12.29021072
_cell_angle_alpha   89.92502339
_cell_angle_beta   90.00720037
_cell_angle_gamma   90.03149848
_symmetry_Int_Tables_number   1
_chemical_formula_structural   Zr3Sc5V12Si15As
_chemical_formula_sum   'Zr3 Sc5 V12 Si15 As1'
_cell_volume   541.67764206
_cell_formula_units_Z   1
loop_
 _symmetry_equiv_pos_site_id
 _symmetry_equiv_pos_as_xyz
  1  'x, y, z'
loop_
 _atom_site_type_symbol
 _atom_site_label
 _atom_site_symmetry_multiplicity
 _atom_site_fract_x
 _atom_site_fract_y
 _atom_site_fract_z
 _atom_site_occupancy
  Zr  Zr0  1  0.003288  0.659962  0.029478  1
  Zr  Zr1  1  0.838588  0.503638  0.281057  1
  Zr  Zr2  1  0.159292  0.495614  0.779358  1
  Sc  Sc3  1  0.501229  0.838147  0.719688  1
  Sc  Sc4  1  0.500749  0.164332  0.222389  1
  Sc  Sc5  1  0.998473  0.337878  0.529451  1
  Sc  Sc6  1  0.662400  0.000641  0.969711  1
  Sc  Sc7  1  0.338226  0.998552  0.470412  1
  V  V8  1  0.331198  0.336983  0.999793  1
  V  V9  1  0.165094  0.831191  0.250965  1
  V  V10  1  0.834325  0.168517  0.749659  1
  V  V11  1  0.667251  0.667252  0.500176  1
  V  V12  1  0.001811  0.160518  0.126831  1
  V  V13  1  0.341873  0.506404  0.376020  1
  V  V14  1  0.660822  0.493011  0.875491  1
  V  V15  1  0.506057  0.342961  0.624026  1
  V  V16  1  0.494218  0.657487  0.122959  1
  V  V17  1  0.994070  0.842276  0.626814  1
  V  V18  1  0.157913  0.003815  0.873262  1
  V  V19  1  0.841890  0.993416  0.373435  1
  Si  Si20  1  0.537604  0.794928  0.315467  1
  Si  Si21  1  0.462262  0.205239  0.814112  1
  Si  Si22  1  0.791571  0.540712  0.683637  1
  Si  Si23  1  0.209927  0.457993  0.186483  1
  Si  Si24  1  0.706764  0.038704  0.564517  1
  Si  Si25  1  0.957752  0.288711  0.935259  1
  Si  Si26  1  0.040328  0.708343  0.437341  1
  Si  Si27  1  0.702274  0.370085  0.070474  1
  Si  Si28  1  0.129300  0.202841  0.321044  1
  Si  Si29  1  0.869007  0.797092  0.819771  1
  Si  Si30  1  0.204543  0.127205  0.678636  1
  Si  Si31  1  0.793823  0.873182  0.180080  1
  Si  Si32  1  0.297217  0.630088  0.570394  1
  Si  Si33  1  0.376217  0.699969  0.924961  1
  Si  Si34  1  0.627871  0.295371  0.430614  1
  As  As35  1  0.294774  0.966941  0.066235  1
