# generated using pymatgen
data_ErTm13Rh6
_symmetry_space_group_name_H-M   'P 1'
_cell_length_a   9.68157400
_cell_length_b   9.68157311
_cell_length_c   6.09565300
_cell_angle_alpha   90.00000000
_cell_angle_beta   90.00000000
_cell_angle_gamma   120.00000306
_symmetry_Int_Tables_number   1
_chemical_formula_structural   ErTm13Rh6
_chemical_formula_sum   'Er1 Tm13 Rh6'
_cell_volume   494.81488234
_cell_formula_units_Z   1
loop_
 _symmetry_equiv_pos_site_id
 _symmetry_equiv_pos_as_xyz
  1  'x, y, z'
loop_
 _atom_site_type_symbol
 _atom_site_label
 _atom_site_symmetry_multiplicity
 _atom_site_fract_x
 _atom_site_fract_y
 _atom_site_fract_z
 _atom_site_occupancy
  Er  Er0  1  0.333333  0.666667  0.787877  1
  Tm  Tm1  1  0.752589  0.876295  0.994635  1
  Tm  Tm2  1  0.876217  0.123783  0.494615  1
  Tm  Tm3  1  0.541362  0.458638  0.795801  1
  Tm  Tm4  1  0.082521  0.541260  0.295846  1
  Tm  Tm5  1  0.458740  0.917479  0.295846  1
  Tm  Tm6  1  0.541362  0.082724  0.795801  1
  Tm  Tm7  1  0.917276  0.458638  0.795801  1
  Tm  Tm8  1  0.458740  0.541260  0.295846  1
  Tm  Tm9  1  0.123705  0.247411  0.994635  1
  Tm  Tm10  1  0.876217  0.752434  0.494615  1
  Tm  Tm11  1  0.247566  0.123783  0.494615  1
  Tm  Tm12  1  0.123705  0.876295  0.994635  1
  Tm  Tm13  1  0.666667  0.333333  0.287328  1
  Rh  Rh14  1  0.189475  0.810525  0.560889  1
  Rh  Rh15  1  0.379220  0.189610  0.061146  1
  Rh  Rh16  1  0.810390  0.620780  0.061146  1
  Rh  Rh17  1  0.189475  0.378951  0.560889  1
  Rh  Rh18  1  0.621049  0.810525  0.560889  1
  Rh  Rh19  1  0.810390  0.189610  0.061146  1
