# generated using pymatgen
data_TaBe4Nb3Au2
_symmetry_space_group_name_H-M   'P 1'
_cell_length_a   6.10093200
_cell_length_b   6.10093200
_cell_length_c   3.74655900
_cell_angle_alpha   90.00000000
_cell_angle_beta   90.00000000
_cell_angle_gamma   90.00354992
_symmetry_Int_Tables_number   1
_chemical_formula_structural   TaBe4Nb3Au2
_chemical_formula_sum   'Ta1 Be4 Nb3 Au2'
_cell_volume   139.45206338
_cell_formula_units_Z   1
loop_
 _symmetry_equiv_pos_site_id
 _symmetry_equiv_pos_as_xyz
  1  'x, y, z'
loop_
 _atom_site_type_symbol
 _atom_site_label
 _atom_site_symmetry_multiplicity
 _atom_site_fract_x
 _atom_site_fract_y
 _atom_site_fract_z
 _atom_site_occupancy
  Ta  Ta0  1  0.835298  0.664702  0.500000  1
  Be  Be1  1  0.126940  0.626429  0.000000  1
  Be  Be2  1  0.873571  0.373060  0.000000  1
  Be  Be3  1  0.626549  0.873451  0.000000  1
  Be  Be4  1  0.372640  0.127360  0.000000  1
  Nb  Nb5  1  0.665304  0.164351  0.500000  1
  Nb  Nb6  1  0.335649  0.834696  0.500000  1
  Nb  Nb7  1  0.163479  0.336521  0.500000  1
  Au  Au8  1  0.501403  0.500832  0.000000  1
  Au  Au9  1  0.999168  0.998597  0.000000  1
