# generated using pymatgen
data_Dy7Tc2Sn23Rh4
_symmetry_space_group_name_H-M   'P 1'
_cell_length_a   9.87699845
_cell_length_b   9.87699918
_cell_length_c   10.09267710
_cell_angle_alpha   89.88201512
_cell_angle_beta   90.11798187
_cell_angle_gamma   119.72633255
_symmetry_Int_Tables_number   1
_chemical_formula_structural   Dy7Tc2Sn23Rh4
_chemical_formula_sum   'Dy7 Tc2 Sn23 Rh4'
_cell_volume   855.02108291
_cell_formula_units_Z   1
loop_
 _symmetry_equiv_pos_site_id
 _symmetry_equiv_pos_as_xyz
  1  'x, y, z'
loop_
 _atom_site_type_symbol
 _atom_site_label
 _atom_site_symmetry_multiplicity
 _atom_site_fract_x
 _atom_site_fract_y
 _atom_site_fract_z
 _atom_site_occupancy
  Dy  Dy0  1  0.000000  0.000000  0.000000  1
  Dy  Dy1  1  0.482242  0.517758  0.307447  1
  Dy  Dy2  1  0.517758  0.482242  0.692553  1
  Dy  Dy3  1  0.483514  0.962838  0.305953  1
  Dy  Dy4  1  0.516486  0.037162  0.694047  1
  Dy  Dy5  1  0.037162  0.516486  0.305953  1
  Dy  Dy6  1  0.962838  0.483514  0.694047  1
  Tc  Tc7  1  0.833768  0.166232  0.203995  1
  Tc  Tc8  1  0.166232  0.833768  0.796005  1
  Sn  Sn9  1  0.347553  0.996346  0.999683  1
  Sn  Sn10  1  0.652447  0.003654  0.000317  1
  Sn  Sn11  1  0.996346  0.347553  0.000317  1
  Sn  Sn12  1  0.003654  0.652447  0.999683  1
  Sn  Sn13  1  0.647943  0.647943  0.000000  1
  Sn  Sn14  1  0.352057  0.352057  0.000000  1
  Sn  Sn15  1  0.330952  0.669048  0.819010  1
  Sn  Sn16  1  0.669048  0.330952  0.180990  1
  Sn  Sn17  1  0.000000  0.000000  0.500000  1
  Sn  Sn18  1  0.779831  0.220169  0.460109  1
  Sn  Sn19  1  0.220169  0.779831  0.539891  1
  Sn  Sn20  1  0.779310  0.557884  0.458500  1
  Sn  Sn21  1  0.220690  0.442116  0.541500  1
  Sn  Sn22  1  0.442116  0.220690  0.458500  1
  Sn  Sn23  1  0.557884  0.779310  0.541500  1
  Sn  Sn24  1  0.333636  0.666364  0.123127  1
  Sn  Sn25  1  0.666364  0.333636  0.876873  1
  Sn  Sn26  1  0.118574  0.881426  0.278524  1
  Sn  Sn27  1  0.881426  0.118574  0.721476  1
  Sn  Sn28  1  0.123698  0.240332  0.273942  1
  Sn  Sn29  1  0.876302  0.759668  0.726058  1
  Sn  Sn30  1  0.759668  0.876302  0.273942  1
  Sn  Sn31  1  0.240332  0.123698  0.726058  1
  Rh  Rh32  1  0.830401  0.658863  0.199439  1
  Rh  Rh33  1  0.169599  0.341137  0.800561  1
  Rh  Rh34  1  0.341137  0.169599  0.199439  1
  Rh  Rh35  1  0.658863  0.830401  0.800561  1
