# generated using pymatgen
data_NdDy(PN3)2
_symmetry_space_group_name_H-M   'P 1'
_cell_length_a   7.27176469
_cell_length_b   7.27176488
_cell_length_c   4.85353381
_cell_angle_alpha   88.82784423
_cell_angle_beta   88.82784063
_cell_angle_gamma   102.34589597
_symmetry_Int_Tables_number   1
_chemical_formula_structural   NdDy(PN3)2
_chemical_formula_sum   'Nd2 Dy2 P4 N12'
_cell_volume   250.57932766
_cell_formula_units_Z   2
loop_
 _symmetry_equiv_pos_site_id
 _symmetry_equiv_pos_as_xyz
  1  'x, y, z'
loop_
 _atom_site_type_symbol
 _atom_site_label
 _atom_site_symmetry_multiplicity
 _atom_site_fract_x
 _atom_site_fract_y
 _atom_site_fract_z
 _atom_site_occupancy
  Nd  Nd0  1  0.098073  0.901927  0.250000  1
  Nd  Nd1  1  0.901927  0.098073  0.750000  1
  Dy  Dy2  1  0.295924  0.704076  0.750000  1
  Dy  Dy3  1  0.704076  0.295924  0.250000  1
  P  P4  1  0.376338  0.229841  0.807910  1
  P  P5  1  0.623662  0.770159  0.192090  1
  P  P6  1  0.770159  0.623662  0.692090  1
  P  P7  1  0.229841  0.376338  0.307910  1
  N  N8  1  0.974330  0.752864  0.740777  1
  N  N9  1  0.766877  0.396024  0.779895  1
  N  N10  1  0.752864  0.974330  0.240777  1
  N  N11  1  0.233123  0.603976  0.220105  1
  N  N12  1  0.025670  0.247136  0.259223  1
  N  N13  1  0.247136  0.025670  0.759223  1
  N  N14  1  0.603976  0.233123  0.720105  1
  N  N15  1  0.610236  0.712207  0.862896  1
  N  N16  1  0.389764  0.287793  0.137104  1
  N  N17  1  0.396024  0.766877  0.279895  1
  N  N18  1  0.712207  0.610236  0.362896  1
  N  N19  1  0.287793  0.389764  0.637104  1
