# generated using pymatgen
data_Dy8MgSc10Si16Ag
_symmetry_space_group_name_H-M   'P 1'
_cell_length_a   7.00309802
_cell_length_b   7.41261565
_cell_length_c   14.01699600
_cell_angle_alpha   90.00000000
_cell_angle_beta   90.00000000
_cell_angle_gamma   89.85140275
_symmetry_Int_Tables_number   1
_chemical_formula_structural   Dy8MgSc10Si16Ag
_chemical_formula_sum   'Dy8 Mg1 Sc10 Si16 Ag1'
_cell_volume   727.63767186
_cell_formula_units_Z   1
loop_
 _symmetry_equiv_pos_site_id
 _symmetry_equiv_pos_as_xyz
  1  'x, y, z'
loop_
 _atom_site_type_symbol
 _atom_site_label
 _atom_site_symmetry_multiplicity
 _atom_site_fract_x
 _atom_site_fract_y
 _atom_site_fract_z
 _atom_site_occupancy
  Dy  Dy0  1  0.010192  0.178166  0.096927  1
  Dy  Dy1  1  0.990403  0.816075  0.901277  1
  Dy  Dy2  1  0.484946  0.673471  0.901959  1
  Dy  Dy3  1  0.990403  0.816075  0.598723  1
  Dy  Dy4  1  0.512798  0.325080  0.096293  1
  Dy  Dy5  1  0.010192  0.178166  0.403073  1
  Dy  Dy6  1  0.512798  0.325080  0.403707  1
  Dy  Dy7  1  0.484946  0.673471  0.598041  1
  Mg  Mg8  1  0.840895  0.494497  0.250000  1
  Sc  Sc9  1  0.341122  0.002832  0.250000  1
  Sc  Sc10  1  0.657787  0.998261  0.750000  1
  Sc  Sc11  1  0.325244  0.183048  0.626277  1
  Sc  Sc12  1  0.672574  0.820181  0.375304  1
  Sc  Sc13  1  0.167884  0.677764  0.374238  1
  Sc  Sc14  1  0.672574  0.820181  0.124696  1
  Sc  Sc15  1  0.835729  0.325239  0.626584  1
  Sc  Sc16  1  0.325244  0.183048  0.873723  1
  Sc  Sc17  1  0.835729  0.325239  0.873416  1
  Sc  Sc18  1  0.167884  0.677764  0.125762  1
  Si  Si19  1  0.028436  0.098647  0.750000  1
  Si  Si20  1  0.969934  0.897849  0.250000  1
  Si  Si21  1  0.462290  0.617745  0.250000  1
  Si  Si22  1  0.537405  0.384602  0.750000  1
  Si  Si23  1  0.288900  0.883775  0.750000  1
  Si  Si24  1  0.710222  0.118024  0.250000  1
  Si  Si25  1  0.222549  0.372110  0.250000  1
  Si  Si26  1  0.777816  0.627886  0.750000  1
  Si  Si27  1  0.161190  0.459600  0.530954  1
  Si  Si28  1  0.840861  0.538096  0.466464  1
  Si  Si29  1  0.343635  0.966726  0.461793  1
  Si  Si30  1  0.840861  0.538096  0.033536  1
  Si  Si31  1  0.657456  0.032867  0.539736  1
  Si  Si32  1  0.161190  0.459600  0.969046  1
  Si  Si33  1  0.657456  0.032867  0.960264  1
  Si  Si34  1  0.343635  0.966726  0.038207  1
  Ag  Ag35  1  0.156817  0.511144  0.750000  1
