# generated using pymatgen
data_Ce4Zn(FeB3)2
_symmetry_space_group_name_H-M   'P 1'
_cell_length_a   5.26739347
_cell_length_b   5.26739310
_cell_length_c   7.97989174
_cell_angle_alpha   70.72869918
_cell_angle_beta   70.72870095
_cell_angle_gamma   60.00000077
_symmetry_Int_Tables_number   1
_chemical_formula_structural   Ce4Zn(FeB3)2
_chemical_formula_sum   'Ce4 Zn1 Fe2 B6'
_cell_volume   177.27279141
_cell_formula_units_Z   1
loop_
 _symmetry_equiv_pos_site_id
 _symmetry_equiv_pos_as_xyz
  1  'x, y, z'
loop_
 _atom_site_type_symbol
 _atom_site_label
 _atom_site_symmetry_multiplicity
 _atom_site_fract_x
 _atom_site_fract_y
 _atom_site_fract_z
 _atom_site_occupancy
  Ce  Ce0  1  0.259828  0.259828  0.220516  1
  Ce  Ce1  1  0.740172  0.740172  0.779484  1
  Ce  Ce2  1  0.406621  0.406621  0.780139  1
  Ce  Ce3  1  0.593379  0.593379  0.219862  1
  Zn  Zn4  1  0.000000  0.000000  0.000000  1
  Fe  Fe5  1  0.114492  0.114492  0.656524  1
  Fe  Fe6  1  0.885508  0.885508  0.343476  1
  B  B7  1  0.168609  0.831391  0.500000  1
  B  B8  1  0.831391  0.500000  0.500000  1
  B  B9  1  0.500000  0.168609  0.500000  1
  B  B10  1  0.168609  0.500000  0.500000  1
  B  B11  1  0.500000  0.831391  0.500000  1
  B  B12  1  0.831391  0.168609  0.500000  1
