# generated using pymatgen
data_Ti8Al14SiRh7
_symmetry_space_group_name_H-M   'P 1'
_cell_length_a   8.62586031
_cell_length_b   8.62586047
_cell_length_c   8.62585996
_cell_angle_alpha   120.04968252
_cell_angle_beta   119.84870031
_cell_angle_gamma   90.08811528
_symmetry_Int_Tables_number   1
_chemical_formula_structural   Ti8Al14SiRh7
_chemical_formula_sum   'Ti8 Al14 Si1 Rh7'
_cell_volume   454.17520741
_cell_formula_units_Z   1
loop_
 _symmetry_equiv_pos_site_id
 _symmetry_equiv_pos_as_xyz
  1  'x, y, z'
loop_
 _atom_site_type_symbol
 _atom_site_label
 _atom_site_symmetry_multiplicity
 _atom_site_fract_x
 _atom_site_fract_y
 _atom_site_fract_z
 _atom_site_occupancy
  Ti  Ti0  1  0.796994  0.296106  0.086254  1
  Ti  Ti1  1  0.209853  0.296106  0.499112  1
  Ti  Ti2  1  0.202855  0.702855  0.500000  1
  Ti  Ti3  1  0.209853  0.710741  0.913746  1
  Ti  Ti4  1  0.796994  0.710741  0.500888  1
  Ti  Ti5  1  0.790344  0.290344  0.500000  1
  Ti  Ti6  1  0.379428  0.122650  0.743222  1
  Ti  Ti7  1  0.379428  0.636206  0.256778  1
  Al  Al8  1  0.156438  0.340741  0.184302  1
  Al  Al9  1  0.156438  0.972136  0.815698  1
  Al  Al10  1  0.152637  0.343753  0.808884  1
  Al  Al11  1  0.534869  0.343753  0.191116  1
  Al  Al12  1  0.842830  0.655675  0.812846  1
  Al  Al13  1  0.842830  0.029984  0.187154  1
  Al  Al14  1  0.840854  0.657506  0.183348  1
  Al  Al15  1  0.474157  0.657506  0.816652  1
  Al  Al16  1  0.379813  0.120615  0.259198  1
  Al  Al17  1  0.861418  0.120615  0.740802  1
  Al  Al18  1  0.620787  0.878605  0.257818  1
  Al  Al19  1  0.620787  0.362969  0.742182  1
  Al  Al20  1  0.620857  0.878731  0.742126  1
  Al  Al21  1  0.136604  0.878731  0.257874  1
  Si  Si22  1  0.997161  0.497161  0.500000  1
  Rh  Rh23  1  0.001667  0.000115  0.501873  1
  Rh  Rh24  1  0.498242  0.000115  0.998448  1
  Rh  Rh25  1  0.497439  0.497439  0.000000  1
  Rh  Rh26  1  0.498242  0.499794  0.498127  1
  Rh  Rh27  1  0.001667  0.499794  0.001552  1
  Rh  Rh28  1  0.999637  0.999637  0.000000  1
  Rh  Rh29  1  0.498874  0.998874  0.500000  1
