# generated using pymatgen
data_Tb2ErLuIn4
_symmetry_space_group_name_H-M   'P 1'
_cell_length_a   6.51751329
_cell_length_b   6.51751275
_cell_length_c   9.98393200
_cell_angle_alpha   90.00000000
_cell_angle_beta   90.00000000
_cell_angle_gamma   98.62898012
_symmetry_Int_Tables_number   1
_chemical_formula_structural   Tb2ErLuIn4
_chemical_formula_sum   'Tb4 Er2 Lu2 In8'
_cell_volume   419.29670584
_cell_formula_units_Z   2
loop_
 _symmetry_equiv_pos_site_id
 _symmetry_equiv_pos_as_xyz
  1  'x, y, z'
loop_
 _atom_site_type_symbol
 _atom_site_label
 _atom_site_symmetry_multiplicity
 _atom_site_fract_x
 _atom_site_fract_y
 _atom_site_fract_z
 _atom_site_occupancy
  Tb  Tb0  1  0.245372  0.754628  0.500000  1
  Tb  Tb1  1  0.245372  0.754628  0.000000  1
  Tb  Tb2  1  0.754628  0.245372  0.500000  1
  Tb  Tb3  1  0.754628  0.245372  0.000000  1
  Er  Er4  1  0.534943  0.534943  0.250000  1
  Er  Er5  1  0.465057  0.465057  0.750000  1
  Lu  Lu6  1  0.977940  0.977940  0.250000  1
  Lu  Lu7  1  0.022060  0.022060  0.750000  1
  In  In8  1  0.252023  0.252023  0.021924  1
  In  In9  1  0.747977  0.747977  0.978076  1
  In  In10  1  0.252023  0.252023  0.478076  1
  In  In11  1  0.747977  0.747977  0.521924  1
  In  In12  1  0.483570  0.023716  0.250000  1
  In  In13  1  0.976284  0.516430  0.750000  1
  In  In14  1  0.516430  0.976284  0.750000  1
  In  In15  1  0.023716  0.483570  0.250000  1
