# generated using pymatgen
data_Ho2Ni2B6Ir
_symmetry_space_group_name_H-M   'P 1'
_cell_length_a   5.88072122
_cell_length_b   5.88072148
_cell_length_c   3.48745000
_cell_angle_alpha   90.00000000
_cell_angle_beta   90.00000000
_cell_angle_gamma   94.74597859
_symmetry_Int_Tables_number   1
_chemical_formula_structural   Ho2Ni2B6Ir
_chemical_formula_sum   'Ho2 Ni2 B6 Ir1'
_cell_volume   120.19255671
_cell_formula_units_Z   1
loop_
 _symmetry_equiv_pos_site_id
 _symmetry_equiv_pos_as_xyz
  1  'x, y, z'
loop_
 _atom_site_type_symbol
 _atom_site_label
 _atom_site_symmetry_multiplicity
 _atom_site_fract_x
 _atom_site_fract_y
 _atom_site_fract_z
 _atom_site_occupancy
  Ho  Ho0  1  0.273920  0.726080  0.000000  1
  Ho  Ho1  1  0.726080  0.273920  0.000000  1
  Ni  Ni2  1  0.237130  0.237130  0.000000  1
  Ni  Ni3  1  0.762870  0.762870  0.000000  1
  B  B4  1  0.387375  0.088058  0.500000  1
  B  B5  1  0.612625  0.911942  0.500000  1
  B  B6  1  0.088058  0.387375  0.500000  1
  B  B7  1  0.911942  0.612625  0.500000  1
  B  B8  1  0.390592  0.390592  0.500000  1
  B  B9  1  0.609408  0.609408  0.500000  1
  Ir  Ir10  1  0.000000  0.000000  0.500000  1
