# generated using pymatgen
data_La3TaMoC6
_symmetry_space_group_name_H-M   'P 1'
_cell_length_a   8.54937400
_cell_length_b   8.54937344
_cell_length_c   5.37195900
_cell_angle_alpha   90.00000000
_cell_angle_beta   90.00000000
_cell_angle_gamma   119.99999443
_symmetry_Int_Tables_number   1
_chemical_formula_structural   La3TaMoC6
_chemical_formula_sum   'La6 Ta2 Mo2 C12'
_cell_volume   340.04152024
_cell_formula_units_Z   2
loop_
 _symmetry_equiv_pos_site_id
 _symmetry_equiv_pos_as_xyz
  1  'x, y, z'
loop_
 _atom_site_type_symbol
 _atom_site_label
 _atom_site_symmetry_multiplicity
 _atom_site_fract_x
 _atom_site_fract_y
 _atom_site_fract_z
 _atom_site_occupancy
  La  La0  1  0.609968  0.687208  0.750000  1
  La  La1  1  0.922760  0.609968  0.250000  1
  La  La2  1  0.687208  0.077240  0.250000  1
  La  La3  1  0.312792  0.922760  0.750000  1
  La  La4  1  0.077240  0.390032  0.750000  1
  La  La5  1  0.390032  0.312792  0.250000  1
  Ta  Ta6  1  0.000000  0.000000  0.500000  1
  Ta  Ta7  1  0.000000  0.000000  0.000000  1
  Mo  Mo8  1  0.666667  0.333333  0.750000  1
  Mo  Mo9  1  0.333333  0.666667  0.250000  1
  C  C10  1  0.955845  0.769749  0.750000  1
  C  C11  1  0.186095  0.955845  0.250000  1
  C  C12  1  0.769749  0.813905  0.250000  1
  C  C13  1  0.230251  0.186095  0.750000  1
  C  C14  1  0.813905  0.044155  0.750000  1
  C  C15  1  0.044155  0.230251  0.250000  1
  C  C16  1  0.863153  0.584786  0.750000  1
  C  C17  1  0.278366  0.863153  0.250000  1
  C  C18  1  0.584786  0.721634  0.250000  1
  C  C19  1  0.415214  0.278366  0.750000  1
  C  C20  1  0.136847  0.415214  0.250000  1
  C  C21  1  0.721634  0.136847  0.750000  1
