# generated using pymatgen
data_Y2Hf3Zr2PtF30
_symmetry_space_group_name_H-M   'P 1'
_cell_length_a   8.15673026
_cell_length_b   8.15672996
_cell_length_c   8.13980082
_cell_angle_alpha   79.70708088
_cell_angle_beta   79.70707626
_cell_angle_gamma   99.97815799
_symmetry_Int_Tables_number   1
_chemical_formula_structural   Y2Hf3Zr2PtF30
_chemical_formula_sum   'Y2 Hf3 Zr2 Pt1 F30'
_cell_volume   512.35593973
_cell_formula_units_Z   1
loop_
 _symmetry_equiv_pos_site_id
 _symmetry_equiv_pos_as_xyz
  1  'x, y, z'
loop_
 _atom_site_type_symbol
 _atom_site_label
 _atom_site_symmetry_multiplicity
 _atom_site_fract_x
 _atom_site_fract_y
 _atom_site_fract_z
 _atom_site_occupancy
  Y  Y0  1  0.176895  0.823105  0.250000  1
  Y  Y1  1  0.821838  0.178162  0.750000  1
  Hf  Hf2  1  0.247942  0.752058  0.750000  1
  Hf  Hf3  1  0.745049  0.677639  0.673925  1
  Hf  Hf4  1  0.322361  0.254951  0.826075  1
  Zr  Zr5  1  0.254249  0.322473  0.327168  1
  Zr  Zr6  1  0.677527  0.745751  0.172832  1
  Pt  Pt7  1  0.750104  0.249896  0.250000  1
  F  F8  1  0.314513  0.349580  0.053620  1
  F  F9  1  0.935183  0.811004  0.150129  1
  F  F10  1  0.839886  0.462384  0.685648  1
  F  F11  1  0.461379  0.842062  0.183529  1
  F  F12  1  0.810335  0.932140  0.655234  1
  F  F13  1  0.349293  0.316282  0.556928  1
  F  F14  1  0.683718  0.650707  0.943071  1
  F  F15  1  0.067860  0.189665  0.844766  1
  F  F16  1  0.157938  0.538621  0.316471  1
  F  F17  1  0.537616  0.160114  0.814352  1
  F  F18  1  0.188996  0.064817  0.349871  1
  F  F19  1  0.650420  0.685487  0.446380  1
  F  F20  1  0.775470  0.287384  0.000266  1
  F  F21  1  0.000282  0.274302  0.209729  1
  F  F22  1  0.787651  0.501933  0.222085  1
  F  F23  1  0.504514  0.774362  0.722222  1
  F  F24  1  0.276345  0.005450  0.721049  1
  F  F25  1  0.279885  0.772889  0.498315  1
  F  F26  1  0.227111  0.720115  0.001685  1
  F  F27  1  0.994550  0.723655  0.778951  1
  F  F28  1  0.225638  0.495486  0.777778  1
  F  F29  1  0.498067  0.212349  0.277915  1
  F  F30  1  0.725698  0.999718  0.290271  1
  F  F31  1  0.712616  0.224530  0.499734  1
  F  F32  1  0.472015  0.527985  0.250000  1
  F  F33  1  0.747246  0.956410  0.974033  1
  F  F34  1  0.043590  0.252754  0.525967  1
  F  F35  1  0.253629  0.048786  0.026712  1
  F  F36  1  0.951214  0.746371  0.473288  1
  F  F37  1  0.531377  0.468623  0.750000  1
