# generated using pymatgen
data_Th4Ga13Pt9
_symmetry_space_group_name_H-M   'P 1'
_cell_length_a   11.58979900
_cell_length_b   11.58911062
_cell_length_c   4.18625500
_cell_angle_alpha   90.00000000
_cell_angle_beta   90.00000000
_cell_angle_gamma   120.00209816
_symmetry_Int_Tables_number   1
_chemical_formula_structural   Th4Ga13Pt9
_chemical_formula_sum   'Th4 Ga13 Pt9'
_cell_volume   486.93740946
_cell_formula_units_Z   1
loop_
 _symmetry_equiv_pos_site_id
 _symmetry_equiv_pos_as_xyz
  1  'x, y, z'
loop_
 _atom_site_type_symbol
 _atom_site_label
 _atom_site_symmetry_multiplicity
 _atom_site_fract_x
 _atom_site_fract_y
 _atom_site_fract_z
 _atom_site_occupancy
  Th  Th0  1  0.205466  0.794518  0.500000  1
  Th  Th1  1  0.589045  0.794519  0.500000  1
  Th  Th2  1  0.205479  0.410973  0.500000  1
  Th  Th3  1  0.666647  0.333313  0.000000  1
  Ga  Ga4  1  0.949600  0.291040  0.000000  1
  Ga  Ga5  1  0.708944  0.658552  0.000000  1
  Ga  Ga6  1  0.949588  0.658540  0.000000  1
  Ga  Ga7  1  0.341436  0.050403  0.000000  1
  Ga  Ga8  1  0.164933  0.082444  0.500000  1
  Ga  Ga9  1  0.917578  0.835069  0.500000  1
  Ga  Ga10  1  0.708945  0.050403  0.000000  1
  Ga  Ga11  1  0.532363  0.064702  0.500000  1
  Ga  Ga12  1  0.917582  0.082499  0.500000  1
  Ga  Ga13  1  0.341415  0.291026  0.000000  1
  Ga  Ga14  1  0.532370  0.467670  0.500000  1
  Ga  Ga15  1  0.935310  0.467662  0.500000  1
  Ga  Ga16  1  0.333322  0.666688  0.000000  1
  Pt  Pt17  1  0.456513  0.543457  0.000000  1
  Pt  Pt18  1  0.834023  0.917010  0.000000  1
  Pt  Pt19  1  0.456523  0.913072  0.000000  1
  Pt  Pt20  1  0.082960  0.165931  0.000000  1
  Pt  Pt21  1  0.082977  0.917019  0.000000  1
  Pt  Pt22  1  0.789511  0.579014  0.500000  1
  Pt  Pt23  1  0.086959  0.543472  0.000000  1
  Pt  Pt24  1  0.789518  0.210503  0.500000  1
  Pt  Pt25  1  0.420993  0.210499  0.500000  1
