# generated using pymatgen
data_Ba6Eu2(TeO6)3
_symmetry_space_group_name_H-M   'P 1'
_cell_length_a   10.52204813
_cell_length_b   10.52204817
_cell_length_c   10.52204861
_cell_angle_alpha   146.58023711
_cell_angle_beta   131.84693805
_cell_angle_gamma   59.88077790
_symmetry_Int_Tables_number   1
_chemical_formula_structural   Ba6Eu2(TeO6)3
_chemical_formula_sum   'Ba6 Eu2 Te3 O18'
_cell_volume   473.63371496
_cell_formula_units_Z   1
loop_
 _symmetry_equiv_pos_site_id
 _symmetry_equiv_pos_as_xyz
  1  'x, y, z'
loop_
 _atom_site_type_symbol
 _atom_site_label
 _atom_site_symmetry_multiplicity
 _atom_site_fract_x
 _atom_site_fract_y
 _atom_site_fract_z
 _atom_site_occupancy
  Ba  Ba0  1  0.777992  0.500000  0.277992  1
  Ba  Ba1  1  0.387088  0.153425  0.233663  1
  Ba  Ba2  1  0.080238  0.846575  0.233663  1
  Ba  Ba3  1  0.222008  0.500000  0.722008  1
  Ba  Ba4  1  0.919762  0.153425  0.766337  1
  Ba  Ba5  1  0.612912  0.846575  0.766337  1
  Eu  Eu6  1  0.666480  0.666480  0.000000  1
  Eu  Eu7  1  0.333520  0.333520  0.000000  1
  Te  Te8  1  0.500000  0.000000  0.500000  1
  Te  Te9  1  0.169632  0.669632  0.500000  1
  Te  Te10  1  0.830368  0.330368  0.500000  1
  O  O11  1  0.723152  0.000000  0.723152  1
  O  O12  1  0.400886  0.669206  0.731679  1
  O  O13  1  0.062474  0.330794  0.731679  1
  O  O14  1  0.577592  0.847182  0.269590  1
  O  O15  1  0.245534  0.516355  0.270821  1
  O  O16  1  0.905285  0.179928  0.274642  1
  O  O17  1  0.422408  0.691998  0.269590  1
  O  O18  1  0.094715  0.369357  0.274642  1
  O  O19  1  0.754466  0.025287  0.270821  1
  O  O20  1  0.276848  0.000000  0.276848  1
  O  O21  1  0.937526  0.669206  0.268321  1
  O  O22  1  0.599114  0.330794  0.268321  1
  O  O23  1  0.422408  0.152818  0.730410  1
  O  O24  1  0.094715  0.820072  0.725358  1
  O  O25  1  0.754466  0.483645  0.729179  1
  O  O26  1  0.577592  0.308002  0.730410  1
  O  O27  1  0.245534  0.974713  0.729179  1
  O  O28  1  0.905285  0.630644  0.725358  1
