# generated using pymatgen
data_Y7(TmPt6)3
_symmetry_space_group_name_H-M   'P 1'
_cell_length_a   9.76046142
_cell_length_b   9.77962142
_cell_length_c   5.77425400
_cell_angle_alpha   90.00000000
_cell_angle_beta   90.00000000
_cell_angle_gamma   90.06172912
_symmetry_Int_Tables_number   1
_chemical_formula_structural   Y7(TmPt6)3
_chemical_formula_sum   'Y7 Tm3 Pt18'
_cell_volume   551.17311292
_cell_formula_units_Z   1
loop_
 _symmetry_equiv_pos_site_id
 _symmetry_equiv_pos_as_xyz
  1  'x, y, z'
loop_
 _atom_site_type_symbol
 _atom_site_label
 _atom_site_symmetry_multiplicity
 _atom_site_fract_x
 _atom_site_fract_y
 _atom_site_fract_z
 _atom_site_occupancy
  Y  Y0  1  0.452750  0.808891  0.000000  1
  Y  Y1  1  0.547241  0.191206  0.000000  1
  Y  Y2  1  0.190949  0.547038  0.000000  1
  Y  Y3  1  0.809111  0.452764  0.000000  1
  Y  Y4  1  0.308527  0.047447  0.500000  1
  Y  Y5  1  0.691070  0.952790  0.500000  1
  Y  Y6  1  0.952791  0.690884  0.500000  1
  Tm  Tm7  1  0.500122  0.499931  0.500000  1
  Tm  Tm8  1  0.047285  0.308682  0.500000  1
  Tm  Tm9  1  0.000056  0.000135  0.000000  1
  Pt  Pt10  1  0.191171  0.808645  0.250749  1
  Pt  Pt11  1  0.809936  0.191677  0.748572  1
  Pt  Pt12  1  0.809936  0.191677  0.251428  1
  Pt  Pt13  1  0.191171  0.808645  0.749251  1
  Pt  Pt14  1  0.440497  0.779652  0.500000  1
  Pt  Pt15  1  0.559486  0.220362  0.500000  1
  Pt  Pt16  1  0.219333  0.558231  0.500000  1
  Pt  Pt17  1  0.781233  0.440096  0.500000  1
  Pt  Pt18  1  0.307395  0.308679  0.250225  1
  Pt  Pt19  1  0.691231  0.691143  0.750684  1
  Pt  Pt20  1  0.691231  0.691143  0.249316  1
  Pt  Pt21  1  0.307395  0.308679  0.749775  1
  Pt  Pt22  1  0.279835  0.059464  0.000000  1
  Pt  Pt23  1  0.720318  0.940721  0.000000  1
  Pt  Pt24  1  0.940631  0.720309  0.000000  1
  Pt  Pt25  1  0.059159  0.279958  0.000000  1
  Pt  Pt26  1  0.000291  0.001237  0.500000  1
  Pt  Pt27  1  0.499848  0.499913  0.000000  1
