# generated using pymatgen
data_Nd2B2Pd2Pt5Au
_symmetry_space_group_name_H-M   'P 1'
_cell_length_a   5.53380200
_cell_length_b   5.53587026
_cell_length_c   7.71917887
_cell_angle_alpha   89.83339044
_cell_angle_beta   90.00000000
_cell_angle_gamma   119.98762990
_symmetry_Int_Tables_number   1
_chemical_formula_structural   Nd2B2Pd2Pt5Au
_chemical_formula_sum   'Nd2 B2 Pd2 Pt5 Au1'
_cell_volume   204.81555138
_cell_formula_units_Z   1
loop_
 _symmetry_equiv_pos_site_id
 _symmetry_equiv_pos_as_xyz
  1  'x, y, z'
loop_
 _atom_site_type_symbol
 _atom_site_label
 _atom_site_symmetry_multiplicity
 _atom_site_fract_x
 _atom_site_fract_y
 _atom_site_fract_z
 _atom_site_occupancy
  Nd  Nd0  1  0.000352  0.000705  0.503540  1
  Nd  Nd1  1  0.999952  0.999903  0.000902  1
  B  B2  1  0.331089  0.662180  0.998730  1
  B  B3  1  0.668488  0.336975  0.999033  1
  Pd  Pd4  1  0.666434  0.332868  0.499256  1
  Pd  Pd5  1  0.499908  0.999816  0.197665  1
  Pt  Pt6  1  0.500711  0.001423  0.807474  1
  Pt  Pt7  1  0.998691  0.498767  0.195095  1
  Pt  Pt8  1  0.999441  0.500139  0.802241  1
  Pt  Pt9  1  0.500075  0.498767  0.195095  1
  Pt  Pt10  1  0.500697  0.500139  0.802241  1
  Au  Au11  1  0.334160  0.668320  0.498728  1
