# generated using pymatgen
data_LaCe5GdO13
_symmetry_space_group_name_H-M   'P 1'
_cell_length_a   3.87567844
_cell_length_b   3.87567862
_cell_length_c   22.50231391
_cell_angle_alpha   94.94027517
_cell_angle_beta   94.94027555
_cell_angle_gamma   60.00001279
_symmetry_Int_Tables_number   1
_chemical_formula_structural   LaCe5GdO13
_chemical_formula_sum   'La1 Ce5 Gd1 O13'
_cell_volume   291.26980746
_cell_formula_units_Z   1
loop_
 _symmetry_equiv_pos_site_id
 _symmetry_equiv_pos_as_xyz
  1  'x, y, z'
loop_
 _atom_site_type_symbol
 _atom_site_label
 _atom_site_symmetry_multiplicity
 _atom_site_fract_x
 _atom_site_fract_y
 _atom_site_fract_z
 _atom_site_occupancy
  La  La0  1  0.715860  0.715860  0.147580  1
  Ce  Ce1  1  0.429262  0.429262  0.287787  1
  Ce  Ce2  1  0.856496  0.856496  0.569488  1
  Ce  Ce3  1  0.142713  0.142713  0.428139  1
  Ce  Ce4  1  0.570421  0.570421  0.711262  1
  Ce  Ce5  1  0.283937  0.283937  0.851809  1
  Gd  Gd6  1  0.997637  0.997637  0.992909  1
  O  O7  1  0.752212  0.752212  0.256637  1
  O  O8  1  0.394640  0.394640  0.183919  1
  O  O9  1  0.029698  0.029698  0.089094  1
  O  O10  1  0.822173  0.822173  0.466516  1
  O  O11  1  0.108612  0.108612  0.325836  1
  O  O12  1  0.465286  0.465286  0.395857  1
  O  O13  1  0.536009  0.536009  0.608028  1
  O  O14  1  0.893010  0.893010  0.679031  1
  O  O15  1  0.179046  0.179046  0.537138  1
  O  O16  1  0.962804  0.962804  0.888413  1
  O  O17  1  0.606515  0.606515  0.819545  1
  O  O18  1  0.249969  0.249969  0.749906  1
  O  O19  1  0.325131  0.325131  0.975393  1
