# generated using pymatgen
data_Hf3Re3SiGeP
_symmetry_space_group_name_H-M   'P 1'
_cell_length_a   6.93877300
_cell_length_b   6.93877352
_cell_length_c   3.42666900
_cell_angle_alpha   90.00000000
_cell_angle_beta   90.00000000
_cell_angle_gamma   120.00000229
_symmetry_Int_Tables_number   1
_chemical_formula_structural   Hf3Re3SiGeP
_chemical_formula_sum   'Hf3 Re3 Si1 Ge1 P1'
_cell_volume   142.87892357
_cell_formula_units_Z   1
loop_
 _symmetry_equiv_pos_site_id
 _symmetry_equiv_pos_as_xyz
  1  'x, y, z'
loop_
 _atom_site_type_symbol
 _atom_site_label
 _atom_site_symmetry_multiplicity
 _atom_site_fract_x
 _atom_site_fract_y
 _atom_site_fract_z
 _atom_site_occupancy
  Hf  Hf0  1  0.407452  0.399077  0.500000  1
  Hf  Hf1  1  0.600923  0.008376  0.500000  1
  Hf  Hf2  1  0.991624  0.592548  0.500000  1
  Re  Re3  1  0.749685  0.743461  0.000000  1
  Re  Re4  1  0.256539  0.006224  0.000000  1
  Re  Re5  1  0.993776  0.250315  0.000000  1
  Si  Si6  1  0.000000  0.000000  0.500000  1
  Ge  Ge7  1  0.333333  0.666667  0.000000  1
  P  P8  1  0.666667  0.333333  0.000000  1
