# generated using pymatgen
data_Sr2Co9P7W3
_symmetry_space_group_name_H-M   'P 1'
_cell_length_a   9.21647300
_cell_length_b   9.21647383
_cell_length_c   3.76011500
_cell_angle_alpha   90.00000000
_cell_angle_beta   90.00000000
_cell_angle_gamma   119.99999343
_symmetry_Int_Tables_number   1
_chemical_formula_structural   Sr2Co9P7W3
_chemical_formula_sum   'Sr2 Co9 P7 W3'
_cell_volume   276.60583518
_cell_formula_units_Z   1
loop_
 _symmetry_equiv_pos_site_id
 _symmetry_equiv_pos_as_xyz
  1  'x, y, z'
loop_
 _atom_site_type_symbol
 _atom_site_label
 _atom_site_symmetry_multiplicity
 _atom_site_fract_x
 _atom_site_fract_y
 _atom_site_fract_z
 _atom_site_occupancy
  Sr  Sr0  1  0.000000  0.000000  0.763700  1
  Sr  Sr1  1  0.333333  0.666667  0.263809  1
  Co  Co2  1  0.512041  0.059592  0.263825  1
  Co  Co3  1  0.940408  0.452450  0.263825  1
  Co  Co4  1  0.547550  0.487959  0.263825  1
  Co  Co5  1  0.098953  0.382467  0.763789  1
  Co  Co6  1  0.617533  0.716486  0.763789  1
  Co  Co7  1  0.283514  0.901047  0.763789  1
  Co  Co8  1  0.238961  0.275730  0.263809  1
  Co  Co9  1  0.724270  0.963231  0.263809  1
  Co  Co10  1  0.036769  0.761039  0.263809  1
  P  P11  1  0.666667  0.333333  0.263883  1
  P  P12  1  0.072357  0.626550  0.763798  1
  P  P13  1  0.373450  0.445808  0.763798  1
  P  P14  1  0.554192  0.927643  0.763798  1
  P  P15  1  0.258108  0.030662  0.263768  1
  P  P16  1  0.969338  0.227446  0.263768  1
  P  P17  1  0.772554  0.741892  0.263768  1
  W  W18  1  0.785682  0.550452  0.763859  1
  W  W19  1  0.449548  0.235230  0.763859  1
  W  W20  1  0.764770  0.214318  0.763859  1
