# generated using pymatgen
data_RePt4
_symmetry_space_group_name_H-M   'P 1'
_cell_length_a   4.84276074
_cell_length_b   4.84276065
_cell_length_c   4.84276155
_cell_angle_alpha   99.48953942
_cell_angle_beta   99.48953379
_cell_angle_gamma   132.08752210
_symmetry_Int_Tables_number   1
_chemical_formula_structural   RePt4
_chemical_formula_sum   'Re1 Pt4'
_cell_volume   77.02505314
_cell_formula_units_Z   1
loop_
 _symmetry_equiv_pos_site_id
 _symmetry_equiv_pos_as_xyz
  1  'x, y, z'
loop_
 _atom_site_type_symbol
 _atom_site_label
 _atom_site_symmetry_multiplicity
 _atom_site_fract_x
 _atom_site_fract_y
 _atom_site_fract_z
 _atom_site_occupancy
  Re  Re0  1  0.000000  0.000000  0.000000  1
  Pt  Pt1  1  0.397242  0.794594  0.191837  1
  Pt  Pt2  1  0.794594  0.602758  0.397351  1
  Pt  Pt3  1  0.205406  0.397242  0.602648  1
  Pt  Pt4  1  0.602757  0.205406  0.808162  1
