# generated using pymatgen
data_HoLuNpO6
_symmetry_space_group_name_H-M   'P 1'
_cell_length_a   5.48191500
_cell_length_b   7.75455530
_cell_length_c   11.68870593
_cell_angle_alpha   73.83588118
_cell_angle_beta   90.00000000
_cell_angle_gamma   90.00000000
_symmetry_Int_Tables_number   1
_chemical_formula_structural   HoLuNpO6
_chemical_formula_sum   'Ho4 Lu4 Np4 O24'
_cell_volume   477.24196356
_cell_formula_units_Z   4
loop_
 _symmetry_equiv_pos_site_id
 _symmetry_equiv_pos_as_xyz
  1  'x, y, z'
loop_
 _atom_site_type_symbol
 _atom_site_label
 _atom_site_symmetry_multiplicity
 _atom_site_fract_x
 _atom_site_fract_y
 _atom_site_fract_z
 _atom_site_occupancy
  Ho  Ho0  1  0.745970  0.000000  0.750000  1
  Ho  Ho1  1  0.254030  0.000000  0.250000  1
  Ho  Ho2  1  0.699178  0.500000  0.750000  1
  Ho  Ho3  1  0.300822  0.500000  0.250000  1
  Lu  Lu4  1  0.186158  0.794756  0.580525  1
  Lu  Lu5  1  0.813842  0.794756  0.080525  1
  Lu  Lu6  1  0.186158  0.205244  0.919475  1
  Lu  Lu7  1  0.813842  0.205244  0.419475  1
  Np  Np8  1  0.256420  0.719635  0.888094  1
  Np  Np9  1  0.743580  0.719635  0.388094  1
  Np  Np10  1  0.256420  0.280365  0.611906  1
  Np  Np11  1  0.743580  0.280365  0.111906  1
  O  O12  1  0.046518  0.945878  0.898405  1
  O  O13  1  0.558458  0.848297  0.933518  1
  O  O14  1  0.953482  0.945878  0.398405  1
  O  O15  1  0.448386  0.801316  0.725073  1
  O  O16  1  0.441542  0.848297  0.433518  1
  O  O17  1  0.963859  0.715877  0.765049  1
  O  O18  1  0.551614  0.801316  0.225073  1
  O  O19  1  0.881730  0.626163  0.556841  1
  O  O20  1  0.387898  0.477096  0.884459  1
  O  O21  1  0.036141  0.715877  0.265049  1
  O  O22  1  0.387898  0.522904  0.615541  1
  O  O23  1  0.881730  0.373837  0.943159  1
  O  O24  1  0.118270  0.626163  0.056841  1
  O  O25  1  0.612102  0.477096  0.384459  1
  O  O26  1  0.963859  0.284123  0.734951  1
  O  O27  1  0.612102  0.522904  0.115541  1
  O  O28  1  0.118270  0.373837  0.443159  1
  O  O29  1  0.448386  0.198684  0.774927  1
  O  O30  1  0.036141  0.284123  0.234951  1
  O  O31  1  0.558458  0.151703  0.566482  1
  O  O32  1  0.551614  0.198684  0.274927  1
  O  O33  1  0.046518  0.054122  0.601595  1
  O  O34  1  0.441542  0.151703  0.066482  1
  O  O35  1  0.953482  0.054122  0.101595  1
