# generated using pymatgen
data_Dy3Ho(CuPt)2
_symmetry_space_group_name_H-M   'P 1'
_cell_length_a   4.44476100
_cell_length_b   5.49997539
_cell_length_c   7.12965101
_cell_angle_alpha   89.96898195
_cell_angle_beta   90.00000000
_cell_angle_gamma   90.00000000
_symmetry_Int_Tables_number   1
_chemical_formula_structural   Dy3Ho(CuPt)2
_chemical_formula_sum   'Dy3 Ho1 Cu2 Pt2'
_cell_volume   174.29196564
_cell_formula_units_Z   1
loop_
 _symmetry_equiv_pos_site_id
 _symmetry_equiv_pos_as_xyz
  1  'x, y, z'
loop_
 _atom_site_type_symbol
 _atom_site_label
 _atom_site_symmetry_multiplicity
 _atom_site_fract_x
 _atom_site_fract_y
 _atom_site_fract_z
 _atom_site_occupancy
  Dy  Dy0  1  0.000000  0.114788  0.684386  1
  Dy  Dy1  1  0.500000  0.394584  0.315617  1
  Dy  Dy2  1  0.500000  0.605496  0.815785  1
  Ho  Ho3  1  0.000000  0.885051  0.184447  1
  Cu  Cu4  1  0.500000  0.892678  0.464003  1
  Cu  Cu5  1  0.500000  0.107297  0.963750  1
  Pt  Pt6  1  0.000000  0.614495  0.535919  1
  Pt  Pt7  1  0.000000  0.385612  0.036095  1
