# generated using pymatgen
data_Hf18TiGaRe7As
_symmetry_space_group_name_H-M   'P 1'
_cell_length_a   8.62364247
_cell_length_b   8.62105470
_cell_length_c   8.65286728
_cell_angle_alpha   90.00368468
_cell_angle_beta   89.97239167
_cell_angle_gamma   119.97953085
_symmetry_Int_Tables_number   1
_chemical_formula_structural   Hf18TiGaRe7As
_chemical_formula_sum   'Hf18 Ti1 Ga1 Re7 As1'
_cell_volume   557.22590606
_cell_formula_units_Z   1
loop_
 _symmetry_equiv_pos_site_id
 _symmetry_equiv_pos_as_xyz
  1  'x, y, z'
loop_
 _atom_site_type_symbol
 _atom_site_label
 _atom_site_symmetry_multiplicity
 _atom_site_fract_x
 _atom_site_fract_y
 _atom_site_fract_z
 _atom_site_occupancy
  Hf  Hf0  1  0.805508  0.610703  0.547981  1
  Hf  Hf1  1  0.805501  0.194567  0.548138  1
  Hf  Hf2  1  0.389405  0.194606  0.547974  1
  Hf  Hf3  1  0.194681  0.389522  0.453201  1
  Hf  Hf4  1  0.194680  0.805146  0.453001  1
  Hf  Hf5  1  0.610389  0.805218  0.453190  1
  Hf  Hf6  1  0.192402  0.385149  0.048433  1
  Hf  Hf7  1  0.192383  0.807187  0.048298  1
  Hf  Hf8  1  0.614828  0.807444  0.048180  1
  Hf  Hf9  1  0.806991  0.613632  0.950774  1
  Hf  Hf10  1  0.806799  0.193266  0.950940  1
  Hf  Hf11  1  0.386557  0.193160  0.950913  1
  Hf  Hf12  1  0.459115  0.917767  0.751609  1
  Hf  Hf13  1  0.459245  0.541374  0.751684  1
  Hf  Hf14  1  0.082173  0.541251  0.751551  1
  Hf  Hf15  1  0.542410  0.084885  0.248967  1
  Hf  Hf16  1  0.542530  0.457488  0.248937  1
  Hf  Hf17  1  0.915123  0.457551  0.248994  1
  Ti  Ti18  1  0.000007  0.999960  0.500386  1
  Ga  Ga19  1  0.666683  0.333482  0.751457  1
  Re  Re20  1  0.110189  0.220642  0.747504  1
  Re  Re21  1  0.110477  0.889575  0.747691  1
  Re  Re22  1  0.779372  0.889420  0.747408  1
  Re  Re23  1  0.889580  0.779779  0.251676  1
  Re  Re24  1  0.889597  0.110510  0.252168  1
  Re  Re25  1  0.219936  0.110312  0.252056  1
  Re  Re26  1  0.000085  0.999750  0.998664  1
  As  As27  1  0.333355  0.666650  0.248226  1
