# generated using pymatgen
data_CoTe29
_symmetry_space_group_name_H-M   'P 1'
_cell_length_a   8.25144036
_cell_length_b   10.72387581
_cell_length_c   12.78450900
_cell_angle_alpha   74.47618044
_cell_angle_beta   80.54322797
_cell_angle_gamma   67.50213456
_symmetry_Int_Tables_number   1
_chemical_formula_structural   CoTe29
_chemical_formula_sum   'Co1 Te29'
_cell_volume   1004.60614370
_cell_formula_units_Z   1
loop_
 _symmetry_equiv_pos_site_id
 _symmetry_equiv_pos_as_xyz
  1  'x, y, z'
loop_
 _atom_site_type_symbol
 _atom_site_label
 _atom_site_symmetry_multiplicity
 _atom_site_fract_x
 _atom_site_fract_y
 _atom_site_fract_z
 _atom_site_occupancy
  Co  Co0  1  0.000000  0.000000  0.000000  1
  Te  Te1  1  0.500000  0.000000  0.000000  1
  Te  Te2  1  0.100618  0.197334  0.198987  1
  Te  Te3  1  0.700156  0.401761  0.397833  1
  Te  Te4  1  0.299844  0.598239  0.602167  1
  Te  Te5  1  0.602472  0.197875  0.198649  1
  Te  Te6  1  0.899382  0.802666  0.801013  1
  Te  Te7  1  0.201511  0.397351  0.398606  1
  Te  Te8  1  0.798489  0.602649  0.601394  1
  Te  Te9  1  0.397528  0.802125  0.801351  1
  Te  Te10  1  0.208685  0.084217  0.848114  1
  Te  Te11  1  0.652358  0.702584  0.978074  1
  Te  Te12  1  0.869175  0.253686  0.018886  1
  Te  Te13  1  0.214833  0.915005  0.152051  1
  Te  Te14  1  0.447836  0.499623  0.221151  1
  Te  Te15  1  0.785167  0.084995  0.847949  1
  Te  Te16  1  0.854902  0.099920  0.376557  1
  Te  Te17  1  0.130825  0.746314  0.981114  1
  Te  Te18  1  0.047798  0.695900  0.422847  1
  Te  Te19  1  0.347642  0.297416  0.021926  1
  Te  Te20  1  0.791315  0.915783  0.151886  1
  Te  Te21  1  0.454885  0.301544  0.576199  1
  Te  Te22  1  0.642734  0.906240  0.621943  1
  Te  Te23  1  0.945531  0.499337  0.220980  1
  Te  Te24  1  0.054469  0.500663  0.779020  1
  Te  Te25  1  0.357266  0.093760  0.378057  1
  Te  Te26  1  0.545115  0.698456  0.423801  1
  Te  Te27  1  0.952202  0.304100  0.577153  1
  Te  Te28  1  0.145098  0.900080  0.623443  1
  Te  Te29  1  0.552164  0.500377  0.778849  1
