# generated using pymatgen
data_LaTh3(GePd14)2
_symmetry_space_group_name_H-M   'P 1'
_cell_length_a   9.06854700
_cell_length_b   9.06854700
_cell_length_c   7.12778800
_cell_angle_alpha   90.00000000
_cell_angle_beta   90.00000000
_cell_angle_gamma   90.00000000
_symmetry_Int_Tables_number   1
_chemical_formula_structural   LaTh3(GePd14)2
_chemical_formula_sum   'La1 Th3 Ge2 Pd28'
_cell_volume   586.17891199
_cell_formula_units_Z   1
loop_
 _symmetry_equiv_pos_site_id
 _symmetry_equiv_pos_as_xyz
  1  'x, y, z'
loop_
 _atom_site_type_symbol
 _atom_site_label
 _atom_site_symmetry_multiplicity
 _atom_site_fract_x
 _atom_site_fract_y
 _atom_site_fract_z
 _atom_site_occupancy
  La  La0  1  0.000000  0.500000  0.064303  1
  Th  Th1  1  0.500000  0.000000  0.931911  1
  Th  Th2  1  0.000000  0.000000  0.499634  1
  Th  Th3  1  0.500000  0.500000  0.499634  1
  Ge  Ge4  1  0.500000  0.000000  0.448311  1
  Ge  Ge5  1  0.000000  0.500000  0.550123  1
  Pd  Pd6  1  0.332152  0.832152  0.621968  1
  Pd  Pd7  1  0.332152  0.167848  0.621968  1
  Pd  Pd8  1  0.667848  0.832152  0.621968  1
  Pd  Pd9  1  0.667848  0.167848  0.621968  1
  Pd  Pd10  1  0.169444  0.669444  0.380858  1
  Pd  Pd11  1  0.169444  0.330556  0.380858  1
  Pd  Pd12  1  0.830556  0.669444  0.380858  1
  Pd  Pd13  1  0.830556  0.330556  0.380858  1
  Pd  Pd14  1  0.500000  0.766826  0.254190  1
  Pd  Pd15  1  0.500000  0.233174  0.254190  1
  Pd  Pd16  1  0.266826  0.000000  0.254190  1
  Pd  Pd17  1  0.733174  0.000000  0.254190  1
  Pd  Pd18  1  0.000000  0.736023  0.742660  1
  Pd  Pd19  1  0.000000  0.263977  0.742660  1
  Pd  Pd20  1  0.236023  0.500000  0.742660  1
  Pd  Pd21  1  0.763977  0.500000  0.742660  1
  Pd  Pd22  1  0.500000  0.349283  0.853639  1
  Pd  Pd23  1  0.500000  0.650717  0.853639  1
  Pd  Pd24  1  0.849283  0.000000  0.853639  1
  Pd  Pd25  1  0.150717  0.000000  0.853639  1
  Pd  Pd26  1  0.000000  0.149964  0.147701  1
  Pd  Pd27  1  0.000000  0.850036  0.147701  1
  Pd  Pd28  1  0.649964  0.500000  0.147701  1
  Pd  Pd29  1  0.350036  0.500000  0.147701  1
  Pd  Pd30  1  0.251656  0.751656  0.000504  1
  Pd  Pd31  1  0.251656  0.248344  0.000504  1
  Pd  Pd32  1  0.748344  0.751656  0.000504  1
  Pd  Pd33  1  0.748344  0.248344  0.000504  1
