# generated using pymatgen
data_SmDyTc2C3
_symmetry_space_group_name_H-M   'P 1'
_cell_length_a   6.12257029
_cell_length_b   6.12257070
_cell_length_c   5.74300113
_cell_angle_alpha   66.21751646
_cell_angle_beta   66.21751556
_cell_angle_gamma   31.92431681
_symmetry_Int_Tables_number   1
_chemical_formula_structural   SmDyTc2C3
_chemical_formula_sum   'Sm1 Dy1 Tc2 C3'
_cell_volume   103.34260187
_cell_formula_units_Z   1
loop_
 _symmetry_equiv_pos_site_id
 _symmetry_equiv_pos_as_xyz
  1  'x, y, z'
loop_
 _atom_site_type_symbol
 _atom_site_label
 _atom_site_symmetry_multiplicity
 _atom_site_fract_x
 _atom_site_fract_y
 _atom_site_fract_z
 _atom_site_occupancy
  Sm  Sm0  1  0.606403  0.606403  0.184501  1
  Dy  Dy1  1  0.390244  0.390244  0.823436  1
  Tc  Tc2  1  0.840982  0.840982  0.319349  1
  Tc  Tc3  1  0.159669  0.159669  0.679450  1
  C  C4  1  0.754103  0.754103  0.725926  1
  C  C5  1  0.249837  0.249837  0.272558  1
  C  C6  1  0.998763  0.998763  0.994781  1
