# generated using pymatgen
data_Nd16Cd4NiIr2Ru
_symmetry_space_group_name_H-M   'P 1'
_cell_length_a   9.87951629
_cell_length_b   9.95011230
_cell_length_c   9.94087700
_cell_angle_alpha   60.03069524
_cell_angle_beta   59.79432809
_cell_angle_gamma   59.77351167
_symmetry_Int_Tables_number   1
_chemical_formula_structural   Nd16Cd4NiIr2Ru
_chemical_formula_sum   'Nd16 Cd4 Ni1 Ir2 Ru1'
_cell_volume   688.88565938
_cell_formula_units_Z   1
loop_
 _symmetry_equiv_pos_site_id
 _symmetry_equiv_pos_as_xyz
  1  'x, y, z'
loop_
 _atom_site_type_symbol
 _atom_site_label
 _atom_site_symmetry_multiplicity
 _atom_site_fract_x
 _atom_site_fract_y
 _atom_site_fract_z
 _atom_site_occupancy
  Nd  Nd0  1  0.600320  0.597844  0.595072  1
  Nd  Nd1  1  0.600320  0.597844  0.206763  1
  Nd  Nd2  1  0.602556  0.203257  0.597094  1
  Nd  Nd3  1  0.205358  0.598617  0.598012  1
  Nd  Nd4  1  0.057291  0.440355  0.441852  1
  Nd  Nd5  1  0.437826  0.058401  0.061836  1
  Nd  Nd6  1  0.437826  0.058401  0.441937  1
  Nd  Nd7  1  0.057291  0.440355  0.060503  1
  Nd  Nd8  1  0.439133  0.441427  0.059720  1
  Nd  Nd9  1  0.059766  0.059248  0.440493  1
  Nd  Nd10  1  0.189866  0.811000  0.810359  1
  Nd  Nd11  1  0.808717  0.188887  0.187100  1
  Nd  Nd12  1  0.808717  0.188887  0.815296  1
  Nd  Nd13  1  0.189866  0.811000  0.188774  1
  Nd  Nd14  1  0.808766  0.816314  0.187460  1
  Nd  Nd15  1  0.189895  0.190037  0.810033  1
  Cd  Cd16  1  0.829701  0.829922  0.830407  1
  Cd  Cd17  1  0.829701  0.829922  0.509971  1
  Cd  Cd18  1  0.829848  0.509676  0.830238  1
  Cd  Cd19  1  0.509661  0.829663  0.830338  1
  Ni  Ni20  1  0.825362  0.391384  0.391627  1
  Ir  Ir21  1  0.394321  0.389861  0.390756  1
  Ir  Ir22  1  0.394321  0.389861  0.825061  1
  Ru  Ru23  1  0.393572  0.827836  0.389296  1
