# generated using pymatgen
data_Lu2Pd8Se
_symmetry_space_group_name_H-M   'P 1'
_cell_length_a   4.09282700
_cell_length_b   4.09282700
_cell_length_c   11.27717800
_cell_angle_alpha   90.00000000
_cell_angle_beta   90.00000000
_cell_angle_gamma   90.00000000
_symmetry_Int_Tables_number   1
_chemical_formula_structural   Lu2Pd8Se
_chemical_formula_sum   'Lu2 Pd8 Se1'
_cell_volume   188.90663459
_cell_formula_units_Z   1
loop_
 _symmetry_equiv_pos_site_id
 _symmetry_equiv_pos_as_xyz
  1  'x, y, z'
loop_
 _atom_site_type_symbol
 _atom_site_label
 _atom_site_symmetry_multiplicity
 _atom_site_fract_x
 _atom_site_fract_y
 _atom_site_fract_z
 _atom_site_occupancy
  Lu  Lu0  1  0.500000  0.500000  0.822197  1
  Lu  Lu1  1  0.500000  0.500000  0.177803  1
  Pd  Pd2  1  0.500000  0.000000  0.000000  1
  Pd  Pd3  1  0.000000  0.500000  0.000000  1
  Pd  Pd4  1  0.500000  0.000000  0.639824  1
  Pd  Pd5  1  0.000000  0.500000  0.639824  1
  Pd  Pd6  1  0.500000  0.000000  0.360176  1
  Pd  Pd7  1  0.000000  0.500000  0.360176  1
  Pd  Pd8  1  0.000000  0.000000  0.820059  1
  Pd  Pd9  1  0.000000  0.000000  0.179941  1
  Se  Se10  1  0.000000  0.000000  0.500000  1
