# generated using pymatgen
data_SmEr2Cu3(Ni5B)2
_symmetry_space_group_name_H-M   'P 1'
_cell_length_a   4.98033800
_cell_length_b   4.98033830
_cell_length_c   10.90030800
_cell_angle_alpha   90.00000000
_cell_angle_beta   90.00000000
_cell_angle_gamma   120.00001127
_symmetry_Int_Tables_number   1
_chemical_formula_structural   SmEr2Cu3(Ni5B)2
_chemical_formula_sum   'Sm1 Er2 Cu3 Ni10 B2'
_cell_volume   234.14614629
_cell_formula_units_Z   1
loop_
 _symmetry_equiv_pos_site_id
 _symmetry_equiv_pos_as_xyz
  1  'x, y, z'
loop_
 _atom_site_type_symbol
 _atom_site_label
 _atom_site_symmetry_multiplicity
 _atom_site_fract_x
 _atom_site_fract_y
 _atom_site_fract_z
 _atom_site_occupancy
  Sm  Sm0  1  0.000000  0.000000  0.329138  1
  Er  Er1  1  0.000000  0.000000  0.998159  1
  Er  Er2  1  0.000000  0.000000  0.665710  1
  Cu  Cu3  1  0.666667  0.333333  0.683966  1
  Cu  Cu4  1  0.333333  0.666667  0.683670  1
  Cu  Cu5  1  0.333333  0.666667  0.317337  1
  Ni  Ni6  1  0.500593  0.499407  0.501129  1
  Ni  Ni7  1  0.500593  0.001185  0.501129  1
  Ni  Ni8  1  0.998815  0.499407  0.501129  1
  Ni  Ni9  1  0.666667  0.333333  0.318554  1
  Ni  Ni10  1  0.499917  0.500083  0.870241  1
  Ni  Ni11  1  0.499917  0.999834  0.870241  1
  Ni  Ni12  1  0.000166  0.500083  0.870241  1
  Ni  Ni13  1  0.501041  0.498959  0.129637  1
  Ni  Ni14  1  0.501041  0.002082  0.129637  1
  Ni  Ni15  1  0.997918  0.498959  0.129637  1
  B  B16  1  0.666667  0.333333  0.999736  1
  B  B17  1  0.333333  0.666667  0.000707  1
