# generated using pymatgen
data_Tb2Nd4Al24Os7Au
_symmetry_space_group_name_H-M   'P 1'
_cell_length_a   8.94708983
_cell_length_b   8.94709072
_cell_length_c   9.62968522
_cell_angle_alpha   89.88870217
_cell_angle_beta   90.11129577
_cell_angle_gamma   120.23119007
_symmetry_Int_Tables_number   1
_chemical_formula_structural   Tb2Nd4Al24Os7Au
_chemical_formula_sum   'Tb2 Nd4 Al24 Os7 Au1'
_cell_volume   666.02235544
_cell_formula_units_Z   1
loop_
 _symmetry_equiv_pos_site_id
 _symmetry_equiv_pos_as_xyz
  1  'x, y, z'
loop_
 _atom_site_type_symbol
 _atom_site_label
 _atom_site_symmetry_multiplicity
 _atom_site_fract_x
 _atom_site_fract_y
 _atom_site_fract_z
 _atom_site_occupancy
  Tb  Tb0  1  0.193957  0.806043  0.254087  1
  Tb  Tb1  1  0.806043  0.193957  0.745913  1
  Nd  Nd2  1  0.190090  0.382445  0.250045  1
  Nd  Nd3  1  0.809910  0.617555  0.749955  1
  Nd  Nd4  1  0.617555  0.809910  0.250045  1
  Nd  Nd5  1  0.382445  0.190090  0.749955  1
  Al  Al6  1  0.328106  0.671894  0.016923  1
  Al  Al7  1  0.671894  0.328106  0.983077  1
  Al  Al8  1  0.666514  0.333486  0.513768  1
  Al  Al9  1  0.333486  0.666514  0.486232  1
  Al  Al10  1  0.161209  0.325991  0.575059  1
  Al  Al11  1  0.838791  0.674009  0.424941  1
  Al  Al12  1  0.674009  0.838791  0.575059  1
  Al  Al13  1  0.850380  0.677684  0.079215  1
  Al  Al14  1  0.325991  0.161209  0.424941  1
  Al  Al15  1  0.149620  0.322316  0.920785  1
  Al  Al16  1  0.163201  0.836799  0.573514  1
  Al  Al17  1  0.322316  0.149620  0.079215  1
  Al  Al18  1  0.836799  0.163201  0.426486  1
  Al  Al19  1  0.677684  0.850380  0.920785  1
  Al  Al20  1  0.836648  0.163352  0.072871  1
  Al  Al21  1  0.163352  0.836648  0.927129  1
  Al  Al22  1  0.560328  0.121289  0.249086  1
  Al  Al23  1  0.439672  0.878711  0.750914  1
  Al  Al24  1  0.878711  0.439672  0.249086  1
  Al  Al25  1  0.121289  0.560328  0.750914  1
  Al  Al26  1  0.565101  0.434899  0.256157  1
  Al  Al27  1  0.434899  0.565101  0.743843  1
  Al  Al28  1  0.001459  0.998541  0.250441  1
  Al  Al29  1  0.998541  0.001459  0.749559  1
  Os  Os30  1  0.500000  0.000000  0.000000  1
  Os  Os31  1  0.000000  0.500000  0.000000  1
  Os  Os32  1  0.500000  0.000000  0.500000  1
  Os  Os33  1  0.000000  0.500000  0.500000  1
  Os  Os34  1  0.500000  0.500000  0.500000  1
  Os  Os35  1  0.000000  0.000000  0.000000  1
  Os  Os36  1  0.000000  0.000000  0.500000  1
  Au  Au37  1  0.500000  0.500000  0.000000  1
