# generated using pymatgen
data_BaAl2(PtO3)4
_symmetry_space_group_name_H-M   'P 1'
_cell_length_a   8.49312761
_cell_length_b   8.49312743
_cell_length_c   10.05944200
_cell_angle_alpha   54.58043122
_cell_angle_beta   54.58042380
_cell_angle_gamma   65.04582871
_symmetry_Int_Tables_number   1
_chemical_formula_structural   BaAl2(PtO3)4
_chemical_formula_sum   'Ba2 Al4 Pt8 O24'
_cell_volume   477.83396602
_cell_formula_units_Z   2
loop_
 _symmetry_equiv_pos_site_id
 _symmetry_equiv_pos_as_xyz
  1  'x, y, z'
loop_
 _atom_site_type_symbol
 _atom_site_label
 _atom_site_symmetry_multiplicity
 _atom_site_fract_x
 _atom_site_fract_y
 _atom_site_fract_z
 _atom_site_occupancy
  Ba  Ba0  1  0.277528  0.722472  0.000000  1
  Ba  Ba1  1  0.722472  0.277528  0.000000  1
  Al  Al2  1  0.857127  0.857127  0.475904  1
  Al  Al3  1  0.336901  0.336901  0.811868  1
  Al  Al4  1  0.142873  0.142873  0.524096  1
  Al  Al5  1  0.663099  0.663099  0.188132  1
  Pt  Pt6  1  0.667797  0.002450  0.818081  1
  Pt  Pt7  1  0.184930  0.519486  0.478982  1
  Pt  Pt8  1  0.815070  0.480514  0.521018  1
  Pt  Pt9  1  0.332203  0.997550  0.181919  1
  Pt  Pt10  1  0.997550  0.332203  0.181919  1
  Pt  Pt11  1  0.002450  0.667797  0.818081  1
  Pt  Pt12  1  0.519486  0.184930  0.478982  1
  Pt  Pt13  1  0.480514  0.815070  0.521018  1
  O  O14  1  0.702383  0.702383  0.951260  1
  O  O15  1  0.006676  0.683038  0.352160  1
  O  O16  1  0.683038  0.006676  0.352160  1
  O  O17  1  0.692785  0.005155  0.603991  1
  O  O18  1  0.005155  0.692785  0.603991  1
  O  O19  1  0.039016  0.039016  0.282040  1
  O  O20  1  0.703892  0.389949  0.273833  1
  O  O21  1  0.389949  0.703892  0.273833  1
  O  O22  1  0.994845  0.307215  0.396009  1
  O  O23  1  0.993324  0.316962  0.647840  1
  O  O24  1  0.044889  0.367289  0.940719  1
  O  O25  1  0.367289  0.044889  0.940719  1
  O  O26  1  0.297617  0.297617  0.048740  1
  O  O27  1  0.955111  0.632711  0.059281  1
  O  O28  1  0.336743  0.336743  0.358193  1
  O  O29  1  0.347161  0.347161  0.615509  1
  O  O30  1  0.296108  0.610051  0.726167  1
  O  O31  1  0.610051  0.296108  0.726167  1
  O  O32  1  0.960984  0.960984  0.717960  1
  O  O33  1  0.652839  0.652839  0.384491  1
  O  O34  1  0.307215  0.994845  0.396009  1
  O  O35  1  0.663257  0.663257  0.641807  1
  O  O36  1  0.316962  0.993324  0.647840  1
  O  O37  1  0.632711  0.955111  0.059281  1
