# generated using pymatgen
data_Dy8Si12RuPt3
_symmetry_space_group_name_H-M   'P 1'
_cell_length_a   8.18111000
_cell_length_b   8.18111029
_cell_length_c   7.98214500
_cell_angle_alpha   90.00000000
_cell_angle_beta   90.00000000
_cell_angle_gamma   119.99999075
_symmetry_Int_Tables_number   1
_chemical_formula_structural   Dy8Si12RuPt3
_chemical_formula_sum   'Dy8 Si12 Ru1 Pt3'
_cell_volume   462.67364764
_cell_formula_units_Z   1
loop_
 _symmetry_equiv_pos_site_id
 _symmetry_equiv_pos_as_xyz
  1  'x, y, z'
loop_
 _atom_site_type_symbol
 _atom_site_label
 _atom_site_symmetry_multiplicity
 _atom_site_fract_x
 _atom_site_fract_y
 _atom_site_fract_z
 _atom_site_occupancy
  Dy  Dy0  1  0.000000  0.000000  0.249958  1
  Dy  Dy1  1  0.000000  0.000000  0.748782  1
  Dy  Dy2  1  0.010279  0.505140  0.254769  1
  Dy  Dy3  1  0.494860  0.505140  0.254769  1
  Dy  Dy4  1  0.508818  0.017635  0.746281  1
  Dy  Dy5  1  0.494860  0.989721  0.254769  1
  Dy  Dy6  1  0.508818  0.491182  0.746281  1
  Dy  Dy7  1  0.982365  0.491182  0.746281  1
  Si  Si8  1  0.165151  0.330300  0.002205  1
  Si  Si9  1  0.669700  0.834849  0.002205  1
  Si  Si10  1  0.163685  0.327370  0.500466  1
  Si  Si11  1  0.330326  0.165164  0.996422  1
  Si  Si12  1  0.165151  0.834849  0.002205  1
  Si  Si13  1  0.672630  0.836315  0.500466  1
  Si  Si14  1  0.834836  0.669674  0.996422  1
  Si  Si15  1  0.336842  0.168422  0.501180  1
  Si  Si16  1  0.163685  0.836315  0.500466  1
  Si  Si17  1  0.831578  0.663158  0.501180  1
  Si  Si18  1  0.834836  0.165164  0.996422  1
  Si  Si19  1  0.831578  0.168422  0.501180  1
  Ru  Ru20  1  0.666667  0.333333  0.466620  1
  Pt  Pt21  1  0.333333  0.666667  0.979464  1
  Pt  Pt22  1  0.333333  0.666667  0.519944  1
  Pt  Pt23  1  0.666667  0.333333  0.031264  1
