# generated using pymatgen
data_Tb3LuCoAg
_symmetry_space_group_name_H-M   'P 1'
_cell_length_a   9.36895053
_cell_length_b   9.36894946
_cell_length_c   9.35317800
_cell_angle_alpha   60.05567001
_cell_angle_beta   60.05567378
_cell_angle_gamma   59.88865194
_symmetry_Int_Tables_number   1
_chemical_formula_structural   Tb3LuCoAg
_chemical_formula_sum   'Tb12 Lu4 Co4 Ag4'
_cell_volume   580.52853555
_cell_formula_units_Z   4
loop_
 _symmetry_equiv_pos_site_id
 _symmetry_equiv_pos_as_xyz
  1  'x, y, z'
loop_
 _atom_site_type_symbol
 _atom_site_label
 _atom_site_symmetry_multiplicity
 _atom_site_fract_x
 _atom_site_fract_y
 _atom_site_fract_z
 _atom_site_occupancy
  Tb  Tb0  1  0.186193  0.186193  0.813807  1
  Tb  Tb1  1  0.813807  0.813807  0.186193  1
  Tb  Tb2  1  0.937826  0.562173  0.562174  1
  Tb  Tb3  1  0.562173  0.937826  0.937827  1
  Tb  Tb4  1  0.562174  0.937826  0.562174  1
  Tb  Tb5  1  0.937826  0.562173  0.937827  1
  Tb  Tb6  1  0.561687  0.561686  0.938314  1
  Tb  Tb7  1  0.938313  0.938313  0.561687  1
  Tb  Tb8  1  0.349380  0.349380  0.347948  1
  Tb  Tb9  1  0.349380  0.349380  0.953292  1
  Tb  Tb10  1  0.347948  0.953292  0.349380  1
  Tb  Tb11  1  0.953292  0.347948  0.349380  1
  Lu  Lu12  1  0.813045  0.186955  0.186955  1
  Lu  Lu13  1  0.186955  0.813045  0.813045  1
  Lu  Lu14  1  0.186955  0.813045  0.186955  1
  Lu  Lu15  1  0.813045  0.186955  0.813045  1
  Co  Co16  1  0.140432  0.140432  0.140973  1
  Co  Co17  1  0.140432  0.140432  0.578164  1
  Co  Co18  1  0.140973  0.578164  0.140432  1
  Co  Co19  1  0.578164  0.140973  0.140432  1
  Ag  Ag20  1  0.580707  0.580707  0.581479  1
  Ag  Ag21  1  0.580707  0.580707  0.257107  1
  Ag  Ag22  1  0.581479  0.257107  0.580707  1
  Ag  Ag23  1  0.257107  0.581479  0.580707  1
