# generated using pymatgen
data_NaEr3As6Rh7
_symmetry_space_group_name_H-M   'P 1'
_cell_length_a   7.23275937
_cell_length_b   7.23275889
_cell_length_c   7.23275900
_cell_angle_alpha   109.42861066
_cell_angle_beta   109.42860916
_cell_angle_gamma   109.42862406
_symmetry_Int_Tables_number   1
_chemical_formula_structural   NaEr3As6Rh7
_chemical_formula_sum   'Na1 Er3 As6 Rh7'
_cell_volume   291.72476431
_cell_formula_units_Z   1
loop_
 _symmetry_equiv_pos_site_id
 _symmetry_equiv_pos_as_xyz
  1  'x, y, z'
loop_
 _atom_site_type_symbol
 _atom_site_label
 _atom_site_symmetry_multiplicity
 _atom_site_fract_x
 _atom_site_fract_y
 _atom_site_fract_z
 _atom_site_occupancy
  Na  Na0  1  0.500000  0.500000  0.500000  1
  Er  Er1  1  0.000000  0.500000  0.000000  1
  Er  Er2  1  0.500000  0.000000  0.000000  1
  Er  Er3  1  0.000000  0.000000  0.500000  1
  As  As4  1  0.678013  0.993721  0.678013  1
  As  As5  1  0.678013  0.678013  0.993721  1
  As  As6  1  0.321987  0.321987  0.006279  1
  As  As7  1  0.993721  0.678013  0.678013  1
  As  As8  1  0.006279  0.321987  0.321987  1
  As  As9  1  0.321987  0.006279  0.321987  1
  Rh  Rh10  1  0.500000  0.751951  0.248049  1
  Rh  Rh11  1  0.751951  0.248049  0.500000  1
  Rh  Rh12  1  0.248049  0.751951  0.500000  1
  Rh  Rh13  1  0.248049  0.500000  0.751951  1
  Rh  Rh14  1  0.000000  0.000000  0.000000  1
  Rh  Rh15  1  0.500000  0.248049  0.751951  1
  Rh  Rh16  1  0.751951  0.500000  0.248049  1
