# generated using pymatgen
data_Er2Co4B4Ir
_symmetry_space_group_name_H-M   'P 1'
_cell_length_a   7.10587069
_cell_length_b   6.00833660
_cell_length_c   5.22218104
_cell_angle_alpha   78.15793570
_cell_angle_beta   55.84785411
_cell_angle_gamma   46.52111407
_symmetry_Int_Tables_number   1
_chemical_formula_structural   Er2Co4B4Ir
_chemical_formula_sum   'Er2 Co4 B4 Ir1'
_cell_volume   127.65306556
_cell_formula_units_Z   1
loop_
 _symmetry_equiv_pos_site_id
 _symmetry_equiv_pos_as_xyz
  1  'x, y, z'
loop_
 _atom_site_type_symbol
 _atom_site_label
 _atom_site_symmetry_multiplicity
 _atom_site_fract_x
 _atom_site_fract_y
 _atom_site_fract_z
 _atom_site_occupancy
  Er  Er0  1  0.643767  0.643766  0.356233  1
  Er  Er1  1  0.356234  0.356233  0.643766  1
  Co  Co2  1  0.000000  0.000000  0.000000  1
  Co  Co3  1  0.250017  0.250018  0.249983  1
  Co  Co4  1  0.000000  0.000000  0.500001  1
  Co  Co5  1  0.749984  0.749983  0.750017  1
  B  B6  1  0.280009  0.991637  0.023011  1
  B  B7  1  0.008363  0.719991  0.294655  1
  B  B8  1  0.991638  0.280007  0.705343  1
  B  B9  1  0.719993  0.008362  0.976988  1
  Ir  Ir10  1  0.499999  0.500000  0.000000  1
