# generated using pymatgen
data_Dy4Er13(TmBi4)3
_symmetry_space_group_name_H-M   'P 1'
_cell_length_a   8.21369604
_cell_length_b   9.47201400
_cell_length_c   11.95863706
_cell_angle_alpha   90.00000000
_cell_angle_beta   90.01164811
_cell_angle_gamma   90.00000000
_symmetry_Int_Tables_number   1
_chemical_formula_structural   Dy4Er13(TmBi4)3
_chemical_formula_sum   'Dy4 Er13 Tm3 Bi12'
_cell_volume   930.38486096
_cell_formula_units_Z   1
loop_
 _symmetry_equiv_pos_site_id
 _symmetry_equiv_pos_as_xyz
  1  'x, y, z'
loop_
 _atom_site_type_symbol
 _atom_site_label
 _atom_site_symmetry_multiplicity
 _atom_site_fract_x
 _atom_site_fract_y
 _atom_site_fract_z
 _atom_site_occupancy
  Dy  Dy0  1  0.312310  0.250000  0.218401  1
  Dy  Dy1  1  0.812363  0.250000  0.281512  1
  Dy  Dy2  1  0.687668  0.750000  0.781584  1
  Dy  Dy3  1  0.187669  0.750000  0.718447  1
  Er  Er4  1  0.352585  0.750000  0.216914  1
  Er  Er5  1  0.852612  0.750000  0.283159  1
  Er  Er6  1  0.647445  0.250000  0.783164  1
  Er  Er7  1  0.147349  0.250000  0.716825  1
  Er  Er8  1  0.692777  0.565446  0.059211  1
  Er  Er9  1  0.192745  0.934526  0.440824  1
  Er  Er10  1  0.307218  0.065432  0.940809  1
  Er  Er11  1  0.807346  0.434576  0.559176  1
  Er  Er12  1  0.307218  0.434568  0.940809  1
  Er  Er13  1  0.807346  0.065424  0.559176  1
  Er  Er14  1  0.692777  0.934554  0.059211  1
  Er  Er15  1  0.192745  0.565474  0.440824  1
  Er  Er16  1  0.475945  0.250000  0.488858  1
  Tm  Tm17  1  0.975993  0.250000  0.011090  1
  Tm  Tm18  1  0.524015  0.750000  0.511081  1
  Tm  Tm19  1  0.023981  0.750000  0.988922  1
  Bi  Bi20  1  0.405284  0.750000  0.958177  1
  Bi  Bi21  1  0.905272  0.750000  0.541848  1
  Bi  Bi22  1  0.594702  0.250000  0.041839  1
  Bi  Bi23  1  0.094477  0.250000  0.458157  1
  Bi  Bi24  1  0.565259  0.994717  0.325862  1
  Bi  Bi25  1  0.065190  0.505152  0.174027  1
  Bi  Bi26  1  0.434809  0.494957  0.674131  1
  Bi  Bi27  1  0.934822  0.005142  0.825972  1
  Bi  Bi28  1  0.434809  0.005043  0.674131  1
  Bi  Bi29  1  0.934822  0.494858  0.825972  1
  Bi  Bi30  1  0.565259  0.505283  0.325862  1
  Bi  Bi31  1  0.065190  0.994848  0.174027  1
