# generated using pymatgen
data_Tm2Zn11Cu6
_symmetry_space_group_name_H-M   'P 1'
_cell_length_a   6.63173706
_cell_length_b   6.63173783
_cell_length_c   6.63173618
_cell_angle_alpha   83.11421381
_cell_angle_beta   83.11420766
_cell_angle_gamma   83.11422073
_symmetry_Int_Tables_number   1
_chemical_formula_structural   Tm2Zn11Cu6
_chemical_formula_sum   'Tm2 Zn11 Cu6'
_cell_volume   285.81898957
_cell_formula_units_Z   1
loop_
 _symmetry_equiv_pos_site_id
 _symmetry_equiv_pos_as_xyz
  1  'x, y, z'
loop_
 _atom_site_type_symbol
 _atom_site_label
 _atom_site_symmetry_multiplicity
 _atom_site_fract_x
 _atom_site_fract_y
 _atom_site_fract_z
 _atom_site_occupancy
  Tm  Tm0  1  0.649443  0.649443  0.649443  1
  Tm  Tm1  1  0.342222  0.342222  0.342222  1
  Zn  Zn2  1  0.164957  0.651589  0.651590  1
  Zn  Zn3  1  0.651591  0.651591  0.164957  1
  Zn  Zn4  1  0.651589  0.164957  0.651590  1
  Zn  Zn5  1  0.892102  0.892102  0.892102  1
  Zn  Zn6  1  0.106146  0.106146  0.106146  1
  Zn  Zn7  1  0.697167  0.002615  0.302468  1
  Zn  Zn8  1  0.002615  0.302467  0.697167  1
  Zn  Zn9  1  0.302468  0.697168  0.002616  1
  Zn  Zn10  1  0.302467  0.002615  0.697167  1
  Zn  Zn11  1  0.002615  0.697167  0.302468  1
  Zn  Zn12  1  0.697168  0.302468  0.002616  1
  Cu  Cu13  1  0.999347  0.500389  0.999347  1
  Cu  Cu14  1  0.500389  0.999347  0.999347  1
  Cu  Cu15  1  0.999346  0.999346  0.500390  1
  Cu  Cu16  1  0.346831  0.844706  0.346830  1
  Cu  Cu17  1  0.346830  0.346830  0.844707  1
  Cu  Cu18  1  0.844706  0.346831  0.346830  1
