# generated using pymatgen
data_Zn22RhAu2
_symmetry_space_group_name_H-M   'P 1'
_cell_length_a   7.83882043
_cell_length_b   7.83882177
_cell_length_c   7.86427373
_cell_angle_alpha   72.75010569
_cell_angle_beta   72.75009828
_cell_angle_gamma   58.91004289
_symmetry_Int_Tables_number   1
_chemical_formula_structural   Zn22RhAu2
_chemical_formula_sum   'Zn22 Rh1 Au2'
_cell_volume   389.08641163
_cell_formula_units_Z   1
loop_
 _symmetry_equiv_pos_site_id
 _symmetry_equiv_pos_as_xyz
  1  'x, y, z'
loop_
 _atom_site_type_symbol
 _atom_site_label
 _atom_site_symmetry_multiplicity
 _atom_site_fract_x
 _atom_site_fract_y
 _atom_site_fract_z
 _atom_site_occupancy
  Zn  Zn0  1  0.336291  0.733923  0.320044  1
  Zn  Zn1  1  0.663709  0.266077  0.679956  1
  Zn  Zn2  1  0.266077  0.663709  0.679956  1
  Zn  Zn3  1  0.733923  0.336291  0.320044  1
  Zn  Zn4  1  0.690146  0.309854  0.000000  1
  Zn  Zn5  1  0.309854  0.690146  0.000000  1
  Zn  Zn6  1  0.833576  0.833576  0.778592  1
  Zn  Zn7  1  0.166424  0.166424  0.221408  1
  Zn  Zn8  1  0.975664  0.975664  0.173945  1
  Zn  Zn9  1  0.024336  0.024336  0.826055  1
  Zn  Zn10  1  0.359351  0.359351  0.276773  1
  Zn  Zn11  1  0.640649  0.640649  0.723227  1
  Zn  Zn12  1  0.683986  0.683986  0.386690  1
  Zn  Zn13  1  0.316014  0.316014  0.613310  1
  Zn  Zn14  1  0.659836  0.020002  0.459284  1
  Zn  Zn15  1  0.340164  0.979998  0.540716  1
  Zn  Zn16  1  0.979998  0.340164  0.540716  1
  Zn  Zn17  1  0.020002  0.659836  0.459284  1
  Zn  Zn18  1  0.628726  0.997838  0.118001  1
  Zn  Zn19  1  0.371274  0.002162  0.881999  1
  Zn  Zn20  1  0.002162  0.371274  0.881999  1
  Zn  Zn21  1  0.997838  0.628726  0.118001  1
  Rh  Rh22  1  0.000000  0.000000  0.500000  1
  Au  Au23  1  0.658191  0.658191  0.056220  1
  Au  Au24  1  0.341809  0.341809  0.943780  1
