# generated using pymatgen
data_Sr4P2S
_symmetry_space_group_name_H-M   'P 1'
_cell_length_a   7.91446668
_cell_length_b   7.91446525
_cell_length_c   7.91446600
_cell_angle_alpha   109.64715380
_cell_angle_beta   109.64715009
_cell_angle_gamma   109.11992822
_symmetry_Int_Tables_number   1
_chemical_formula_structural   Sr4P2S
_chemical_formula_sum   'Sr8 P4 S2'
_cell_volume   381.61964421
_cell_formula_units_Z   2
loop_
 _symmetry_equiv_pos_site_id
 _symmetry_equiv_pos_as_xyz
  1  'x, y, z'
loop_
 _atom_site_type_symbol
 _atom_site_label
 _atom_site_symmetry_multiplicity
 _atom_site_fract_x
 _atom_site_fract_y
 _atom_site_fract_z
 _atom_site_occupancy
  Sr  Sr0  1  0.629098  0.881824  0.885385  1
  Sr  Sr1  1  0.256288  0.370902  0.252726  1
  Sr  Sr2  1  0.118176  0.003561  0.747274  1
  Sr  Sr3  1  0.493712  0.246439  0.614615  1
  Sr  Sr4  1  0.120902  0.506288  0.752726  1
  Sr  Sr5  1  0.753561  0.368176  0.247274  1
  Sr  Sr6  1  0.996439  0.743712  0.114615  1
  Sr  Sr7  1  0.631824  0.879098  0.385385  1
  P  P8  1  0.375000  0.993984  0.118984  1
  P  P9  1  0.006016  0.125000  0.381016  1
  P  P10  1  0.875000  0.256016  0.881016  1
  P  P11  1  0.743984  0.625000  0.618984  1
  S  S12  1  0.500000  0.500000  0.000000  1
  S  S13  1  0.250000  0.750000  0.500000  1
