# generated using pymatgen
data_Hf16ReNi4Os3
_symmetry_space_group_name_H-M   'P 1'
_cell_length_a   8.62139424
_cell_length_b   8.62139357
_cell_length_c   8.62139565
_cell_angle_alpha   59.98735701
_cell_angle_beta   59.98736102
_cell_angle_gamma   59.98735943
_symmetry_Int_Tables_number   1
_chemical_formula_structural   Hf16ReNi4Os3
_chemical_formula_sum   'Hf16 Re1 Ni4 Os3'
_cell_volume   452.99463489
_cell_formula_units_Z   1
loop_
 _symmetry_equiv_pos_site_id
 _symmetry_equiv_pos_as_xyz
  1  'x, y, z'
loop_
 _atom_site_type_symbol
 _atom_site_label
 _atom_site_symmetry_multiplicity
 _atom_site_fract_x
 _atom_site_fract_y
 _atom_site_fract_z
 _atom_site_occupancy
  Hf  Hf0  1  0.681964  0.106239  0.106239  1
  Hf  Hf1  1  0.106239  0.681964  0.106239  1
  Hf  Hf2  1  0.106239  0.106239  0.681964  1
  Hf  Hf3  1  0.105228  0.105228  0.105228  1
  Hf  Hf4  1  0.315556  0.315556  0.683754  1
  Hf  Hf5  1  0.684978  0.684978  0.315258  1
  Hf  Hf6  1  0.315556  0.683754  0.315556  1
  Hf  Hf7  1  0.684978  0.315258  0.684978  1
  Hf  Hf8  1  0.683754  0.315556  0.315556  1
  Hf  Hf9  1  0.315258  0.684978  0.684978  1
  Hf  Hf10  1  0.952300  0.952300  0.547752  1
  Hf  Hf11  1  0.547896  0.547896  0.953133  1
  Hf  Hf12  1  0.952300  0.547752  0.952300  1
  Hf  Hf13  1  0.547896  0.953133  0.547896  1
  Hf  Hf14  1  0.547752  0.952300  0.952300  1
  Hf  Hf15  1  0.953133  0.547896  0.547896  1
  Re  Re16  1  0.333337  0.333337  0.333337  1
  Ni  Ni17  1  0.321811  0.892486  0.892486  1
  Ni  Ni18  1  0.892486  0.321811  0.892486  1
  Ni  Ni19  1  0.892486  0.892486  0.321811  1
  Ni  Ni20  1  0.892932  0.892932  0.892932  1
  Os  Os21  1  0.998265  0.333828  0.333828  1
  Os  Os22  1  0.333828  0.998265  0.333828  1
  Os  Os23  1  0.333828  0.333828  0.998265  1
