# generated using pymatgen
data_Y7Lu13(Cd3Fe)2
_symmetry_space_group_name_H-M   'P 1'
_cell_length_a   9.45981969
_cell_length_b   9.49189904
_cell_length_c   9.62275175
_cell_angle_alpha   89.99999890
_cell_angle_beta   90.03900291
_cell_angle_gamma   120.11223221
_symmetry_Int_Tables_number   1
_chemical_formula_structural   Y7Lu13(Cd3Fe)2
_chemical_formula_sum   'Y7 Lu13 Cd6 Fe2'
_cell_volume   747.43508745
_cell_formula_units_Z   1
loop_
 _symmetry_equiv_pos_site_id
 _symmetry_equiv_pos_as_xyz
  1  'x, y, z'
loop_
 _atom_site_type_symbol
 _atom_site_label
 _atom_site_symmetry_multiplicity
 _atom_site_fract_x
 _atom_site_fract_y
 _atom_site_fract_z
 _atom_site_occupancy
  Y  Y0  1  0.539423  0.458489  0.251079  1
  Y  Y1  1  0.539423  0.080934  0.251079  1
  Y  Y2  1  0.920552  0.460276  0.249821  1
  Y  Y3  1  0.460542  0.538945  0.748901  1
  Y  Y4  1  0.460542  0.921598  0.748901  1
  Y  Y5  1  0.080584  0.540292  0.749721  1
  Y  Y6  1  0.576543  0.788273  0.063630  1
  Lu  Lu7  1  0.000222  0.000111  0.499763  1
  Lu  Lu8  1  0.001097  0.000548  0.999734  1
  Lu  Lu9  1  0.211961  0.787546  0.435661  1
  Lu  Lu10  1  0.211961  0.424417  0.435661  1
  Lu  Lu11  1  0.576179  0.788091  0.437878  1
  Lu  Lu12  1  0.788134  0.212832  0.564344  1
  Lu  Lu13  1  0.788134  0.575300  0.564344  1
  Lu  Lu14  1  0.424229  0.212113  0.564004  1
  Lu  Lu15  1  0.788452  0.213325  0.935095  1
  Lu  Lu16  1  0.788452  0.575125  0.935095  1
  Lu  Lu17  1  0.424995  0.212496  0.936373  1
  Lu  Lu18  1  0.210320  0.787677  0.064179  1
  Lu  Lu19  1  0.210320  0.422645  0.064179  1
  Cd  Cd20  1  0.887332  0.112723  0.249997  1
  Cd  Cd21  1  0.887332  0.774608  0.249997  1
  Cd  Cd22  1  0.225416  0.112708  0.250447  1
  Cd  Cd23  1  0.112662  0.887485  0.749822  1
  Cd  Cd24  1  0.112662  0.225177  0.749822  1
  Cd  Cd25  1  0.774480  0.887240  0.749761  1
  Fe  Fe26  1  0.331634  0.665818  0.250761  1
  Fe  Fe27  1  0.666415  0.333207  0.749950  1
