# generated using pymatgen
data_Nb3Al2CuN
_symmetry_space_group_name_H-M   'P 1'
_cell_length_a   8.26738214
_cell_length_b   8.26738200
_cell_length_c   8.26738300
_cell_angle_alpha   60.00000000
_cell_angle_beta   60.00000057
_cell_angle_gamma   59.99999750
_symmetry_Int_Tables_number   1
_chemical_formula_structural   Nb3Al2CuN
_chemical_formula_sum   'Nb12 Al8 Cu4 N4'
_cell_volume   399.56650128
_cell_formula_units_Z   4
loop_
 _symmetry_equiv_pos_site_id
 _symmetry_equiv_pos_as_xyz
  1  'x, y, z'
loop_
 _atom_site_type_symbol
 _atom_site_label
 _atom_site_symmetry_multiplicity
 _atom_site_fract_x
 _atom_site_fract_y
 _atom_site_fract_z
 _atom_site_occupancy
  Nb  Nb0  1  0.814142  0.814142  0.185858  1
  Nb  Nb1  1  0.185858  0.185858  0.814142  1
  Nb  Nb2  1  0.814142  0.185858  0.814142  1
  Nb  Nb3  1  0.185858  0.814142  0.185858  1
  Nb  Nb4  1  0.185858  0.814142  0.814142  1
  Nb  Nb5  1  0.814142  0.185858  0.185858  1
  Nb  Nb6  1  0.435858  0.435858  0.064142  1
  Nb  Nb7  1  0.064142  0.064142  0.435858  1
  Nb  Nb8  1  0.435858  0.064142  0.435858  1
  Nb  Nb9  1  0.064142  0.435858  0.064142  1
  Nb  Nb10  1  0.064142  0.435858  0.435858  1
  Nb  Nb11  1  0.435858  0.064142  0.064142  1
  Al  Al12  1  0.751392  0.416203  0.416203  1
  Al  Al13  1  0.416203  0.751392  0.416203  1
  Al  Al14  1  0.416203  0.416203  0.751392  1
  Al  Al15  1  0.416203  0.416203  0.416203  1
  Al  Al16  1  0.498608  0.833797  0.833797  1
  Al  Al17  1  0.833797  0.498608  0.833797  1
  Al  Al18  1  0.833797  0.833797  0.498608  1
  Al  Al19  1  0.833797  0.833797  0.833797  1
  Cu  Cu20  1  0.125000  0.625000  0.625000  1
  Cu  Cu21  1  0.625000  0.125000  0.625000  1
  Cu  Cu22  1  0.625000  0.625000  0.125000  1
  Cu  Cu23  1  0.625000  0.625000  0.625000  1
  N  N24  1  0.625000  0.125000  0.125000  1
  N  N25  1  0.125000  0.625000  0.125000  1
  N  N26  1  0.125000  0.125000  0.625000  1
  N  N27  1  0.125000  0.125000  0.125000  1
