# generated using pymatgen
data_Tb5Lu3(SiO5)4
_symmetry_space_group_name_H-M   'P 1'
_cell_length_a   6.74033233
_cell_length_b   8.00165225
_cell_length_c   9.59224414
_cell_angle_alpha   90.50106298
_cell_angle_beta   110.52905921
_cell_angle_gamma   115.22428184
_symmetry_Int_Tables_number   1
_chemical_formula_structural   Tb5Lu3(SiO5)4
_chemical_formula_sum   'Tb5 Lu3 Si4 O20'
_cell_volume   430.58518492
_cell_formula_units_Z   1
loop_
 _symmetry_equiv_pos_site_id
 _symmetry_equiv_pos_as_xyz
  1  'x, y, z'
loop_
 _atom_site_type_symbol
 _atom_site_label
 _atom_site_symmetry_multiplicity
 _atom_site_fract_x
 _atom_site_fract_y
 _atom_site_fract_z
 _atom_site_occupancy
  Tb  Tb0  1  0.681846  0.387820  0.463546  1
  Tb  Tb1  1  0.317068  0.607389  0.535194  1
  Tb  Tb2  1  0.177355  0.949021  0.664004  1
  Tb  Tb3  1  0.063473  0.553766  0.837101  1
  Tb  Tb4  1  0.677036  0.894438  0.964818  1
  Lu  Lu5  1  0.332590  0.106738  0.033181  1
  Lu  Lu6  1  0.926427  0.445005  0.166864  1
  Lu  Lu7  1  0.815358  0.053669  0.331988  1
  Si  Si8  1  0.463657  0.554764  0.192716  1
  Si  Si9  1  0.214376  0.943221  0.303347  1
  Si  Si10  1  0.783664  0.054082  0.688848  1
  Si  Si11  1  0.538576  0.447308  0.815145  1
  O  O12  1  0.188557  0.462555  0.065574  1
  O  O13  1  0.716801  0.140845  0.104271  1
  O  O14  1  0.061809  0.970570  0.136652  1
  O  O15  1  0.621568  0.770994  0.178675  1
  O  O16  1  0.583857  0.415034  0.177051  1
  O  O17  1  0.491912  0.075724  0.318235  1
  O  O18  1  0.162161  0.726715  0.319232  1
  O  O19  1  0.449476  0.535048  0.359935  1
  O  O20  1  0.974678  0.357570  0.394566  1
  O  O21  1  0.165984  0.039626  0.432563  1
  O  O22  1  0.820747  0.961987  0.551754  1
  O  O23  1  0.024291  0.638605  0.601045  1
  O  O24  1  0.564217  0.467688  0.650730  1
  O  O25  1  0.827698  0.268034  0.674730  1
  O  O26  1  0.511984  0.919348  0.681903  1
  O  O27  1  0.410713  0.582050  0.822269  1
  O  O28  1  0.386599  0.232562  0.831775  1
  O  O29  1  0.953885  0.031731  0.851735  1
  O  O30  1  0.284311  0.864999  0.900621  1
  O  O31  1  0.807325  0.541096  0.949925  1
