# generated using pymatgen
data_Sr2Er2LuSn4
_symmetry_space_group_name_H-M   'P 1'
_cell_length_a   8.02383800
_cell_length_b   8.51648700
_cell_length_c   16.16373900
_cell_angle_alpha   90.00000000
_cell_angle_beta   90.00000000
_cell_angle_gamma   90.00000000
_symmetry_Int_Tables_number   1
_chemical_formula_structural   Sr2Er2LuSn4
_chemical_formula_sum   'Sr8 Er8 Lu4 Sn16'
_cell_volume   1104.54768243
_cell_formula_units_Z   4
loop_
 _symmetry_equiv_pos_site_id
 _symmetry_equiv_pos_as_xyz
  1  'x, y, z'
loop_
 _atom_site_type_symbol
 _atom_site_label
 _atom_site_symmetry_multiplicity
 _atom_site_fract_x
 _atom_site_fract_y
 _atom_site_fract_z
 _atom_site_occupancy
  Sr  Sr0  1  0.501529  0.677214  0.594732  1
  Sr  Sr1  1  0.001529  0.822786  0.905268  1
  Sr  Sr2  1  0.498471  0.322786  0.094732  1
  Sr  Sr3  1  0.998471  0.177214  0.405268  1
  Sr  Sr4  1  0.498471  0.322786  0.405268  1
  Sr  Sr5  1  0.998471  0.177214  0.094732  1
  Sr  Sr6  1  0.501529  0.677214  0.905268  1
  Sr  Sr7  1  0.001529  0.822786  0.594732  1
  Er  Er8  1  0.671631  0.166655  0.623457  1
  Er  Er9  1  0.171631  0.333345  0.876543  1
  Er  Er10  1  0.328369  0.833345  0.123457  1
  Er  Er11  1  0.828369  0.666655  0.376543  1
  Er  Er12  1  0.328369  0.833345  0.376543  1
  Er  Er13  1  0.828369  0.666655  0.123457  1
  Er  Er14  1  0.671631  0.166655  0.876543  1
  Er  Er15  1  0.171631  0.333345  0.623457  1
  Lu  Lu16  1  0.836492  0.504259  0.750000  1
  Lu  Lu17  1  0.336492  0.995741  0.750000  1
  Lu  Lu18  1  0.163508  0.495741  0.250000  1
  Lu  Lu19  1  0.663508  0.004259  0.250000  1
  Sn  Sn20  1  0.663987  0.958614  0.457618  1
  Sn  Sn21  1  0.163987  0.541386  0.042382  1
  Sn  Sn22  1  0.336013  0.041386  0.957618  1
  Sn  Sn23  1  0.836013  0.458614  0.542382  1
  Sn  Sn24  1  0.336013  0.041386  0.542382  1
  Sn  Sn25  1  0.836013  0.458614  0.957618  1
  Sn  Sn26  1  0.663987  0.958614  0.042382  1
  Sn  Sn27  1  0.163987  0.541386  0.457618  1
  Sn  Sn28  1  0.472708  0.363342  0.750000  1
  Sn  Sn29  1  0.972708  0.136658  0.750000  1
  Sn  Sn30  1  0.527292  0.636658  0.250000  1
  Sn  Sn31  1  0.027292  0.863342  0.250000  1
  Sn  Sn32  1  0.704109  0.872141  0.750000  1
  Sn  Sn33  1  0.204109  0.627859  0.750000  1
  Sn  Sn34  1  0.295891  0.127859  0.250000  1
  Sn  Sn35  1  0.795891  0.372141  0.250000  1
