# generated using pymatgen
data_TmLu3(AlRu)4
_symmetry_space_group_name_H-M   'P 1'
_cell_length_a   3.98165000
_cell_length_b   6.94382790
_cell_length_c   7.99843367
_cell_angle_alpha   89.90332616
_cell_angle_beta   90.00000000
_cell_angle_gamma   90.00000000
_symmetry_Int_Tables_number   1
_chemical_formula_structural   TmLu3(AlRu)4
_chemical_formula_sum   'Tm1 Lu3 Al4 Ru4'
_cell_volume   221.13951830
_cell_formula_units_Z   1
loop_
 _symmetry_equiv_pos_site_id
 _symmetry_equiv_pos_as_xyz
  1  'x, y, z'
loop_
 _atom_site_type_symbol
 _atom_site_label
 _atom_site_symmetry_multiplicity
 _atom_site_fract_x
 _atom_site_fract_y
 _atom_site_fract_z
 _atom_site_occupancy
  Tm  Tm0  1  0.750000  0.033612  0.677471  1
  Lu  Lu1  1  0.250000  0.965756  0.322336  1
  Lu  Lu2  1  0.750000  0.534196  0.823313  1
  Lu  Lu3  1  0.250000  0.466115  0.177014  1
  Al  Al4  1  0.750000  0.637212  0.440384  1
  Al  Al5  1  0.750000  0.137851  0.059768  1
  Al  Al6  1  0.250000  0.362664  0.558901  1
  Al  Al7  1  0.250000  0.862146  0.940888  1
  Ru  Ru8  1  0.750000  0.766406  0.126319  1
  Ru  Ru9  1  0.750000  0.266348  0.372900  1
  Ru  Ru10  1  0.250000  0.235411  0.874506  1
  Ru  Ru11  1  0.250000  0.732282  0.626200  1
