# generated using pymatgen
data_Lu4Al17GeIr6
_symmetry_space_group_name_H-M   'P 1'
_cell_length_a   7.52626779
_cell_length_b   7.52626684
_cell_length_c   9.39786300
_cell_angle_alpha   90.00000000
_cell_angle_beta   90.00000000
_cell_angle_gamma   119.58975990
_symmetry_Int_Tables_number   1
_chemical_formula_structural   Lu4Al17GeIr6
_chemical_formula_sum   'Lu4 Al17 Ge1 Ir6'
_cell_volume   462.91315930
_cell_formula_units_Z   1
loop_
 _symmetry_equiv_pos_site_id
 _symmetry_equiv_pos_as_xyz
  1  'x, y, z'
loop_
 _atom_site_type_symbol
 _atom_site_label
 _atom_site_symmetry_multiplicity
 _atom_site_fract_x
 _atom_site_fract_y
 _atom_site_fract_z
 _atom_site_occupancy
  Lu  Lu0  1  0.994867  0.676299  0.250000  1
  Lu  Lu1  1  0.003850  0.329258  0.750000  1
  Lu  Lu2  1  0.676299  0.994867  0.250000  1
  Lu  Lu3  1  0.329258  0.003850  0.750000  1
  Al  Al4  1  0.872771  0.872771  0.750000  1
  Al  Al5  1  0.999333  0.337579  0.075625  1
  Al  Al6  1  0.998883  0.664866  0.923766  1
  Al  Al7  1  0.998883  0.664866  0.576234  1
  Al  Al8  1  0.337579  0.999333  0.424375  1
  Al  Al9  1  0.999333  0.337579  0.424375  1
  Al  Al10  1  0.664866  0.998883  0.576234  1
  Al  Al11  1  0.664866  0.998883  0.923766  1
  Al  Al12  1  0.337579  0.999333  0.075625  1
  Al  Al13  1  0.331886  0.331886  0.560122  1
  Al  Al14  1  0.664493  0.664493  0.445599  1
  Al  Al15  1  0.664493  0.664493  0.054401  1
  Al  Al16  1  0.331886  0.331886  0.939878  1
  Al  Al17  1  0.337489  0.554774  0.250000  1
  Al  Al18  1  0.661624  0.451565  0.750000  1
  Al  Al19  1  0.554774  0.337489  0.250000  1
  Al  Al20  1  0.451565  0.661624  0.750000  1
  Ge  Ge21  1  0.133171  0.133171  0.250000  1
  Ir  Ir22  1  0.669889  0.326199  0.000201  1
  Ir  Ir23  1  0.326199  0.669889  0.000201  1
  Ir  Ir24  1  0.326199  0.669889  0.499799  1
  Ir  Ir25  1  0.669889  0.326199  0.499799  1
  Ir  Ir26  1  0.999040  0.999040  0.001278  1
  Ir  Ir27  1  0.999040  0.999040  0.498722  1
