# generated using pymatgen
data_Hf5ZrCo23
_symmetry_space_group_name_H-M   'P 1'
_cell_length_a   8.09031603
_cell_length_b   8.09731426
_cell_length_c   8.09031603
_cell_angle_alpha   120.02861643
_cell_angle_beta   89.90083754
_cell_angle_gamma   120.02861643
_symmetry_Int_Tables_number   1
_chemical_formula_structural   Hf5ZrCo23
_chemical_formula_sum   'Hf5 Zr1 Co23'
_cell_volume   374.76267758
_cell_formula_units_Z   1
loop_
 _symmetry_equiv_pos_site_id
 _symmetry_equiv_pos_as_xyz
  1  'x, y, z'
loop_
 _atom_site_type_symbol
 _atom_site_label
 _atom_site_symmetry_multiplicity
 _atom_site_fract_x
 _atom_site_fract_y
 _atom_site_fract_z
 _atom_site_occupancy
  Hf  Hf0  1  0.289350  0.000000  0.288814  1
  Hf  Hf1  1  0.710410  0.000000  0.289589  1
  Hf  Hf2  1  0.289350  0.578164  0.288814  1
  Hf  Hf3  1  0.711185  0.421835  0.710649  1
  Hf  Hf4  1  0.711186  0.000000  0.710650  1
  Zr  Zr5  1  0.290503  0.000000  0.709496  1
  Co  Co6  1  0.999935  0.000000  0.000065  1
  Co  Co7  1  0.500462  0.000000  0.000635  1
  Co  Co8  1  0.999922  0.500001  0.000078  1
  Co  Co9  1  0.500462  0.501098  0.000635  1
  Co  Co10  1  0.674713  0.348721  0.022728  1
  Co  Co11  1  0.879261  0.758658  0.120738  1
  Co  Co12  1  0.362201  0.241872  0.121545  1
  Co  Co13  1  0.879261  0.241341  0.120738  1
  Co  Co14  1  0.674063  0.348083  0.325938  1
  Co  Co15  1  0.674063  0.651918  0.325938  1
  Co  Co16  1  0.977273  0.651280  0.325288  1
  Co  Co17  1  0.120603  0.241341  0.362080  1
  Co  Co18  1  0.999365  0.000000  0.499540  1
  Co  Co19  1  0.999365  0.498904  0.499540  1
  Co  Co20  1  0.499923  0.500001  0.500079  1
  Co  Co21  1  0.878454  0.758127  0.637799  1
  Co  Co22  1  0.022146  0.348083  0.674020  1
  Co  Co23  1  0.325993  0.348721  0.674008  1
  Co  Co24  1  0.325993  0.651280  0.674008  1
  Co  Co25  1  0.120327  0.241872  0.879672  1
  Co  Co26  1  0.120327  0.758127  0.879672  1
  Co  Co27  1  0.637920  0.758658  0.879396  1
  Co  Co28  1  0.325981  0.651918  0.977855  1
