# generated using pymatgen
data_Li4Ca3YSi7Ge
_symmetry_space_group_name_H-M   'P 1'
_cell_length_a   3.81693000
_cell_length_b   7.88603652
_cell_length_c   10.53735098
_cell_angle_alpha   89.85278976
_cell_angle_beta   90.00000000
_cell_angle_gamma   90.00000000
_symmetry_Int_Tables_number   1
_chemical_formula_structural   Li4Ca3YSi7Ge
_chemical_formula_sum   'Li4 Ca3 Y1 Si7 Ge1'
_cell_volume   317.17795292
_cell_formula_units_Z   1
loop_
 _symmetry_equiv_pos_site_id
 _symmetry_equiv_pos_as_xyz
  1  'x, y, z'
loop_
 _atom_site_type_symbol
 _atom_site_label
 _atom_site_symmetry_multiplicity
 _atom_site_fract_x
 _atom_site_fract_y
 _atom_site_fract_z
 _atom_site_occupancy
  Li  Li0  1  0.250000  0.997232  0.388407  1
  Li  Li1  1  0.750000  0.001411  0.609316  1
  Li  Li2  1  0.250000  0.495754  0.110472  1
  Li  Li3  1  0.750000  0.507485  0.887865  1
  Ca  Ca4  1  0.750000  0.868272  0.136476  1
  Ca  Ca5  1  0.250000  0.634545  0.636452  1
  Ca  Ca6  1  0.750000  0.363248  0.365394  1
  Y  Y7  1  0.250000  0.130578  0.865077  1
  Si  Si8  1  0.750000  0.267764  0.061480  1
  Si  Si9  1  0.750000  0.766760  0.431934  1
  Si  Si10  1  0.250000  0.226861  0.573588  1
  Si  Si11  1  0.750000  0.845798  0.820859  1
  Si  Si12  1  0.250000  0.164200  0.170108  1
  Si  Si13  1  0.750000  0.331155  0.681969  1
  Si  Si14  1  0.250000  0.663531  0.324589  1
  Ge  Ge15  1  0.250000  0.735403  0.936016  1
