# generated using pymatgen
data_Lu10Al3Ir
_symmetry_space_group_name_H-M   'P 1'
_cell_length_a   9.30437027
_cell_length_b   9.30462998
_cell_length_c   9.47575400
_cell_angle_alpha   90.00000000
_cell_angle_beta   90.00000000
_cell_angle_gamma   119.97691815
_symmetry_Int_Tables_number   1
_chemical_formula_structural   Lu10Al3Ir
_chemical_formula_sum   'Lu20 Al6 Ir2'
_cell_volume   710.61024692
_cell_formula_units_Z   2
loop_
 _symmetry_equiv_pos_site_id
 _symmetry_equiv_pos_as_xyz
  1  'x, y, z'
loop_
 _atom_site_type_symbol
 _atom_site_label
 _atom_site_symmetry_multiplicity
 _atom_site_fract_x
 _atom_site_fract_y
 _atom_site_fract_z
 _atom_site_occupancy
  Lu  Lu0  1  0.000000  0.000000  0.500000  1
  Lu  Lu1  1  0.000000  0.000000  0.000000  1
  Lu  Lu2  1  0.206941  0.793227  0.441409  1
  Lu  Lu3  1  0.206894  0.413855  0.441568  1
  Lu  Lu4  1  0.586210  0.793175  0.441527  1
  Lu  Lu5  1  0.793059  0.206773  0.558591  1
  Lu  Lu6  1  0.793106  0.586145  0.558432  1
  Lu  Lu7  1  0.413790  0.206825  0.558473  1
  Lu  Lu8  1  0.793059  0.206773  0.941409  1
  Lu  Lu9  1  0.793106  0.586145  0.941568  1
  Lu  Lu10  1  0.413790  0.206825  0.941527  1
  Lu  Lu11  1  0.206941  0.793227  0.058591  1
  Lu  Lu12  1  0.206894  0.413855  0.058432  1
  Lu  Lu13  1  0.586210  0.793175  0.058473  1
  Lu  Lu14  1  0.540082  0.460011  0.250000  1
  Lu  Lu15  1  0.540227  0.080279  0.250000  1
  Lu  Lu16  1  0.920031  0.460008  0.250000  1
  Lu  Lu17  1  0.459918  0.539989  0.750000  1
  Lu  Lu18  1  0.459773  0.919721  0.750000  1
  Lu  Lu19  1  0.079969  0.539992  0.750000  1
  Al  Al20  1  0.889782  0.110324  0.250000  1
  Al  Al21  1  0.889746  0.779435  0.250000  1
  Al  Al22  1  0.220647  0.110359  0.250000  1
  Al  Al23  1  0.110218  0.889676  0.750000  1
  Al  Al24  1  0.110254  0.220565  0.750000  1
  Al  Al25  1  0.779353  0.889641  0.750000  1
  Ir  Ir26  1  0.333793  0.666295  0.250000  1
  Ir  Ir27  1  0.666207  0.333705  0.750000  1
