# generated using pymatgen
data_TbLuPa2(Al3Rh)6
_symmetry_space_group_name_H-M   'P 1'
_cell_length_a   7.58850774
_cell_length_b   7.59298987
_cell_length_c   9.36923500
_cell_angle_alpha   90.00000000
_cell_angle_beta   90.00000000
_cell_angle_gamma   119.61129932
_symmetry_Int_Tables_number   1
_chemical_formula_structural   TbLuPa2(Al3Rh)6
_chemical_formula_sum   'Tb1 Lu1 Pa2 Al18 Rh6'
_cell_volume   469.34448807
_cell_formula_units_Z   1
loop_
 _symmetry_equiv_pos_site_id
 _symmetry_equiv_pos_as_xyz
  1  'x, y, z'
loop_
 _atom_site_type_symbol
 _atom_site_label
 _atom_site_symmetry_multiplicity
 _atom_site_fract_x
 _atom_site_fract_y
 _atom_site_fract_z
 _atom_site_occupancy
  Tb  Tb0  1  0.669905  0.993587  0.250000  1
  Lu  Lu1  1  0.329537  0.006516  0.750000  1
  Pa  Pa2  1  0.996983  0.670644  0.250000  1
  Pa  Pa3  1  0.003066  0.329253  0.750000  1
  Al  Al4  1  0.130380  0.126252  0.250000  1
  Al  Al5  1  0.870851  0.874135  0.750000  1
  Al  Al6  1  0.000626  0.332264  0.077261  1
  Al  Al7  1  0.000682  0.668936  0.921535  1
  Al  Al8  1  0.000682  0.668936  0.578465  1
  Al  Al9  1  0.337479  0.002491  0.426244  1
  Al  Al10  1  0.000626  0.332264  0.422739  1
  Al  Al11  1  0.661149  0.997369  0.576192  1
  Al  Al12  1  0.661149  0.997369  0.923808  1
  Al  Al13  1  0.337479  0.002491  0.073756  1
  Al  Al14  1  0.334777  0.332544  0.553876  1
  Al  Al15  1  0.665289  0.666615  0.447872  1
  Al  Al16  1  0.665289  0.666615  0.052128  1
  Al  Al17  1  0.334777  0.332544  0.946124  1
  Al  Al18  1  0.340096  0.548533  0.250000  1
  Al  Al19  1  0.659055  0.450107  0.750000  1
  Al  Al20  1  0.549548  0.341459  0.250000  1
  Al  Al21  1  0.449796  0.658771  0.750000  1
  Rh  Rh22  1  0.674883  0.328892  0.999381  1
  Rh  Rh23  1  0.324830  0.671163  0.999982  1
  Rh  Rh24  1  0.324830  0.671163  0.500018  1
  Rh  Rh25  1  0.674883  0.328892  0.500619  1
  Rh  Rh26  1  0.000676  0.000096  0.999693  1
  Rh  Rh27  1  0.000676  0.000096  0.500307  1
