# generated using pymatgen
data_Sm2Zr2ScGa4
_symmetry_space_group_name_H-M   'P 1'
_cell_length_a   7.21350300
_cell_length_b   7.57696200
_cell_length_c   14.43792000
_cell_angle_alpha   90.00000000
_cell_angle_beta   90.00000000
_cell_angle_gamma   90.00000000
_symmetry_Int_Tables_number   1
_chemical_formula_structural   Sm2Zr2ScGa4
_chemical_formula_sum   'Sm8 Zr8 Sc4 Ga16'
_cell_volume   789.12528103
_cell_formula_units_Z   4
loop_
 _symmetry_equiv_pos_site_id
 _symmetry_equiv_pos_as_xyz
  1  'x, y, z'
loop_
 _atom_site_type_symbol
 _atom_site_label
 _atom_site_symmetry_multiplicity
 _atom_site_fract_x
 _atom_site_fract_y
 _atom_site_fract_z
 _atom_site_occupancy
  Sm  Sm0  1  0.009226  0.174624  0.093990  1
  Sm  Sm1  1  0.990774  0.825376  0.906010  1
  Sm  Sm2  1  0.490774  0.674624  0.906010  1
  Sm  Sm3  1  0.990774  0.825376  0.593990  1
  Sm  Sm4  1  0.509226  0.325376  0.093990  1
  Sm  Sm5  1  0.009226  0.174624  0.406010  1
  Sm  Sm6  1  0.509226  0.325376  0.406010  1
  Sm  Sm7  1  0.490774  0.674624  0.593990  1
  Zr  Zr8  1  0.328017  0.174708  0.624097  1
  Zr  Zr9  1  0.671983  0.825292  0.375903  1
  Zr  Zr10  1  0.171983  0.674708  0.375903  1
  Zr  Zr11  1  0.671983  0.825292  0.124097  1
  Zr  Zr12  1  0.828017  0.325292  0.624097  1
  Zr  Zr13  1  0.328017  0.174708  0.875903  1
  Zr  Zr14  1  0.828017  0.325292  0.875903  1
  Zr  Zr15  1  0.171983  0.674708  0.124097  1
  Sc  Sc16  1  0.160681  0.504376  0.750000  1
  Sc  Sc17  1  0.839319  0.495624  0.250000  1
  Sc  Sc18  1  0.339319  0.004376  0.250000  1
  Sc  Sc19  1  0.660681  0.995624  0.750000  1
  Ga  Ga20  1  0.030644  0.121883  0.750000  1
  Ga  Ga21  1  0.969356  0.878117  0.250000  1
  Ga  Ga22  1  0.469356  0.621883  0.250000  1
  Ga  Ga23  1  0.530644  0.378117  0.750000  1
  Ga  Ga24  1  0.286245  0.876106  0.750000  1
  Ga  Ga25  1  0.713755  0.123894  0.250000  1
  Ga  Ga26  1  0.213755  0.376106  0.250000  1
  Ga  Ga27  1  0.786245  0.623894  0.750000  1
  Ga  Ga28  1  0.159773  0.460590  0.539841  1
  Ga  Ga29  1  0.840227  0.539410  0.460159  1
  Ga  Ga30  1  0.340227  0.960590  0.460159  1
  Ga  Ga31  1  0.840227  0.539410  0.039841  1
  Ga  Ga32  1  0.659773  0.039410  0.539841  1
  Ga  Ga33  1  0.159773  0.460590  0.960159  1
  Ga  Ga34  1  0.659773  0.039410  0.960159  1
  Ga  Ga35  1  0.340227  0.960590  0.039841  1
