# generated using pymatgen
data_Er10Al5AsC8
_symmetry_space_group_name_H-M   'P 1'
_cell_length_a   10.74069300
_cell_length_b   10.74069300
_cell_length_c   3.48599800
_cell_angle_alpha   90.00000000
_cell_angle_beta   90.00000000
_cell_angle_gamma   90.00000000
_symmetry_Int_Tables_number   1
_chemical_formula_structural   Er10Al5AsC8
_chemical_formula_sum   'Er10 Al5 As1 C8'
_cell_volume   402.15339589
_cell_formula_units_Z   1
loop_
 _symmetry_equiv_pos_site_id
 _symmetry_equiv_pos_as_xyz
  1  'x, y, z'
loop_
 _atom_site_type_symbol
 _atom_site_label
 _atom_site_symmetry_multiplicity
 _atom_site_fract_x
 _atom_site_fract_y
 _atom_site_fract_z
 _atom_site_occupancy
  Er  Er0  1  0.549172  0.727882  0.500000  1
  Er  Er1  1  0.450828  0.272118  0.500000  1
  Er  Er2  1  0.051540  0.769240  0.500000  1
  Er  Er3  1  0.948460  0.230760  0.500000  1
  Er  Er4  1  0.272118  0.549172  0.500000  1
  Er  Er5  1  0.727882  0.450828  0.500000  1
  Er  Er6  1  0.230760  0.051540  0.500000  1
  Er  Er7  1  0.769240  0.948460  0.500000  1
  Er  Er8  1  0.500000  0.000000  0.000000  1
  Er  Er9  1  0.000000  0.500000  0.000000  1
  Al  Al10  1  0.710213  0.195437  0.000000  1
  Al  Al11  1  0.289787  0.804563  0.000000  1
  Al  Al12  1  0.195437  0.289787  0.000000  1
  Al  Al13  1  0.804563  0.710213  0.000000  1
  Al  Al14  1  0.000000  0.000000  0.000000  1
  As  As15  1  0.500000  0.500000  0.000000  1
  C  C16  1  0.628611  0.131487  0.500000  1
  C  C17  1  0.371389  0.868513  0.500000  1
  C  C18  1  0.131487  0.371389  0.500000  1
  C  C19  1  0.868513  0.628611  0.500000  1
  C  C20  1  0.166448  0.659180  0.000000  1
  C  C21  1  0.833552  0.340820  0.000000  1
  C  C22  1  0.659180  0.833552  0.000000  1
  C  C23  1  0.340820  0.166448  0.000000  1
