# generated using pymatgen
data_Er4ThCo4
_symmetry_space_group_name_H-M   'P 1'
_cell_length_a   5.85917805
_cell_length_b   5.85917805
_cell_length_c   9.46654577
_cell_angle_alpha   71.18693327
_cell_angle_beta   71.18692185
_cell_angle_gamma   37.63176462
_symmetry_Int_Tables_number   1
_chemical_formula_structural   Er4ThCo4
_chemical_formula_sum   'Er4 Th1 Co4'
_cell_volume   186.56059201
_cell_formula_units_Z   1
loop_
 _symmetry_equiv_pos_site_id
 _symmetry_equiv_pos_as_xyz
  1  'x, y, z'
loop_
 _atom_site_type_symbol
 _atom_site_label
 _atom_site_symmetry_multiplicity
 _atom_site_fract_x
 _atom_site_fract_y
 _atom_site_fract_z
 _atom_site_occupancy
  Er  Er0  1  0.727376  0.727376  0.686846  1
  Er  Er1  1  0.272624  0.272624  0.313154  1
  Er  Er2  1  0.389509  0.389509  0.900100  1
  Er  Er3  1  0.610491  0.610491  0.099900  1
  Th  Th4  1  0.500000  0.500000  0.500000  1
  Co  Co5  1  0.037150  0.037150  0.673530  1
  Co  Co6  1  0.962850  0.962850  0.326470  1
  Co  Co7  1  0.093259  0.093259  0.891364  1
  Co  Co8  1  0.906741  0.906741  0.108636  1
