# generated using pymatgen
data_Ba14Na17HoN6
_symmetry_space_group_name_H-M   'P 1'
_cell_length_a   11.09669581
_cell_length_b   12.13123078
_cell_length_c   13.44970704
_cell_angle_alpha   67.00066675
_cell_angle_beta   67.82242351
_cell_angle_gamma   79.06898811
_symmetry_Int_Tables_number   1
_chemical_formula_structural   Ba14Na17HoN6
_chemical_formula_sum   'Ba14 Na17 Ho1 N6'
_cell_volume   1541.44453090
_cell_formula_units_Z   1
loop_
 _symmetry_equiv_pos_site_id
 _symmetry_equiv_pos_as_xyz
  1  'x, y, z'
loop_
 _atom_site_type_symbol
 _atom_site_label
 _atom_site_symmetry_multiplicity
 _atom_site_fract_x
 _atom_site_fract_y
 _atom_site_fract_z
 _atom_site_occupancy
  Ba  Ba0  1  0.366956  0.782600  0.444728  1
  Ba  Ba1  1  0.633044  0.217400  0.555272  1
  Ba  Ba2  1  0.270675  0.306726  0.701065  1
  Ba  Ba3  1  0.729325  0.693274  0.298935  1
  Ba  Ba4  1  0.258589  0.520991  0.401192  1
  Ba  Ba5  1  0.741411  0.479009  0.598808  1
  Ba  Ba6  1  0.380619  0.569292  0.741522  1
  Ba  Ba7  1  0.619381  0.430708  0.258478  1
  Ba  Ba8  1  0.344996  0.165391  0.456207  1
  Ba  Ba9  1  0.655004  0.834609  0.543793  1
  Ba  Ba10  1  0.477482  0.788542  0.119349  1
  Ba  Ba11  1  0.522518  0.211458  0.880651  1
  Ba  Ba12  1  0.034066  0.619856  0.675828  1
  Ba  Ba13  1  0.965934  0.380144  0.324172  1
  Na  Na14  1  0.000000  0.000000  0.500000  1
  Na  Na15  1  0.238631  0.096720  0.206855  1
  Na  Na16  1  0.761369  0.903280  0.793145  1
  Na  Na17  1  0.631589  0.599782  0.894536  1
  Na  Na18  1  0.368411  0.400218  0.105464  1
  Na  Na19  1  0.041364  0.815282  0.310856  1
  Na  Na20  1  0.958636  0.184718  0.689144  1
  Na  Na21  1  0.135494  0.891868  0.755405  1
  Na  Na22  1  0.864506  0.108132  0.244595  1
  Na  Na23  1  0.586395  0.084470  0.186696  1
  Na  Na24  1  0.413605  0.915530  0.813304  1
  Na  Na25  1  0.905301  0.644308  0.984439  1
  Na  Na26  1  0.094699  0.355692  0.015561  1
  Na  Na27  1  0.850945  0.972468  0.990921  1
  Na  Na28  1  0.149055  0.027532  0.009079  1
  Na  Na29  1  0.168712  0.688676  0.057258  1
  Na  Na30  1  0.831288  0.311324  0.942742  1
  Ho  Ho31  1  0.500000  0.500000  0.500000  1
  N  N32  1  0.486818  0.635418  0.311971  1
  N  N33  1  0.513182  0.364582  0.688029  1
  N  N34  1  0.429183  0.333456  0.476047  1
  N  N35  1  0.570817  0.666544  0.523953  1
  N  N36  1  0.729039  0.444443  0.408146  1
  N  N37  1  0.270961  0.555557  0.591854  1
