# generated using pymatgen
data_Y9Ho(PPb3)2
_symmetry_space_group_name_H-M   'P 1'
_cell_length_a   9.16521537
_cell_length_b   9.17027660
_cell_length_c   6.81325700
_cell_angle_alpha   90.00000000
_cell_angle_beta   90.00000000
_cell_angle_gamma   120.01828570
_symmetry_Int_Tables_number   1
_chemical_formula_structural   Y9Ho(PPb3)2
_chemical_formula_sum   'Y9 Ho1 P2 Pb6'
_cell_volume   495.82732967
_cell_formula_units_Z   1
loop_
 _symmetry_equiv_pos_site_id
 _symmetry_equiv_pos_as_xyz
  1  'x, y, z'
loop_
 _atom_site_type_symbol
 _atom_site_label
 _atom_site_symmetry_multiplicity
 _atom_site_fract_x
 _atom_site_fract_y
 _atom_site_fract_z
 _atom_site_occupancy
  Y  Y0  1  0.761936  0.762501  0.750000  1
  Y  Y1  1  0.238064  0.000565  0.750000  1
  Y  Y2  1  0.000000  0.237925  0.750000  1
  Y  Y3  1  0.237976  0.237113  0.250000  1
  Y  Y4  1  0.762024  0.999138  0.250000  1
  Y  Y5  1  0.667201  0.333853  0.000111  1
  Y  Y6  1  0.332799  0.666652  0.000111  1
  Y  Y7  1  0.332799  0.666652  0.499889  1
  Y  Y8  1  0.667201  0.333853  0.499889  1
  Ho  Ho9  1  0.000000  0.762953  0.250000  1
  P  P10  1  0.000000  0.999316  0.000267  1
  P  P11  1  0.000000  0.999316  0.499733  1
  Pb  Pb12  1  0.399050  0.399351  0.750000  1
  Pb  Pb13  1  0.600950  0.000301  0.750000  1
  Pb  Pb14  1  0.000000  0.601822  0.750000  1
  Pb  Pb15  1  0.600604  0.600430  0.250000  1
  Pb  Pb16  1  0.399396  0.999827  0.250000  1
  Pb  Pb17  1  0.000000  0.398433  0.250000  1
