# generated using pymatgen
data_TbZr3Al17GaRh6
_symmetry_space_group_name_H-M   'P 1'
_cell_length_a   7.48391107
_cell_length_b   7.47488961
_cell_length_c   9.34511400
_cell_angle_alpha   90.00000000
_cell_angle_beta   90.00000000
_cell_angle_gamma   119.62582436
_symmetry_Int_Tables_number   1
_chemical_formula_structural   TbZr3Al17GaRh6
_chemical_formula_sum   'Tb1 Zr3 Al17 Ga1 Rh6'
_cell_volume   454.43712325
_cell_formula_units_Z   1
loop_
 _symmetry_equiv_pos_site_id
 _symmetry_equiv_pos_as_xyz
  1  'x, y, z'
loop_
 _atom_site_type_symbol
 _atom_site_label
 _atom_site_symmetry_multiplicity
 _atom_site_fract_x
 _atom_site_fract_y
 _atom_site_fract_z
 _atom_site_occupancy
  Tb  Tb0  1  0.326465  0.007184  0.750000  1
  Zr  Zr1  1  0.994238  0.671328  0.250000  1
  Zr  Zr2  1  0.006774  0.327954  0.750000  1
  Zr  Zr3  1  0.670812  0.994095  0.250000  1
  Al  Al4  1  0.122037  0.123514  0.250000  1
  Al  Al5  1  0.996892  0.334533  0.076642  1
  Al  Al6  1  0.999992  0.662071  0.927324  1
  Al  Al7  1  0.999992  0.662071  0.572676  1
  Al  Al8  1  0.335149  0.997874  0.419559  1
  Al  Al9  1  0.996892  0.334533  0.423358  1
  Al  Al10  1  0.668173  0.002175  0.573394  1
  Al  Al11  1  0.668173  0.002175  0.926606  1
  Al  Al12  1  0.335149  0.997874  0.080441  1
  Al  Al13  1  0.332097  0.334790  0.552532  1
  Al  Al14  1  0.668966  0.668841  0.438902  1
  Al  Al15  1  0.668966  0.668841  0.061098  1
  Al  Al16  1  0.332097  0.334790  0.947468  1
  Al  Al17  1  0.337419  0.553951  0.250000  1
  Al  Al18  1  0.667873  0.450932  0.750000  1
  Al  Al19  1  0.555906  0.339058  0.250000  1
  Al  Al20  1  0.444699  0.657141  0.750000  1
  Ga  Ga21  1  0.868111  0.871547  0.750000  1
  Rh  Rh22  1  0.672950  0.328549  0.001140  1
  Rh  Rh23  1  0.329019  0.673607  0.001716  1
  Rh  Rh24  1  0.329019  0.673607  0.498284  1
  Rh  Rh25  1  0.672950  0.328549  0.498860  1
  Rh  Rh26  1  0.999596  0.999207  0.003233  1
  Rh  Rh27  1  0.999596  0.999207  0.496767  1
