# generated using pymatgen
data_NaAc6RuI12
_symmetry_space_group_name_H-M   'P 1'
_cell_length_a   10.49977614
_cell_length_b   10.49977569
_cell_length_c   10.49977448
_cell_angle_alpha   107.07748905
_cell_angle_beta   107.07749828
_cell_angle_gamma   107.07748453
_symmetry_Int_Tables_number   1
_chemical_formula_structural   NaAc6RuI12
_chemical_formula_sum   'Na1 Ac6 Ru1 I12'
_cell_volume   961.97425127
_cell_formula_units_Z   1
loop_
 _symmetry_equiv_pos_site_id
 _symmetry_equiv_pos_as_xyz
  1  'x, y, z'
loop_
 _atom_site_type_symbol
 _atom_site_label
 _atom_site_symmetry_multiplicity
 _atom_site_fract_x
 _atom_site_fract_y
 _atom_site_fract_z
 _atom_site_occupancy
  Na  Na0  1  0.500000  0.500000  0.500000  1
  Ac  Ac1  1  0.893993  0.691200  0.970625  1
  Ac  Ac2  1  0.970625  0.893993  0.691200  1
  Ac  Ac3  1  0.691200  0.970625  0.893993  1
  Ac  Ac4  1  0.106007  0.308800  0.029375  1
  Ac  Ac5  1  0.029375  0.106007  0.308800  1
  Ac  Ac6  1  0.308800  0.029375  0.106007  1
  Ru  Ru7  1  0.000000  0.000000  0.000000  1
  I  I8  1  0.620715  0.840363  0.540313  1
  I  I9  1  0.540313  0.620715  0.840363  1
  I  I10  1  0.840363  0.540313  0.620715  1
  I  I11  1  0.379285  0.159637  0.459687  1
  I  I12  1  0.459687  0.379285  0.159637  1
  I  I13  1  0.159637  0.459687  0.379285  1
  I  I14  1  0.680872  0.075292  0.225619  1
  I  I15  1  0.225619  0.680872  0.075292  1
  I  I16  1  0.075292  0.225619  0.680872  1
  I  I17  1  0.319128  0.924708  0.774381  1
  I  I18  1  0.774381  0.319128  0.924708  1
  I  I19  1  0.924708  0.774381  0.319128  1
