# generated using pymatgen
data_CsUGeS5
_symmetry_space_group_name_H-M   'P 1'
_cell_length_a   7.82482803
_cell_length_b   7.63040225
_cell_length_c   9.75648901
_cell_angle_alpha   67.12376763
_cell_angle_beta   76.87088038
_cell_angle_gamma   73.24269396
_symmetry_Int_Tables_number   1
_chemical_formula_structural   CsUGeS5
_chemical_formula_sum   'Cs2 U2 Ge2 S10'
_cell_volume   509.52758512
_cell_formula_units_Z   2
loop_
 _symmetry_equiv_pos_site_id
 _symmetry_equiv_pos_as_xyz
  1  'x, y, z'
loop_
 _atom_site_type_symbol
 _atom_site_label
 _atom_site_symmetry_multiplicity
 _atom_site_fract_x
 _atom_site_fract_y
 _atom_site_fract_z
 _atom_site_occupancy
  Cs  Cs0  1  0.604436  0.350854  0.314213  1
  Cs  Cs1  1  0.395564  0.649146  0.685787  1
  U  U2  1  0.245110  0.006408  0.005064  1
  U  U3  1  0.754890  0.993592  0.994936  1
  Ge  Ge4  1  0.978000  0.698953  0.378589  1
  Ge  Ge5  1  0.022000  0.301047  0.621411  1
  S  S6  1  0.072855  0.766811  0.000552  1
  S  S7  1  0.438711  0.219358  0.023142  1
  S  S8  1  0.709753  0.848344  0.299048  1
  S  S9  1  0.194636  0.863480  0.306231  1
  S  S10  1  0.074432  0.395418  0.364799  1
  S  S11  1  0.925568  0.604582  0.635201  1
  S  S12  1  0.805364  0.136520  0.693769  1
  S  S13  1  0.290247  0.151656  0.700952  1
  S  S14  1  0.561289  0.780642  0.976858  1
  S  S15  1  0.927145  0.233189  0.999448  1
