# generated using pymatgen
data_Na3Sm5(Si3Au)4
_symmetry_space_group_name_H-M   'P 1'
_cell_length_a   8.25557400
_cell_length_b   8.25557330
_cell_length_c   8.50398300
_cell_angle_alpha   90.00000000
_cell_angle_beta   90.00000000
_cell_angle_gamma   120.00000280
_symmetry_Int_Tables_number   1
_chemical_formula_structural   Na3Sm5(Si3Au)4
_chemical_formula_sum   'Na3 Sm5 Si12 Au4'
_cell_volume   501.93504056
_cell_formula_units_Z   1
loop_
 _symmetry_equiv_pos_site_id
 _symmetry_equiv_pos_as_xyz
  1  'x, y, z'
loop_
 _atom_site_type_symbol
 _atom_site_label
 _atom_site_symmetry_multiplicity
 _atom_site_fract_x
 _atom_site_fract_y
 _atom_site_fract_z
 _atom_site_occupancy
  Na  Na0  1  0.497967  0.502033  0.750000  1
  Na  Na1  1  0.497967  0.995932  0.750000  1
  Na  Na2  1  0.004068  0.502033  0.750000  1
  Sm  Sm3  1  0.000000  0.000000  0.250000  1
  Sm  Sm4  1  0.000000  0.000000  0.750000  1
  Sm  Sm5  1  0.501302  0.498698  0.250000  1
  Sm  Sm6  1  0.501302  0.002604  0.250000  1
  Sm  Sm7  1  0.997396  0.498698  0.250000  1
  Si  Si8  1  0.162532  0.837468  0.496350  1
  Si  Si9  1  0.162532  0.325064  0.496350  1
  Si  Si10  1  0.674936  0.837468  0.496350  1
  Si  Si11  1  0.837435  0.162565  0.494147  1
  Si  Si12  1  0.837435  0.674871  0.494147  1
  Si  Si13  1  0.325129  0.162565  0.494147  1
  Si  Si14  1  0.837435  0.162565  0.005853  1
  Si  Si15  1  0.837435  0.674871  0.005853  1
  Si  Si16  1  0.325129  0.162565  0.005853  1
  Si  Si17  1  0.162532  0.837468  0.003650  1
  Si  Si18  1  0.162532  0.325064  0.003650  1
  Si  Si19  1  0.674936  0.837468  0.003650  1
  Au  Au20  1  0.333333  0.666667  0.492123  1
  Au  Au21  1  0.666667  0.333333  0.501342  1
  Au  Au22  1  0.666667  0.333333  0.998658  1
  Au  Au23  1  0.333333  0.666667  0.007877  1
