# generated using pymatgen
data_Ca4Fe3RhO12
_symmetry_space_group_name_H-M   'P 1'
_cell_length_a   5.40957644
_cell_length_b   5.53450810
_cell_length_c   7.72031114
_cell_angle_alpha   89.82252627
_cell_angle_beta   90.29064872
_cell_angle_gamma   89.91857866
_symmetry_Int_Tables_number   1
_chemical_formula_structural   Ca4Fe3RhO12
_chemical_formula_sum   'Ca4 Fe3 Rh1 O12'
_cell_volume   231.13673441
_cell_formula_units_Z   1
loop_
 _symmetry_equiv_pos_site_id
 _symmetry_equiv_pos_as_xyz
  1  'x, y, z'
loop_
 _atom_site_type_symbol
 _atom_site_label
 _atom_site_symmetry_multiplicity
 _atom_site_fract_x
 _atom_site_fract_y
 _atom_site_fract_z
 _atom_site_occupancy
  Ca  Ca0  1  0.515656  0.552500  0.757475  1
  Ca  Ca1  1  0.484246  0.447520  0.242486  1
  Ca  Ca2  1  0.991852  0.048184  0.760214  1
  Ca  Ca3  1  0.008148  0.951753  0.239855  1
  Fe  Fe4  1  0.000299  0.499950  0.000007  1
  Fe  Fe5  1  0.500397  0.000108  0.499769  1
  Fe  Fe6  1  0.499589  0.999986  0.000094  1
  Rh  Rh7  1  0.000087  0.499992  0.499990  1
  O  O8  1  0.420450  0.979083  0.750348  1
  O  O9  1  0.907259  0.525800  0.256580  1
  O  O10  1  0.092667  0.474163  0.743458  1
  O  O11  1  0.579556  0.020932  0.249632  1
  O  O12  1  0.206342  0.215140  0.041799  1
  O  O13  1  0.195170  0.204635  0.450046  1
  O  O14  1  0.715933  0.292199  0.958055  1
  O  O15  1  0.804899  0.795395  0.549945  1
  O  O16  1  0.297242  0.698830  0.453065  1
  O  O17  1  0.793515  0.784797  0.958246  1
  O  O18  1  0.702791  0.301176  0.546947  1
  O  O19  1  0.283903  0.707857  0.041990  1
