# generated using pymatgen
data_AlZn2Rh3S8
_symmetry_space_group_name_H-M   'P 1'
_cell_length_a   7.05707591
_cell_length_b   7.05707525
_cell_length_c   7.05707494
_cell_angle_alpha   60.75783724
_cell_angle_beta   60.75784178
_cell_angle_gamma   60.75783257
_symmetry_Int_Tables_number   1
_chemical_formula_structural   AlZn2Rh3S8
_chemical_formula_sum   'Al1 Zn2 Rh3 S8'
_cell_volume   252.76797418
_cell_formula_units_Z   1
loop_
 _symmetry_equiv_pos_site_id
 _symmetry_equiv_pos_as_xyz
  1  'x, y, z'
loop_
 _atom_site_type_symbol
 _atom_site_label
 _atom_site_symmetry_multiplicity
 _atom_site_fract_x
 _atom_site_fract_y
 _atom_site_fract_z
 _atom_site_occupancy
  Al  Al0  1  0.125000  0.125000  0.125000  1
  Zn  Zn1  1  0.748522  0.748522  0.748522  1
  Zn  Zn2  1  0.501478  0.501478  0.501478  1
  Rh  Rh3  1  0.125000  0.125000  0.625000  1
  Rh  Rh4  1  0.125000  0.625000  0.125000  1
  Rh  Rh5  1  0.625000  0.125000  0.125000  1
  S  S6  1  0.339866  0.886268  0.886268  1
  S  S7  1  0.361611  0.361611  0.361611  1
  S  S8  1  0.888389  0.888389  0.888389  1
  S  S9  1  0.910134  0.363732  0.363732  1
  S  S10  1  0.363732  0.910134  0.363732  1
  S  S11  1  0.363732  0.363732  0.910134  1
  S  S12  1  0.886268  0.339866  0.886268  1
  S  S13  1  0.886268  0.886268  0.339866  1
