# generated using pymatgen
data_Np2SeS5
_symmetry_space_group_name_H-M   'P 1'
_cell_length_a   3.97526700
_cell_length_b   5.42975761
_cell_length_c   9.17307234
_cell_angle_alpha   82.61640435
_cell_angle_beta   90.00000000
_cell_angle_gamma   90.00000000
_symmetry_Int_Tables_number   1
_chemical_formula_structural   Np2SeS5
_chemical_formula_sum   'Np2 Se1 S5'
_cell_volume   196.35654410
_cell_formula_units_Z   1
loop_
 _symmetry_equiv_pos_site_id
 _symmetry_equiv_pos_as_xyz
  1  'x, y, z'
loop_
 _atom_site_type_symbol
 _atom_site_label
 _atom_site_symmetry_multiplicity
 _atom_site_fract_x
 _atom_site_fract_y
 _atom_site_fract_z
 _atom_site_occupancy
  Np  Np0  1  0.250000  0.717576  0.140499  1
  Np  Np1  1  0.750000  0.281302  0.855089  1
  Se  Se2  1  0.750000  0.876000  0.343173  1
  S  S3  1  0.250000  0.512950  0.680810  1
  S  S4  1  0.750000  0.478063  0.309623  1
  S  S5  1  0.250000  0.234070  0.062146  1
  S  S6  1  0.750000  0.765157  0.933630  1
  S  S7  1  0.250000  0.134883  0.675030  1
