# generated using pymatgen
data_Dy8Ti4Nb8Si15Ge
_symmetry_space_group_name_H-M   'P 1'
_cell_length_a   7.07359097
_cell_length_b   7.06917056
_cell_length_c   13.01910739
_cell_angle_alpha   90.02530519
_cell_angle_beta   89.95345778
_cell_angle_gamma   90.07172028
_symmetry_Int_Tables_number   1
_chemical_formula_structural   Dy8Ti4Nb8Si15Ge
_chemical_formula_sum   'Dy8 Ti4 Nb8 Si15 Ge1'
_cell_volume   651.01213903
_cell_formula_units_Z   1
loop_
 _symmetry_equiv_pos_site_id
 _symmetry_equiv_pos_as_xyz
  1  'x, y, z'
loop_
 _atom_site_type_symbol
 _atom_site_label
 _atom_site_symmetry_multiplicity
 _atom_site_fract_x
 _atom_site_fract_y
 _atom_site_fract_z
 _atom_site_occupancy
  Dy  Dy0  1  0.995608  0.657888  0.033542  1
  Dy  Dy1  1  0.004786  0.340899  0.533992  1
  Dy  Dy2  1  0.657737  0.995530  0.966536  1
  Dy  Dy3  1  0.157695  0.504431  0.783467  1
  Dy  Dy4  1  0.840697  0.493848  0.282147  1
  Dy  Dy5  1  0.504030  0.157668  0.216261  1
  Dy  Dy6  1  0.495932  0.842621  0.717029  1
  Dy  Dy7  1  0.343000  0.004735  0.466838  1
  Ti  Ti8  1  0.670253  0.672971  0.500414  1
  Ti  Ti9  1  0.826947  0.173195  0.750149  1
  Ti  Ti10  1  0.174189  0.827796  0.248552  1
  Ti  Ti11  1  0.326680  0.326766  0.999988  1
  Nb  Nb12  1  0.349950  0.505448  0.375550  1
  Nb  Nb13  1  0.844361  0.997356  0.373185  1
  Nb  Nb14  1  0.007046  0.153122  0.125599  1
  Nb  Nb15  1  0.993367  0.848142  0.627507  1
  Nb  Nb16  1  0.507365  0.346747  0.624527  1
  Nb  Nb17  1  0.153211  0.006855  0.874316  1
  Nb  Nb18  1  0.493009  0.653219  0.124250  1
  Nb  Nb19  1  0.653071  0.492955  0.875791  1
  Si  Si20  1  0.953278  0.292488  0.936449  1
  Si  Si21  1  0.707621  0.046202  0.563678  1
  Si  Si22  1  0.207543  0.453186  0.186508  1
  Si  Si23  1  0.792767  0.546764  0.686467  1
  Si  Si24  1  0.453151  0.207525  0.813692  1
  Si  Si25  1  0.546619  0.792893  0.313561  1
  Si  Si26  1  0.292660  0.953445  0.063304  1
  Si  Si27  1  0.797488  0.864996  0.183542  1
  Si  Si28  1  0.300792  0.634302  0.567801  1
  Si  Si29  1  0.702165  0.364901  0.066133  1
  Si  Si30  1  0.635537  0.297506  0.433767  1
  Si  Si31  1  0.364944  0.702250  0.933741  1
  Si  Si32  1  0.135428  0.202503  0.316351  1
  Si  Si33  1  0.202902  0.134936  0.683804  1
  Si  Si34  1  0.864927  0.797294  0.816659  1
  Ge  Ge35  1  0.043245  0.706616  0.434904  1
