# generated using pymatgen
data_Er2Si5Pt2Rh
_symmetry_space_group_name_H-M   'P 1'
_cell_length_a   8.11486445
_cell_length_b   8.11486428
_cell_length_c   8.11486329
_cell_angle_alpha   136.94182594
_cell_angle_beta   104.24063211
_cell_angle_gamma   91.33765122
_symmetry_Int_Tables_number   1
_chemical_formula_structural   Er2Si5Pt2Rh
_chemical_formula_sum   'Er4 Si10 Pt4 Rh2'
_cell_volume   336.56300037
_cell_formula_units_Z   2
loop_
 _symmetry_equiv_pos_site_id
 _symmetry_equiv_pos_as_xyz
  1  'x, y, z'
loop_
 _atom_site_type_symbol
 _atom_site_label
 _atom_site_symmetry_multiplicity
 _atom_site_fract_x
 _atom_site_fract_y
 _atom_site_fract_z
 _atom_site_occupancy
  Er  Er0  1  0.639129  0.869135  0.769993  1
  Er  Er1  1  0.360871  0.130865  0.230007  1
  Er  Er2  1  0.099142  0.369135  0.730007  1
  Er  Er3  1  0.900858  0.630864  0.269993  1
  Si  Si4  1  0.276230  0.026230  0.750000  1
  Si  Si5  1  0.723770  0.973770  0.250000  1
  Si  Si6  1  0.723770  0.473770  0.750000  1
  Si  Si7  1  0.276230  0.526230  0.250000  1
  Si  Si8  1  0.453400  0.604788  0.848613  1
  Si  Si9  1  0.546600  0.395212  0.151387  1
  Si  Si10  1  0.756176  0.104788  0.651387  1
  Si  Si11  1  0.243824  0.895212  0.348613  1
  Si  Si12  1  0.000000  0.750000  0.750000  1
  Si  Si13  1  0.000000  0.250000  0.250000  1
  Pt  Pt14  1  0.253564  0.639076  0.614488  1
  Pt  Pt15  1  0.746436  0.360924  0.385512  1
  Pt  Pt16  1  0.024588  0.139076  0.885512  1
  Pt  Pt17  1  0.975412  0.860924  0.114488  1
  Rh  Rh18  1  0.500000  0.750000  0.250000  1
  Rh  Rh19  1  0.500000  0.250000  0.750000  1
