# generated using pymatgen
data_ZrSc7Si16(Mo5W)2
_symmetry_space_group_name_H-M   'P 1'
_cell_length_a   6.57671913
_cell_length_b   6.77842507
_cell_length_c   12.69134702
_cell_angle_alpha   89.98040050
_cell_angle_beta   90.03558985
_cell_angle_gamma   89.93822387
_symmetry_Int_Tables_number   1
_chemical_formula_structural   ZrSc7Si16(Mo5W)2
_chemical_formula_sum   'Zr1 Sc7 Si16 Mo10 W2'
_cell_volume   565.77721274
_cell_formula_units_Z   1
loop_
 _symmetry_equiv_pos_site_id
 _symmetry_equiv_pos_as_xyz
  1  'x, y, z'
loop_
 _atom_site_type_symbol
 _atom_site_label
 _atom_site_symmetry_multiplicity
 _atom_site_fract_x
 _atom_site_fract_y
 _atom_site_fract_z
 _atom_site_occupancy
  Zr  Zr0  1  0.495348  0.670104  0.593980  1
  Sc  Sc1  1  0.993853  0.830146  0.908340  1
  Sc  Sc2  1  0.505335  0.329938  0.093213  1
  Sc  Sc3  1  0.005778  0.169806  0.406378  1
  Sc  Sc4  1  0.504966  0.330737  0.406443  1
  Sc  Sc5  1  0.004879  0.170066  0.093255  1
  Sc  Sc6  1  0.493782  0.669875  0.907552  1
  Sc  Sc7  1  0.993180  0.829896  0.591991  1
  Si  Si8  1  0.666894  0.963106  0.455626  1
  Si  Si9  1  0.166504  0.537249  0.044788  1
  Si  Si10  1  0.334292  0.037541  0.954957  1
  Si  Si11  1  0.834445  0.460151  0.543541  1
  Si  Si12  1  0.333049  0.040143  0.543652  1
  Si  Si13  1  0.833637  0.462107  0.955357  1
  Si  Si14  1  0.666111  0.962865  0.044654  1
  Si  Si15  1  0.167917  0.537809  0.455507  1
  Si  Si16  1  0.464902  0.375284  0.750758  1
  Si  Si17  1  0.966388  0.123083  0.749873  1
  Si  Si18  1  0.535066  0.621681  0.249357  1
  Si  Si19  1  0.035037  0.877671  0.249657  1
  Si  Si20  1  0.699578  0.860770  0.751547  1
  Si  Si21  1  0.195767  0.640594  0.751461  1
  Si  Si22  1  0.301599  0.141410  0.249564  1
  Si  Si23  1  0.801501  0.358479  0.250020  1
  Mo  Mo24  1  0.668128  0.164147  0.624187  1
  Mo  Mo25  1  0.168089  0.335441  0.875916  1
  Mo  Mo26  1  0.332016  0.835646  0.124443  1
  Mo  Mo27  1  0.831802  0.664900  0.375641  1
  Mo  Mo28  1  0.332804  0.835240  0.375523  1
  Mo  Mo29  1  0.831748  0.664010  0.124335  1
  Mo  Mo30  1  0.669078  0.164967  0.875671  1
  Mo  Mo31  1  0.168822  0.337430  0.624482  1
  Mo  Mo32  1  0.832407  0.505790  0.749171  1
  Mo  Mo33  1  0.333127  0.992030  0.749105  1
  W  W34  1  0.166186  0.496038  0.250270  1
  W  W35  1  0.665989  0.003852  0.249781  1
