# generated using pymatgen
data_ErTm3Cd2(Ni7B2)2
_symmetry_space_group_name_H-M   'P 1'
_cell_length_a   4.99821700
_cell_length_b   4.99821734
_cell_length_c   14.19489300
_cell_angle_alpha   90.00000000
_cell_angle_beta   90.00000000
_cell_angle_gamma   120.00000437
_symmetry_Int_Tables_number   1
_chemical_formula_structural   ErTm3Cd2(Ni7B2)2
_chemical_formula_sum   'Er1 Tm3 Cd2 Ni14 B4'
_cell_volume   307.10930839
_cell_formula_units_Z   1
loop_
 _symmetry_equiv_pos_site_id
 _symmetry_equiv_pos_as_xyz
  1  'x, y, z'
loop_
 _atom_site_type_symbol
 _atom_site_label
 _atom_site_symmetry_multiplicity
 _atom_site_fract_x
 _atom_site_fract_y
 _atom_site_fract_z
 _atom_site_occupancy
  Er  Er0  1  0.333333  0.666667  0.256332  1
  Tm  Tm1  1  0.666667  0.333333  0.529369  1
  Tm  Tm2  1  0.333333  0.666667  0.029341  1
  Tm  Tm3  1  0.666667  0.333333  0.756348  1
  Cd  Cd4  1  0.333333  0.666667  0.468049  1
  Cd  Cd5  1  0.666667  0.333333  0.968010  1
  Ni  Ni6  1  0.834420  0.165580  0.351733  1
  Ni  Ni7  1  0.834420  0.668840  0.351733  1
  Ni  Ni8  1  0.000000  0.000000  0.999512  1
  Ni  Ni9  1  0.000000  0.000000  0.499511  1
  Ni  Ni10  1  0.834111  0.668222  0.148175  1
  Ni  Ni11  1  0.165888  0.834112  0.648191  1
  Ni  Ni12  1  0.668226  0.834112  0.648191  1
  Ni  Ni13  1  0.331778  0.165889  0.148175  1
  Ni  Ni14  1  0.834111  0.165889  0.148175  1
  Ni  Ni15  1  0.165582  0.331164  0.851693  1
  Ni  Ni16  1  0.165582  0.834418  0.851693  1
  Ni  Ni17  1  0.165888  0.331774  0.648191  1
  Ni  Ni18  1  0.668836  0.834418  0.851693  1
  Ni  Ni19  1  0.331160  0.165580  0.351733  1
  B  B20  1  0.666667  0.333333  0.249712  1
  B  B21  1  0.333333  0.666667  0.749710  1
  B  B22  1  0.000000  0.000000  0.747365  1
  B  B23  1  0.000000  0.000000  0.247365  1
