# generated using pymatgen
data_Zr5Co16Si7Mo
_symmetry_space_group_name_H-M   'P 1'
_cell_length_a   8.01454202
_cell_length_b   8.04244063
_cell_length_c   8.04243922
_cell_angle_alpha   59.77063754
_cell_angle_beta   60.11468193
_cell_angle_gamma   60.11468347
_symmetry_Int_Tables_number   1
_chemical_formula_structural   Zr5Co16Si7Mo
_chemical_formula_sum   'Zr5 Co16 Si7 Mo1'
_cell_volume   366.54639948
_cell_formula_units_Z   1
loop_
 _symmetry_equiv_pos_site_id
 _symmetry_equiv_pos_as_xyz
  1  'x, y, z'
loop_
 _atom_site_type_symbol
 _atom_site_label
 _atom_site_symmetry_multiplicity
 _atom_site_fract_x
 _atom_site_fract_y
 _atom_site_fract_z
 _atom_site_occupancy
  Zr  Zr0  1  0.297176  0.293306  0.702824  1
  Zr  Zr1  1  0.289125  0.710875  0.710875  1
  Zr  Zr2  1  0.706694  0.702824  0.293306  1
  Zr  Zr3  1  0.297176  0.702824  0.293306  1
  Zr  Zr4  1  0.706694  0.293306  0.702824  1
  Co  Co5  1  0.119469  0.120929  0.640135  1
  Co  Co6  1  0.672018  0.983966  0.671997  1
  Co  Co7  1  0.359865  0.880531  0.880531  1
  Co  Co8  1  0.016034  0.327982  0.327982  1
  Co  Co9  1  0.984174  0.672334  0.672334  1
  Co  Co10  1  0.327666  0.328843  0.015826  1
  Co  Co11  1  0.672018  0.671997  0.983966  1
  Co  Co12  1  0.644911  0.121015  0.121015  1
  Co  Co13  1  0.671157  0.672334  0.672334  1
  Co  Co14  1  0.878985  0.886940  0.355089  1
  Co  Co15  1  0.113060  0.121015  0.121015  1
  Co  Co16  1  0.878985  0.355089  0.886940  1
  Co  Co17  1  0.879071  0.880531  0.880531  1
  Co  Co18  1  0.328003  0.327982  0.327982  1
  Co  Co19  1  0.119469  0.640135  0.120929  1
  Co  Co20  1  0.327666  0.015826  0.328843  1
  Si  Si21  1  0.995991  0.494023  0.004009  1
  Si  Si22  1  0.995991  0.004009  0.494023  1
  Si  Si23  1  0.003264  0.996736  0.996736  1
  Si  Si24  1  0.505977  0.494023  0.004009  1
  Si  Si25  1  0.505977  0.004009  0.494023  1
  Si  Si26  1  0.499063  0.000937  0.000937  1
  Si  Si27  1  0.999063  0.500937  0.500937  1
  Mo  Mo28  1  0.705261  0.294739  0.294739  1
