# generated using pymatgen
data_Yb6Dy13YIr12
_symmetry_space_group_name_H-M   'P 1'
_cell_length_a   6.36936478
_cell_length_b   10.79471304
_cell_length_c   10.89684342
_cell_angle_alpha   90.00770908
_cell_angle_beta   90.20298561
_cell_angle_gamma   89.97954171
_symmetry_Int_Tables_number   1
_chemical_formula_structural   Yb6Dy13YIr12
_chemical_formula_sum   'Yb6 Dy13 Y1 Ir12'
_cell_volume   749.21278001
_cell_formula_units_Z   1
loop_
 _symmetry_equiv_pos_site_id
 _symmetry_equiv_pos_as_xyz
  1  'x, y, z'
loop_
 _atom_site_type_symbol
 _atom_site_label
 _atom_site_symmetry_multiplicity
 _atom_site_fract_x
 _atom_site_fract_y
 _atom_site_fract_z
 _atom_site_occupancy
  Yb  Yb0  1  0.623475  0.461732  0.339171  1
  Yb  Yb1  1  0.122968  0.039718  0.339029  1
  Yb  Yb2  1  0.500646  0.746316  0.250547  1
  Yb  Yb3  1  0.000527  0.754587  0.250289  1
  Yb  Yb4  1  0.007035  0.249126  0.751670  1
  Yb  Yb5  1  0.506504  0.251660  0.752117  1
  Dy  Dy6  1  0.375702  0.839889  0.539449  1
  Dy  Dy7  1  0.876678  0.660856  0.540115  1
  Dy  Dy8  1  0.878138  0.838149  0.957136  1
  Dy  Dy9  1  0.378980  0.660475  0.957699  1
  Dy  Dy10  1  0.880727  0.539511  0.837193  1
  Dy  Dy11  1  0.380268  0.960609  0.836995  1
  Dy  Dy12  1  0.377709  0.540578  0.659526  1
  Dy  Dy13  1  0.878039  0.959934  0.660681  1
  Dy  Dy14  1  0.617826  0.162827  0.457569  1
  Dy  Dy15  1  0.117766  0.337430  0.457774  1
  Dy  Dy16  1  0.119451  0.158495  0.045538  1
  Dy  Dy17  1  0.620796  0.341247  0.045192  1
  Dy  Dy18  1  0.117788  0.459126  0.162245  1
  Y  Y19  1  0.617792  0.040370  0.161269  1
  Ir  Ir20  1  0.256745  0.899916  0.084557  1
  Ir  Ir21  1  0.757494  0.599408  0.085397  1
  Ir  Ir22  1  0.743383  0.904388  0.410868  1
  Ir  Ir23  1  0.240716  0.594553  0.408621  1
  Ir  Ir24  1  0.753558  0.092115  0.907058  1
  Ir  Ir25  1  0.249763  0.405464  0.910983  1
  Ir  Ir26  1  0.255675  0.093655  0.598239  1
  Ir  Ir27  1  0.755239  0.407126  0.598881  1
  Ir  Ir28  1  0.119560  0.750009  0.748591  1
  Ir  Ir29  1  0.618176  0.749480  0.748400  1
  Ir  Ir30  1  0.875283  0.251146  0.248627  1
  Ir  Ir31  1  0.375594  0.250107  0.248578  1
