# generated using pymatgen
data_Ta4Si2Ru9Pt
_symmetry_space_group_name_H-M   'P 1'
_cell_length_a   4.07807600
_cell_length_b   5.43276316
_cell_length_c   10.63973293
_cell_angle_alpha   89.06682617
_cell_angle_beta   90.00000000
_cell_angle_gamma   90.00000000
_symmetry_Int_Tables_number   1
_chemical_formula_structural   Ta4Si2Ru9Pt
_chemical_formula_sum   'Ta4 Si2 Ru9 Pt1'
_cell_volume   235.69437074
_cell_formula_units_Z   1
loop_
 _symmetry_equiv_pos_site_id
 _symmetry_equiv_pos_as_xyz
  1  'x, y, z'
loop_
 _atom_site_type_symbol
 _atom_site_label
 _atom_site_symmetry_multiplicity
 _atom_site_fract_x
 _atom_site_fract_y
 _atom_site_fract_z
 _atom_site_occupancy
  Ta  Ta0  1  0.500000  0.847242  0.364378  1
  Ta  Ta1  1  0.500000  0.171714  0.642540  1
  Ta  Ta2  1  0.500000  0.317239  0.135034  1
  Ta  Ta3  1  0.500000  0.663307  0.857272  1
  Si  Si4  1  0.000000  0.510374  0.502057  1
  Si  Si5  1  0.000000  0.996531  0.998282  1
  Ru  Ru6  1  0.000000  0.497913  0.997056  1
  Ru  Ru7  1  0.000000  0.018150  0.504547  1
  Ru  Ru8  1  0.000000  0.411584  0.744764  1
  Ru  Ru9  1  0.000000  0.079509  0.247487  1
  Ru  Ru10  1  0.000000  0.909993  0.755941  1
  Ru  Ru11  1  0.500000  0.816178  0.107008  1
  Ru  Ru12  1  0.500000  0.170863  0.895519  1
  Ru  Ru13  1  0.500000  0.330875  0.393379  1
  Ru  Ru14  1  0.500000  0.680639  0.604297  1
  Pt  Pt15  1  0.000000  0.577888  0.250440  1
