# generated using pymatgen
data_ZrMoSeO8
_symmetry_space_group_name_H-M   'P 1'
_cell_length_a   5.78208300
_cell_length_b   5.78209635
_cell_length_c   6.52208900
_cell_angle_alpha   89.99999794
_cell_angle_beta   89.99993443
_cell_angle_gamma   120.00019467
_symmetry_Int_Tables_number   1
_chemical_formula_structural   ZrMoSeO8
_chemical_formula_sum   'Zr1 Mo1 Se1 O8'
_cell_volume   188.83658860
_cell_formula_units_Z   1
loop_
 _symmetry_equiv_pos_site_id
 _symmetry_equiv_pos_as_xyz
  1  'x, y, z'
loop_
 _atom_site_type_symbol
 _atom_site_label
 _atom_site_symmetry_multiplicity
 _atom_site_fract_x
 _atom_site_fract_y
 _atom_site_fract_z
 _atom_site_occupancy
  Zr  Zr0  1  0.999999  0.000000  0.991728  1
  Mo  Mo1  1  0.333330  0.666665  0.284634  1
  Se  Se2  1  0.666667  0.333333  0.715570  1
  O  O3  1  0.333333  0.666667  0.548675  1
  O  O4  1  0.666669  0.333334  0.466637  1
  O  O5  1  0.672171  0.836085  0.184824  1
  O  O6  1  0.163915  0.836087  0.184822  1
  O  O7  1  0.163914  0.327827  0.184823  1
  O  O8  1  0.354814  0.177407  0.812763  1
  O  O9  1  0.822593  0.177407  0.812763  1
  O  O10  1  0.822593  0.645186  0.812763  1
