# generated using pymatgen
data_Tb5NdAl24(PdRu)4
_symmetry_space_group_name_H-M   'P 1'
_cell_length_a   8.86312243
_cell_length_b   8.90686888
_cell_length_c   9.58083400
_cell_angle_alpha   90.00000000
_cell_angle_beta   90.00000000
_cell_angle_gamma   119.75273349
_symmetry_Int_Tables_number   1
_chemical_formula_structural   Tb5NdAl24(PdRu)4
_chemical_formula_sum   'Tb5 Nd1 Al24 Pd4 Ru4'
_cell_volume   656.63264272
_cell_formula_units_Z   1
loop_
 _symmetry_equiv_pos_site_id
 _symmetry_equiv_pos_as_xyz
  1  'x, y, z'
loop_
 _atom_site_type_symbol
 _atom_site_label
 _atom_site_symmetry_multiplicity
 _atom_site_fract_x
 _atom_site_fract_y
 _atom_site_fract_z
 _atom_site_occupancy
  Tb  Tb0  1  0.191905  0.382266  0.250000  1
  Tb  Tb1  1  0.807791  0.617805  0.750000  1
  Tb  Tb2  1  0.616579  0.810617  0.250000  1
  Tb  Tb3  1  0.382664  0.189564  0.750000  1
  Tb  Tb4  1  0.194694  0.811448  0.250000  1
  Nd  Nd5  1  0.807978  0.188058  0.750000  1
  Al  Al6  1  0.335720  0.672107  0.030279  1
  Al  Al7  1  0.663163  0.328387  0.972940  1
  Al  Al8  1  0.663163  0.328387  0.527060  1
  Al  Al9  1  0.335720  0.672107  0.469721  1
  Al  Al10  1  0.163313  0.323952  0.574993  1
  Al  Al11  1  0.838469  0.677009  0.423206  1
  Al  Al12  1  0.673091  0.840475  0.575823  1
  Al  Al13  1  0.838469  0.677009  0.076794  1
  Al  Al14  1  0.325676  0.157714  0.422434  1
  Al  Al15  1  0.163313  0.323952  0.925007  1
  Al  Al16  1  0.167873  0.842280  0.578100  1
  Al  Al17  1  0.325676  0.157714  0.077566  1
  Al  Al18  1  0.832173  0.157669  0.419368  1
  Al  Al19  1  0.673091  0.840475  0.924177  1
  Al  Al20  1  0.832173  0.157669  0.080632  1
  Al  Al21  1  0.167873  0.842280  0.921900  1
  Al  Al22  1  0.561301  0.122817  0.250000  1
  Al  Al23  1  0.436477  0.875669  0.750000  1
  Al  Al24  1  0.873693  0.436925  0.250000  1
  Al  Al25  1  0.128042  0.565625  0.750000  1
  Al  Al26  1  0.562684  0.436918  0.250000  1
  Al  Al27  1  0.437387  0.563208  0.750000  1
  Al  Al28  1  0.001693  0.003947  0.250000  1
  Al  Al29  1  0.999948  0.993735  0.750000  1
  Pd  Pd30  1  0.000481  0.501269  0.000973  1
  Pd  Pd31  1  0.499607  0.500562  0.000721  1
  Pd  Pd32  1  0.000481  0.501269  0.499027  1
  Pd  Pd33  1  0.499607  0.500562  0.499279  1
  Ru  Ru34  1  0.498948  0.999402  0.000977  1
  Ru  Ru35  1  0.498948  0.999402  0.499023  1
  Ru  Ru36  1  0.000066  0.999873  0.000284  1
  Ru  Ru37  1  0.000066  0.999873  0.499716  1
