# generated using pymatgen
data_Ho3Er3MnTe2
_symmetry_space_group_name_H-M   'P 1'
_cell_length_a   4.08313800
_cell_length_b   8.24625283
_cell_length_c   8.21036568
_cell_angle_alpha   119.88606126
_cell_angle_beta   90.00000000
_cell_angle_gamma   90.00000000
_symmetry_Int_Tables_number   1
_chemical_formula_structural   Ho3Er3MnTe2
_chemical_formula_sum   'Ho3 Er3 Mn1 Te2'
_cell_volume   239.68525395
_cell_formula_units_Z   1
loop_
 _symmetry_equiv_pos_site_id
 _symmetry_equiv_pos_as_xyz
  1  'x, y, z'
loop_
 _atom_site_type_symbol
 _atom_site_label
 _atom_site_symmetry_multiplicity
 _atom_site_fract_x
 _atom_site_fract_y
 _atom_site_fract_z
 _atom_site_occupancy
  Ho  Ho0  1  0.500000  0.607510  0.000644  1
  Ho  Ho1  1  0.500000  0.392253  0.392973  1
  Ho  Ho2  1  0.500000  0.999725  0.607372  1
  Er  Er3  1  0.000000  0.237127  0.001189  1
  Er  Er4  1  0.000000  0.762676  0.763792  1
  Er  Er5  1  0.000000  0.000200  0.236048  1
  Mn  Mn6  1  0.500000  0.000459  0.997143  1
  Te  Te7  1  0.000000  0.333320  0.667291  1
  Te  Te8  1  0.000000  0.666632  0.333549  1
