# generated using pymatgen
data_Rb2Tm(ScI4)3
_symmetry_space_group_name_H-M   'P 1'
_cell_length_a   8.63739700
_cell_length_b   8.63739692
_cell_length_c   14.02280800
_cell_angle_alpha   90.00000000
_cell_angle_beta   90.00000000
_cell_angle_gamma   119.99998881
_symmetry_Int_Tables_number   1
_chemical_formula_structural   Rb2Tm(ScI4)3
_chemical_formula_sum   'Rb2 Tm1 Sc3 I12'
_cell_volume   906.00673777
_cell_formula_units_Z   1
loop_
 _symmetry_equiv_pos_site_id
 _symmetry_equiv_pos_as_xyz
  1  'x, y, z'
loop_
 _atom_site_type_symbol
 _atom_site_label
 _atom_site_symmetry_multiplicity
 _atom_site_fract_x
 _atom_site_fract_y
 _atom_site_fract_z
 _atom_site_occupancy
  Rb  Rb0  1  0.333333  0.666667  0.870516  1
  Rb  Rb1  1  0.666667  0.333333  0.375227  1
  Tm  Tm2  1  0.000000  0.000000  0.126051  1
  Sc  Sc3  1  0.000000  0.000000  0.382220  1
  Sc  Sc4  1  0.000000  0.000000  0.625588  1
  Sc  Sc5  1  0.000000  0.000000  0.869849  1
  I  I6  1  0.976631  0.711978  0.997204  1
  I  I7  1  0.261642  0.971109  0.254570  1
  I  I8  1  0.028891  0.290534  0.254570  1
  I  I9  1  0.288022  0.264654  0.997204  1
  I  I10  1  0.263660  0.285615  0.502802  1
  I  I11  1  0.735346  0.023369  0.997204  1
  I  I12  1  0.287766  0.027259  0.748761  1
  I  I13  1  0.709466  0.738358  0.254570  1
  I  I14  1  0.739493  0.712234  0.748761  1
  I  I15  1  0.021956  0.736340  0.502802  1
  I  I16  1  0.714385  0.978044  0.502802  1
  I  I17  1  0.972741  0.260507  0.748761  1
