# generated using pymatgen
data_Rb3Al2As3
_symmetry_space_group_name_H-M   'P 1'
_cell_length_a   6.16656300
_cell_length_b   7.94320538
_cell_length_c   10.87804748
_cell_angle_alpha   69.84951311
_cell_angle_beta   90.00000000
_cell_angle_gamma   90.00000000
_symmetry_Int_Tables_number   1
_chemical_formula_structural   Rb3Al2As3
_chemical_formula_sum   'Rb6 Al4 As6'
_cell_volume   500.21747957
_cell_formula_units_Z   2
loop_
 _symmetry_equiv_pos_site_id
 _symmetry_equiv_pos_as_xyz
  1  'x, y, z'
loop_
 _atom_site_type_symbol
 _atom_site_label
 _atom_site_symmetry_multiplicity
 _atom_site_fract_x
 _atom_site_fract_y
 _atom_site_fract_z
 _atom_site_occupancy
  Rb  Rb0  1  0.250000  0.435318  0.426232  1
  Rb  Rb1  1  0.750000  0.132413  0.919896  1
  Rb  Rb2  1  0.750000  0.475413  0.149568  1
  Rb  Rb3  1  0.250000  0.524587  0.850432  1
  Rb  Rb4  1  0.750000  0.564682  0.573768  1
  Rb  Rb5  1  0.250000  0.867587  0.080104  1
  Al  Al6  1  0.999505  0.026709  0.346070  1
  Al  Al7  1  0.499505  0.973291  0.653930  1
  Al  Al8  1  0.500495  0.026709  0.346070  1
  Al  Al9  1  0.000495  0.973291  0.653930  1
  As  As10  1  0.250000  0.819977  0.528828  1
  As  As11  1  0.750000  0.180023  0.471172  1
  As  As12  1  0.250000  0.240565  0.188134  1
  As  As13  1  0.750000  0.759435  0.811866  1
  As  As14  1  0.250000  0.145231  0.744369  1
  As  As15  1  0.750000  0.854769  0.255631  1
