# generated using pymatgen
data_Dy8Er2(IrRh)3
_symmetry_space_group_name_H-M   'P 1'
_cell_length_a   10.86668508
_cell_length_b   10.86712100
_cell_length_c   6.36594505
_cell_angle_alpha   90.00000000
_cell_angle_beta   89.98627152
_cell_angle_gamma   90.00000000
_symmetry_Int_Tables_number   1
_chemical_formula_structural   Dy8Er2(IrRh)3
_chemical_formula_sum   'Dy16 Er4 Ir6 Rh6'
_cell_volume   751.75176543
_cell_formula_units_Z   2
loop_
 _symmetry_equiv_pos_site_id
 _symmetry_equiv_pos_as_xyz
  1  'x, y, z'
loop_
 _atom_site_type_symbol
 _atom_site_label
 _atom_site_symmetry_multiplicity
 _atom_site_fract_x
 _atom_site_fract_y
 _atom_site_fract_z
 _atom_site_occupancy
  Dy  Dy0  1  0.289802  0.088420  0.378375  1
  Dy  Dy1  1  0.289802  0.911580  0.878375  1
  Dy  Dy2  1  0.709105  0.089205  0.878015  1
  Dy  Dy3  1  0.709105  0.910795  0.378015  1
  Dy  Dy4  1  0.587364  0.789724  0.878788  1
  Dy  Dy5  1  0.587364  0.210276  0.378788  1
  Dy  Dy6  1  0.411443  0.789986  0.378570  1
  Dy  Dy7  1  0.411443  0.210014  0.878570  1
  Dy  Dy8  1  0.210130  0.411461  0.621363  1
  Dy  Dy9  1  0.210130  0.588539  0.121363  1
  Dy  Dy10  1  0.789762  0.412641  0.121450  1
  Dy  Dy11  1  0.789762  0.587359  0.621450  1
  Dy  Dy12  1  0.911910  0.709629  0.122028  1
  Dy  Dy13  1  0.911910  0.290371  0.622028  1
  Dy  Dy14  1  0.089520  0.709651  0.621352  1
  Dy  Dy15  1  0.089520  0.290349  0.121352  1
  Er  Er16  1  0.000335  0.999941  0.499978  1
  Er  Er17  1  0.000335  0.000059  0.999978  1
  Er  Er18  1  0.500109  0.499821  0.999995  1
  Er  Er19  1  0.500109  0.500179  0.499995  1
  Ir  Ir20  1  0.152580  0.153082  0.750073  1
  Ir  Ir21  1  0.152580  0.846918  0.250073  1
  Ir  Ir22  1  0.653737  0.346465  0.749927  1
  Ir  Ir23  1  0.653737  0.653535  0.249927  1
  Ir  Ir24  1  0.346939  0.346782  0.250147  1
  Ir  Ir25  1  0.346939  0.653218  0.750147  1
  Rh  Rh26  1  0.846845  0.152693  0.249926  1
  Rh  Rh27  1  0.846845  0.847307  0.749926  1
  Rh  Rh28  1  0.500782  0.000029  0.121661  1
  Rh  Rh29  1  0.500782  0.999971  0.621661  1
  Rh  Rh30  1  0.999637  0.500137  0.878350  1
  Rh  Rh31  1  0.999637  0.499863  0.378350  1
