# generated using pymatgen
data_Y3Hf4ScPt4
_symmetry_space_group_name_H-M   'P 1'
_cell_length_a   4.64306900
_cell_length_b   7.03821338
_cell_length_c   8.18586807
_cell_angle_alpha   89.71462310
_cell_angle_beta   90.00000000
_cell_angle_gamma   90.00000000
_symmetry_Int_Tables_number   1
_chemical_formula_structural   Y3Hf4ScPt4
_chemical_formula_sum   'Y3 Hf4 Sc1 Pt4'
_cell_volume   267.50193067
_cell_formula_units_Z   1
loop_
 _symmetry_equiv_pos_site_id
 _symmetry_equiv_pos_as_xyz
  1  'x, y, z'
loop_
 _atom_site_type_symbol
 _atom_site_label
 _atom_site_symmetry_multiplicity
 _atom_site_fract_x
 _atom_site_fract_y
 _atom_site_fract_z
 _atom_site_occupancy
  Y  Y0  1  0.250000  0.481497  0.180630  1
  Y  Y1  1  0.750000  0.016863  0.677382  1
  Y  Y2  1  0.750000  0.515553  0.820359  1
  Hf  Hf3  1  0.250000  0.853460  0.926255  1
  Hf  Hf4  1  0.250000  0.353198  0.574457  1
  Hf  Hf5  1  0.750000  0.141846  0.083250  1
  Hf  Hf6  1  0.750000  0.651446  0.421317  1
  Sc  Sc7  1  0.250000  0.982265  0.324318  1
  Pt  Pt8  1  0.250000  0.228682  0.902588  1
  Pt  Pt9  1  0.250000  0.734439  0.590501  1
  Pt  Pt10  1  0.750000  0.769808  0.096868  1
  Pt  Pt11  1  0.750000  0.270944  0.402076  1
