# generated using pymatgen
data_Y17(LuRh4)3
_symmetry_space_group_name_H-M   'P 1'
_cell_length_a   10.88224800
_cell_length_b   10.88224800
_cell_length_c   6.33989400
_cell_angle_alpha   90.00000000
_cell_angle_beta   90.00000000
_cell_angle_gamma   90.00000000
_symmetry_Int_Tables_number   1
_chemical_formula_structural   Y17(LuRh4)3
_chemical_formula_sum   'Y17 Lu3 Rh12'
_cell_volume   750.79130565
_cell_formula_units_Z   1
loop_
 _symmetry_equiv_pos_site_id
 _symmetry_equiv_pos_as_xyz
  1  'x, y, z'
loop_
 _atom_site_type_symbol
 _atom_site_label
 _atom_site_symmetry_multiplicity
 _atom_site_fract_x
 _atom_site_fract_y
 _atom_site_fract_z
 _atom_site_occupancy
  Y  Y0  1  0.289118  0.088279  0.378982  1
  Y  Y1  1  0.289245  0.912249  0.878805  1
  Y  Y2  1  0.710755  0.087751  0.878805  1
  Y  Y3  1  0.710882  0.911721  0.378982  1
  Y  Y4  1  0.587944  0.789851  0.878707  1
  Y  Y5  1  0.588676  0.209530  0.378724  1
  Y  Y6  1  0.411324  0.790470  0.378724  1
  Y  Y7  1  0.412056  0.210149  0.878707  1
  Y  Y8  1  0.209530  0.411324  0.621276  1
  Y  Y9  1  0.210149  0.587944  0.121293  1
  Y  Y10  1  0.789851  0.412056  0.121293  1
  Y  Y11  1  0.790470  0.588676  0.621276  1
  Y  Y12  1  0.912249  0.710755  0.121195  1
  Y  Y13  1  0.911721  0.289118  0.621018  1
  Y  Y14  1  0.088279  0.710882  0.621018  1
  Y  Y15  1  0.087751  0.289245  0.121195  1
  Y  Y16  1  0.500000  0.500000  0.500000  1
  Lu  Lu17  1  0.000000  0.000000  0.500000  1
  Lu  Lu18  1  0.000000  0.000000  0.000000  1
  Lu  Lu19  1  0.500000  0.500000  0.000000  1
  Rh  Rh20  1  0.849661  0.150337  0.250194  1
  Rh  Rh21  1  0.849663  0.849661  0.749806  1
  Rh  Rh22  1  0.150337  0.150339  0.749806  1
  Rh  Rh23  1  0.150339  0.849663  0.250194  1
  Rh  Rh24  1  0.652547  0.346923  0.753540  1
  Rh  Rh25  1  0.653077  0.652547  0.246460  1
  Rh  Rh26  1  0.346923  0.347453  0.246460  1
  Rh  Rh27  1  0.347453  0.653077  0.753540  1
  Rh  Rh28  1  0.500000  0.000000  0.124794  1
  Rh  Rh29  1  0.500000  0.000000  0.624639  1
  Rh  Rh30  1  0.000000  0.500000  0.875206  1
  Rh  Rh31  1  0.000000  0.500000  0.375361  1
