# generated using pymatgen
data_Y7Zr(Si4Mo3)4
_symmetry_space_group_name_H-M   'P 1'
_cell_length_a   6.75206215
_cell_length_b   6.92409882
_cell_length_c   12.92672481
_cell_angle_alpha   89.88839701
_cell_angle_beta   89.99314314
_cell_angle_gamma   89.89117094
_symmetry_Int_Tables_number   1
_chemical_formula_structural   Y7Zr(Si4Mo3)4
_chemical_formula_sum   'Y7 Zr1 Si16 Mo12'
_cell_volume   604.34729360
_cell_formula_units_Z   1
loop_
 _symmetry_equiv_pos_site_id
 _symmetry_equiv_pos_as_xyz
  1  'x, y, z'
loop_
 _atom_site_type_symbol
 _atom_site_label
 _atom_site_symmetry_multiplicity
 _atom_site_fract_x
 _atom_site_fract_y
 _atom_site_fract_z
 _atom_site_occupancy
  Y  Y0  1  0.495936  0.332630  0.093462  1
  Y  Y1  1  0.997183  0.166388  0.406118  1
  Y  Y2  1  0.502578  0.666662  0.594400  1
  Y  Y3  1  0.001957  0.834101  0.907484  1
  Y  Y4  1  0.502084  0.667462  0.906906  1
  Y  Y5  1  0.002520  0.833010  0.594329  1
  Y  Y6  1  0.496960  0.332852  0.404861  1
  Zr  Zr7  1  0.996850  0.169863  0.097901  1
  Si  Si8  1  0.658413  0.042923  0.547214  1
  Si  Si9  1  0.157793  0.454422  0.955370  1
  Si  Si10  1  0.334148  0.960067  0.046270  1
  Si  Si11  1  0.841919  0.542560  0.452091  1
  Si  Si12  1  0.342461  0.956889  0.452348  1
  Si  Si13  1  0.842510  0.539079  0.046876  1
  Si  Si14  1  0.661529  0.043216  0.955449  1
  Si  Si15  1  0.158330  0.457892  0.547163  1
  Si  Si16  1  0.535716  0.364585  0.750227  1
  Si  Si17  1  0.035284  0.134323  0.749609  1
  Si  Si18  1  0.465963  0.635302  0.249051  1
  Si  Si19  1  0.964992  0.867307  0.247713  1
  Si  Si20  1  0.803437  0.628398  0.750820  1
  Si  Si21  1  0.302498  0.870810  0.750663  1
  Si  Si22  1  0.195357  0.369323  0.248746  1
  Si  Si23  1  0.700330  0.130139  0.248916  1
  Mo  Mo24  1  0.831934  0.334865  0.625434  1
  Mo  Mo25  1  0.330658  0.165101  0.875533  1
  Mo  Mo26  1  0.168414  0.664206  0.124619  1
  Mo  Mo27  1  0.670261  0.836153  0.374208  1
  Mo  Mo28  1  0.168490  0.666692  0.373394  1
  Mo  Mo29  1  0.669004  0.838944  0.124466  1
  Mo  Mo30  1  0.832839  0.332283  0.876770  1
  Mo  Mo31  1  0.331492  0.163683  0.624956  1
  Mo  Mo32  1  0.665381  0.998806  0.751219  1
  Mo  Mo33  1  0.165876  0.500316  0.750263  1
  Mo  Mo34  1  0.333980  0.003327  0.247230  1
  Mo  Mo35  1  0.834921  0.495418  0.247921  1
