# generated using pymatgen
data_Y4InPd
_symmetry_space_group_name_H-M   'P 1'
_cell_length_a   9.76748463
_cell_length_b   9.76748302
_cell_length_c   9.76748400
_cell_angle_alpha   59.99999667
_cell_angle_beta   60.00000213
_cell_angle_gamma   59.99999596
_symmetry_Int_Tables_number   1
_chemical_formula_structural   Y4InPd
_chemical_formula_sum   'Y16 In4 Pd4'
_cell_volume   658.92061420
_cell_formula_units_Z   4
loop_
 _symmetry_equiv_pos_site_id
 _symmetry_equiv_pos_as_xyz
  1  'x, y, z'
loop_
 _atom_site_type_symbol
 _atom_site_label
 _atom_site_symmetry_multiplicity
 _atom_site_fract_x
 _atom_site_fract_y
 _atom_site_fract_z
 _atom_site_occupancy
  Y  Y0  1  0.602815  0.602815  0.602815  1
  Y  Y1  1  0.602815  0.602815  0.191555  1
  Y  Y2  1  0.602815  0.191555  0.602815  1
  Y  Y3  1  0.191555  0.602815  0.602815  1
  Y  Y4  1  0.059977  0.440023  0.440023  1
  Y  Y5  1  0.440023  0.059977  0.059977  1
  Y  Y6  1  0.440023  0.059977  0.440023  1
  Y  Y7  1  0.059977  0.440023  0.059977  1
  Y  Y8  1  0.440023  0.440023  0.059977  1
  Y  Y9  1  0.059977  0.059977  0.440023  1
  Y  Y10  1  0.186313  0.813687  0.813687  1
  Y  Y11  1  0.813687  0.186313  0.186313  1
  Y  Y12  1  0.813687  0.186313  0.813687  1
  Y  Y13  1  0.186313  0.813687  0.186313  1
  Y  Y14  1  0.813687  0.813687  0.186313  1
  Y  Y15  1  0.186313  0.186313  0.813687  1
  In  In16  1  0.833483  0.833483  0.833483  1
  In  In17  1  0.833483  0.833483  0.499550  1
  In  In18  1  0.833483  0.499550  0.833483  1
  In  In19  1  0.499550  0.833483  0.833483  1
  Pd  Pd20  1  0.394042  0.394042  0.394042  1
  Pd  Pd21  1  0.394042  0.394042  0.817873  1
  Pd  Pd22  1  0.394042  0.817873  0.394042  1
  Pd  Pd23  1  0.817873  0.394042  0.394042  1
