# generated using pymatgen
data_Rb3NaHgCl6
_symmetry_space_group_name_H-M   'P 1'
_cell_length_a   8.84453474
_cell_length_b   8.84453467
_cell_length_c   8.84453479
_cell_angle_alpha   92.67449417
_cell_angle_beta   92.67449734
_cell_angle_gamma   92.67448003
_symmetry_Int_Tables_number   1
_chemical_formula_structural   Rb3NaHgCl6
_chemical_formula_sum   'Rb6 Na2 Hg2 Cl12'
_cell_volume   689.53689782
_cell_formula_units_Z   2
loop_
 _symmetry_equiv_pos_site_id
 _symmetry_equiv_pos_as_xyz
  1  'x, y, z'
loop_
 _atom_site_type_symbol
 _atom_site_label
 _atom_site_symmetry_multiplicity
 _atom_site_fract_x
 _atom_site_fract_y
 _atom_site_fract_z
 _atom_site_occupancy
  Rb  Rb0  1  0.371115  0.128885  0.750000  1
  Rb  Rb1  1  0.128885  0.750000  0.371115  1
  Rb  Rb2  1  0.750000  0.371115  0.128885  1
  Rb  Rb3  1  0.628885  0.871115  0.250000  1
  Rb  Rb4  1  0.250000  0.628885  0.871115  1
  Rb  Rb5  1  0.871115  0.250000  0.628885  1
  Na  Na6  1  0.250000  0.250000  0.250000  1
  Na  Na7  1  0.750000  0.750000  0.750000  1
  Hg  Hg8  1  0.000000  0.000000  0.000000  1
  Hg  Hg9  1  0.500000  0.500000  0.500000  1
  Cl  Cl10  1  0.961652  0.086310  0.294846  1
  Cl  Cl11  1  0.086310  0.294846  0.961652  1
  Cl  Cl12  1  0.294846  0.961652  0.086310  1
  Cl  Cl13  1  0.586310  0.461652  0.794846  1
  Cl  Cl14  1  0.794846  0.586310  0.461652  1
  Cl  Cl15  1  0.461652  0.794846  0.586310  1
  Cl  Cl16  1  0.205154  0.413690  0.538348  1
  Cl  Cl17  1  0.413690  0.538348  0.205154  1
  Cl  Cl18  1  0.538348  0.205154  0.413690  1
  Cl  Cl19  1  0.913690  0.705154  0.038348  1
  Cl  Cl20  1  0.038348  0.913690  0.705154  1
  Cl  Cl21  1  0.705154  0.038348  0.913690  1
