# generated using pymatgen
data_Tb4MnV3B16
_symmetry_space_group_name_H-M   'P 1'
_cell_length_a   3.46670300
_cell_length_b   5.98697232
_cell_length_c   11.58980255
_cell_angle_alpha   89.92393312
_cell_angle_beta   90.00000000
_cell_angle_gamma   90.00000000
_symmetry_Int_Tables_number   1
_chemical_formula_structural   Tb4MnV3B16
_chemical_formula_sum   'Tb4 Mn1 V3 B16'
_cell_volume   240.54677628
_cell_formula_units_Z   1
loop_
 _symmetry_equiv_pos_site_id
 _symmetry_equiv_pos_as_xyz
  1  'x, y, z'
loop_
 _atom_site_type_symbol
 _atom_site_label
 _atom_site_symmetry_multiplicity
 _atom_site_fract_x
 _atom_site_fract_y
 _atom_site_fract_z
 _atom_site_occupancy
  Tb  Tb0  1  0.000000  0.624759  0.350427  1
  Tb  Tb1  1  0.000000  0.375827  0.650745  1
  Tb  Tb2  1  0.000000  0.123929  0.151936  1
  Tb  Tb3  1  0.000000  0.876403  0.847078  1
  Mn  Mn4  1  0.000000  0.876191  0.580515  1
  V  V5  1  0.000000  0.626713  0.082697  1
  V  V6  1  0.000000  0.373293  0.915244  1
  V  V7  1  0.000000  0.124397  0.420511  1
  B  B8  1  0.500000  0.784496  0.186135  1
  B  B9  1  0.500000  0.214838  0.813267  1
  B  B10  1  0.500000  0.283091  0.315955  1
  B  B11  1  0.500000  0.721353  0.681511  1
  B  B12  1  0.500000  0.864065  0.032705  1
  B  B13  1  0.500000  0.135797  0.966942  1
  B  B14  1  0.500000  0.363605  0.468783  1
  B  B15  1  0.500000  0.639745  0.533401  1
  B  B16  1  0.500000  0.884458  0.455751  1
  B  B17  1  0.500000  0.109452  0.548521  1
  B  B18  1  0.500000  0.385250  0.047004  1
  B  B19  1  0.500000  0.614425  0.952366  1
  B  B20  1  0.500000  0.975728  0.309560  1
  B  B21  1  0.500000  0.021013  0.689731  1
  B  B22  1  0.500000  0.475356  0.192452  1
  B  B23  1  0.500000  0.525817  0.806763  1
