# generated using pymatgen
data_Th10PPtPb6
_symmetry_space_group_name_H-M   'P 1'
_cell_length_a   9.63165200
_cell_length_b   9.63165123
_cell_length_c   6.66212800
_cell_angle_alpha   90.00000000
_cell_angle_beta   90.00000000
_cell_angle_gamma   119.99999578
_symmetry_Int_Tables_number   1
_chemical_formula_structural   Th10PPtPb6
_chemical_formula_sum   'Th10 P1 Pt1 Pb6'
_cell_volume   535.23579924
_cell_formula_units_Z   1
loop_
 _symmetry_equiv_pos_site_id
 _symmetry_equiv_pos_as_xyz
  1  'x, y, z'
loop_
 _atom_site_type_symbol
 _atom_site_label
 _atom_site_symmetry_multiplicity
 _atom_site_fract_x
 _atom_site_fract_y
 _atom_site_fract_z
 _atom_site_occupancy
  Th  Th0  1  0.747674  0.747674  0.243993  1
  Th  Th1  1  0.252326  0.000000  0.243993  1
  Th  Th2  1  0.000000  0.252326  0.243993  1
  Th  Th3  1  0.252326  0.252326  0.756007  1
  Th  Th4  1  0.747674  0.000000  0.756007  1
  Th  Th5  1  0.000000  0.747674  0.756007  1
  Th  Th6  1  0.666667  0.333333  0.500000  1
  Th  Th7  1  0.333333  0.666667  0.500000  1
  Th  Th8  1  0.333333  0.666667  0.000000  1
  Th  Th9  1  0.666667  0.333333  0.000000  1
  P  P10  1  0.000000  0.000000  0.000000  1
  Pt  Pt11  1  0.000000  0.000000  0.500000  1
  Pb  Pb12  1  0.389976  0.389976  0.251414  1
  Pb  Pb13  1  0.610024  0.000000  0.251414  1
  Pb  Pb14  1  0.000000  0.610024  0.251414  1
  Pb  Pb15  1  0.610024  0.610024  0.748586  1
  Pb  Pb16  1  0.389976  0.000000  0.748586  1
  Pb  Pb17  1  0.000000  0.389976  0.748586  1
