# generated using pymatgen
data_Li2DyLuPt2
_symmetry_space_group_name_H-M   'P 1'
_cell_length_a   3.98132800
_cell_length_b   6.97154314
_cell_length_c   8.38857660
_cell_angle_alpha   89.09055523
_cell_angle_beta   90.00000000
_cell_angle_gamma   90.00000000
_symmetry_Int_Tables_number   1
_chemical_formula_structural   Li2DyLuPt2
_chemical_formula_sum   'Li4 Dy2 Lu2 Pt4'
_cell_volume   232.80400127
_cell_formula_units_Z   2
loop_
 _symmetry_equiv_pos_site_id
 _symmetry_equiv_pos_as_xyz
  1  'x, y, z'
loop_
 _atom_site_type_symbol
 _atom_site_label
 _atom_site_symmetry_multiplicity
 _atom_site_fract_x
 _atom_site_fract_y
 _atom_site_fract_z
 _atom_site_occupancy
  Li  Li0  1  0.250000  0.627100  0.557544  1
  Li  Li1  1  0.750000  0.372900  0.442456  1
  Li  Li2  1  0.750000  0.878406  0.057836  1
  Li  Li3  1  0.250000  0.121594  0.942164  1
  Dy  Dy4  1  0.250000  0.549167  0.180038  1
  Dy  Dy5  1  0.750000  0.450833  0.819962  1
  Lu  Lu6  1  0.750000  0.952231  0.675875  1
  Lu  Lu7  1  0.250000  0.047769  0.324125  1
  Pt  Pt8  1  0.250000  0.747286  0.869904  1
  Pt  Pt9  1  0.750000  0.252714  0.130096  1
  Pt  Pt10  1  0.750000  0.761705  0.374789  1
  Pt  Pt11  1  0.250000  0.238295  0.625211  1
