# generated using pymatgen
data_Tb2YbHo5(B6Ru)4
_symmetry_space_group_name_H-M   'P 1'
_cell_length_a   3.65740800
_cell_length_b   9.13696302
_cell_length_c   11.52381300
_cell_angle_alpha   89.91142913
_cell_angle_beta   90.00000000
_cell_angle_gamma   90.00000000
_symmetry_Int_Tables_number   1
_chemical_formula_structural   Tb2YbHo5(B6Ru)4
_chemical_formula_sum   'Tb2 Yb1 Ho5 B24 Ru4'
_cell_volume   385.09773216
_cell_formula_units_Z   1
loop_
 _symmetry_equiv_pos_site_id
 _symmetry_equiv_pos_as_xyz
  1  'x, y, z'
loop_
 _atom_site_type_symbol
 _atom_site_label
 _atom_site_symmetry_multiplicity
 _atom_site_fract_x
 _atom_site_fract_y
 _atom_site_fract_z
 _atom_site_occupancy
  Tb  Tb0  1  0.000000  0.675632  0.585040  1
  Tb  Tb1  1  0.000000  0.822871  0.086393  1
  Yb  Yb2  1  0.000000  0.323633  0.413699  1
  Ho  Ho3  1  0.000000  0.177837  0.914595  1
  Ho  Ho4  1  0.000000  0.944155  0.371142  1
  Ho  Ho5  1  0.000000  0.058192  0.628013  1
  Ho  Ho6  1  0.000000  0.442732  0.129628  1
  Ho  Ho7  1  0.000000  0.555983  0.872050  1
  B  B8  1  0.500000  0.553785  0.432266  1
  B  B9  1  0.500000  0.445373  0.567454  1
  B  B10  1  0.500000  0.053784  0.066697  1
  B  B11  1  0.500000  0.946167  0.932267  1
  B  B12  1  0.500000  0.748275  0.418942  1
  B  B13  1  0.500000  0.252164  0.580846  1
  B  B14  1  0.500000  0.247646  0.080470  1
  B  B15  1  0.500000  0.751729  0.919257  1
  B  B16  1  0.500000  0.791163  0.266347  1
  B  B17  1  0.500000  0.209602  0.734128  1
  B  B18  1  0.500000  0.289943  0.233641  1
  B  B19  1  0.500000  0.709469  0.766445  1
  B  B20  1  0.500000  0.631580  0.186014  1
  B  B21  1  0.500000  0.368243  0.815260  1
  B  B22  1  0.500000  0.131470  0.314138  1
  B  B23  1  0.500000  0.868894  0.685280  1
  B  B24  1  0.500000  0.983918  0.212071  1
  B  B25  1  0.500000  0.016866  0.787267  1
  B  B26  1  0.500000  0.483690  0.287764  1
  B  B27  1  0.500000  0.515848  0.712825  1
  B  B28  1  0.500000  0.607284  0.029906  1
  B  B29  1  0.500000  0.392006  0.970582  1
  B  B30  1  0.500000  0.104644  0.471017  1
  B  B31  1  0.500000  0.894987  0.529016  1
  Ru  Ru32  1  0.000000  0.639267  0.320461  1
  Ru  Ru33  1  0.000000  0.361621  0.680380  1
  Ru  Ru34  1  0.000000  0.137124  0.177742  1
  Ru  Ru35  1  0.000000  0.862427  0.820956  1
