# generated using pymatgen
data_YbY3(Ga8Pt3)3
_symmetry_space_group_name_H-M   'P 1'
_cell_length_a   7.51733663
_cell_length_b   7.58799845
_cell_length_c   13.38847693
_cell_angle_alpha   84.71863744
_cell_angle_beta   79.49603220
_cell_angle_gamma   60.23468411
_symmetry_Int_Tables_number   1
_chemical_formula_structural   YbY3(Ga8Pt3)3
_chemical_formula_sum   'Yb1 Y3 Ga24 Pt9'
_cell_volume   651.83107509
_cell_formula_units_Z   1
loop_
 _symmetry_equiv_pos_site_id
 _symmetry_equiv_pos_as_xyz
  1  'x, y, z'
loop_
 _atom_site_type_symbol
 _atom_site_label
 _atom_site_symmetry_multiplicity
 _atom_site_fract_x
 _atom_site_fract_y
 _atom_site_fract_z
 _atom_site_occupancy
  Yb  Yb0  1  0.267095  0.501113  0.190338  1
  Y  Y1  1  0.394916  0.168306  0.811046  1
  Y  Y2  1  0.604709  0.832208  0.188738  1
  Y  Y3  1  0.731537  0.498013  0.811458  1
  Ga  Ga4  1  0.686215  0.833808  0.938494  1
  Ga  Ga5  1  0.313393  0.167809  0.061360  1
  Ga  Ga6  1  0.145960  0.832584  0.559530  1
  Ga  Ga7  1  0.854095  0.167389  0.440558  1
  Ga  Ga8  1  0.478106  0.166198  0.556589  1
  Ga  Ga9  1  0.521691  0.833789  0.443391  1
  Ga  Ga10  1  0.220164  0.165559  0.323741  1
  Ga  Ga11  1  0.779562  0.834982  0.676513  1
  Ga  Ga12  1  0.437246  0.503817  0.675759  1
  Ga  Ga13  1  0.562615  0.495943  0.324777  1
  Ga  Ga14  1  0.106766  0.163390  0.675352  1
  Ga  Ga15  1  0.893071  0.837004  0.325364  1
  Ga  Ga16  1  0.357204  0.498605  0.940524  1
  Ga  Ga17  1  0.641133  0.501901  0.060495  1
  Ga  Ga18  1  0.020680  0.169340  0.943396  1
  Ga  Ga19  1  0.981610  0.829386  0.055595  1
  Ga  Ga20  1  0.187418  0.497842  0.443490  1
  Ga  Ga21  1  0.812666  0.501401  0.556858  1
  Ga  Ga22  1  0.734781  0.163202  0.181642  1
  Ga  Ga23  1  0.266628  0.834503  0.817825  1
  Ga  Ga24  1  0.061378  0.630275  0.817232  1
  Ga  Ga25  1  0.937298  0.370667  0.182261  1
  Ga  Ga26  1  0.857400  0.039510  0.816649  1
  Ga  Ga27  1  0.143707  0.960682  0.182898  1
  Pt  Pt28  1  0.117209  0.495588  0.639162  1
  Pt  Pt29  1  0.883548  0.504365  0.360785  1
  Pt  Pt30  1  0.660947  0.169406  0.998486  1
  Pt  Pt31  1  0.339772  0.830967  0.000408  1
  Pt  Pt32  1  0.540481  0.167946  0.360329  1
  Pt  Pt33  1  0.459225  0.833101  0.639651  1
  Pt  Pt34  1  0.778978  0.172954  0.637106  1
  Pt  Pt35  1  0.220650  0.826645  0.362983  1
  Pt  Pt36  1  0.000146  0.499801  0.999215  1
