# generated using pymatgen
data_La2PrCd3Sn2Au
_symmetry_space_group_name_H-M   'P 1'
_cell_length_a   7.68963279
_cell_length_b   7.68963211
_cell_length_c   4.74346000
_cell_angle_alpha   90.00000000
_cell_angle_beta   90.00000000
_cell_angle_gamma   119.76053393
_symmetry_Int_Tables_number   1
_chemical_formula_structural   La2PrCd3Sn2Au
_chemical_formula_sum   'La2 Pr1 Cd3 Sn2 Au1'
_cell_volume   243.48933831
_cell_formula_units_Z   1
loop_
 _symmetry_equiv_pos_site_id
 _symmetry_equiv_pos_as_xyz
  1  'x, y, z'
loop_
 _atom_site_type_symbol
 _atom_site_label
 _atom_site_symmetry_multiplicity
 _atom_site_fract_x
 _atom_site_fract_y
 _atom_site_fract_z
 _atom_site_occupancy
  La  La0  1  0.594835  0.999690  0.000000  1
  La  La1  1  0.999690  0.594835  0.000000  1
  Pr  Pr2  1  0.402911  0.402911  0.000000  1
  Cd  Cd3  1  0.237286  0.001252  0.500000  1
  Cd  Cd4  1  0.001252  0.237286  0.500000  1
  Cd  Cd5  1  0.762843  0.762843  0.500000  1
  Sn  Sn6  1  0.335062  0.665136  0.500000  1
  Sn  Sn7  1  0.665136  0.335062  0.500000  1
  Au  Au8  1  0.000984  0.000984  0.000000  1
