# generated using pymatgen
data_KSnBrF2
_symmetry_space_group_name_H-M   'P 1'
_cell_length_a   7.27352871
_cell_length_b   7.27352753
_cell_length_c   5.74108300
_cell_angle_alpha   90.00000000
_cell_angle_beta   90.00000000
_cell_angle_gamma   130.34193138
_symmetry_Int_Tables_number   1
_chemical_formula_structural   KSnBrF2
_chemical_formula_sum   'K2 Sn2 Br2 F4'
_cell_volume   231.49949060
_cell_formula_units_Z   2
loop_
 _symmetry_equiv_pos_site_id
 _symmetry_equiv_pos_as_xyz
  1  'x, y, z'
loop_
 _atom_site_type_symbol
 _atom_site_label
 _atom_site_symmetry_multiplicity
 _atom_site_fract_x
 _atom_site_fract_y
 _atom_site_fract_z
 _atom_site_occupancy
  K  K0  1  0.382225  0.617774  0.249999  1
  K  K1  1  0.617774  0.382225  0.750000  1
  Sn  Sn2  1  0.093624  0.906375  0.249999  1
  Sn  Sn3  1  0.906375  0.093624  0.750000  1
  Br  Br4  1  0.748754  0.251245  0.249999  1
  Br  Br5  1  0.251245  0.748754  0.750000  1
  F  F6  1  0.213697  0.213697  0.000000  1
  F  F7  1  0.786304  0.786304  0.000000  1
  F  F8  1  0.213697  0.213697  0.500000  1
  F  F9  1  0.786304  0.786304  0.500000  1
