# generated using pymatgen
data_DyPa2(Al3Os)4
_symmetry_space_group_name_H-M   'P 1'
_cell_length_a   8.86512977
_cell_length_b   8.86513038
_cell_length_c   9.46454600
_cell_angle_alpha   90.00000000
_cell_angle_beta   90.00000000
_cell_angle_gamma   119.69809082
_symmetry_Int_Tables_number   1
_chemical_formula_structural   DyPa2(Al3Os)4
_chemical_formula_sum   'Dy2 Pa4 Al24 Os8'
_cell_volume   646.12098502
_cell_formula_units_Z   2
loop_
 _symmetry_equiv_pos_site_id
 _symmetry_equiv_pos_as_xyz
  1  'x, y, z'
loop_
 _atom_site_type_symbol
 _atom_site_label
 _atom_site_symmetry_multiplicity
 _atom_site_fract_x
 _atom_site_fract_y
 _atom_site_fract_z
 _atom_site_occupancy
  Dy  Dy0  1  0.196773  0.803227  0.250000  1
  Dy  Dy1  1  0.803227  0.196773  0.750000  1
  Pa  Pa2  1  0.198109  0.393564  0.250000  1
  Pa  Pa3  1  0.801891  0.606436  0.750000  1
  Pa  Pa4  1  0.606436  0.801891  0.250000  1
  Pa  Pa5  1  0.393564  0.198109  0.750000  1
  Al  Al6  1  0.331597  0.668403  0.018817  1
  Al  Al7  1  0.668403  0.331597  0.981183  1
  Al  Al8  1  0.668403  0.331597  0.518817  1
  Al  Al9  1  0.331597  0.668403  0.481183  1
  Al  Al10  1  0.161967  0.324728  0.577628  1
  Al  Al11  1  0.838033  0.675272  0.422372  1
  Al  Al12  1  0.675272  0.838033  0.577628  1
  Al  Al13  1  0.838033  0.675272  0.077628  1
  Al  Al14  1  0.324728  0.161967  0.422372  1
  Al  Al15  1  0.161967  0.324728  0.922372  1
  Al  Al16  1  0.162620  0.837380  0.578753  1
  Al  Al17  1  0.324728  0.161967  0.077628  1
  Al  Al18  1  0.837380  0.162620  0.421247  1
  Al  Al19  1  0.675272  0.838033  0.922372  1
  Al  Al20  1  0.837380  0.162620  0.078753  1
  Al  Al21  1  0.162620  0.837380  0.921247  1
  Al  Al22  1  0.560612  0.123427  0.250000  1
  Al  Al23  1  0.439388  0.876573  0.750000  1
  Al  Al24  1  0.876573  0.439388  0.250000  1
  Al  Al25  1  0.123427  0.560612  0.750000  1
  Al  Al26  1  0.563747  0.436253  0.250000  1
  Al  Al27  1  0.436253  0.563747  0.750000  1
  Al  Al28  1  0.999475  0.000525  0.250000  1
  Al  Al29  1  0.000525  0.999475  0.750000  1
  Os  Os30  1  0.500000  0.000000  0.000000  1
  Os  Os31  1  0.000000  0.500000  0.000000  1
  Os  Os32  1  0.500000  0.000000  0.500000  1
  Os  Os33  1  0.500000  0.500000  0.000000  1
  Os  Os34  1  0.000000  0.500000  0.500000  1
  Os  Os35  1  0.500000  0.500000  0.500000  1
  Os  Os36  1  0.000000  0.000000  0.000000  1
  Os  Os37  1  0.000000  0.000000  0.500000  1
