# generated using pymatgen
data_Cs2Pu3(IO5)4
_symmetry_space_group_name_H-M   'P 1'
_cell_length_a   7.07525329
_cell_length_b   8.41399207
_cell_length_c   9.61590891
_cell_angle_alpha   87.29546481
_cell_angle_beta   104.44689166
_cell_angle_gamma   92.33418403
_symmetry_Int_Tables_number   1
_chemical_formula_structural   Cs2Pu3(IO5)4
_chemical_formula_sum   'Cs2 Pu3 I4 O20'
_cell_volume   553.47912843
_cell_formula_units_Z   1
loop_
 _symmetry_equiv_pos_site_id
 _symmetry_equiv_pos_as_xyz
  1  'x, y, z'
loop_
 _atom_site_type_symbol
 _atom_site_label
 _atom_site_symmetry_multiplicity
 _atom_site_fract_x
 _atom_site_fract_y
 _atom_site_fract_z
 _atom_site_occupancy
  Cs  Cs0  1  0.232721  0.571303  0.856447  1
  Cs  Cs1  1  0.767324  0.428767  0.143538  1
  Pu  Pu2  1  0.453982  0.072341  0.813237  1
  Pu  Pu3  1  0.546062  0.927490  0.186834  1
  Pu  Pu4  1  0.000006  0.000024  0.999995  1
  I  I5  1  0.876832  0.192233  0.628373  1
  I  I6  1  0.123173  0.807816  0.371633  1
  I  I7  1  0.308081  0.351084  0.455781  1
  I  I8  1  0.691921  0.648964  0.544241  1
  O  O9  1  0.034599  0.206805  0.042874  1
  O  O10  1  0.965411  0.793216  0.957105  1
  O  O11  1  0.421902  0.873879  0.747203  1
  O  O12  1  0.578055  0.125851  0.252706  1
  O  O13  1  0.485784  0.272852  0.874368  1
  O  O14  1  0.514229  0.727048  0.125662  1
  O  O15  1  0.691263  0.004177  0.010910  1
  O  O16  1  0.308721  0.995810  0.989082  1
  O  O17  1  0.446355  0.187053  0.564902  1
  O  O18  1  0.553613  0.812989  0.435100  1
  O  O19  1  0.357804  0.507445  0.586182  1
  O  O20  1  0.642208  0.492645  0.413815  1
  O  O21  1  0.053445  0.286347  0.450738  1
  O  O22  1  0.946553  0.713730  0.549271  1
  O  O23  1  0.880842  0.384356  0.705224  1
  O  O24  1  0.119178  0.615711  0.294773  1
  O  O25  1  0.118850  0.116240  0.717861  1
  O  O26  1  0.881128  0.883784  0.282156  1
  O  O27  1  0.776696  0.067651  0.763510  1
  O  O28  1  0.223263  0.932387  0.236476  1
