# generated using pymatgen
data_Sr6CaCd(RuO6)2
_symmetry_space_group_name_H-M   'P 1'
_cell_length_a   6.86059224
_cell_length_b   6.86059341
_cell_length_c   6.86059173
_cell_angle_alpha   91.06951797
_cell_angle_beta   91.06952167
_cell_angle_gamma   91.06952942
_symmetry_Int_Tables_number   1
_chemical_formula_structural   Sr6CaCd(RuO6)2
_chemical_formula_sum   'Sr6 Ca1 Cd1 Ru2 O12'
_cell_volume   322.74160397
_cell_formula_units_Z   1
loop_
 _symmetry_equiv_pos_site_id
 _symmetry_equiv_pos_as_xyz
  1  'x, y, z'
loop_
 _atom_site_type_symbol
 _atom_site_label
 _atom_site_symmetry_multiplicity
 _atom_site_fract_x
 _atom_site_fract_y
 _atom_site_fract_z
 _atom_site_occupancy
  Sr  Sr0  1  0.750000  0.389853  0.110147  1
  Sr  Sr1  1  0.110147  0.750000  0.389853  1
  Sr  Sr2  1  0.389853  0.110147  0.750000  1
  Sr  Sr3  1  0.250000  0.614102  0.885898  1
  Sr  Sr4  1  0.885898  0.250000  0.614102  1
  Sr  Sr5  1  0.614102  0.885898  0.250000  1
  Ca  Ca6  1  0.250000  0.250000  0.250000  1
  Cd  Cd7  1  0.750000  0.750000  0.750000  1
  Ru  Ru8  1  0.003366  0.003366  0.003366  1
  Ru  Ru9  1  0.496634  0.496634  0.496634  1
  O  O10  1  0.447412  0.780329  0.580136  1
  O  O11  1  0.580136  0.447412  0.780329  1
  O  O12  1  0.780329  0.580136  0.447412  1
  O  O13  1  0.052588  0.919864  0.719671  1
  O  O14  1  0.719671  0.052588  0.919864  1
  O  O15  1  0.919864  0.719671  0.052588  1
  O  O16  1  0.549872  0.214157  0.416741  1
  O  O17  1  0.416741  0.549872  0.214157  1
  O  O18  1  0.214157  0.416741  0.549872  1
  O  O19  1  0.950128  0.083259  0.285843  1
  O  O20  1  0.083259  0.285843  0.950128  1
  O  O21  1  0.285843  0.950128  0.083259  1
