# generated using pymatgen
data_Y4Tm4Re3B24Ru
_symmetry_space_group_name_H-M   'P 1'
_cell_length_a   3.65646500
_cell_length_b   9.13195422
_cell_length_c   11.52332301
_cell_angle_alpha   89.90454729
_cell_angle_beta   90.00000000
_cell_angle_gamma   90.00000000
_symmetry_Int_Tables_number   1
_chemical_formula_structural   Y4Tm4Re3B24Ru
_chemical_formula_sum   'Y4 Tm4 Re3 B24 Ru1'
_cell_volume   384.77095336
_cell_formula_units_Z   1
loop_
 _symmetry_equiv_pos_site_id
 _symmetry_equiv_pos_as_xyz
  1  'x, y, z'
loop_
 _atom_site_type_symbol
 _atom_site_label
 _atom_site_symmetry_multiplicity
 _atom_site_fract_x
 _atom_site_fract_y
 _atom_site_fract_z
 _atom_site_occupancy
  Y  Y0  1  0.000000  0.322540  0.413655  1
  Y  Y1  1  0.000000  0.675920  0.584405  1
  Y  Y2  1  0.000000  0.822136  0.087601  1
  Y  Y3  1  0.000000  0.178766  0.914107  1
  Tm  Tm4  1  0.000000  0.943104  0.371086  1
  Tm  Tm5  1  0.000000  0.056801  0.630295  1
  Tm  Tm6  1  0.000000  0.443680  0.129167  1
  Tm  Tm7  1  0.000000  0.558144  0.869869  1
  Re  Re8  1  0.000000  0.638719  0.320177  1
  Re  Re9  1  0.000000  0.361255  0.680276  1
  Re  Re10  1  0.000000  0.138319  0.178793  1
  B  B11  1  0.500000  0.553049  0.432600  1
  B  B12  1  0.500000  0.446530  0.567080  1
  B  B13  1  0.500000  0.053054  0.066949  1
  B  B14  1  0.500000  0.945907  0.932423  1
  B  B15  1  0.500000  0.749492  0.418656  1
  B  B16  1  0.500000  0.249688  0.581578  1
  B  B17  1  0.500000  0.250258  0.081211  1
  B  B18  1  0.500000  0.750824  0.918287  1
  B  B19  1  0.500000  0.792466  0.266022  1
  B  B20  1  0.500000  0.207703  0.734878  1
  B  B21  1  0.500000  0.292402  0.234043  1
  B  B22  1  0.500000  0.708799  0.765631  1
  B  B23  1  0.500000  0.630563  0.185258  1
  B  B24  1  0.500000  0.369794  0.815222  1
  B  B25  1  0.500000  0.129909  0.314376  1
  B  B26  1  0.500000  0.869235  0.685538  1
  B  B27  1  0.500000  0.981463  0.212573  1
  B  B28  1  0.500000  0.016764  0.787709  1
  B  B29  1  0.500000  0.481912  0.287070  1
  B  B30  1  0.500000  0.518096  0.712413  1
  B  B31  1  0.500000  0.601359  0.027704  1
  B  B32  1  0.500000  0.400827  0.971834  1
  B  B33  1  0.500000  0.100077  0.472596  1
  B  B34  1  0.500000  0.899244  0.528563  1
  Ru  Ru35  1  0.000000  0.861199  0.820353  1
