# generated using pymatgen
data_PrNdB2Pt7Au
_symmetry_space_group_name_H-M   'P 1'
_cell_length_a   5.53822500
_cell_length_b   5.53822291
_cell_length_c   7.74592000
_cell_angle_alpha   90.00000000
_cell_angle_beta   90.00000000
_cell_angle_gamma   119.99999454
_symmetry_Int_Tables_number   1
_chemical_formula_structural   PrNdB2Pt7Au
_chemical_formula_sum   'Pr1 Nd1 B2 Pt7 Au1'
_cell_volume   205.75229628
_cell_formula_units_Z   1
loop_
 _symmetry_equiv_pos_site_id
 _symmetry_equiv_pos_as_xyz
  1  'x, y, z'
loop_
 _atom_site_type_symbol
 _atom_site_label
 _atom_site_symmetry_multiplicity
 _atom_site_fract_x
 _atom_site_fract_y
 _atom_site_fract_z
 _atom_site_occupancy
  Pr  Pr0  1  0.000000  0.000000  0.500000  1
  Nd  Nd1  1  0.000000  0.000000  0.000000  1
  B  B2  1  0.333333  0.666667  0.000000  1
  B  B3  1  0.666667  0.333333  0.000000  1
  Pt  Pt4  1  0.666667  0.333333  0.500000  1
  Pt  Pt5  1  0.500749  0.001498  0.196536  1
  Pt  Pt6  1  0.500749  0.001498  0.803464  1
  Pt  Pt7  1  0.998502  0.499251  0.196536  1
  Pt  Pt8  1  0.998502  0.499251  0.803464  1
  Pt  Pt9  1  0.500749  0.499251  0.196536  1
  Pt  Pt10  1  0.500749  0.499251  0.803464  1
  Au  Au11  1  0.333333  0.666667  0.500000  1
