# generated using pymatgen
data_Sm4C2ICl
_symmetry_space_group_name_H-M   'P 1'
_cell_length_a   3.78385000
_cell_length_b   3.78384981
_cell_length_c   14.71222000
_cell_angle_alpha   90.00000000
_cell_angle_beta   90.00000000
_cell_angle_gamma   120.00000170
_symmetry_Int_Tables_number   1
_chemical_formula_structural   Sm4C2ICl
_chemical_formula_sum   'Sm4 C2 I1 Cl1'
_cell_volume   182.42175767
_cell_formula_units_Z   1
loop_
 _symmetry_equiv_pos_site_id
 _symmetry_equiv_pos_as_xyz
  1  'x, y, z'
loop_
 _atom_site_type_symbol
 _atom_site_label
 _atom_site_symmetry_multiplicity
 _atom_site_fract_x
 _atom_site_fract_y
 _atom_site_fract_z
 _atom_site_occupancy
  Sm  Sm0  1  0.333333  0.666667  0.578296  1
  Sm  Sm1  1  0.666667  0.333333  0.397450  1
  Sm  Sm2  1  0.666667  0.333333  0.102550  1
  Sm  Sm3  1  0.333333  0.666667  0.921704  1
  C  C4  1  0.000000  0.000000  0.014455  1
  C  C5  1  0.000000  0.000000  0.485545  1
  I  I6  1  0.666667  0.333333  0.750000  1
  Cl  Cl7  1  0.333333  0.666667  0.250000  1
