# generated using pymatgen
data_Ce5Gd7(Tm2Ir3)4
_symmetry_space_group_name_H-M   'P 1'
_cell_length_a   10.96771328
_cell_length_b   10.96473191
_cell_length_c   6.29781600
_cell_angle_alpha   90.20454066
_cell_angle_beta   90.17176149
_cell_angle_gamma   89.76847934
_symmetry_Int_Tables_number   1
_chemical_formula_structural   Ce5Gd7(Tm2Ir3)4
_chemical_formula_sum   'Ce5 Gd7 Tm8 Ir12'
_cell_volume   757.34860261
_cell_formula_units_Z   1
loop_
 _symmetry_equiv_pos_site_id
 _symmetry_equiv_pos_as_xyz
  1  'x, y, z'
loop_
 _atom_site_type_symbol
 _atom_site_label
 _atom_site_symmetry_multiplicity
 _atom_site_fract_x
 _atom_site_fract_y
 _atom_site_fract_z
 _atom_site_occupancy
  Ce  Ce0  1  0.410282  0.211233  0.886776  1
  Ce  Ce1  1  0.207176  0.410330  0.616073  1
  Ce  Ce2  1  0.205916  0.591584  0.116462  1
  Ce  Ce3  1  0.793140  0.408329  0.118537  1
  Ce  Ce4  1  0.792890  0.590269  0.618509  1
  Gd  Gd5  1  0.288667  0.087755  0.376802  1
  Gd  Gd6  1  0.288417  0.908711  0.877422  1
  Gd  Gd7  1  0.713629  0.088095  0.876681  1
  Gd  Gd8  1  0.710061  0.912512  0.377045  1
  Gd  Gd9  1  0.589349  0.790121  0.880835  1
  Gd  Gd10  1  0.589961  0.210741  0.382136  1
  Gd  Gd11  1  0.411608  0.790321  0.381903  1
  Tm  Tm12  1  0.912615  0.712550  0.119204  1
  Tm  Tm13  1  0.915473  0.286947  0.619904  1
  Tm  Tm14  1  0.084526  0.712361  0.619128  1
  Tm  Tm15  1  0.085684  0.287242  0.118262  1
  Tm  Tm16  1  0.000611  0.999521  0.495799  1
  Tm  Tm17  1  0.000431  0.998595  0.995918  1
  Tm  Tm18  1  0.500965  0.502843  0.006795  1
  Tm  Tm19  1  0.499624  0.499677  0.506310  1
  Ir  Ir20  1  0.853273  0.155045  0.246193  1
  Ir  Ir21  1  0.851292  0.845139  0.744210  1
  Ir  Ir22  1  0.151341  0.153239  0.748954  1
  Ir  Ir23  1  0.146408  0.842500  0.244751  1
  Ir  Ir24  1  0.656495  0.349583  0.759238  1
  Ir  Ir25  1  0.656481  0.650898  0.259846  1
  Ir  Ir26  1  0.343336  0.348990  0.248492  1
  Ir  Ir27  1  0.342374  0.649198  0.756137  1
  Ir  Ir28  1  0.499856  0.002546  0.119763  1
  Ir  Ir29  1  0.499158  0.003476  0.627065  1
  Ir  Ir30  1  0.999304  0.500135  0.877325  1
  Ir  Ir31  1  0.999656  0.499509  0.377520  1
