# generated using pymatgen
data_Pr3Tl2SnPt2Rh
_symmetry_space_group_name_H-M   'P 1'
_cell_length_a   7.93012498
_cell_length_b   7.87867732
_cell_length_c   3.97308100
_cell_angle_alpha   90.00000000
_cell_angle_beta   90.00000000
_cell_angle_gamma   119.78562146
_symmetry_Int_Tables_number   1
_chemical_formula_structural   Pr3Tl2SnPt2Rh
_chemical_formula_sum   'Pr3 Tl2 Sn1 Pt2 Rh1'
_cell_volume   215.43959349
_cell_formula_units_Z   1
loop_
 _symmetry_equiv_pos_site_id
 _symmetry_equiv_pos_as_xyz
  1  'x, y, z'
loop_
 _atom_site_type_symbol
 _atom_site_label
 _atom_site_symmetry_multiplicity
 _atom_site_fract_x
 _atom_site_fract_y
 _atom_site_fract_z
 _atom_site_occupancy
  Pr  Pr0  1  0.591847  0.999040  0.500000  1
  Pr  Pr1  1  0.408153  0.407192  0.500000  1
  Pr  Pr2  1  0.000000  0.591187  0.500000  1
  Tl  Tl3  1  0.255164  0.999478  0.000000  1
  Tl  Tl4  1  0.744836  0.744315  0.000000  1
  Sn  Sn5  1  0.000000  0.253600  0.000000  1
  Pt  Pt6  1  0.325442  0.655205  0.000000  1
  Pt  Pt7  1  0.674558  0.329760  0.000000  1
  Rh  Rh8  1  0.000000  0.020224  0.500000  1
