# generated using pymatgen
data_Tm8Co3Si12Pt
_symmetry_space_group_name_H-M   'P 1'
_cell_length_a   7.99982600
_cell_length_b   7.99982640
_cell_length_c   7.77192500
_cell_angle_alpha   90.00000000
_cell_angle_beta   90.00000000
_cell_angle_gamma   119.99999836
_symmetry_Int_Tables_number   1
_chemical_formula_structural   Tm8Co3Si12Pt
_chemical_formula_sum   'Tm8 Co3 Si12 Pt1'
_cell_volume   430.74509759
_cell_formula_units_Z   1
loop_
 _symmetry_equiv_pos_site_id
 _symmetry_equiv_pos_as_xyz
  1  'x, y, z'
loop_
 _atom_site_type_symbol
 _atom_site_label
 _atom_site_symmetry_multiplicity
 _atom_site_fract_x
 _atom_site_fract_y
 _atom_site_fract_z
 _atom_site_occupancy
  Tm  Tm0  1  0.510532  0.021064  0.245885  1
  Tm  Tm1  1  0.493995  0.987990  0.752005  1
  Tm  Tm2  1  0.978936  0.489468  0.245885  1
  Tm  Tm3  1  0.012010  0.506005  0.752005  1
  Tm  Tm4  1  0.510532  0.489468  0.245885  1
  Tm  Tm5  1  0.493995  0.506005  0.752005  1
  Tm  Tm6  1  0.000000  0.000000  0.247991  1
  Tm  Tm7  1  0.000000  0.000000  0.752915  1
  Co  Co8  1  0.333333  0.666667  0.038153  1
  Co  Co9  1  0.666667  0.333333  0.961352  1
  Co  Co10  1  0.666667  0.333333  0.539082  1
  Si  Si11  1  0.172130  0.344258  0.002711  1
  Si  Si12  1  0.828783  0.657567  0.996494  1
  Si  Si13  1  0.655742  0.827870  0.002711  1
  Si  Si14  1  0.826841  0.653683  0.502036  1
  Si  Si15  1  0.342433  0.171217  0.996494  1
  Si  Si16  1  0.163541  0.327080  0.499482  1
  Si  Si17  1  0.172130  0.827870  0.002711  1
  Si  Si18  1  0.346317  0.173159  0.502036  1
  Si  Si19  1  0.828783  0.171217  0.996494  1
  Si  Si20  1  0.672920  0.836459  0.499482  1
  Si  Si21  1  0.826841  0.173159  0.502036  1
  Si  Si22  1  0.163541  0.836459  0.499482  1
  Pt  Pt23  1  0.333333  0.666667  0.464669  1
