# generated using pymatgen
data_Pr4Nd2Al24Ru7Au
_symmetry_space_group_name_H-M   'P 1'
_cell_length_a   8.95658976
_cell_length_b   8.95659025
_cell_length_c   9.68567521
_cell_angle_alpha   89.94004577
_cell_angle_beta   90.05995240
_cell_angle_gamma   119.93314570
_symmetry_Int_Tables_number   1
_chemical_formula_structural   Pr4Nd2Al24Ru7Au
_chemical_formula_sum   'Pr4 Nd2 Al24 Ru7 Au1'
_cell_volume   673.34522064
_cell_formula_units_Z   1
loop_
 _symmetry_equiv_pos_site_id
 _symmetry_equiv_pos_as_xyz
  1  'x, y, z'
loop_
 _atom_site_type_symbol
 _atom_site_label
 _atom_site_symmetry_multiplicity
 _atom_site_fract_x
 _atom_site_fract_y
 _atom_site_fract_z
 _atom_site_occupancy
  Pr  Pr0  1  0.191662  0.383484  0.249174  1
  Pr  Pr1  1  0.808338  0.616516  0.750826  1
  Pr  Pr2  1  0.616516  0.808338  0.249174  1
  Pr  Pr3  1  0.383484  0.191662  0.750826  1
  Nd  Nd4  1  0.192429  0.807571  0.252839  1
  Nd  Nd5  1  0.807571  0.192429  0.747161  1
  Al  Al6  1  0.327807  0.672193  0.013856  1
  Al  Al7  1  0.672193  0.327807  0.986144  1
  Al  Al8  1  0.666940  0.333060  0.510211  1
  Al  Al9  1  0.333060  0.666940  0.489789  1
  Al  Al10  1  0.161389  0.324901  0.576267  1
  Al  Al11  1  0.838611  0.675099  0.423733  1
  Al  Al12  1  0.675099  0.838611  0.576267  1
  Al  Al13  1  0.849407  0.678177  0.078645  1
  Al  Al14  1  0.324901  0.161389  0.423733  1
  Al  Al15  1  0.150593  0.321823  0.921355  1
  Al  Al16  1  0.162649  0.837351  0.576915  1
  Al  Al17  1  0.321823  0.150593  0.078645  1
  Al  Al18  1  0.837351  0.162649  0.423085  1
  Al  Al19  1  0.678177  0.849407  0.921355  1
  Al  Al20  1  0.837223  0.162777  0.076250  1
  Al  Al21  1  0.162777  0.837223  0.923750  1
  Al  Al22  1  0.561889  0.123810  0.248541  1
  Al  Al23  1  0.438111  0.876190  0.751459  1
  Al  Al24  1  0.876190  0.438111  0.248541  1
  Al  Al25  1  0.123810  0.561889  0.751459  1
  Al  Al26  1  0.564971  0.435029  0.256707  1
  Al  Al27  1  0.435029  0.564971  0.743293  1
  Al  Al28  1  0.999477  0.000523  0.250287  1
  Al  Al29  1  0.000523  0.999477  0.749713  1
  Ru  Ru30  1  0.500000  0.000000  0.000000  1
  Ru  Ru31  1  0.000000  0.500000  0.000000  1
  Ru  Ru32  1  0.500000  0.000000  0.500000  1
  Ru  Ru33  1  0.000000  0.500000  0.500000  1
  Ru  Ru34  1  0.500000  0.500000  0.500000  1
  Ru  Ru35  1  0.000000  0.000000  0.000000  1
  Ru  Ru36  1  0.000000  0.000000  0.500000  1
  Au  Au37  1  0.500000  0.500000  0.000000  1
