# generated using pymatgen
data_Pr2Al2(Tc5C)3
_symmetry_space_group_name_H-M   'P 1'
_cell_length_a   7.00175480
_cell_length_b   6.98220478
_cell_length_c   7.00175486
_cell_angle_alpha   82.33014743
_cell_angle_beta   82.78474757
_cell_angle_gamma   82.33015985
_symmetry_Int_Tables_number   1
_chemical_formula_structural   Pr2Al2(Tc5C)3
_chemical_formula_sum   'Pr2 Al2 Tc15 C3'
_cell_volume   334.17174965
_cell_formula_units_Z   1
loop_
 _symmetry_equiv_pos_site_id
 _symmetry_equiv_pos_as_xyz
  1  'x, y, z'
loop_
 _atom_site_type_symbol
 _atom_site_label
 _atom_site_symmetry_multiplicity
 _atom_site_fract_x
 _atom_site_fract_y
 _atom_site_fract_z
 _atom_site_occupancy
  Pr  Pr0  1  0.656849  0.654954  0.656849  1
  Pr  Pr1  1  0.343151  0.345046  0.343151  1
  Al  Al2  1  0.000000  0.000000  0.500000  1
  Al  Al3  1  0.500000  0.000000  0.000000  1
  Tc  Tc4  1  0.000000  0.500000  0.000000  1
  Tc  Tc5  1  0.274624  0.724676  0.996794  1
  Tc  Tc6  1  0.722999  0.000000  0.277001  1
  Tc  Tc7  1  0.003206  0.275324  0.725376  1
  Tc  Tc8  1  0.277001  0.000000  0.722999  1
  Tc  Tc9  1  0.996794  0.724676  0.274624  1
  Tc  Tc10  1  0.725376  0.275324  0.003206  1
  Tc  Tc11  1  0.353926  0.352210  0.853473  1
  Tc  Tc12  1  0.347262  0.855796  0.347262  1
  Tc  Tc13  1  0.853473  0.352210  0.353926  1
  Tc  Tc14  1  0.646074  0.647790  0.146527  1
  Tc  Tc15  1  0.652738  0.144204  0.652738  1
  Tc  Tc16  1  0.146527  0.647790  0.646074  1
  Tc  Tc17  1  0.904552  0.900724  0.904552  1
  Tc  Tc18  1  0.095448  0.099276  0.095448  1
  C  C19  1  0.500000  0.500000  0.000000  1
  C  C20  1  0.500000  0.000000  0.500000  1
  C  C21  1  0.000000  0.500000  0.500000  1
