# generated using pymatgen
data_Nb6Co(CuS4)3
_symmetry_space_group_name_H-M   'P 1'
_cell_length_a   3.37374602
_cell_length_b   8.90699148
_cell_length_c   13.08689600
_cell_angle_alpha   89.89613154
_cell_angle_beta   90.00633460
_cell_angle_gamma   79.04223083
_symmetry_Int_Tables_number   1
_chemical_formula_structural   Nb6Co(CuS4)3
_chemical_formula_sum   'Nb6 Co1 Cu3 S12'
_cell_volume   386.08949844
_cell_formula_units_Z   1
loop_
 _symmetry_equiv_pos_site_id
 _symmetry_equiv_pos_as_xyz
  1  'x, y, z'
loop_
 _atom_site_type_symbol
 _atom_site_label
 _atom_site_symmetry_multiplicity
 _atom_site_fract_x
 _atom_site_fract_y
 _atom_site_fract_z
 _atom_site_occupancy
  Nb  Nb0  1  0.445888  0.107396  0.251989  1
  Nb  Nb1  1  0.775332  0.448123  0.252258  1
  Nb  Nb2  1  0.110345  0.778532  0.248741  1
  Nb  Nb3  1  0.889327  0.222765  0.749908  1
  Nb  Nb4  1  0.222929  0.554721  0.749325  1
  Nb  Nb5  1  0.557213  0.886338  0.749538  1
  Co  Co6  1  0.112216  0.776948  0.458690  1
  Cu  Cu7  1  0.444347  0.108149  0.036573  1
  Cu  Cu8  1  0.220676  0.559622  0.963507  1
  Cu  Cu9  1  0.887358  0.226505  0.536579  1
  S  S10  1  0.446931  0.106090  0.628160  1
  S  S11  1  0.774598  0.450221  0.629115  1
  S  S12  1  0.110975  0.777171  0.629002  1
  S  S13  1  0.889235  0.221774  0.368825  1
  S  S14  1  0.222384  0.556676  0.371390  1
  S  S15  1  0.555574  0.889765  0.376580  1
  S  S16  1  0.886038  0.226822  0.130195  1
  S  S17  1  0.222332  0.555387  0.131503  1
  S  S18  1  0.558341  0.883237  0.128367  1
  S  S19  1  0.445212  0.109878  0.868006  1
  S  S20  1  0.780992  0.438367  0.871985  1
  S  S21  1  0.108425  0.782179  0.869760  1
