# generated using pymatgen
data_Tm4Th6Ge20IrRh7
_symmetry_space_group_name_H-M   'P 1'
_cell_length_a   13.11250245
_cell_length_b   13.11082545
_cell_length_c   4.37767300
_cell_angle_alpha   90.00000000
_cell_angle_beta   90.00000000
_cell_angle_gamma   90.02989840
_symmetry_Int_Tables_number   1
_chemical_formula_structural   Tm4Th6Ge20IrRh7
_chemical_formula_sum   'Tm4 Th6 Ge20 Ir1 Rh7'
_cell_volume   752.59075026
_cell_formula_units_Z   1
loop_
 _symmetry_equiv_pos_site_id
 _symmetry_equiv_pos_as_xyz
  1  'x, y, z'
loop_
 _atom_site_type_symbol
 _atom_site_label
 _atom_site_symmetry_multiplicity
 _atom_site_fract_x
 _atom_site_fract_y
 _atom_site_fract_z
 _atom_site_occupancy
  Tm  Tm0  1  0.325491  0.825784  0.500000  1
  Tm  Tm1  1  0.825635  0.674531  0.500000  1
  Tm  Tm2  1  0.174529  0.325515  0.500000  1
  Tm  Tm3  1  0.674447  0.174489  0.500000  1
  Th  Th4  1  0.112659  0.612754  0.500000  1
  Th  Th5  1  0.612642  0.887315  0.500000  1
  Th  Th6  1  0.387128  0.112415  0.500000  1
  Th  Th7  1  0.887363  0.387358  0.500000  1
  Th  Th8  1  0.500097  0.499956  0.000000  1
  Th  Th9  1  0.999894  0.999931  0.000000  1
  Ge  Ge10  1  0.337651  0.495673  0.500000  1
  Ge  Ge11  1  0.662372  0.504319  0.500000  1
  Ge  Ge12  1  0.504312  0.337625  0.500000  1
  Ge  Ge13  1  0.495709  0.662378  0.500000  1
  Ge  Ge14  1  0.995772  0.837648  0.500000  1
  Ge  Ge15  1  0.837596  0.004303  0.500000  1
  Ge  Ge16  1  0.161399  0.995555  0.500000  1
  Ge  Ge17  1  0.004410  0.162326  0.500000  1
  Ge  Ge18  1  0.337146  0.300906  0.000000  1
  Ge  Ge19  1  0.662972  0.699182  0.000000  1
  Ge  Ge20  1  0.699206  0.337100  0.000000  1
  Ge  Ge21  1  0.300867  0.662898  0.000000  1
  Ge  Ge22  1  0.800780  0.837058  0.000000  1
  Ge  Ge23  1  0.836989  0.199194  0.000000  1
  Ge  Ge24  1  0.162973  0.800466  0.000000  1
  Ge  Ge25  1  0.199259  0.163736  0.000000  1
  Ge  Ge26  1  0.433291  0.932499  0.000000  1
  Ge  Ge27  1  0.932991  0.566969  0.000000  1
  Ge  Ge28  1  0.566875  0.067175  0.000000  1
  Ge  Ge29  1  0.066961  0.432984  0.000000  1
  Ir  Ir30  1  0.245311  0.977396  0.000000  1
  Rh  Rh31  1  0.755221  0.022524  0.000000  1
  Rh  Rh32  1  0.022585  0.244477  0.000000  1
  Rh  Rh33  1  0.977426  0.755518  0.000000  1
  Rh  Rh34  1  0.477469  0.744501  0.000000  1
  Rh  Rh35  1  0.744535  0.522630  0.000000  1
  Rh  Rh36  1  0.255375  0.477416  0.000000  1
  Rh  Rh37  1  0.522661  0.255496  0.000000  1
