# generated using pymatgen
data_Y7Er13(Bi2Os)4
_symmetry_space_group_name_H-M   'P 1'
_cell_length_a   7.92132724
_cell_length_b   8.99964200
_cell_length_c   12.49573638
_cell_angle_alpha   90.00000000
_cell_angle_beta   90.02829796
_cell_angle_gamma   90.00000000
_symmetry_Int_Tables_number   1
_chemical_formula_structural   Y7Er13(Bi2Os)4
_chemical_formula_sum   'Y7 Er13 Bi8 Os4'
_cell_volume   890.80980848
_cell_formula_units_Z   1
loop_
 _symmetry_equiv_pos_site_id
 _symmetry_equiv_pos_as_xyz
  1  'x, y, z'
loop_
 _atom_site_type_symbol
 _atom_site_label
 _atom_site_symmetry_multiplicity
 _atom_site_fract_x
 _atom_site_fract_y
 _atom_site_fract_z
 _atom_site_occupancy
  Y  Y0  1  0.662557  0.750000  0.709689  1
  Y  Y1  1  0.337168  0.250000  0.290005  1
  Y  Y2  1  0.162770  0.250000  0.790250  1
  Y  Y3  1  0.837046  0.750000  0.209895  1
  Y  Y4  1  0.128657  0.750000  0.809503  1
  Y  Y5  1  0.871523  0.250000  0.190812  1
  Y  Y6  1  0.628717  0.250000  0.690512  1
  Er  Er7  1  0.373246  0.750000  0.311121  1
  Er  Er8  1  0.559240  0.750000  0.995498  1
  Er  Er9  1  0.441736  0.250000  0.004612  1
  Er  Er10  1  0.058795  0.250000  0.504167  1
  Er  Er11  1  0.940287  0.750000  0.495450  1
  Er  Er12  1  0.828393  0.458040  0.935000  1
  Er  Er13  1  0.172210  0.541983  0.065491  1
  Er  Er14  1  0.327477  0.541768  0.564439  1
  Er  Er15  1  0.172210  0.958017  0.065491  1
  Er  Er16  1  0.670919  0.458650  0.434469  1
  Er  Er17  1  0.828393  0.041960  0.935000  1
  Er  Er18  1  0.670919  0.041350  0.434469  1
  Er  Er19  1  0.327477  0.958232  0.564439  1
  Bi  Bi20  1  0.936758  0.005848  0.671217  1
  Bi  Bi21  1  0.064257  0.993370  0.328901  1
  Bi  Bi22  1  0.436828  0.994107  0.828657  1
  Bi  Bi23  1  0.064257  0.506630  0.328901  1
  Bi  Bi24  1  0.562794  0.005359  0.171468  1
  Bi  Bi25  1  0.936758  0.494152  0.671217  1
  Bi  Bi26  1  0.562794  0.494641  0.171468  1
  Bi  Bi27  1  0.436828  0.505893  0.828657  1
  Os  Os28  1  0.924739  0.750000  0.990744  1
  Os  Os29  1  0.075188  0.250000  0.009305  1
  Os  Os30  1  0.425203  0.250000  0.508844  1
  Os  Os31  1  0.573855  0.750000  0.490312  1
