# generated using pymatgen
data_Tb5TmAl24Os7Au
_symmetry_space_group_name_H-M   'P 1'
_cell_length_a   8.87262113
_cell_length_b   8.87262165
_cell_length_c   9.56329108
_cell_angle_alpha   89.83707328
_cell_angle_beta   90.16292431
_cell_angle_gamma   120.03209654
_symmetry_Int_Tables_number   1
_chemical_formula_structural   Tb5TmAl24Os7Au
_chemical_formula_sum   'Tb5 Tm1 Al24 Os7 Au1'
_cell_volume   651.77697247
_cell_formula_units_Z   1
loop_
 _symmetry_equiv_pos_site_id
 _symmetry_equiv_pos_as_xyz
  1  'x, y, z'
loop_
 _atom_site_type_symbol
 _atom_site_label
 _atom_site_symmetry_multiplicity
 _atom_site_fract_x
 _atom_site_fract_y
 _atom_site_fract_z
 _atom_site_occupancy
  Tb  Tb0  1  0.190204  0.385237  0.250849  1
  Tb  Tb1  1  0.809761  0.614454  0.749134  1
  Tb  Tb2  1  0.614763  0.809796  0.250849  1
  Tb  Tb3  1  0.385546  0.190239  0.749134  1
  Tb  Tb4  1  0.194088  0.805912  0.254196  1
  Tm  Tm5  1  0.804217  0.195783  0.745527  1
  Al  Al6  1  0.328590  0.671410  0.021949  1
  Al  Al7  1  0.671836  0.328164  0.976908  1
  Al  Al8  1  0.666306  0.333694  0.517976  1
  Al  Al9  1  0.334017  0.665983  0.482991  1
  Al  Al10  1  0.162260  0.325555  0.575671  1
  Al  Al11  1  0.836976  0.673822  0.425042  1
  Al  Al12  1  0.674445  0.837740  0.575671  1
  Al  Al13  1  0.848370  0.677241  0.078895  1
  Al  Al14  1  0.326178  0.163024  0.425042  1
  Al  Al15  1  0.150631  0.322004  0.920339  1
  Al  Al16  1  0.163238  0.836762  0.575741  1
  Al  Al17  1  0.322759  0.151630  0.078895  1
  Al  Al18  1  0.836867  0.163133  0.425596  1
  Al  Al19  1  0.677996  0.849369  0.920339  1
  Al  Al20  1  0.836610  0.163390  0.074225  1
  Al  Al21  1  0.163473  0.836527  0.924481  1
  Al  Al22  1  0.561471  0.122299  0.249082  1
  Al  Al23  1  0.439979  0.878735  0.750867  1
  Al  Al24  1  0.877701  0.438529  0.249082  1
  Al  Al25  1  0.121265  0.560021  0.750867  1
  Al  Al26  1  0.563920  0.436080  0.255869  1
  Al  Al27  1  0.436036  0.563964  0.744245  1
  Al  Al28  1  0.999591  0.000409  0.250406  1
  Al  Al29  1  0.999308  0.000692  0.749634  1
  Os  Os30  1  0.500623  0.000227  0.999472  1
  Os  Os31  1  0.999773  0.499377  0.999472  1
  Os  Os32  1  0.500924  0.000407  0.500676  1
  Os  Os33  1  0.999593  0.499076  0.500676  1
  Os  Os34  1  0.500204  0.499796  0.500126  1
  Os  Os35  1  0.000179  0.999821  0.999966  1
  Os  Os36  1  0.000157  0.999843  0.500089  1
  Au  Au37  1  0.500148  0.499852  0.000025  1
