# generated using pymatgen
data_Sc3Ga2PtC
_symmetry_space_group_name_H-M   'P 1'
_cell_length_a   8.67407418
_cell_length_b   8.67405755
_cell_length_c   8.67405200
_cell_angle_alpha   60.00002117
_cell_angle_beta   60.00008460
_cell_angle_gamma   60.00005683
_symmetry_Int_Tables_number   1
_chemical_formula_structural   Sc3Ga2PtC
_chemical_formula_sum   'Sc12 Ga8 Pt4 C4'
_cell_volume   461.48011118
_cell_formula_units_Z   4
loop_
 _symmetry_equiv_pos_site_id
 _symmetry_equiv_pos_as_xyz
  1  'x, y, z'
loop_
 _atom_site_type_symbol
 _atom_site_label
 _atom_site_symmetry_multiplicity
 _atom_site_fract_x
 _atom_site_fract_y
 _atom_site_fract_z
 _atom_site_occupancy
  Sc  Sc0  1  0.444837  0.444824  0.055176  1
  Sc  Sc1  1  0.055161  0.444830  0.055161  1
  Sc  Sc2  1  0.444835  0.055160  0.055168  1
  Sc  Sc3  1  0.055168  0.055155  0.444837  1
  Sc  Sc4  1  0.444831  0.055167  0.444842  1
  Sc  Sc5  1  0.055174  0.444840  0.444830  1
  Sc  Sc6  1  0.805163  0.805176  0.194824  1
  Sc  Sc7  1  0.194839  0.805170  0.194839  1
  Sc  Sc8  1  0.805165  0.194840  0.194832  1
  Sc  Sc9  1  0.194832  0.194845  0.805163  1
  Sc  Sc10  1  0.805169  0.194833  0.805158  1
  Sc  Sc11  1  0.194826  0.805160  0.805170  1
  Ga  Ga12  1  0.832993  0.832993  0.501018  1
  Ga  Ga13  1  0.832992  0.501022  0.832992  1
  Ga  Ga14  1  0.501015  0.832994  0.832995  1
  Ga  Ga15  1  0.832994  0.832993  0.832994  1
  Ga  Ga16  1  0.417007  0.417007  0.748982  1
  Ga  Ga17  1  0.417008  0.748978  0.417008  1
  Ga  Ga18  1  0.748985  0.417006  0.417005  1
  Ga  Ga19  1  0.417006  0.417007  0.417006  1
  Pt  Pt20  1  0.625000  0.625000  0.125000  1
  Pt  Pt21  1  0.625000  0.125000  0.625000  1
  Pt  Pt22  1  0.125000  0.625000  0.625000  1
  Pt  Pt23  1  0.625000  0.625000  0.625000  1
  C  C24  1  0.125000  0.125000  0.625000  1
  C  C25  1  0.125000  0.625000  0.125000  1
  C  C26  1  0.625000  0.125000  0.125000  1
  C  C27  1  0.125000  0.125000  0.125000  1
