# generated using pymatgen
data_Y2Er2Hf3O12
_symmetry_space_group_name_H-M   'P 1'
_cell_length_a   6.31069396
_cell_length_b   6.36178200
_cell_length_c   6.57587271
_cell_angle_alpha   99.96011288
_cell_angle_beta   98.26239479
_cell_angle_gamma   99.68622859
_symmetry_Int_Tables_number   1
_chemical_formula_structural   Y2Er2Hf3O12
_chemical_formula_sum   'Y2 Er2 Hf3 O12'
_cell_volume   252.22459889
_cell_formula_units_Z   1
loop_
 _symmetry_equiv_pos_site_id
 _symmetry_equiv_pos_as_xyz
  1  'x, y, z'
loop_
 _atom_site_type_symbol
 _atom_site_label
 _atom_site_symmetry_multiplicity
 _atom_site_fract_x
 _atom_site_fract_y
 _atom_site_fract_z
 _atom_site_occupancy
  Y  Y0  1  0.302299  0.134108  0.610413  1
  Y  Y1  1  0.614456  0.301448  0.132884  1
  Er  Er2  1  0.695766  0.865213  0.388698  1
  Er  Er3  1  0.385351  0.700592  0.866796  1
  Hf  Hf4  1  0.998574  0.998251  0.999187  1
  Hf  Hf5  1  0.847914  0.398546  0.666877  1
  Hf  Hf6  1  0.152693  0.602785  0.332998  1
  O  O7  1  0.587116  0.419610  0.818988  1
  O  O8  1  0.829371  0.573196  0.426566  1
  O  O9  1  0.412138  0.808416  0.565832  1
  O  O10  1  0.412791  0.587333  0.179567  1
  O  O11  1  0.169511  0.430396  0.575157  1
  O  O12  1  0.592043  0.188636  0.434621  1
  O  O13  1  0.020632  0.678870  0.877783  1
  O  O14  1  0.918130  0.088410  0.698910  1
  O  O15  1  0.685792  0.930856  0.058982  1
  O  O16  1  0.983321  0.319966  0.123622  1
  O  O17  1  0.078775  0.909678  0.300911  1
  O  O18  1  0.313330  0.063691  0.941207  1
