# generated using pymatgen
data_Nb3B2Os4Ru
_symmetry_space_group_name_H-M   'P 1'
_cell_length_a   9.55463900
_cell_length_b   9.55463900
_cell_length_c   3.01763000
_cell_angle_alpha   90.00000000
_cell_angle_beta   90.00000000
_cell_angle_gamma   90.00000000
_symmetry_Int_Tables_number   1
_chemical_formula_structural   Nb3B2Os4Ru
_chemical_formula_sum   'Nb6 B4 Os8 Ru2'
_cell_volume   275.48284182
_cell_formula_units_Z   2
loop_
 _symmetry_equiv_pos_site_id
 _symmetry_equiv_pos_as_xyz
  1  'x, y, z'
loop_
 _atom_site_type_symbol
 _atom_site_label
 _atom_site_symmetry_multiplicity
 _atom_site_fract_x
 _atom_site_fract_y
 _atom_site_fract_z
 _atom_site_occupancy
  Nb  Nb0  1  0.823369  0.676631  0.000000  1
  Nb  Nb1  1  0.176631  0.323369  0.000000  1
  Nb  Nb2  1  0.323369  0.823369  0.000000  1
  Nb  Nb3  1  0.676631  0.176631  0.000000  1
  Nb  Nb4  1  0.500000  0.500000  0.000000  1
  Nb  Nb5  1  0.000000  0.000000  0.000000  1
  B  B6  1  0.620788  0.879212  0.000000  1
  B  B7  1  0.379212  0.120788  0.000000  1
  B  B8  1  0.120788  0.620788  0.000000  1
  B  B9  1  0.879212  0.379212  0.000000  1
  Os  Os10  1  0.571143  0.720012  0.500000  1
  Os  Os11  1  0.428857  0.279988  0.500000  1
  Os  Os12  1  0.071143  0.779988  0.500000  1
  Os  Os13  1  0.928857  0.220012  0.500000  1
  Os  Os14  1  0.279988  0.571143  0.500000  1
  Os  Os15  1  0.720012  0.428857  0.500000  1
  Os  Os16  1  0.220012  0.071143  0.500000  1
  Os  Os17  1  0.779988  0.928857  0.500000  1
  Ru  Ru18  1  0.500000  0.000000  0.500000  1
  Ru  Ru19  1  0.000000  0.500000  0.500000  1
