# generated using pymatgen
data_YbHo(B4Os)2
_symmetry_space_group_name_H-M   'P 1'
_cell_length_a   3.54931100
_cell_length_b   5.95763373
_cell_length_c   11.51709430
_cell_angle_alpha   89.89019494
_cell_angle_beta   90.00000000
_cell_angle_gamma   90.00000000
_symmetry_Int_Tables_number   1
_chemical_formula_structural   YbHo(B4Os)2
_chemical_formula_sum   'Yb2 Ho2 B16 Os4'
_cell_volume   243.53421187
_cell_formula_units_Z   2
loop_
 _symmetry_equiv_pos_site_id
 _symmetry_equiv_pos_as_xyz
  1  'x, y, z'
loop_
 _atom_site_type_symbol
 _atom_site_label
 _atom_site_symmetry_multiplicity
 _atom_site_fract_x
 _atom_site_fract_y
 _atom_site_fract_z
 _atom_site_occupancy
  Yb  Yb0  1  0.000000  0.628717  0.850853  1
  Yb  Yb1  1  0.000000  0.371283  0.149147  1
  Ho  Ho2  1  0.000000  0.128549  0.650698  1
  Ho  Ho3  1  0.000000  0.871451  0.349302  1
  B  B4  1  0.500000  0.474380  0.692079  1
  B  B5  1  0.500000  0.525620  0.307921  1
  B  B6  1  0.500000  0.975066  0.808850  1
  B  B7  1  0.500000  0.024934  0.191150  1
  B  B8  1  0.500000  0.288639  0.815402  1
  B  B9  1  0.500000  0.711361  0.184598  1
  B  B10  1  0.500000  0.787405  0.686169  1
  B  B11  1  0.500000  0.212595  0.313831  1
  B  B12  1  0.500000  0.363909  0.969573  1
  B  B13  1  0.500000  0.636091  0.030427  1
  B  B14  1  0.500000  0.863574  0.530325  1
  B  B15  1  0.500000  0.136426  0.469675  1
  B  B16  1  0.500000  0.387692  0.547460  1
  B  B17  1  0.500000  0.612308  0.452540  1
  B  B18  1  0.500000  0.886035  0.953232  1
  B  B19  1  0.500000  0.113965  0.046768  1
  Os  Os20  1  0.000000  0.136856  0.909313  1
  Os  Os21  1  0.000000  0.863144  0.090687  1
  Os  Os22  1  0.000000  0.641294  0.591609  1
  Os  Os23  1  0.000000  0.358706  0.408391  1
