# generated using pymatgen
data_Mg4MnFe3B16
_symmetry_space_group_name_H-M   'P 1'
_cell_length_a   3.19299400
_cell_length_b   5.79806455
_cell_length_c   11.15641111
_cell_angle_alpha   90.04990765
_cell_angle_beta   90.00000000
_cell_angle_gamma   90.00000000
_symmetry_Int_Tables_number   1
_chemical_formula_structural   Mg4MnFe3B16
_chemical_formula_sum   'Mg4 Mn1 Fe3 B16'
_cell_volume   206.54062792
_cell_formula_units_Z   1
loop_
 _symmetry_equiv_pos_site_id
 _symmetry_equiv_pos_as_xyz
  1  'x, y, z'
loop_
 _atom_site_type_symbol
 _atom_site_label
 _atom_site_symmetry_multiplicity
 _atom_site_fract_x
 _atom_site_fract_y
 _atom_site_fract_z
 _atom_site_occupancy
  Mg  Mg0  1  0.000000  0.124050  0.650543  1
  Mg  Mg1  1  0.000000  0.875512  0.348456  1
  Mg  Mg2  1  0.000000  0.624159  0.848335  1
  Mg  Mg3  1  0.000000  0.376883  0.151842  1
  Mn  Mn4  1  0.000000  0.129633  0.915554  1
  Fe  Fe5  1  0.000000  0.870118  0.084980  1
  Fe  Fe6  1  0.000000  0.631447  0.583401  1
  Fe  Fe7  1  0.000000  0.368811  0.415643  1
  B  B8  1  0.500000  0.366799  0.969759  1
  B  B9  1  0.500000  0.634246  0.031994  1
  B  B10  1  0.500000  0.865775  0.530484  1
  B  B11  1  0.500000  0.134519  0.468997  1
  B  B12  1  0.500000  0.479803  0.693898  1
  B  B13  1  0.500000  0.521343  0.305577  1
  B  B14  1  0.500000  0.977343  0.804657  1
  B  B15  1  0.500000  0.020680  0.195276  1
  B  B16  1  0.500000  0.290196  0.814116  1
  B  B17  1  0.500000  0.712194  0.184994  1
  B  B18  1  0.500000  0.787210  0.683822  1
  B  B19  1  0.500000  0.212611  0.315540  1
  B  B20  1  0.500000  0.385831  0.548699  1
  B  B21  1  0.500000  0.614373  0.450824  1
  B  B22  1  0.500000  0.882947  0.952171  1
  B  B23  1  0.500000  0.113518  0.050441  1
