# generated using pymatgen
data_Tb4YbTm2CoI12
_symmetry_space_group_name_H-M   'P 1'
_cell_length_a   9.66823059
_cell_length_b   9.76122912
_cell_length_c   9.76924924
_cell_angle_alpha   106.86591819
_cell_angle_beta   107.12826748
_cell_angle_gamma   106.71703817
_symmetry_Int_Tables_number   1
_chemical_formula_structural   Tb4YbTm2CoI12
_chemical_formula_sum   'Tb4 Yb1 Tm2 Co1 I12'
_cell_volume   769.81758497
_cell_formula_units_Z   1
loop_
 _symmetry_equiv_pos_site_id
 _symmetry_equiv_pos_as_xyz
  1  'x, y, z'
loop_
 _atom_site_type_symbol
 _atom_site_label
 _atom_site_symmetry_multiplicity
 _atom_site_fract_x
 _atom_site_fract_y
 _atom_site_fract_z
 _atom_site_occupancy
  Tb  Tb0  1  0.284426  0.024218  0.093274  1
  Tb  Tb1  1  0.976269  0.904467  0.703099  1
  Tb  Tb2  1  0.903788  0.703204  0.975917  1
  Tb  Tb3  1  0.716366  0.977571  0.908786  1
  Yb  Yb4  1  0.499945  0.500137  0.500082  1
  Tm  Tm5  1  0.024266  0.095848  0.291697  1
  Tm  Tm6  1  0.094620  0.291704  0.025155  1
  Co  Co7  1  0.000320  0.000086  0.000231  1
  I  I8  1  0.149007  0.455801  0.377614  1
  I  I9  1  0.455935  0.379674  0.150504  1
  I  I10  1  0.377882  0.151156  0.457877  1
  I  I11  1  0.849430  0.541222  0.620047  1
  I  I12  1  0.540732  0.620808  0.848192  1
  I  I13  1  0.619158  0.848930  0.542367  1
  I  I14  1  0.681572  0.072452  0.224795  1
  I  I15  1  0.072692  0.225798  0.680085  1
  I  I16  1  0.225665  0.678518  0.072810  1
  I  I17  1  0.321597  0.928434  0.777442  1
  I  I18  1  0.928778  0.779384  0.321857  1
  I  I19  1  0.777551  0.320588  0.928168  1
