# generated using pymatgen
data_Nd5Th3(MgOs)2
_symmetry_space_group_name_H-M   'P 1'
_cell_length_a   9.88974114
_cell_length_b   10.02077474
_cell_length_c   10.01967500
_cell_angle_alpha   58.95289178
_cell_angle_beta   60.43040673
_cell_angle_gamma   60.43292994
_symmetry_Int_Tables_number   1
_chemical_formula_structural   Nd5Th3(MgOs)2
_chemical_formula_sum   'Nd10 Th6 Mg4 Os4'
_cell_volume   700.85740563
_cell_formula_units_Z   2
loop_
 _symmetry_equiv_pos_site_id
 _symmetry_equiv_pos_as_xyz
  1  'x, y, z'
loop_
 _atom_site_type_symbol
 _atom_site_label
 _atom_site_symmetry_multiplicity
 _atom_site_fract_x
 _atom_site_fract_y
 _atom_site_fract_z
 _atom_site_occupancy
  Nd  Nd0  1  0.189867  0.810355  0.189376  1
  Nd  Nd1  1  0.809834  0.189493  0.809210  1
  Nd  Nd2  1  0.189854  0.189412  0.810323  1
  Nd  Nd3  1  0.809791  0.809243  0.189496  1
  Nd  Nd4  1  0.939453  0.562863  0.562822  1
  Nd  Nd5  1  0.559618  0.938580  0.938539  1
  Nd  Nd6  1  0.559592  0.942607  0.559944  1
  Nd  Nd7  1  0.941661  0.559444  0.939537  1
  Nd  Nd8  1  0.559599  0.559953  0.942605  1
  Nd  Nd9  1  0.941645  0.939523  0.559445  1
  Th  Th10  1  0.339481  0.347000  0.347026  1
  Th  Th11  1  0.347709  0.341720  0.962807  1
  Th  Th12  1  0.347716  0.962791  0.341705  1
  Th  Th13  1  0.963198  0.347728  0.347752  1
  Th  Th14  1  0.813075  0.186922  0.186913  1
  Th  Th15  1  0.185896  0.814244  0.814295  1
  Mg  Mg16  1  0.580480  0.578449  0.578447  1
  Mg  Mg17  1  0.578602  0.578663  0.262840  1
  Mg  Mg18  1  0.578615  0.262845  0.578643  1
  Mg  Mg19  1  0.262851  0.578735  0.578713  1
  Os  Os20  1  0.129076  0.149741  0.149735  1
  Os  Os21  1  0.150240  0.128127  0.571153  1
  Os  Os22  1  0.150221  0.571117  0.128218  1
  Os  Os23  1  0.571919  0.150446  0.150457  1
