# generated using pymatgen
data_Dy16ZnIn3Rh4
_symmetry_space_group_name_H-M   'P 1'
_cell_length_a   9.61064550
_cell_length_b   9.61064536
_cell_length_c   9.58598088
_cell_angle_alpha   59.91485241
_cell_angle_beta   59.91484969
_cell_angle_gamma   60.00000036
_symmetry_Int_Tables_number   1
_chemical_formula_structural   Dy16ZnIn3Rh4
_chemical_formula_sum   'Dy16 Zn1 In3 Rh4'
_cell_volume   625.26846032
_cell_formula_units_Z   1
loop_
 _symmetry_equiv_pos_site_id
 _symmetry_equiv_pos_as_xyz
  1  'x, y, z'
loop_
 _atom_site_type_symbol
 _atom_site_label
 _atom_site_symmetry_multiplicity
 _atom_site_fract_x
 _atom_site_fract_y
 _atom_site_fract_z
 _atom_site_occupancy
  Dy  Dy0  1  0.688792  0.310779  0.311637  1
  Dy  Dy1  1  0.688792  0.688792  0.311637  1
  Dy  Dy2  1  0.310779  0.688792  0.311637  1
  Dy  Dy3  1  0.936305  0.936305  0.558258  1
  Dy  Dy4  1  0.149490  0.149490  0.551529  1
  Dy  Dy5  1  0.569131  0.936305  0.558258  1
  Dy  Dy6  1  0.148289  0.148289  0.149707  1
  Dy  Dy7  1  0.310897  0.310897  0.689198  1
  Dy  Dy8  1  0.936305  0.569131  0.558258  1
  Dy  Dy9  1  0.563220  0.563220  0.935831  1
  Dy  Dy10  1  0.563220  0.937728  0.935831  1
  Dy  Dy11  1  0.937728  0.563220  0.935831  1
  Dy  Dy12  1  0.148289  0.553713  0.149707  1
  Dy  Dy13  1  0.310897  0.689008  0.689198  1
  Dy  Dy14  1  0.689008  0.310897  0.689198  1
  Dy  Dy15  1  0.553713  0.148289  0.149707  1
  Zn  Zn16  1  0.916401  0.916401  0.250798  1
  In  In17  1  0.245894  0.916786  0.920534  1
  In  In18  1  0.916786  0.245894  0.920534  1
  In  In19  1  0.916786  0.916786  0.920534  1
  Rh  Rh20  1  0.357297  0.357297  0.356819  1
  Rh  Rh21  1  0.928589  0.357297  0.356819  1
  Rh  Rh22  1  0.356093  0.356093  0.931721  1
  Rh  Rh23  1  0.357297  0.928589  0.356819  1
