# generated using pymatgen
data_Y20Cd3Ir2Pd3
_symmetry_space_group_name_H-M   'P 1'
_cell_length_a   9.62849600
_cell_length_b   9.62849638
_cell_length_c   9.59008100
_cell_angle_alpha   90.00000000
_cell_angle_beta   90.00000000
_cell_angle_gamma   120.00000556
_symmetry_Int_Tables_number   1
_chemical_formula_structural   Y20Cd3Ir2Pd3
_chemical_formula_sum   'Y20 Cd3 Ir2 Pd3'
_cell_volume   769.96291596
_cell_formula_units_Z   1
loop_
 _symmetry_equiv_pos_site_id
 _symmetry_equiv_pos_as_xyz
  1  'x, y, z'
loop_
 _atom_site_type_symbol
 _atom_site_label
 _atom_site_symmetry_multiplicity
 _atom_site_fract_x
 _atom_site_fract_y
 _atom_site_fract_z
 _atom_site_occupancy
  Y  Y0  1  0.000000  0.000000  0.447194  1
  Y  Y1  1  0.000000  0.000000  0.052806  1
  Y  Y2  1  0.208495  0.791505  0.441405  1
  Y  Y3  1  0.208495  0.416989  0.441405  1
  Y  Y4  1  0.583011  0.791505  0.441405  1
  Y  Y5  1  0.793168  0.206832  0.556420  1
  Y  Y6  1  0.793168  0.586335  0.556420  1
  Y  Y7  1  0.413665  0.206832  0.556420  1
  Y  Y8  1  0.793168  0.206832  0.943580  1
  Y  Y9  1  0.793168  0.586335  0.943580  1
  Y  Y10  1  0.413665  0.206832  0.943580  1
  Y  Y11  1  0.208495  0.791505  0.058595  1
  Y  Y12  1  0.208495  0.416989  0.058595  1
  Y  Y13  1  0.583011  0.791505  0.058595  1
  Y  Y14  1  0.541311  0.458689  0.250000  1
  Y  Y15  1  0.541311  0.082623  0.250000  1
  Y  Y16  1  0.917377  0.458689  0.250000  1
  Y  Y17  1  0.458219  0.541781  0.750000  1
  Y  Y18  1  0.458219  0.916437  0.750000  1
  Y  Y19  1  0.083563  0.541781  0.750000  1
  Cd  Cd20  1  0.107822  0.892178  0.750000  1
  Cd  Cd21  1  0.107822  0.215644  0.750000  1
  Cd  Cd22  1  0.784356  0.892178  0.750000  1
  Ir  Ir23  1  0.333333  0.666667  0.250000  1
  Ir  Ir24  1  0.666667  0.333333  0.750000  1
  Pd  Pd25  1  0.867430  0.132570  0.250000  1
  Pd  Pd26  1  0.867430  0.734859  0.250000  1
  Pd  Pd27  1  0.265141  0.132570  0.250000  1
