# generated using pymatgen
data_Th3InSnRh3Pb
_symmetry_space_group_name_H-M   'P 1'
_cell_length_a   7.67756690
_cell_length_b   7.63411136
_cell_length_c   4.12392200
_cell_angle_alpha   90.00000000
_cell_angle_beta   90.00000000
_cell_angle_gamma   120.30210269
_symmetry_Int_Tables_number   1
_chemical_formula_structural   Th3InSnRh3Pb
_chemical_formula_sum   'Th3 In1 Sn1 Rh3 Pb1'
_cell_volume   208.68586562
_cell_formula_units_Z   1
loop_
 _symmetry_equiv_pos_site_id
 _symmetry_equiv_pos_as_xyz
  1  'x, y, z'
loop_
 _atom_site_type_symbol
 _atom_site_label
 _atom_site_symmetry_multiplicity
 _atom_site_fract_x
 _atom_site_fract_y
 _atom_site_fract_z
 _atom_site_occupancy
  Th  Th0  1  0.411455  0.416514  0.500000  1
  Th  Th1  1  0.590533  0.998642  0.500000  1
  Th  Th2  1  0.993682  0.583091  0.500000  1
  In  In3  1  0.749943  0.749134  0.000000  1
  Sn  Sn4  1  0.997280  0.250022  0.000000  1
  Rh  Rh5  1  0.676438  0.336589  0.000000  1
  Rh  Rh6  1  0.334409  0.658610  0.000000  1
  Rh  Rh7  1  0.996490  0.010467  0.500000  1
  Pb  Pb8  1  0.249772  0.996931  0.000000  1
