# generated using pymatgen
data_CaZn2In2Ni7
_symmetry_space_group_name_H-M   'P 1'
_cell_length_a   5.03563100
_cell_length_b   8.30677500
_cell_length_c   8.19849200
_cell_angle_alpha   90.00000000
_cell_angle_beta   90.00000000
_cell_angle_gamma   90.00000000
_symmetry_Int_Tables_number   1
_chemical_formula_structural   CaZn2In2Ni7
_chemical_formula_sum   'Ca2 Zn4 In4 Ni14'
_cell_volume   342.94172092
_cell_formula_units_Z   2
loop_
 _symmetry_equiv_pos_site_id
 _symmetry_equiv_pos_as_xyz
  1  'x, y, z'
loop_
 _atom_site_type_symbol
 _atom_site_label
 _atom_site_symmetry_multiplicity
 _atom_site_fract_x
 _atom_site_fract_y
 _atom_site_fract_z
 _atom_site_occupancy
  Ca  Ca0  1  0.000000  0.500000  0.500000  1
  Ca  Ca1  1  0.000000  0.000000  0.000000  1
  Zn  Zn2  1  0.500000  0.702163  0.563594  1
  Zn  Zn3  1  0.500000  0.297837  0.436406  1
  Zn  Zn4  1  0.500000  0.797837  0.063594  1
  Zn  Zn5  1  0.500000  0.202163  0.936406  1
  In  In6  1  0.000000  0.619088  0.131318  1
  In  In7  1  0.000000  0.380912  0.868682  1
  In  In8  1  0.000000  0.880912  0.631318  1
  In  In9  1  0.000000  0.119088  0.368682  1
  Ni  Ni10  1  0.753583  0.175049  0.674928  1
  Ni  Ni11  1  0.753583  0.824951  0.325072  1
  Ni  Ni12  1  0.753583  0.324951  0.174928  1
  Ni  Ni13  1  0.753583  0.675049  0.825072  1
  Ni  Ni14  1  0.246417  0.824951  0.325072  1
  Ni  Ni15  1  0.246417  0.175049  0.674928  1
  Ni  Ni16  1  0.246417  0.675049  0.825072  1
  Ni  Ni17  1  0.246417  0.324951  0.174928  1
  Ni  Ni18  1  0.500000  0.566268  0.289608  1
  Ni  Ni19  1  0.500000  0.433732  0.710392  1
  Ni  Ni20  1  0.500000  0.066268  0.210392  1
  Ni  Ni21  1  0.500000  0.933732  0.789608  1
  Ni  Ni22  1  0.500000  0.000000  0.500000  1
  Ni  Ni23  1  0.500000  0.500000  0.000000  1
