# generated using pymatgen
data_LiCrPbF6
_symmetry_space_group_name_H-M   'P 1'
_cell_length_a   5.31813500
_cell_length_b   5.31813474
_cell_length_c   10.59123000
_cell_angle_alpha   90.00000000
_cell_angle_beta   90.00000000
_cell_angle_gamma   119.99999539
_symmetry_Int_Tables_number   1
_chemical_formula_structural   LiCrPbF6
_chemical_formula_sum   'Li2 Cr2 Pb2 F12'
_cell_volume   259.41539473
_cell_formula_units_Z   2
loop_
 _symmetry_equiv_pos_site_id
 _symmetry_equiv_pos_as_xyz
  1  'x, y, z'
loop_
 _atom_site_type_symbol
 _atom_site_label
 _atom_site_symmetry_multiplicity
 _atom_site_fract_x
 _atom_site_fract_y
 _atom_site_fract_z
 _atom_site_occupancy
  Li  Li0  1  0.333333  0.666667  0.750000  1
  Li  Li1  1  0.666667  0.333333  0.250000  1
  Cr  Cr2  1  0.666667  0.333333  0.750000  1
  Cr  Cr3  1  0.333333  0.666667  0.250000  1
  Pb  Pb4  1  0.000000  0.000000  0.500000  1
  Pb  Pb5  1  0.000000  0.000000  0.000000  1
  F  F6  1  0.641387  0.017556  0.646674  1
  F  F7  1  0.358613  0.982444  0.353326  1
  F  F8  1  0.982444  0.623830  0.646674  1
  F  F9  1  0.641387  0.623830  0.853326  1
  F  F10  1  0.017556  0.376170  0.353326  1
  F  F11  1  0.358613  0.376170  0.146674  1
  F  F12  1  0.376170  0.358613  0.646674  1
  F  F13  1  0.982444  0.358613  0.853326  1
  F  F14  1  0.623830  0.641387  0.353326  1
  F  F15  1  0.017556  0.641387  0.146674  1
  F  F16  1  0.376170  0.017556  0.853326  1
  F  F17  1  0.623830  0.982444  0.146674  1
