# generated using pymatgen
data_TbHo3Al16(SiIr3)2
_symmetry_space_group_name_H-M   'P 1'
_cell_length_a   7.54267803
_cell_length_b   7.54307186
_cell_length_c   9.34368300
_cell_angle_alpha   90.00000000
_cell_angle_beta   90.00000000
_cell_angle_gamma   119.66060753
_symmetry_Int_Tables_number   1
_chemical_formula_structural   TbHo3Al16(SiIr3)2
_chemical_formula_sum   'Tb1 Ho3 Al16 Si2 Ir6'
_cell_volume   461.95286973
_cell_formula_units_Z   1
loop_
 _symmetry_equiv_pos_site_id
 _symmetry_equiv_pos_as_xyz
  1  'x, y, z'
loop_
 _atom_site_type_symbol
 _atom_site_label
 _atom_site_symmetry_multiplicity
 _atom_site_fract_x
 _atom_site_fract_y
 _atom_site_fract_z
 _atom_site_occupancy
  Tb  Tb0  1  0.994978  0.674692  0.250000  1
  Ho  Ho1  1  0.005212  0.325114  0.750000  1
  Ho  Ho2  1  0.674974  0.995053  0.250000  1
  Ho  Ho3  1  0.325280  0.005256  0.750000  1
  Al  Al4  1  0.001140  0.335870  0.076391  1
  Al  Al5  1  0.998861  0.663700  0.922971  1
  Al  Al6  1  0.998861  0.663700  0.577029  1
  Al  Al7  1  0.336731  0.001570  0.423645  1
  Al  Al8  1  0.001140  0.335870  0.423609  1
  Al  Al9  1  0.663689  0.998841  0.576630  1
  Al  Al10  1  0.663689  0.998841  0.923370  1
  Al  Al11  1  0.336731  0.001570  0.076355  1
  Al  Al12  1  0.335514  0.335525  0.557881  1
  Al  Al13  1  0.663982  0.664427  0.442538  1
  Al  Al14  1  0.663982  0.664427  0.057462  1
  Al  Al15  1  0.335514  0.335525  0.942119  1
  Al  Al16  1  0.335765  0.548611  0.250000  1
  Al  Al17  1  0.664454  0.451279  0.750000  1
  Al  Al18  1  0.548188  0.335047  0.250000  1
  Al  Al19  1  0.451267  0.664498  0.750000  1
  Si  Si20  1  0.128922  0.129122  0.250000  1
  Si  Si21  1  0.871311  0.871285  0.750000  1
  Ir  Ir22  1  0.671639  0.327882  0.999754  1
  Ir  Ir23  1  0.328319  0.671856  0.999781  1
  Ir  Ir24  1  0.328319  0.671856  0.500219  1
  Ir  Ir25  1  0.671639  0.327882  0.500246  1
  Ir  Ir26  1  0.999948  0.000352  0.999731  1
  Ir  Ir27  1  0.999948  0.000352  0.500269  1
