# generated using pymatgen
data_Li4ErP12Ir16Ru3
_symmetry_space_group_name_H-M   'P 1'
_cell_length_a   12.51838711
_cell_length_b   12.52965077
_cell_length_c   3.94937300
_cell_angle_alpha   90.00000000
_cell_angle_beta   90.00000000
_cell_angle_gamma   120.02977011
_symmetry_Int_Tables_number   1
_chemical_formula_structural   Li4ErP12Ir16Ru3
_chemical_formula_sum   'Li4 Er1 P12 Ir16 Ru3'
_cell_volume   536.30984440
_cell_formula_units_Z   1
loop_
 _symmetry_equiv_pos_site_id
 _symmetry_equiv_pos_as_xyz
  1  'x, y, z'
loop_
 _atom_site_type_symbol
 _atom_site_label
 _atom_site_symmetry_multiplicity
 _atom_site_fract_x
 _atom_site_fract_y
 _atom_site_fract_z
 _atom_site_occupancy
  Li  Li0  1  0.668202  0.334727  0.000000  1
  Li  Li1  1  0.331798  0.666527  0.000000  1
  Li  Li2  1  0.823943  0.822297  0.500000  1
  Li  Li3  1  0.176057  0.998355  0.500000  1
  Er  Er4  1  0.000000  0.173221  0.500000  1
  P  P5  1  0.687285  0.173741  0.500000  1
  P  P6  1  0.826252  0.515480  0.500000  1
  P  P7  1  0.487040  0.312769  0.500000  1
  P  P8  1  0.173748  0.689228  0.500000  1
  P  P9  1  0.512960  0.825730  0.500000  1
  P  P10  1  0.312715  0.486456  0.500000  1
  P  P11  1  0.640639  0.640978  0.000000  1
  P  P12  1  0.359361  0.000338  0.000000  1
  P  P13  1  0.000000  0.360716  0.000000  1
  P  P14  1  0.183792  0.178345  0.000000  1
  P  P15  1  0.816208  0.994553  0.000000  1
  P  P16  1  0.000000  0.818121  0.000000  1
  Ir  Ir17  1  0.807744  0.180495  0.000000  1
  Ir  Ir18  1  0.817132  0.622235  0.000000  1
  Ir  Ir19  1  0.379110  0.196171  0.000000  1
  Ir  Ir20  1  0.182868  0.805104  0.000000  1
  Ir  Ir21  1  0.620890  0.817060  0.000000  1
  Ir  Ir22  1  0.192256  0.372751  0.000000  1
  Ir  Ir23  1  0.454641  0.458637  0.000000  1
  Ir  Ir24  1  0.545359  0.003996  0.000000  1
  Ir  Ir25  1  0.000000  0.543238  0.000000  1
  Ir  Ir26  1  0.868957  0.359647  0.500000  1
  Ir  Ir27  1  0.639383  0.511096  0.500000  1
  Ir  Ir28  1  0.490199  0.131237  0.500000  1
  Ir  Ir29  1  0.360617  0.871712  0.500000  1
  Ir  Ir30  1  0.509801  0.641037  0.500000  1
  Ir  Ir31  1  0.131043  0.490689  0.500000  1
  Ir  Ir32  1  0.000000  0.000041  0.000000  1
  Ru  Ru33  1  0.292250  0.292921  0.500000  1
  Ru  Ru34  1  0.707750  0.000670  0.500000  1
  Ru  Ru35  1  0.000000  0.709683  0.500000  1
