# generated using pymatgen
data_FeS8Br3
_symmetry_space_group_name_H-M   'P 1'
_cell_length_a   8.20954556
_cell_length_b   10.10735429
_cell_length_c   11.94928915
_cell_angle_alpha   98.23882669
_cell_angle_beta   113.67341695
_cell_angle_gamma   102.51748516
_symmetry_Int_Tables_number   1
_chemical_formula_structural   FeS8Br3
_chemical_formula_sum   'Fe2 S16 Br6'
_cell_volume   856.57140171
_cell_formula_units_Z   2
loop_
 _symmetry_equiv_pos_site_id
 _symmetry_equiv_pos_as_xyz
  1  'x, y, z'
loop_
 _atom_site_type_symbol
 _atom_site_label
 _atom_site_symmetry_multiplicity
 _atom_site_fract_x
 _atom_site_fract_y
 _atom_site_fract_z
 _atom_site_occupancy
  Fe  Fe0  1  0.820024  0.985899  0.859835  1
  Fe  Fe1  1  0.179976  0.014101  0.140165  1
  S  S2  1  0.845470  0.501746  0.806573  1
  S  S3  1  0.154530  0.498254  0.193427  1
  S  S4  1  0.698446  0.417293  0.613735  1
  S  S5  1  0.301554  0.582707  0.386265  1
  S  S6  1  0.730309  0.222887  0.568488  1
  S  S7  1  0.269691  0.777113  0.431512  1
  S  S8  1  0.937626  0.242253  0.511074  1
  S  S9  1  0.062374  0.757747  0.488926  1
  S  S10  1  0.901457  0.360661  0.153083  1
  S  S11  1  0.098543  0.639339  0.846917  1
  S  S12  1  0.700777  0.462160  0.100496  1
  S  S13  1  0.299223  0.537840  0.899504  1
  S  S14  1  0.660957  0.535256  0.255029  1
  S  S15  1  0.339043  0.464744  0.744971  1
  S  S16  1  0.815612  0.743279  0.337484  1
  S  S17  1  0.184388  0.256721  0.662516  1
  Br  Br18  1  0.584701  0.085869  0.826014  1
  Br  Br19  1  0.415299  0.914131  0.173986  1
  Br  Br20  1  0.851233  0.860510  0.028545  1
  Br  Br21  1  0.148767  0.139490  0.971455  1
  Br  Br22  1  0.779237  0.839684  0.679025  1
  Br  Br23  1  0.220763  0.160316  0.320975  1
