# generated using pymatgen
data_Nd2CuNi5(BIr)2
_symmetry_space_group_name_H-M   'P 1'
_cell_length_a   5.25837015
_cell_length_b   5.25836914
_cell_length_c   7.07589700
_cell_angle_alpha   90.00000000
_cell_angle_beta   90.00000000
_cell_angle_gamma   121.99154153
_symmetry_Int_Tables_number   1
_chemical_formula_structural   Nd2CuNi5(BIr)2
_chemical_formula_sum   'Nd2 Cu1 Ni5 B2 Ir2'
_cell_volume   165.93739459
_cell_formula_units_Z   1
loop_
 _symmetry_equiv_pos_site_id
 _symmetry_equiv_pos_as_xyz
  1  'x, y, z'
loop_
 _atom_site_type_symbol
 _atom_site_label
 _atom_site_symmetry_multiplicity
 _atom_site_fract_x
 _atom_site_fract_y
 _atom_site_fract_z
 _atom_site_occupancy
  Nd  Nd0  1  0.000989  0.999011  0.500000  1
  Nd  Nd1  1  0.994962  0.005038  0.000000  1
  Cu  Cu2  1  0.319921  0.680079  0.000000  1
  Ni  Ni3  1  0.669860  0.330140  0.000000  1
  Ni  Ni4  1  0.501672  0.999019  0.296709  1
  Ni  Ni5  1  0.000981  0.498328  0.296709  1
  Ni  Ni6  1  0.501672  0.999019  0.703291  1
  Ni  Ni7  1  0.000981  0.498328  0.703291  1
  B  B8  1  0.670897  0.329103  0.500000  1
  B  B9  1  0.331960  0.668040  0.500000  1
  Ir  Ir10  1  0.503053  0.496947  0.287135  1
  Ir  Ir11  1  0.503053  0.496947  0.712865  1
