# generated using pymatgen
data_Hf2SeBr12
_symmetry_space_group_name_H-M   'P 1'
_cell_length_a   9.76587054
_cell_length_b   9.76587149
_cell_length_c   7.47390158
_cell_angle_alpha   70.84723381
_cell_angle_beta   70.84722843
_cell_angle_gamma   80.73494461
_symmetry_Int_Tables_number   1
_chemical_formula_structural   Hf2SeBr12
_chemical_formula_sum   'Hf2 Se1 Br12'
_cell_volume   634.93715564
_cell_formula_units_Z   1
loop_
 _symmetry_equiv_pos_site_id
 _symmetry_equiv_pos_as_xyz
  1  'x, y, z'
loop_
 _atom_site_type_symbol
 _atom_site_label
 _atom_site_symmetry_multiplicity
 _atom_site_fract_x
 _atom_site_fract_y
 _atom_site_fract_z
 _atom_site_occupancy
  Hf  Hf0  1  0.268360  0.268360  0.736771  1
  Hf  Hf1  1  0.995491  0.995491  0.006516  1
  Se  Se2  1  0.723180  0.723180  0.269347  1
  Br  Br3  1  0.976829  0.257668  0.748484  1
  Br  Br4  1  0.257668  0.976829  0.748484  1
  Br  Br5  1  0.039187  0.747037  0.250356  1
  Br  Br6  1  0.747037  0.039187  0.250356  1
  Br  Br7  1  0.208627  0.510870  0.795147  1
  Br  Br8  1  0.510870  0.208627  0.795147  1
  Br  Br9  1  0.778926  0.491870  0.214297  1
  Br  Br10  1  0.491870  0.778926  0.214297  1
  Br  Br11  1  0.133652  0.133652  0.144647  1
  Br  Br12  1  0.876400  0.876400  0.836504  1
  Br  Br13  1  0.649023  0.649023  0.621616  1
  Br  Br14  1  0.342881  0.342881  0.368032  1
