# generated using pymatgen
data_Ho3Nb2Sn(B2Ru5)2
_symmetry_space_group_name_H-M   'P 1'
_cell_length_a   9.60965517
_cell_length_b   9.66680353
_cell_length_c   3.11730800
_cell_angle_alpha   90.00000000
_cell_angle_beta   90.00000000
_cell_angle_gamma   90.57838442
_symmetry_Int_Tables_number   1
_chemical_formula_structural   Ho3Nb2Sn(B2Ru5)2
_chemical_formula_sum   'Ho3 Nb2 Sn1 B4 Ru10'
_cell_volume   289.56647646
_cell_formula_units_Z   1
loop_
 _symmetry_equiv_pos_site_id
 _symmetry_equiv_pos_as_xyz
  1  'x, y, z'
loop_
 _atom_site_type_symbol
 _atom_site_label
 _atom_site_symmetry_multiplicity
 _atom_site_fract_x
 _atom_site_fract_y
 _atom_site_fract_z
 _atom_site_occupancy
  Ho  Ho0  1  0.823786  0.674300  0.000000  1
  Ho  Ho1  1  0.175692  0.325755  0.000000  1
  Ho  Ho2  1  0.324462  0.826010  0.000000  1
  Nb  Nb3  1  0.678857  0.170893  0.000000  1
  Nb  Nb4  1  0.003589  0.998555  0.000000  1
  Sn  Sn5  1  0.498478  0.504647  0.000000  1
  B  B6  1  0.623574  0.882910  0.000000  1
  B  B7  1  0.380786  0.123526  0.000000  1
  B  B8  1  0.117085  0.620001  0.000000  1
  B  B9  1  0.877005  0.376251  0.000000  1
  Ru  Ru10  1  0.572731  0.727645  0.500000  1
  Ru  Ru11  1  0.443106  0.276008  0.500000  1
  Ru  Ru12  1  0.067097  0.780308  0.500000  1
  Ru  Ru13  1  0.917357  0.213329  0.500000  1
  Ru  Ru14  1  0.274885  0.573508  0.500000  1
  Ru  Ru15  1  0.714714  0.409029  0.500000  1
  Ru  Ru16  1  0.222001  0.071437  0.500000  1
  Ru  Ru17  1  0.780742  0.941181  0.500000  1
  Ru  Ru18  1  0.509076  0.008600  0.500000  1
  Ru  Ru19  1  0.994976  0.496110  0.500000  1
