# generated using pymatgen
data_Tm8TcB24MoRh2
_symmetry_space_group_name_H-M   'P 1'
_cell_length_a   3.63708000
_cell_length_b   9.09969078
_cell_length_c   11.49030916
_cell_angle_alpha   90.36709784
_cell_angle_beta   90.00000000
_cell_angle_gamma   90.00000000
_symmetry_Int_Tables_number   1
_chemical_formula_structural   Tm8TcB24MoRh2
_chemical_formula_sum   'Tm8 Tc1 B24 Mo1 Rh2'
_cell_volume   380.27895219
_cell_formula_units_Z   1
loop_
 _symmetry_equiv_pos_site_id
 _symmetry_equiv_pos_as_xyz
  1  'x, y, z'
loop_
 _atom_site_type_symbol
 _atom_site_label
 _atom_site_symmetry_multiplicity
 _atom_site_fract_x
 _atom_site_fract_y
 _atom_site_fract_z
 _atom_site_occupancy
  Tm  Tm0  1  0.500000  0.317675  0.411129  1
  Tm  Tm1  1  0.500000  0.682635  0.588777  1
  Tm  Tm2  1  0.500000  0.174905  0.917848  1
  Tm  Tm3  1  0.500000  0.826145  0.083203  1
  Tm  Tm4  1  0.500000  0.440953  0.127358  1
  Tm  Tm5  1  0.500000  0.556541  0.873852  1
  Tm  Tm6  1  0.500000  0.055058  0.627233  1
  Tm  Tm7  1  0.500000  0.945709  0.370724  1
  Tc  Tc8  1  0.500000  0.139305  0.181043  1
  B  B9  1  0.000000  0.106856  0.470771  1
  B  B10  1  0.000000  0.893598  0.527627  1
  B  B11  1  0.000000  0.394005  0.970996  1
  B  B12  1  0.000000  0.604212  0.030027  1
  B  B13  1  0.000000  0.131955  0.315600  1
  B  B14  1  0.000000  0.868026  0.682452  1
  B  B15  1  0.000000  0.368163  0.816386  1
  B  B16  1  0.000000  0.631245  0.183421  1
  B  B17  1  0.000000  0.053225  0.067860  1
  B  B18  1  0.000000  0.949081  0.935044  1
  B  B19  1  0.000000  0.446054  0.565147  1
  B  B20  1  0.000000  0.554028  0.434638  1
  B  B21  1  0.000000  0.482393  0.288075  1
  B  B22  1  0.000000  0.517102  0.712049  1
  B  B23  1  0.000000  0.021307  0.786495  1
  B  B24  1  0.000000  0.982369  0.213094  1
  B  B25  1  0.000000  0.248439  0.081398  1
  B  B26  1  0.000000  0.749255  0.921204  1
  B  B27  1  0.000000  0.250364  0.578289  1
  B  B28  1  0.000000  0.749925  0.421123  1
  B  B29  1  0.000000  0.293172  0.235622  1
  B  B30  1  0.000000  0.704311  0.763360  1
  B  B31  1  0.000000  0.208736  0.734100  1
  B  B32  1  0.000000  0.791371  0.264869  1
  Mo  Mo33  1  0.500000  0.861798  0.819872  1
  Rh  Rh34  1  0.500000  0.362392  0.677848  1
  Rh  Rh35  1  0.500000  0.637694  0.321467  1
