# generated using pymatgen
data_Tb20CoBi8Ru3
_symmetry_space_group_name_H-M   'P 1'
_cell_length_a   8.02371336
_cell_length_b   8.99488400
_cell_length_c   12.48412642
_cell_angle_alpha   90.00000000
_cell_angle_beta   90.25026270
_cell_angle_gamma   90.00000000
_symmetry_Int_Tables_number   1
_chemical_formula_structural   Tb20CoBi8Ru3
_chemical_formula_sum   'Tb20 Co1 Bi8 Ru3'
_cell_volume   901.00040798
_cell_formula_units_Z   1
loop_
 _symmetry_equiv_pos_site_id
 _symmetry_equiv_pos_as_xyz
  1  'x, y, z'
loop_
 _atom_site_type_symbol
 _atom_site_label
 _atom_site_symmetry_multiplicity
 _atom_site_fract_x
 _atom_site_fract_y
 _atom_site_fract_z
 _atom_site_occupancy
  Tb  Tb0  1  0.845939  0.750000  0.799974  1
  Tb  Tb1  1  0.155206  0.250000  0.204872  1
  Tb  Tb2  1  0.344696  0.250000  0.706111  1
  Tb  Tb3  1  0.654409  0.750000  0.295046  1
  Tb  Tb4  1  0.376699  0.750000  0.694201  1
  Tb  Tb5  1  0.621978  0.250000  0.306555  1
  Tb  Tb6  1  0.876969  0.250000  0.807606  1
  Tb  Tb7  1  0.120509  0.750000  0.189089  1
  Tb  Tb8  1  0.946322  0.750000  0.504703  1
  Tb  Tb9  1  0.053427  0.250000  0.495870  1
  Tb  Tb10  1  0.449824  0.250000  0.996408  1
  Tb  Tb11  1  0.549375  0.750000  0.003587  1
  Tb  Tb12  1  0.676538  0.040596  0.564328  1
  Tb  Tb13  1  0.323177  0.958449  0.435665  1
  Tb  Tb14  1  0.177133  0.958433  0.935729  1
  Tb  Tb15  1  0.323177  0.541551  0.435665  1
  Tb  Tb16  1  0.824054  0.035445  0.062876  1
  Tb  Tb17  1  0.676538  0.459404  0.564328  1
  Tb  Tb18  1  0.824054  0.464555  0.062876  1
  Tb  Tb19  1  0.177133  0.541567  0.935729  1
  Co  Co20  1  0.933230  0.750000  0.009543  1
  Bi  Bi21  1  0.572131  0.492733  0.827542  1
  Bi  Bi22  1  0.428715  0.507529  0.172312  1
  Bi  Bi23  1  0.070323  0.507525  0.673481  1
  Bi  Bi24  1  0.428715  0.992471  0.172312  1
  Bi  Bi25  1  0.929028  0.492991  0.326405  1
  Bi  Bi26  1  0.572131  0.007267  0.827542  1
  Bi  Bi27  1  0.929028  0.007009  0.326405  1
  Bi  Bi28  1  0.070323  0.992475  0.673481  1
  Ru  Ru29  1  0.572730  0.750000  0.511730  1
  Ru  Ru30  1  0.425848  0.250000  0.488591  1
  Ru  Ru31  1  0.070641  0.250000  0.989435  1
