# generated using pymatgen
data_YbLuReH6
_symmetry_space_group_name_H-M   'P 1'
_cell_length_a   4.99452429
_cell_length_b   4.99452422
_cell_length_c   4.99452400
_cell_angle_alpha   60.00000146
_cell_angle_beta   60.00000193
_cell_angle_gamma   60.00000082
_symmetry_Int_Tables_number   1
_chemical_formula_structural   YbLuReH6
_chemical_formula_sum   'Yb1 Lu1 Re1 H6'
_cell_volume   88.09826866
_cell_formula_units_Z   1
loop_
 _symmetry_equiv_pos_site_id
 _symmetry_equiv_pos_as_xyz
  1  'x, y, z'
loop_
 _atom_site_type_symbol
 _atom_site_label
 _atom_site_symmetry_multiplicity
 _atom_site_fract_x
 _atom_site_fract_y
 _atom_site_fract_z
 _atom_site_occupancy
  Yb  Yb0  1  0.749999  0.749999  0.749999  1
  Lu  Lu1  1  0.250000  0.250000  0.250000  1
  Re  Re2  1  0.000000  0.000000  0.000000  1
  H  H3  1  0.749172  0.250829  0.250829  1
  H  H4  1  0.250829  0.749172  0.250829  1
  H  H5  1  0.749171  0.749171  0.250830  1
  H  H6  1  0.250829  0.250829  0.749172  1
  H  H7  1  0.749171  0.250830  0.749171  1
  H  H8  1  0.250830  0.749171  0.749171  1
