# generated using pymatgen
data_Na3Cd2BiO6
_symmetry_space_group_name_H-M   'P 1'
_cell_length_a   11.14770818
_cell_length_b   10.60206667
_cell_length_c   5.88792104
_cell_angle_alpha   79.47748851
_cell_angle_beta   69.23780283
_cell_angle_gamma   31.28470711
_symmetry_Int_Tables_number   1
_chemical_formula_structural   Na3Cd2BiO6
_chemical_formula_sum   'Na6 Cd4 Bi2 O12'
_cell_volume   327.36125305
_cell_formula_units_Z   2
loop_
 _symmetry_equiv_pos_site_id
 _symmetry_equiv_pos_as_xyz
  1  'x, y, z'
loop_
 _atom_site_type_symbol
 _atom_site_label
 _atom_site_symmetry_multiplicity
 _atom_site_fract_x
 _atom_site_fract_y
 _atom_site_fract_z
 _atom_site_occupancy
  Na  Na0  1  0.586993  0.586993  0.913007  1
  Na  Na1  1  0.913007  0.913007  0.586993  1
  Na  Na2  1  0.663007  0.663007  0.336993  1
  Na  Na3  1  0.336993  0.336993  0.663007  1
  Na  Na4  1  0.500000  0.500000  0.500000  1
  Na  Na5  1  0.750000  0.750000  0.750000  1
  Cd  Cd6  1  0.081379  0.081379  0.418621  1
  Cd  Cd7  1  0.831379  0.831379  0.168621  1
  Cd  Cd8  1  0.418621  0.418621  0.081379  1
  Cd  Cd9  1  0.168621  0.168621  0.831379  1
  Bi  Bi10  1  0.250000  0.250000  0.250000  1
  Bi  Bi11  1  0.000000  0.000000  0.000000  1
  O  O12  1  0.394588  0.950857  0.096088  1
  O  O13  1  0.096088  0.558466  0.394588  1
  O  O14  1  0.558466  0.096088  0.950857  1
  O  O15  1  0.153912  0.691534  0.855412  1
  O  O16  1  0.223960  0.776040  0.223960  1
  O  O17  1  0.299143  0.855412  0.691534  1
  O  O18  1  0.026040  0.473960  0.026040  1
  O  O19  1  0.473960  0.026040  0.473960  1
  O  O20  1  0.691534  0.153912  0.299143  1
  O  O21  1  0.855412  0.299143  0.153912  1
  O  O22  1  0.950857  0.394588  0.558466  1
  O  O23  1  0.776040  0.223960  0.776040  1
