# generated using pymatgen
data_Tb2Nd4Al24Os7Pd
_symmetry_space_group_name_H-M   'P 1'
_cell_length_a   8.91551228
_cell_length_b   8.91551304
_cell_length_c   9.64819886
_cell_angle_alpha   89.78637563
_cell_angle_beta   90.21362737
_cell_angle_gamma   119.98571915
_symmetry_Int_Tables_number   1
_chemical_formula_structural   Tb2Nd4Al24Os7Pd
_chemical_formula_sum   'Tb2 Nd4 Al24 Os7 Pd1'
_cell_volume   664.24450873
_cell_formula_units_Z   1
loop_
 _symmetry_equiv_pos_site_id
 _symmetry_equiv_pos_as_xyz
  1  'x, y, z'
loop_
 _atom_site_type_symbol
 _atom_site_label
 _atom_site_symmetry_multiplicity
 _atom_site_fract_x
 _atom_site_fract_y
 _atom_site_fract_z
 _atom_site_occupancy
  Tb  Tb0  1  0.193560  0.806440  0.253016  1
  Tb  Tb1  1  0.806440  0.193560  0.746984  1
  Nd  Nd2  1  0.188513  0.382809  0.251197  1
  Nd  Nd3  1  0.811487  0.617191  0.748803  1
  Nd  Nd4  1  0.617191  0.811487  0.251197  1
  Nd  Nd5  1  0.382809  0.188513  0.748803  1
  Al  Al6  1  0.329727  0.670273  0.015255  1
  Al  Al7  1  0.670273  0.329727  0.984745  1
  Al  Al8  1  0.666823  0.333177  0.512809  1
  Al  Al9  1  0.333177  0.666823  0.487191  1
  Al  Al10  1  0.162065  0.325705  0.576275  1
  Al  Al11  1  0.837935  0.674295  0.423725  1
  Al  Al12  1  0.674295  0.837935  0.576275  1
  Al  Al13  1  0.845269  0.677038  0.078311  1
  Al  Al14  1  0.325705  0.162065  0.423725  1
  Al  Al15  1  0.154731  0.322962  0.921689  1
  Al  Al16  1  0.163427  0.836573  0.573226  1
  Al  Al17  1  0.322962  0.154731  0.078311  1
  Al  Al18  1  0.836573  0.163427  0.426774  1
  Al  Al19  1  0.677038  0.845269  0.921689  1
  Al  Al20  1  0.836504  0.163496  0.072579  1
  Al  Al21  1  0.163496  0.836504  0.927421  1
  Al  Al22  1  0.559956  0.123041  0.249252  1
  Al  Al23  1  0.440044  0.876959  0.750748  1
  Al  Al24  1  0.876959  0.440044  0.249252  1
  Al  Al25  1  0.123041  0.559956  0.750748  1
  Al  Al26  1  0.563035  0.436965  0.252874  1
  Al  Al27  1  0.436965  0.563035  0.747126  1
  Al  Al28  1  0.001054  0.998946  0.250319  1
  Al  Al29  1  0.998946  0.001054  0.749681  1
  Os  Os30  1  0.500000  0.000000  0.000000  1
  Os  Os31  1  0.000000  0.500000  0.000000  1
  Os  Os32  1  0.500000  0.000000  0.500000  1
  Os  Os33  1  0.000000  0.500000  0.500000  1
  Os  Os34  1  0.500000  0.500000  0.500000  1
  Os  Os35  1  0.000000  0.000000  0.000000  1
  Os  Os36  1  0.000000  0.000000  0.500000  1
  Pd  Pd37  1  0.500000  0.500000  0.000000  1
