# generated using pymatgen
data_Ho(ThPt4)3
_symmetry_space_group_name_H-M   'P 1'
_cell_length_a   5.94143000
_cell_length_b   5.94142886
_cell_length_c   9.76937500
_cell_angle_alpha   90.00000000
_cell_angle_beta   90.00000000
_cell_angle_gamma   120.00000634
_symmetry_Int_Tables_number   1
_chemical_formula_structural   Ho(ThPt4)3
_chemical_formula_sum   'Ho1 Th3 Pt12'
_cell_volume   298.66151976
_cell_formula_units_Z   1
loop_
 _symmetry_equiv_pos_site_id
 _symmetry_equiv_pos_as_xyz
  1  'x, y, z'
loop_
 _atom_site_type_symbol
 _atom_site_label
 _atom_site_symmetry_multiplicity
 _atom_site_fract_x
 _atom_site_fract_y
 _atom_site_fract_z
 _atom_site_occupancy
  Ho  Ho0  1  0.333333  0.666667  0.250000  1
  Th  Th1  1  0.000000  0.000000  0.495722  1
  Th  Th2  1  0.000000  0.000000  0.004278  1
  Th  Th3  1  0.666667  0.333333  0.750000  1
  Pt  Pt4  1  0.499310  0.500690  0.498281  1
  Pt  Pt5  1  0.499310  0.998619  0.498281  1
  Pt  Pt6  1  0.001381  0.500690  0.498281  1
  Pt  Pt7  1  0.499310  0.500690  0.001719  1
  Pt  Pt8  1  0.499310  0.998619  0.001719  1
  Pt  Pt9  1  0.001381  0.500690  0.001719  1
  Pt  Pt10  1  0.824419  0.648838  0.250000  1
  Pt  Pt11  1  0.351162  0.175581  0.250000  1
  Pt  Pt12  1  0.824419  0.175581  0.250000  1
  Pt  Pt13  1  0.174419  0.348838  0.750000  1
  Pt  Pt14  1  0.651162  0.825581  0.750000  1
  Pt  Pt15  1  0.174419  0.825581  0.750000  1
