# generated using pymatgen
data_Na4TiV2O9
_symmetry_space_group_name_H-M   'P 1'
_cell_length_a   8.82907575
_cell_length_b   8.82907459
_cell_length_c   7.87837144
_cell_angle_alpha   89.61196028
_cell_angle_beta   89.61195918
_cell_angle_gamma   49.26219710
_symmetry_Int_Tables_number   1
_chemical_formula_structural   Na4TiV2O9
_chemical_formula_sum   'Na8 Ti2 V4 O18'
_cell_volume   465.32283493
_cell_formula_units_Z   2
loop_
 _symmetry_equiv_pos_site_id
 _symmetry_equiv_pos_as_xyz
  1  'x, y, z'
loop_
 _atom_site_type_symbol
 _atom_site_label
 _atom_site_symmetry_multiplicity
 _atom_site_fract_x
 _atom_site_fract_y
 _atom_site_fract_z
 _atom_site_occupancy
  Na  Na0  1  0.749407  0.250593  0.000000  1
  Na  Na1  1  0.631270  0.631270  0.270854  1
  Na  Na2  1  0.888111  0.888111  0.230534  1
  Na  Na3  1  0.111889  0.111889  0.769466  1
  Na  Na4  1  0.500000  0.000000  0.500000  1
  Na  Na5  1  0.250593  0.749407  0.000000  1
  Na  Na6  1  0.368730  0.368730  0.729146  1
  Na  Na7  1  0.000000  0.500000  0.500000  1
  Ti  Ti8  1  0.000000  0.500000  0.000000  1
  Ti  Ti9  1  0.500000  0.000000  0.000000  1
  V  V10  1  0.131160  0.131160  0.276431  1
  V  V11  1  0.388313  0.388313  0.236855  1
  V  V12  1  0.868840  0.868840  0.723569  1
  V  V13  1  0.611687  0.611687  0.763145  1
  O  O14  1  0.555805  0.159197  0.122701  1
  O  O15  1  0.505815  0.505815  0.777630  1
  O  O16  1  0.444195  0.840803  0.877299  1
  O  O17  1  0.136310  0.136310  0.491787  1
  O  O18  1  0.387254  0.983055  0.213993  1
  O  O19  1  0.983055  0.387254  0.213993  1
  O  O20  1  0.840803  0.444195  0.877299  1
  O  O21  1  0.966883  0.966883  0.810363  1
  O  O22  1  0.159197  0.555805  0.122701  1
  O  O23  1  0.241436  0.241436  0.933668  1
  O  O24  1  0.016945  0.612746  0.786007  1
  O  O25  1  0.758564  0.758564  0.066332  1
  O  O26  1  0.863690  0.863690  0.508213  1
  O  O27  1  0.494185  0.494185  0.222370  1
  O  O28  1  0.612746  0.016945  0.786007  1
  O  O29  1  0.654382  0.654382  0.562103  1
  O  O30  1  0.033117  0.033117  0.189637  1
  O  O31  1  0.345618  0.345618  0.437897  1
