# generated using pymatgen
data_Hf5TaC5
_symmetry_space_group_name_H-M   'P 1'
_cell_length_a   5.66189200
_cell_length_b   5.64405525
_cell_length_c   5.65457282
_cell_angle_alpha   99.79323706
_cell_angle_beta   99.16661930
_cell_angle_gamma   119.99645180
_symmetry_Int_Tables_number   1
_chemical_formula_structural   Hf5TaC5
_chemical_formula_sum   'Hf5 Ta1 C5'
_cell_volume   147.75831088
_cell_formula_units_Z   1
loop_
 _symmetry_equiv_pos_site_id
 _symmetry_equiv_pos_as_xyz
  1  'x, y, z'
loop_
 _atom_site_type_symbol
 _atom_site_label
 _atom_site_symmetry_multiplicity
 _atom_site_fract_x
 _atom_site_fract_y
 _atom_site_fract_z
 _atom_site_occupancy
  Hf  Hf0  1  0.085917  0.432686  0.252282  1
  Hf  Hf1  1  0.740789  0.739215  0.259769  1
  Hf  Hf2  1  0.256869  0.258894  0.738902  1
  Hf  Hf3  1  0.913446  0.570326  0.748420  1
  Hf  Hf4  1  0.564334  0.912914  0.745868  1
  Ta  Ta5  1  0.444142  0.087451  0.258506  1
  C  C6  1  0.663104  0.329061  0.003480  1
  C  C7  1  0.334564  0.673029  0.003549  1
  C  C8  1  0.826474  0.167601  0.496072  1
  C  C9  1  0.498850  0.493723  0.496461  1
  C  C10  1  0.171509  0.835098  0.496687  1
