# generated using pymatgen
data_Ac2Zn25Ni
_symmetry_space_group_name_H-M   'P 1'
_cell_length_a   8.67517667
_cell_length_b   8.67517617
_cell_length_c   8.67517600
_cell_angle_alpha   59.99999303
_cell_angle_beta   59.99999495
_cell_angle_gamma   59.99999251
_symmetry_Int_Tables_number   1
_chemical_formula_structural   Ac2Zn25Ni
_chemical_formula_sum   'Ac2 Zn25 Ni1'
_cell_volume   461.65746639
_cell_formula_units_Z   1
loop_
 _symmetry_equiv_pos_site_id
 _symmetry_equiv_pos_as_xyz
  1  'x, y, z'
loop_
 _atom_site_type_symbol
 _atom_site_label
 _atom_site_symmetry_multiplicity
 _atom_site_fract_x
 _atom_site_fract_y
 _atom_site_fract_z
 _atom_site_occupancy
  Ac  Ac0  1  0.250000  0.250000  0.250000  1
  Ac  Ac1  1  0.750000  0.750000  0.750000  1
  Zn  Zn2  1  0.500000  0.500000  0.500000  1
  Zn  Zn3  1  0.803282  0.554612  0.196718  1
  Zn  Zn4  1  0.196718  0.445388  0.803282  1
  Zn  Zn5  1  0.554612  0.803282  0.445388  1
  Zn  Zn6  1  0.445388  0.196718  0.554612  1
  Zn  Zn7  1  0.292765  0.941150  0.707235  1
  Zn  Zn8  1  0.707235  0.058850  0.292765  1
  Zn  Zn9  1  0.941150  0.292765  0.058850  1
  Zn  Zn10  1  0.058850  0.707235  0.941150  1
  Zn  Zn11  1  0.196718  0.803282  0.554612  1
  Zn  Zn12  1  0.803282  0.196718  0.445388  1
  Zn  Zn13  1  0.445388  0.554612  0.803282  1
  Zn  Zn14  1  0.554612  0.445388  0.196718  1
  Zn  Zn15  1  0.707235  0.292765  0.941150  1
  Zn  Zn16  1  0.292765  0.707235  0.058850  1
  Zn  Zn17  1  0.058850  0.941150  0.292765  1
  Zn  Zn18  1  0.941150  0.058850  0.707235  1
  Zn  Zn19  1  0.554612  0.196718  0.803282  1
  Zn  Zn20  1  0.445388  0.803282  0.196718  1
  Zn  Zn21  1  0.803282  0.445388  0.554612  1
  Zn  Zn22  1  0.196718  0.554612  0.445388  1
  Zn  Zn23  1  0.941150  0.707235  0.292765  1
  Zn  Zn24  1  0.058850  0.292765  0.707235  1
  Zn  Zn25  1  0.292765  0.058850  0.941150  1
  Zn  Zn26  1  0.707235  0.941150  0.058850  1
  Ni  Ni27  1  0.000000  0.000000  0.000000  1
