# generated using pymatgen
data_Th8Cu3Si12H
_symmetry_space_group_name_H-M   'P 1'
_cell_length_a   8.10226000
_cell_length_b   8.10226088
_cell_length_c   8.51152600
_cell_angle_alpha   90.00000000
_cell_angle_beta   90.00000000
_cell_angle_gamma   119.99999642
_symmetry_Int_Tables_number   1
_chemical_formula_structural   Th8Cu3Si12H
_chemical_formula_sum   'Th8 Cu3 Si12 H1'
_cell_volume   483.89426551
_cell_formula_units_Z   1
loop_
 _symmetry_equiv_pos_site_id
 _symmetry_equiv_pos_as_xyz
  1  'x, y, z'
loop_
 _atom_site_type_symbol
 _atom_site_label
 _atom_site_symmetry_multiplicity
 _atom_site_fract_x
 _atom_site_fract_y
 _atom_site_fract_z
 _atom_site_occupancy
  Th  Th0  1  0.000000  0.000000  0.740308  1
  Th  Th1  1  0.000000  0.000000  0.236477  1
  Th  Th2  1  0.499729  0.500271  0.741206  1
  Th  Th3  1  0.499729  0.999459  0.741206  1
  Th  Th4  1  0.000541  0.500271  0.741206  1
  Th  Th5  1  0.499146  0.500854  0.234220  1
  Th  Th6  1  0.001709  0.500854  0.234220  1
  Th  Th7  1  0.499146  0.998291  0.234220  1
  Cu  Cu8  1  0.666667  0.333333  0.991041  1
  Cu  Cu9  1  0.666667  0.333333  0.488596  1
  Cu  Cu10  1  0.333333  0.666667  0.488055  1
  Si  Si11  1  0.833475  0.166525  0.986716  1
  Si  Si12  1  0.833475  0.666952  0.986716  1
  Si  Si13  1  0.333048  0.166525  0.986716  1
  Si  Si14  1  0.830856  0.169144  0.485207  1
  Si  Si15  1  0.830856  0.661712  0.485207  1
  Si  Si16  1  0.338288  0.169144  0.485207  1
  Si  Si17  1  0.167528  0.832472  0.493963  1
  Si  Si18  1  0.664946  0.832472  0.493963  1
  Si  Si19  1  0.167528  0.335054  0.493963  1
  Si  Si20  1  0.177395  0.822605  0.988616  1
  Si  Si21  1  0.645211  0.822605  0.988616  1
  Si  Si22  1  0.177395  0.354789  0.988616  1
  H  H23  1  0.333333  0.666667  0.265740  1
