# generated using pymatgen
data_DyZr3(Al8Pt3)3
_symmetry_space_group_name_H-M   'P 1'
_cell_length_a   7.49225256
_cell_length_b   7.49832550
_cell_length_c   12.99581300
_cell_angle_alpha   84.54501400
_cell_angle_beta   78.93233361
_cell_angle_gamma   59.94925622
_symmetry_Int_Tables_number   1
_chemical_formula_structural   DyZr3(Al8Pt3)3
_chemical_formula_sum   'Dy1 Zr3 Al24 Pt9'
_cell_volume   620.20421059
_cell_formula_units_Z   1
loop_
 _symmetry_equiv_pos_site_id
 _symmetry_equiv_pos_as_xyz
  1  'x, y, z'
loop_
 _atom_site_type_symbol
 _atom_site_label
 _atom_site_symmetry_multiplicity
 _atom_site_fract_x
 _atom_site_fract_y
 _atom_site_fract_z
 _atom_site_occupancy
  Dy  Dy0  1  0.266819  0.501415  0.190878  1
  Zr  Zr1  1  0.392825  0.167797  0.810904  1
  Zr  Zr2  1  0.606619  0.832036  0.188574  1
  Zr  Zr3  1  0.733238  0.498930  0.810700  1
  Al  Al4  1  0.682182  0.833529  0.940451  1
  Al  Al5  1  0.318286  0.163875  0.055874  1
  Al  Al6  1  0.145920  0.832875  0.563589  1
  Al  Al7  1  0.854201  0.167239  0.436591  1
  Al  Al8  1  0.480017  0.166683  0.561340  1
  Al  Al9  1  0.520010  0.833240  0.438757  1
  Al  Al10  1  0.220485  0.163519  0.327473  1
  Al  Al11  1  0.778511  0.834635  0.676609  1
  Al  Al12  1  0.437371  0.504547  0.676485  1
  Al  Al13  1  0.563021  0.495534  0.327502  1
  Al  Al14  1  0.107964  0.162201  0.674674  1
  Al  Al15  1  0.889022  0.839405  0.328793  1
  Al  Al16  1  0.357666  0.496402  0.938696  1
  Al  Al17  1  0.647435  0.503320  0.055685  1
  Al  Al18  1  0.017225  0.170376  0.947752  1
  Al  Al19  1  0.981441  0.832766  0.047969  1
  Al  Al20  1  0.186823  0.499542  0.440193  1
  Al  Al21  1  0.812802  0.500007  0.561262  1
  Al  Al22  1  0.734186  0.158352  0.183520  1
  Al  Al23  1  0.272496  0.836137  0.816040  1
  Al  Al24  1  0.061214  0.625372  0.815019  1
  Al  Al25  1  0.932730  0.374039  0.184805  1
  Al  Al26  1  0.849251  0.047736  0.815795  1
  Al  Al27  1  0.149705  0.959272  0.184439  1
  Pt  Pt28  1  0.120255  0.490189  0.639116  1
  Pt  Pt29  1  0.879616  0.508778  0.361513  1
  Pt  Pt30  1  0.656411  0.172810  0.999238  1
  Pt  Pt31  1  0.342630  0.827823  0.999780  1
  Pt  Pt32  1  0.537220  0.166390  0.361629  1
  Pt  Pt33  1  0.463757  0.833376  0.638567  1
  Pt  Pt34  1  0.777760  0.176376  0.637671  1
  Pt  Pt35  1  0.221384  0.824138  0.362838  1
  Pt  Pt36  1  0.001503  0.499338  0.999278  1
