# generated using pymatgen
data_Nd2Dy3Sc3(P3Ir4)4
_symmetry_space_group_name_H-M   'P 1'
_cell_length_a   12.87646200
_cell_length_b   12.87646182
_cell_length_c   3.98076100
_cell_angle_alpha   90.00000000
_cell_angle_beta   90.00000000
_cell_angle_gamma   120.00000045
_symmetry_Int_Tables_number   1
_chemical_formula_structural   Nd2Dy3Sc3(P3Ir4)4
_chemical_formula_sum   'Nd2 Dy3 Sc3 P12 Ir16'
_cell_volume   571.59685254
_cell_formula_units_Z   1
loop_
 _symmetry_equiv_pos_site_id
 _symmetry_equiv_pos_as_xyz
  1  'x, y, z'
loop_
 _atom_site_type_symbol
 _atom_site_label
 _atom_site_symmetry_multiplicity
 _atom_site_fract_x
 _atom_site_fract_y
 _atom_site_fract_z
 _atom_site_occupancy
  Nd  Nd0  1  0.333333  0.666667  0.500000  1
  Nd  Nd1  1  0.666667  0.333333  0.500000  1
  Dy  Dy2  1  0.000000  0.811547  0.000000  1
  Dy  Dy3  1  0.188453  0.188453  0.000000  1
  Dy  Dy4  1  0.811547  0.000000  0.000000  1
  Sc  Sc5  1  0.000000  0.444303  0.500000  1
  Sc  Sc6  1  0.555697  0.555697  0.500000  1
  Sc  Sc7  1  0.444303  0.000000  0.500000  1
  P  P8  1  0.000000  0.645237  0.500000  1
  P  P9  1  0.354763  0.354763  0.500000  1
  P  P10  1  0.645237  0.000000  0.500000  1
  P  P11  1  0.518837  0.686883  0.000000  1
  P  P12  1  0.313117  0.831954  0.000000  1
  P  P13  1  0.168046  0.481163  0.000000  1
  P  P14  1  0.481163  0.168046  0.000000  1
  P  P15  1  0.686883  0.518837  0.000000  1
  P  P16  1  0.831954  0.313117  0.000000  1
  P  P17  1  0.000000  0.176587  0.500000  1
  P  P18  1  0.823413  0.823413  0.500000  1
  P  P19  1  0.176587  0.000000  0.500000  1
  Ir  Ir20  1  0.512220  0.869931  0.000000  1
  Ir  Ir21  1  0.130069  0.642290  0.000000  1
  Ir  Ir22  1  0.357710  0.487780  0.000000  1
  Ir  Ir23  1  0.487780  0.357710  0.000000  1
  Ir  Ir24  1  0.869931  0.512220  0.000000  1
  Ir  Ir25  1  0.642290  0.130069  0.000000  1
  Ir  Ir26  1  0.000000  0.277537  0.000000  1
  Ir  Ir27  1  0.722463  0.722463  0.000000  1
  Ir  Ir28  1  0.277537  0.000000  0.000000  1
  Ir  Ir29  1  0.628874  0.807332  0.500000  1
  Ir  Ir30  1  0.192668  0.821542  0.500000  1
  Ir  Ir31  1  0.178458  0.371126  0.500000  1
  Ir  Ir32  1  0.371126  0.178458  0.500000  1
  Ir  Ir33  1  0.807332  0.628874  0.500000  1
  Ir  Ir34  1  0.821542  0.192668  0.500000  1
  Ir  Ir35  1  0.000000  0.000000  0.500000  1
