# generated using pymatgen
data_LaSm5Co16(MoP6)2
_symmetry_space_group_name_H-M   'P 1'
_cell_length_a   3.76932200
_cell_length_b   10.68008900
_cell_length_c   12.38648200
_cell_angle_alpha   90.00000000
_cell_angle_beta   90.00000000
_cell_angle_gamma   90.00000000
_symmetry_Int_Tables_number   1
_chemical_formula_structural   LaSm5Co16(MoP6)2
_chemical_formula_sum   'La1 Sm5 Co16 Mo2 P12'
_cell_volume   498.63882093
_cell_formula_units_Z   1
loop_
 _symmetry_equiv_pos_site_id
 _symmetry_equiv_pos_as_xyz
  1  'x, y, z'
loop_
 _atom_site_type_symbol
 _atom_site_label
 _atom_site_symmetry_multiplicity
 _atom_site_fract_x
 _atom_site_fract_y
 _atom_site_fract_z
 _atom_site_occupancy
  La  La0  1  0.000000  0.500000  0.526029  1
  Sm  Sm1  1  0.500000  0.000000  0.476197  1
  Sm  Sm2  1  0.500000  0.818831  0.204863  1
  Sm  Sm3  1  0.500000  0.181169  0.204863  1
  Sm  Sm4  1  0.000000  0.681682  0.795717  1
  Sm  Sm5  1  0.000000  0.318318  0.795717  1
  Co  Co6  1  0.500000  0.500000  0.703362  1
  Co  Co7  1  0.000000  0.000000  0.296934  1
  Co  Co8  1  0.000000  0.500000  0.986759  1
  Co  Co9  1  0.500000  0.000000  0.013014  1
  Co  Co10  1  0.500000  0.332049  0.990876  1
  Co  Co11  1  0.500000  0.667951  0.990876  1
  Co  Co12  1  0.000000  0.167465  0.008821  1
  Co  Co13  1  0.000000  0.832535  0.008821  1
  Co  Co14  1  0.500000  0.293440  0.430536  1
  Co  Co15  1  0.500000  0.706560  0.430536  1
  Co  Co16  1  0.000000  0.201512  0.569566  1
  Co  Co17  1  0.000000  0.798488  0.569566  1
  Co  Co18  1  0.500000  0.880476  0.709062  1
  Co  Co19  1  0.500000  0.119524  0.709062  1
  Co  Co20  1  0.000000  0.620554  0.290840  1
  Co  Co21  1  0.000000  0.379446  0.290840  1
  Mo  Mo22  1  0.500000  0.500000  0.153409  1
  Mo  Mo23  1  0.000000  0.000000  0.845362  1
  P  P24  1  0.500000  0.500000  0.883998  1
  P  P25  1  0.000000  0.000000  0.116189  1
  P  P26  1  0.500000  0.500000  0.343267  1
  P  P27  1  0.000000  0.000000  0.654098  1
  P  P28  1  0.500000  0.304178  0.615805  1
  P  P29  1  0.500000  0.695822  0.615805  1
  P  P30  1  0.000000  0.190668  0.384961  1
  P  P31  1  0.000000  0.809332  0.384961  1
  P  P32  1  0.500000  0.846335  0.894854  1
  P  P33  1  0.500000  0.153665  0.894854  1
  P  P34  1  0.000000  0.654311  0.104789  1
  P  P35  1  0.000000  0.345689  0.104789  1
