# generated using pymatgen
data_Cs4Ba(NbSe4)2
_symmetry_space_group_name_H-M   'P 1'
_cell_length_a   12.77347601
_cell_length_b   12.77347684
_cell_length_c   12.77347568
_cell_angle_alpha   132.56729942
_cell_angle_beta   128.46853623
_cell_angle_gamma   72.63003589
_symmetry_Int_Tables_number   1
_chemical_formula_structural   Cs4Ba(NbSe4)2
_chemical_formula_sum   'Cs8 Ba2 Nb4 Se16'
_cell_volume   1174.44882309
_cell_formula_units_Z   2
loop_
 _symmetry_equiv_pos_site_id
 _symmetry_equiv_pos_as_xyz
  1  'x, y, z'
loop_
 _atom_site_type_symbol
 _atom_site_label
 _atom_site_symmetry_multiplicity
 _atom_site_fract_x
 _atom_site_fract_y
 _atom_site_fract_z
 _atom_site_occupancy
  Cs  Cs0  1  0.498459  0.248459  0.250000  1
  Cs  Cs1  1  0.001541  0.751541  0.250000  1
  Cs  Cs2  1  0.578241  0.705161  0.126920  1
  Cs  Cs3  1  0.421759  0.294839  0.873080  1
  Cs  Cs4  1  0.501541  0.751541  0.750000  1
  Cs  Cs5  1  0.078241  0.451321  0.373080  1
  Cs  Cs6  1  0.921759  0.548679  0.626920  1
  Cs  Cs7  1  0.998459  0.248459  0.750000  1
  Ba  Ba8  1  0.250000  0.000000  0.250000  1
  Ba  Ba9  1  0.750000  0.000000  0.750000  1
  Nb  Nb10  1  0.127842  0.927690  0.799848  1
  Nb  Nb11  1  0.872158  0.072310  0.200152  1
  Nb  Nb12  1  0.372158  0.672007  0.299848  1
  Nb  Nb13  1  0.627842  0.327993  0.700152  1
  Se  Se14  1  0.598518  0.625623  0.383433  1
  Se  Se15  1  0.756477  0.995875  0.239398  1
  Se  Se16  1  0.896948  0.865830  0.968882  1
  Se  Se17  1  0.757810  0.374377  0.972895  1
  Se  Se18  1  0.742190  0.215085  0.116567  1
  Se  Se19  1  0.743523  0.482919  0.739398  1
  Se  Se20  1  0.243523  0.004125  0.760602  1
  Se  Se21  1  0.242190  0.625623  0.027105  1
  Se  Se22  1  0.256477  0.517081  0.260602  1
  Se  Se23  1  0.257810  0.784915  0.883433  1
  Se  Se24  1  0.103052  0.134170  0.031118  1
  Se  Se25  1  0.901482  0.784915  0.527105  1
  Se  Se26  1  0.098518  0.215085  0.472895  1
  Se  Se27  1  0.603052  0.071933  0.468882  1
  Se  Se28  1  0.401482  0.374377  0.616567  1
  Se  Se29  1  0.396948  0.928067  0.531118  1
