# generated using pymatgen
data_Dy18Ho2Ir7Ru5
_symmetry_space_group_name_H-M   'P 1'
_cell_length_a   10.85255386
_cell_length_b   10.85255344
_cell_length_c   6.40636901
_cell_angle_alpha   89.96476837
_cell_angle_beta   89.96476786
_cell_angle_gamma   90.02239196
_symmetry_Int_Tables_number   1
_chemical_formula_structural   Dy18Ho2Ir7Ru5
_chemical_formula_sum   'Dy18 Ho2 Ir7 Ru5'
_cell_volume   754.52847780
_cell_formula_units_Z   1
loop_
 _symmetry_equiv_pos_site_id
 _symmetry_equiv_pos_as_xyz
  1  'x, y, z'
loop_
 _atom_site_type_symbol
 _atom_site_label
 _atom_site_symmetry_multiplicity
 _atom_site_fract_x
 _atom_site_fract_y
 _atom_site_fract_z
 _atom_site_occupancy
  Dy  Dy0  1  0.293474  0.086393  0.378288  1
  Dy  Dy1  1  0.292899  0.913459  0.878371  1
  Dy  Dy2  1  0.707307  0.086786  0.878653  1
  Dy  Dy3  1  0.706987  0.913813  0.377512  1
  Dy  Dy4  1  0.586450  0.793363  0.878322  1
  Dy  Dy5  1  0.587241  0.206880  0.378510  1
  Dy  Dy6  1  0.413474  0.793247  0.378311  1
  Dy  Dy7  1  0.413372  0.206545  0.877717  1
  Dy  Dy8  1  0.206637  0.413550  0.621678  1
  Dy  Dy9  1  0.206753  0.586526  0.121689  1
  Dy  Dy10  1  0.793120  0.412759  0.121490  1
  Dy  Dy11  1  0.793455  0.586628  0.622283  1
  Dy  Dy12  1  0.913607  0.706526  0.121712  1
  Dy  Dy13  1  0.913214  0.292693  0.621347  1
  Dy  Dy14  1  0.086541  0.707101  0.621629  1
  Dy  Dy15  1  0.086187  0.293013  0.122488  1
  Dy  Dy16  1  0.999546  0.001008  0.499428  1
  Dy  Dy17  1  0.998992  0.000454  0.000572  1
  Ho  Ho18  1  0.500161  0.500073  0.000129  1
  Ho  Ho19  1  0.499927  0.499839  0.499871  1
  Ir  Ir20  1  0.846807  0.846488  0.749790  1
  Ir  Ir21  1  0.153512  0.153193  0.750210  1
  Ir  Ir22  1  0.153170  0.846830  0.250000  1
  Ir  Ir23  1  0.651832  0.348168  0.750000  1
  Ir  Ir24  1  0.652751  0.652461  0.249764  1
  Ir  Ir25  1  0.347539  0.347249  0.250236  1
  Ir  Ir26  1  0.347618  0.652382  0.750000  1
  Ru  Ru27  1  0.847656  0.152344  0.250000  1
  Ru  Ru28  1  0.500156  0.000191  0.121701  1
  Ru  Ru29  1  0.499812  0.000005  0.621771  1
  Ru  Ru30  1  0.999995  0.500188  0.878229  1
  Ru  Ru31  1  0.999809  0.499844  0.378299  1
