# generated using pymatgen
data_Zr4Fe(PO4)6
_symmetry_space_group_name_H-M   'P 1'
_cell_length_a   9.00971750
_cell_length_b   9.00971729
_cell_length_c   8.91691929
_cell_angle_alpha   90.00000397
_cell_angle_beta   120.34485326
_cell_angle_gamma   119.99999665
_symmetry_Int_Tables_number   1
_chemical_formula_structural   Zr4Fe(PO4)6
_chemical_formula_sum   'Zr4 Fe1 P6 O24'
_cell_volume   509.14169678
_cell_formula_units_Z   1
loop_
 _symmetry_equiv_pos_site_id
 _symmetry_equiv_pos_as_xyz
  1  'x, y, z'
loop_
 _atom_site_type_symbol
 _atom_site_label
 _atom_site_symmetry_multiplicity
 _atom_site_fract_x
 _atom_site_fract_y
 _atom_site_fract_z
 _atom_site_occupancy
  Zr  Zr0  1  0.736116  0.368058  0.104173  1
  Zr  Zr1  1  0.292664  0.146332  0.438995  1
  Zr  Zr2  1  0.707335  0.853668  0.561005  1
  Zr  Zr3  1  0.263884  0.631941  0.895826  1
  Fe  Fe4  1  0.000000  0.000000  0.000000  1
  P  P5  1  0.476186  0.026689  0.235795  1
  P  P6  1  0.209107  0.449497  0.235795  1
  P  P7  1  0.786297  0.759609  0.235795  1
  P  P8  1  0.213702  0.240391  0.764204  1
  P  P9  1  0.790894  0.550504  0.764204  1
  P  P10  1  0.523815  0.973311  0.764204  1
  O  O11  1  0.195299  0.491799  0.065532  1
  O  O12  1  0.573732  0.703500  0.065532  1
  O  O13  1  0.362032  0.870233  0.065532  1
  O  O14  1  0.306612  0.044405  0.225811  1
  O  O15  1  0.181408  0.262210  0.225811  1
  O  O16  1  0.963602  0.919200  0.225811  1
  O  O17  1  0.645860  0.209973  0.250445  1
  O  O18  1  0.040472  0.435885  0.250445  1
  O  O19  1  0.814560  0.604585  0.250445  1
  O  O20  1  0.427410  0.602769  0.412694  1
  O  O21  1  0.809924  0.824641  0.412694  1
  O  O22  1  0.588053  0.985284  0.412694  1
  O  O23  1  0.411947  0.014716  0.587307  1
  O  O24  1  0.190076  0.175360  0.587307  1
  O  O25  1  0.572590  0.397231  0.587307  1
  O  O26  1  0.185440  0.395414  0.749554  1
  O  O27  1  0.959528  0.564114  0.749554  1
  O  O28  1  0.354140  0.790026  0.749554  1
  O  O29  1  0.036397  0.080800  0.774188  1
  O  O30  1  0.818591  0.737790  0.774188  1
  O  O31  1  0.693387  0.955595  0.774188  1
  O  O32  1  0.637968  0.129767  0.934468  1
  O  O33  1  0.426267  0.296500  0.934468  1
  O  O34  1  0.804700  0.508201  0.934468  1
