# generated using pymatgen
data_Hf3Co8P6W
_symmetry_space_group_name_H-M   'P 1'
_cell_length_a   11.93784427
_cell_length_b   11.93250745
_cell_length_c   3.64643600
_cell_angle_alpha   90.00000000
_cell_angle_beta   90.00000000
_cell_angle_gamma   119.98521699
_symmetry_Int_Tables_number   1
_chemical_formula_structural   Hf3Co8P6W
_chemical_formula_sum   'Hf6 Co16 P12 W2'
_cell_volume   449.90573077
_cell_formula_units_Z   2
loop_
 _symmetry_equiv_pos_site_id
 _symmetry_equiv_pos_as_xyz
  1  'x, y, z'
loop_
 _atom_site_type_symbol
 _atom_site_label
 _atom_site_symmetry_multiplicity
 _atom_site_fract_x
 _atom_site_fract_y
 _atom_site_fract_z
 _atom_site_occupancy
  Hf  Hf0  1  0.821134  0.819870  0.500000  1
  Hf  Hf1  1  0.000000  0.174858  0.500000  1
  Hf  Hf2  1  0.334289  0.667953  0.000000  1
  Hf  Hf3  1  0.665711  0.333663  0.000000  1
  Hf  Hf4  1  0.000000  0.556260  0.000000  1
  Hf  Hf5  1  0.178866  0.998736  0.500000  1
  Co  Co6  1  0.625541  0.821769  0.000000  1
  Co  Co7  1  0.374459  0.196228  0.000000  1
  Co  Co8  1  0.000000  0.721712  0.500000  1
  Co  Co9  1  0.279849  0.279462  0.500000  1
  Co  Co10  1  0.870579  0.352007  0.500000  1
  Co  Co11  1  0.720151  0.999615  0.500000  1
  Co  Co12  1  0.816841  0.626501  0.000000  1
  Co  Co13  1  0.183159  0.809660  0.000000  1
  Co  Co14  1  0.358870  0.874728  0.500000  1
  Co  Co15  1  0.129421  0.481428  0.500000  1
  Co  Co16  1  0.641130  0.515858  0.500000  1
  Co  Co17  1  0.000000  0.999540  0.000000  1
  Co  Co18  1  0.513148  0.645197  0.500000  1
  Co  Co19  1  0.486852  0.132048  0.500000  1
  Co  Co20  1  0.195246  0.370840  0.000000  1
  Co  Co21  1  0.804754  0.175594  0.000000  1
  P  P22  1  0.000000  0.345118  0.000000  1
  P  P23  1  0.825235  0.516697  0.500000  1
  P  P24  1  0.686450  0.167456  0.500000  1
  P  P25  1  0.176297  0.173949  0.000000  1
  P  P26  1  0.643502  0.646967  0.000000  1
  P  P27  1  0.823703  0.997651  0.000000  1
  P  P28  1  0.518415  0.833043  0.500000  1
  P  P29  1  0.174765  0.691460  0.500000  1
  P  P30  1  0.356498  0.003465  0.000000  1
  P  P31  1  0.481585  0.314630  0.500000  1
  P  P32  1  0.000000  0.823896  0.000000  1
  P  P33  1  0.313550  0.481004  0.500000  1
  W  W34  1  0.447952  0.449545  0.000000  1
  W  W35  1  0.552048  0.001593  0.000000  1
