# generated using pymatgen
data_NaTb(IO3)4
_symmetry_space_group_name_H-M   'P 1'
_cell_length_a   5.23725100
_cell_length_b   7.31388778
_cell_length_c   16.16910260
_cell_angle_alpha   78.77046100
_cell_angle_beta   90.00000000
_cell_angle_gamma   90.00000000
_symmetry_Int_Tables_number   1
_chemical_formula_structural   NaTb(IO3)4
_chemical_formula_sum   'Na2 Tb2 I8 O24'
_cell_volume   607.49451011
_cell_formula_units_Z   2
loop_
 _symmetry_equiv_pos_site_id
 _symmetry_equiv_pos_as_xyz
  1  'x, y, z'
loop_
 _atom_site_type_symbol
 _atom_site_label
 _atom_site_symmetry_multiplicity
 _atom_site_fract_x
 _atom_site_fract_y
 _atom_site_fract_z
 _atom_site_occupancy
  Na  Na0  1  0.500000  0.500000  0.000000  1
  Na  Na1  1  0.000000  0.500000  0.500000  1
  Tb  Tb2  1  0.500000  0.000000  0.000000  1
  Tb  Tb3  1  0.000000  0.000000  0.500000  1
  I  I4  1  0.905434  0.663423  0.166074  1
  I  I5  1  0.405434  0.336577  0.333926  1
  I  I6  1  0.094566  0.336577  0.833926  1
  I  I7  1  0.594566  0.663423  0.666074  1
  I  I8  1  0.992287  0.186984  0.140273  1
  I  I9  1  0.492287  0.813016  0.359727  1
  I  I10  1  0.007713  0.813016  0.859727  1
  I  I11  1  0.507713  0.186984  0.640273  1
  O  O12  1  0.682956  0.738337  0.075810  1
  O  O13  1  0.182956  0.261663  0.424190  1
  O  O14  1  0.317044  0.261663  0.924190  1
  O  O15  1  0.817044  0.738337  0.575810  1
  O  O16  1  0.795088  0.827618  0.230875  1
  O  O17  1  0.295088  0.172382  0.269125  1
  O  O18  1  0.204912  0.172382  0.769125  1
  O  O19  1  0.704912  0.827618  0.730875  1
  O  O20  1  0.739001  0.445457  0.210650  1
  O  O21  1  0.239001  0.554543  0.289350  1
  O  O22  1  0.260999  0.554543  0.789350  1
  O  O23  1  0.760999  0.445457  0.710650  1
  O  O24  1  0.739591  0.199308  0.058282  1
  O  O25  1  0.239591  0.800692  0.441718  1
  O  O26  1  0.260409  0.800692  0.941718  1
  O  O27  1  0.760409  0.199308  0.558282  1
  O  O28  1  0.197326  0.012388  0.103055  1
  O  O29  1  0.697326  0.987612  0.396945  1
  O  O30  1  0.802674  0.987612  0.896945  1
  O  O31  1  0.302674  0.012388  0.603055  1
  O  O32  1  0.154769  0.401947  0.094870  1
  O  O33  1  0.654769  0.598053  0.405130  1
  O  O34  1  0.845231  0.598053  0.905130  1
  O  O35  1  0.345231  0.401947  0.594870  1
