# generated using pymatgen
data_Sr2Pt(RhO3)6
_symmetry_space_group_name_H-M   'P 1'
_cell_length_a   6.70357916
_cell_length_b   7.11096871
_cell_length_c   7.55550633
_cell_angle_alpha   92.43912952
_cell_angle_beta   96.37692812
_cell_angle_gamma   114.51991735
_symmetry_Int_Tables_number   1
_chemical_formula_structural   Sr2Pt(RhO3)6
_chemical_formula_sum   'Sr2 Pt1 Rh6 O18'
_cell_volume   324.08590694
_cell_formula_units_Z   1
loop_
 _symmetry_equiv_pos_site_id
 _symmetry_equiv_pos_as_xyz
  1  'x, y, z'
loop_
 _atom_site_type_symbol
 _atom_site_label
 _atom_site_symmetry_multiplicity
 _atom_site_fract_x
 _atom_site_fract_y
 _atom_site_fract_z
 _atom_site_occupancy
  Sr  Sr0  1  0.678633  0.309477  0.387845  1
  Sr  Sr1  1  0.320461  0.690310  0.611911  1
  Pt  Pt2  1  0.000151  0.000068  0.500124  1
  Rh  Rh3  1  0.603532  0.717854  0.115550  1
  Rh  Rh4  1  0.198008  0.877556  0.183102  1
  Rh  Rh5  1  0.175287  0.381343  0.202563  1
  Rh  Rh6  1  0.824648  0.618567  0.797631  1
  Rh  Rh7  1  0.801724  0.122504  0.816984  1
  Rh  Rh8  1  0.396383  0.281821  0.884075  1
  O  O9  1  0.687195  0.491378  0.015284  1
  O  O10  1  0.896626  0.228184  0.062204  1
  O  O11  1  0.299414  0.175720  0.122717  1
  O  O12  1  0.503479  0.925197  0.174437  1
  O  O13  1  0.907282  0.883718  0.242500  1
  O  O14  1  0.096091  0.603523  0.279082  1
  O  O15  1  0.485231  0.554133  0.314795  1
  O  O16  1  0.080375  0.286959  0.431523  1
  O  O17  1  0.286075  0.001997  0.437914  1
  O  O18  1  0.714053  0.998099  0.562194  1
  O  O19  1  0.919659  0.713172  0.568559  1
  O  O20  1  0.514360  0.445963  0.685161  1
  O  O21  1  0.903744  0.396551  0.720583  1
  O  O22  1  0.093035  0.116404  0.757622  1
  O  O23  1  0.496349  0.075012  0.825879  1
  O  O24  1  0.700944  0.824326  0.877470  1
  O  O25  1  0.104260  0.772038  0.937466  1
  O  O26  1  0.312999  0.508124  0.984825  1
