# generated using pymatgen
data_Li6Zr6BeCl18
_symmetry_space_group_name_H-M   'P 1'
_cell_length_a   9.90983433
_cell_length_b   9.90979447
_cell_length_c   9.90981184
_cell_angle_alpha   111.07911623
_cell_angle_beta   111.07937110
_cell_angle_gamma   111.07975106
_symmetry_Int_Tables_number   1
_chemical_formula_structural   Li6Zr6BeCl18
_chemical_formula_sum   'Li6 Zr6 Be1 Cl18'
_cell_volume   701.02028944
_cell_formula_units_Z   1
loop_
 _symmetry_equiv_pos_site_id
 _symmetry_equiv_pos_as_xyz
  1  'x, y, z'
loop_
 _atom_site_type_symbol
 _atom_site_label
 _atom_site_symmetry_multiplicity
 _atom_site_fract_x
 _atom_site_fract_y
 _atom_site_fract_z
 _atom_site_occupancy
  Li  Li0  1  0.334294  0.407125  0.784134  1
  Li  Li1  1  0.784132  0.334293  0.407123  1
  Li  Li2  1  0.407124  0.784129  0.334293  1
  Li  Li3  1  0.665706  0.592875  0.215866  1
  Li  Li4  1  0.215868  0.665707  0.592877  1
  Li  Li5  1  0.592876  0.215871  0.665707  1
  Zr  Zr6  1  0.975825  0.834841  0.742946  1
  Zr  Zr7  1  0.742947  0.975827  0.834841  1
  Zr  Zr8  1  0.834839  0.742945  0.975824  1
  Zr  Zr9  1  0.024175  0.165159  0.257054  1
  Zr  Zr10  1  0.257053  0.024173  0.165159  1
  Zr  Zr11  1  0.165161  0.257055  0.024176  1
  Be  Be12  1  0.000000  0.000000  0.000000  1
  Cl  Cl13  1  0.309676  0.208465  0.466860  1
  Cl  Cl14  1  0.466859  0.309676  0.208463  1
  Cl  Cl15  1  0.208463  0.466858  0.309673  1
  Cl  Cl16  1  0.690324  0.791535  0.533140  1
  Cl  Cl17  1  0.533141  0.690324  0.791537  1
  Cl  Cl18  1  0.791537  0.533142  0.690327  1
  Cl  Cl19  1  0.253416  0.843290  0.896541  1
  Cl  Cl20  1  0.896543  0.253417  0.843290  1
  Cl  Cl21  1  0.843288  0.896538  0.253416  1
  Cl  Cl22  1  0.746584  0.156710  0.103459  1
  Cl  Cl23  1  0.103457  0.746583  0.156710  1
  Cl  Cl24  1  0.156712  0.103462  0.746584  1
  Cl  Cl25  1  0.069095  0.375229  0.562328  1
  Cl  Cl26  1  0.562329  0.069096  0.375232  1
  Cl  Cl27  1  0.375232  0.562332  0.069097  1
  Cl  Cl28  1  0.930905  0.624771  0.437672  1
  Cl  Cl29  1  0.437671  0.930904  0.624768  1
  Cl  Cl30  1  0.624768  0.437668  0.930903  1
