# generated using pymatgen
data_Dy2Ho3P12Ru10Rh9
_symmetry_space_group_name_H-M   'P 1'
_cell_length_a   12.60777402
_cell_length_b   12.57737890
_cell_length_c   3.92972300
_cell_angle_alpha   90.00000000
_cell_angle_beta   90.00000000
_cell_angle_gamma   119.84207780
_symmetry_Int_Tables_number   1
_chemical_formula_structural   Dy2Ho3P12Ru10Rh9
_chemical_formula_sum   'Dy2 Ho3 P12 Ru10 Rh9'
_cell_volume   540.51784809
_cell_formula_units_Z   1
loop_
 _symmetry_equiv_pos_site_id
 _symmetry_equiv_pos_as_xyz
  1  'x, y, z'
loop_
 _atom_site_type_symbol
 _atom_site_label
 _atom_site_symmetry_multiplicity
 _atom_site_fract_x
 _atom_site_fract_y
 _atom_site_fract_z
 _atom_site_occupancy
  Dy  Dy0  1  0.666711  0.332575  0.000000  1
  Dy  Dy1  1  0.333414  0.666844  0.000000  1
  Ho  Ho2  1  0.812078  0.000916  0.500000  1
  Ho  Ho3  1  0.185689  0.187411  0.500000  1
  Ho  Ho4  1  0.999968  0.812988  0.500000  1
  P  P5  1  0.631136  0.997706  0.000000  1
  P  P6  1  0.366157  0.371795  0.000000  1
  P  P7  1  0.005970  0.633621  0.000000  1
  P  P8  1  0.686957  0.519751  0.500000  1
  P  P9  1  0.831192  0.308395  0.500000  1
  P  P10  1  0.314781  0.832398  0.500000  1
  P  P11  1  0.517917  0.685833  0.500000  1
  P  P12  1  0.180215  0.001279  0.000000  1
  P  P13  1  0.819958  0.819626  0.000000  1
  P  P14  1  0.996041  0.179972  0.000000  1
  P  P15  1  0.479145  0.165423  0.500000  1
  P  P16  1  0.168047  0.482740  0.500000  1
  Ru  Ru17  1  0.126921  0.641382  0.500000  1
  Ru  Ru18  1  0.360327  0.486998  0.500000  1
  Ru  Ru19  1  0.512671  0.871717  0.500000  1
  Ru  Ru20  1  0.717244  0.715932  0.500000  1
  Ru  Ru21  1  0.001115  0.284702  0.500000  1
  Ru  Ru22  1  0.450518  0.002619  0.000000  1
  Ru  Ru23  1  0.553118  0.547990  0.000000  1
  Ru  Ru24  1  0.000268  0.449244  0.000000  1
  Ru  Ru25  1  0.817075  0.194837  0.000000  1
  Ru  Ru26  1  0.283502  0.001250  0.500000  1
  Rh  Rh27  1  0.624678  0.804123  0.000000  1
  Rh  Rh28  1  0.180865  0.375281  0.000000  1
  Rh  Rh29  1  0.374928  0.184075  0.000000  1
  Rh  Rh30  1  0.195640  0.821249  0.000000  1
  Rh  Rh31  1  0.808852  0.624311  0.000000  1
  Rh  Rh32  1  0.870035  0.507656  0.500000  1
  Rh  Rh33  1  0.490112  0.359664  0.500000  1
  Rh  Rh34  1  0.637150  0.127542  0.500000  1
  Rh  Rh35  1  0.999610  0.000151  0.000000  1
