# generated using pymatgen
data_Yb2Al9Rh2Au
_symmetry_space_group_name_H-M   'P 1'
_cell_length_a   7.65028200
_cell_length_b   7.65028112
_cell_length_c   9.48526600
_cell_angle_alpha   90.00000000
_cell_angle_beta   90.00000000
_cell_angle_gamma   119.54106544
_symmetry_Int_Tables_number   1
_chemical_formula_structural   Yb2Al9Rh2Au
_chemical_formula_sum   'Yb4 Al18 Rh4 Au2'
_cell_volume   482.97524673
_cell_formula_units_Z   2
loop_
 _symmetry_equiv_pos_site_id
 _symmetry_equiv_pos_as_xyz
  1  'x, y, z'
loop_
 _atom_site_type_symbol
 _atom_site_label
 _atom_site_symmetry_multiplicity
 _atom_site_fract_x
 _atom_site_fract_y
 _atom_site_fract_z
 _atom_site_occupancy
  Yb  Yb0  1  0.996512  0.678469  0.250000  1
  Yb  Yb1  1  0.003488  0.321531  0.750000  1
  Yb  Yb2  1  0.678469  0.996512  0.250000  1
  Yb  Yb3  1  0.321531  0.003488  0.750000  1
  Al  Al4  1  0.146199  0.146199  0.250000  1
  Al  Al5  1  0.853801  0.853801  0.750000  1
  Al  Al6  1  0.000692  0.345547  0.077551  1
  Al  Al7  1  0.999308  0.654453  0.922449  1
  Al  Al8  1  0.999308  0.654453  0.577551  1
  Al  Al9  1  0.345547  0.000692  0.422449  1
  Al  Al10  1  0.000692  0.345547  0.422449  1
  Al  Al11  1  0.654453  0.999308  0.577551  1
  Al  Al12  1  0.654453  0.999308  0.922449  1
  Al  Al13  1  0.345547  0.000692  0.077551  1
  Al  Al14  1  0.340923  0.340923  0.551797  1
  Al  Al15  1  0.659077  0.659077  0.448203  1
  Al  Al16  1  0.659077  0.659077  0.051797  1
  Al  Al17  1  0.340923  0.340923  0.948203  1
  Al  Al18  1  0.340730  0.554631  0.250000  1
  Al  Al19  1  0.659270  0.445369  0.750000  1
  Al  Al20  1  0.554631  0.340730  0.250000  1
  Al  Al21  1  0.445369  0.659270  0.750000  1
  Rh  Rh22  1  0.671555  0.328445  0.000000  1
  Rh  Rh23  1  0.328445  0.671555  0.000000  1
  Rh  Rh24  1  0.328445  0.671555  0.500000  1
  Rh  Rh25  1  0.671555  0.328445  0.500000  1
  Au  Au26  1  0.000000  0.000000  0.000000  1
  Au  Au27  1  0.000000  0.000000  0.500000  1
