# generated using pymatgen
data_CeMn2(CoP6)2
_symmetry_space_group_name_H-M   'P 1'
_cell_length_a   6.78940158
_cell_length_b   6.78940302
_cell_length_c   6.75326541
_cell_angle_alpha   109.47040915
_cell_angle_beta   109.51617769
_cell_angle_gamma   109.64306072
_symmetry_Int_Tables_number   1
_chemical_formula_structural   CeMn2(CoP6)2
_chemical_formula_sum   'Ce1 Mn2 Co2 P12'
_cell_volume   238.99629161
_cell_formula_units_Z   1
loop_
 _symmetry_equiv_pos_site_id
 _symmetry_equiv_pos_as_xyz
  1  'x, y, z'
loop_
 _atom_site_type_symbol
 _atom_site_label
 _atom_site_symmetry_multiplicity
 _atom_site_fract_x
 _atom_site_fract_y
 _atom_site_fract_z
 _atom_site_occupancy
  Ce  Ce0  1  0.000000  0.000000  0.000000  1
  Mn  Mn1  1  0.000000  0.000000  0.500000  1
  Mn  Mn2  1  0.500000  0.500000  0.500000  1
  Co  Co3  1  0.000000  0.500000  0.000000  1
  Co  Co4  1  0.500000  0.000000  0.000000  1
  P  P5  1  0.848104  0.647982  0.496086  1
  P  P6  1  0.850087  0.349961  0.200048  1
  P  P7  1  0.149913  0.650039  0.799952  1
  P  P8  1  0.353113  0.501559  0.152073  1
  P  P9  1  0.502240  0.153706  0.354385  1
  P  P10  1  0.151896  0.352018  0.503914  1
  P  P11  1  0.650514  0.798959  0.152073  1
  P  P12  1  0.200679  0.852145  0.354385  1
  P  P13  1  0.646887  0.498441  0.847927  1
  P  P14  1  0.799321  0.147855  0.645615  1
  P  P15  1  0.349486  0.201041  0.847927  1
  P  P16  1  0.497760  0.846294  0.645615  1
