# generated using pymatgen
data_Ho2UFe3
_symmetry_space_group_name_H-M   'P 1'
_cell_length_a   5.65470300
_cell_length_b   5.65470459
_cell_length_c   7.55259400
_cell_angle_alpha   90.00000000
_cell_angle_beta   90.00000000
_cell_angle_gamma   119.99999653
_symmetry_Int_Tables_number   1
_chemical_formula_structural   Ho2UFe3
_chemical_formula_sum   'Ho4 U2 Fe6'
_cell_volume   209.14452863
_cell_formula_units_Z   2
loop_
 _symmetry_equiv_pos_site_id
 _symmetry_equiv_pos_as_xyz
  1  'x, y, z'
loop_
 _atom_site_type_symbol
 _atom_site_label
 _atom_site_symmetry_multiplicity
 _atom_site_fract_x
 _atom_site_fract_y
 _atom_site_fract_z
 _atom_site_occupancy
  Ho  Ho0  1  0.333333  0.666667  0.449655  1
  Ho  Ho1  1  0.666667  0.333333  0.550345  1
  Ho  Ho2  1  0.666667  0.333333  0.949655  1
  Ho  Ho3  1  0.333333  0.666667  0.050345  1
  U  U4  1  0.000000  0.000000  0.000000  1
  U  U5  1  0.000000  0.000000  0.500000  1
  Fe  Fe6  1  0.155502  0.311003  0.750000  1
  Fe  Fe7  1  0.155502  0.844498  0.750000  1
  Fe  Fe8  1  0.311003  0.155502  0.250000  1
  Fe  Fe9  1  0.844498  0.688997  0.250000  1
  Fe  Fe10  1  0.688997  0.844498  0.750000  1
  Fe  Fe11  1  0.844498  0.155502  0.250000  1
