# generated using pymatgen
data_Na5CaTaAs4
_symmetry_space_group_name_H-M   'P 1'
_cell_length_a   9.54510290
_cell_length_b   9.54509712
_cell_length_c   7.39865230
_cell_angle_alpha   90.71337602
_cell_angle_beta   90.71329373
_cell_angle_gamma   120.24932314
_symmetry_Int_Tables_number   1
_chemical_formula_structural   Na5CaTaAs4
_chemical_formula_sum   'Na10 Ca2 Ta2 As8'
_cell_volume   582.11921638
_cell_formula_units_Z   2
loop_
 _symmetry_equiv_pos_site_id
 _symmetry_equiv_pos_as_xyz
  1  'x, y, z'
loop_
 _atom_site_type_symbol
 _atom_site_label
 _atom_site_symmetry_multiplicity
 _atom_site_fract_x
 _atom_site_fract_y
 _atom_site_fract_z
 _atom_site_occupancy
  Na  Na0  1  0.536942  0.471302  0.614664  1
  Na  Na1  1  0.937630  0.470551  0.616011  1
  Na  Na2  1  0.471301  0.536941  0.114662  1
  Na  Na3  1  0.470552  0.937631  0.116011  1
  Na  Na4  1  0.138572  0.851992  0.782340  1
  Na  Na5  1  0.709768  0.847134  0.802368  1
  Na  Na6  1  0.148821  0.292468  0.772686  1
  Na  Na7  1  0.851991  0.138573  0.282339  1
  Na  Na8  1  0.292467  0.148819  0.272686  1
  Na  Na9  1  0.847134  0.709767  0.302367  1
  Ca  Ca10  1  0.533342  0.059856  0.609758  1
  Ca  Ca11  1  0.059856  0.533342  0.109761  1
  Ta  Ta12  1  0.331197  0.664593  0.501020  1
  Ta  Ta13  1  0.664593  0.331197  0.001019  1
  As  As14  1  0.324013  0.665839  0.837758  1
  As  As15  1  0.665839  0.324013  0.337758  1
  As  As16  1  0.812878  0.193630  0.889557  1
  As  As17  1  0.383459  0.187458  0.876456  1
  As  As18  1  0.818165  0.620390  0.911382  1
  As  As19  1  0.193630  0.812878  0.389559  1
  As  As20  1  0.620389  0.818164  0.411382  1
  As  As21  1  0.187458  0.383460  0.376456  1
