# generated using pymatgen
data_Nd7Th(SiPd)8
_symmetry_space_group_name_H-M   'P 1'
_cell_length_a   5.84633378
_cell_length_b   7.89264046
_cell_length_c   10.85652501
_cell_angle_alpha   88.22465201
_cell_angle_beta   90.02854034
_cell_angle_gamma   89.89627779
_symmetry_Int_Tables_number   1
_chemical_formula_structural   Nd7Th(SiPd)8
_chemical_formula_sum   'Nd7 Th1 Si8 Pd8'
_cell_volume   500.71138458
_cell_formula_units_Z   1
loop_
 _symmetry_equiv_pos_site_id
 _symmetry_equiv_pos_as_xyz
  1  'x, y, z'
loop_
 _atom_site_type_symbol
 _atom_site_label
 _atom_site_symmetry_multiplicity
 _atom_site_fract_x
 _atom_site_fract_y
 _atom_site_fract_z
 _atom_site_occupancy
  Nd  Nd0  1  0.364940  0.964645  0.143045  1
  Nd  Nd1  1  0.634563  0.034793  0.856523  1
  Nd  Nd2  1  0.865066  0.535133  0.856170  1
  Nd  Nd3  1  0.134586  0.465996  0.142680  1
  Nd  Nd4  1  0.870511  0.825027  0.369952  1
  Nd  Nd5  1  0.131419  0.173892  0.629889  1
  Nd  Nd6  1  0.367773  0.676215  0.629237  1
  Th  Th7  1  0.631905  0.325164  0.371097  1
  Si  Si8  1  0.861849  0.536479  0.574436  1
  Si  Si9  1  0.134489  0.463590  0.424291  1
  Si  Si10  1  0.368345  0.965150  0.422266  1
  Si  Si11  1  0.636682  0.037339  0.574979  1
  Si  Si12  1  0.644367  0.621541  0.146013  1
  Si  Si13  1  0.357754  0.377290  0.855692  1
  Si  Si14  1  0.142577  0.877376  0.855568  1
  Si  Si15  1  0.855453  0.121800  0.145999  1
  Pd  Pd16  1  0.899944  0.834573  0.051510  1
  Pd  Pd17  1  0.098074  0.165658  0.948729  1
  Pd  Pd18  1  0.402139  0.665680  0.948751  1
  Pd  Pd19  1  0.599058  0.334362  0.051979  1
  Pd  Pd20  1  0.892741  0.821618  0.667761  1
  Pd  Pd21  1  0.104032  0.179061  0.332774  1
  Pd  Pd22  1  0.395995  0.675432  0.332864  1
  Pd  Pd23  1  0.605739  0.322187  0.667794  1
