# generated using pymatgen
data_Sr6Ca2RuRhO12
_symmetry_space_group_name_H-M   'P 1'
_cell_length_a   6.85213841
_cell_length_b   6.85213865
_cell_length_c   6.85213793
_cell_angle_alpha   91.35516125
_cell_angle_beta   91.35517470
_cell_angle_gamma   91.35516892
_symmetry_Int_Tables_number   1
_chemical_formula_structural   Sr6Ca2RuRhO12
_chemical_formula_sum   'Sr6 Ca2 Ru1 Rh1 O12'
_cell_volume   321.44593695
_cell_formula_units_Z   1
loop_
 _symmetry_equiv_pos_site_id
 _symmetry_equiv_pos_as_xyz
  1  'x, y, z'
loop_
 _atom_site_type_symbol
 _atom_site_label
 _atom_site_symmetry_multiplicity
 _atom_site_fract_x
 _atom_site_fract_y
 _atom_site_fract_z
 _atom_site_occupancy
  Sr  Sr0  1  0.880575  0.611917  0.257262  1
  Sr  Sr1  1  0.119425  0.388083  0.742738  1
  Sr  Sr2  1  0.257262  0.880575  0.611917  1
  Sr  Sr3  1  0.611917  0.257262  0.880575  1
  Sr  Sr4  1  0.388083  0.742738  0.119425  1
  Sr  Sr5  1  0.742738  0.119425  0.388083  1
  Ca  Ca6  1  0.745075  0.745075  0.745075  1
  Ca  Ca7  1  0.254925  0.254925  0.254925  1
  Ru  Ru8  1  0.000000  0.000000  0.000000  1
  Rh  Rh9  1  0.500000  0.500000  0.500000  1
  O  O10  1  0.447356  0.586081  0.790766  1
  O  O11  1  0.586081  0.790766  0.447356  1
  O  O12  1  0.953626  0.280242  0.075227  1
  O  O13  1  0.552644  0.413919  0.209234  1
  O  O14  1  0.209234  0.552644  0.413919  1
  O  O15  1  0.046374  0.719758  0.924773  1
  O  O16  1  0.790766  0.447356  0.586081  1
  O  O17  1  0.719758  0.924773  0.046374  1
  O  O18  1  0.075227  0.953626  0.280242  1
  O  O19  1  0.924773  0.046374  0.719758  1
  O  O20  1  0.413919  0.209234  0.552644  1
  O  O21  1  0.280242  0.075227  0.953626  1
