# generated using pymatgen
data_Pr3DyErP12Ru19
_symmetry_space_group_name_H-M   'P 1'
_cell_length_a   12.60680600
_cell_length_b   12.60680714
_cell_length_c   4.01295200
_cell_angle_alpha   90.00000000
_cell_angle_beta   90.00000000
_cell_angle_gamma   120.00000225
_symmetry_Int_Tables_number   1
_chemical_formula_structural   Pr3DyErP12Ru19
_chemical_formula_sum   'Pr3 Dy1 Er1 P12 Ru19'
_cell_volume   552.33780002
_cell_formula_units_Z   1
loop_
 _symmetry_equiv_pos_site_id
 _symmetry_equiv_pos_as_xyz
  1  'x, y, z'
loop_
 _atom_site_type_symbol
 _atom_site_label
 _atom_site_symmetry_multiplicity
 _atom_site_fract_x
 _atom_site_fract_y
 _atom_site_fract_z
 _atom_site_occupancy
  Pr  Pr0  1  0.183777  0.183780  0.500000  1
  Pr  Pr1  1  0.816220  0.999997  0.500000  1
  Pr  Pr2  1  0.000003  0.816223  0.500000  1
  Dy  Dy3  1  0.333333  0.666667  0.000000  1
  Er  Er4  1  0.666667  0.333333  0.000000  1
  P  P5  1  0.811135  0.811127  0.000000  1
  P  P6  1  0.188873  0.000008  0.000000  1
  P  P7  1  0.999992  0.188865  0.000000  1
  P  P8  1  0.174171  0.479023  0.500000  1
  P  P9  1  0.520977  0.695148  0.500000  1
  P  P10  1  0.304852  0.825829  0.500000  1
  P  P11  1  0.695097  0.520808  0.500000  1
  P  P12  1  0.825711  0.304903  0.500000  1
  P  P13  1  0.479192  0.174289  0.500000  1
  P  P14  1  0.374200  0.374226  0.000000  1
  P  P15  1  0.625774  0.999974  0.000000  1
  P  P16  1  0.000026  0.625800  0.000000  1
  Ru  Ru17  1  0.553744  0.553754  0.000000  1
  Ru  Ru18  1  0.446246  0.999990  0.000000  1
  Ru  Ru19  1  0.000010  0.446256  0.000000  1
  Ru  Ru20  1  0.712461  0.712453  0.500000  1
  Ru  Ru21  1  0.287547  0.000008  0.500000  1
  Ru  Ru22  1  0.999992  0.287539  0.500000  1
  Ru  Ru23  1  0.185380  0.381599  0.000000  1
  Ru  Ru24  1  0.618401  0.803781  0.000000  1
  Ru  Ru25  1  0.196219  0.814620  0.000000  1
  Ru  Ru26  1  0.803699  0.618231  0.000000  1
  Ru  Ru27  1  0.814532  0.196301  0.000000  1
  Ru  Ru28  1  0.381769  0.185468  0.000000  1
  Ru  Ru29  1  0.367884  0.493666  0.500000  1
  Ru  Ru30  1  0.506334  0.874217  0.500000  1
  Ru  Ru31  1  0.125783  0.632116  0.500000  1
  Ru  Ru32  1  0.873958  0.506082  0.500000  1
  Ru  Ru33  1  0.632124  0.126042  0.500000  1
  Ru  Ru34  1  0.493918  0.367876  0.500000  1
  Ru  Ru35  1  0.000000  0.000000  0.000000  1
