# generated using pymatgen
data_La3NdPd2(SeO3)8
_symmetry_space_group_name_H-M   'P 1'
_cell_length_a   7.16736064
_cell_length_b   8.38824409
_cell_length_c   11.09257616
_cell_angle_alpha   70.73784844
_cell_angle_beta   89.85858228
_cell_angle_gamma   89.92830216
_symmetry_Int_Tables_number   1
_chemical_formula_structural   La3NdPd2(SeO3)8
_chemical_formula_sum   'La3 Nd1 Pd2 Se8 O24'
_cell_volume   629.56726373
_cell_formula_units_Z   1
loop_
 _symmetry_equiv_pos_site_id
 _symmetry_equiv_pos_as_xyz
  1  'x, y, z'
loop_
 _atom_site_type_symbol
 _atom_site_label
 _atom_site_symmetry_multiplicity
 _atom_site_fract_x
 _atom_site_fract_y
 _atom_site_fract_z
 _atom_site_occupancy
  La  La0  1  0.662507  0.761616  0.084682  1
  La  La1  1  0.162491  0.737545  0.915756  1
  La  La2  1  0.337217  0.238355  0.916149  1
  Nd  Nd3  1  0.838413  0.260550  0.085610  1
  Pd  Pd4  1  0.500632  0.500603  0.499268  1
  Pd  Pd5  1  0.000320  0.000045  0.499382  1
  Se  Se6  1  0.679447  0.628541  0.821101  1
  Se  Se7  1  0.176658  0.871217  0.179611  1
  Se  Se8  1  0.322599  0.369199  0.179450  1
  Se  Se9  1  0.821675  0.130599  0.822280  1
  Se  Se10  1  0.327308  0.123423  0.632621  1
  Se  Se11  1  0.827715  0.376347  0.365382  1
  Se  Se12  1  0.673185  0.878108  0.366423  1
  Se  Se13  1  0.172707  0.623465  0.632733  1
  O  O14  1  0.393730  0.315362  0.653505  1
  O  O15  1  0.894188  0.184395  0.344443  1
  O  O16  1  0.607079  0.686315  0.344843  1
  O  O17  1  0.106003  0.815349  0.653866  1
  O  O18  1  0.615344  0.424740  0.846362  1
  O  O19  1  0.112292  0.075786  0.152611  1
  O  O20  1  0.383476  0.574531  0.152585  1
  O  O21  1  0.884483  0.925692  0.847917  1
  O  O22  1  0.840794  0.584821  0.947854  1
  O  O23  1  0.340343  0.912060  0.053923  1
  O  O24  1  0.157260  0.408966  0.054950  1
  O  O25  1  0.659872  0.089567  0.948811  1
  O  O26  1  0.105662  0.179438  0.568201  1
  O  O27  1  0.606175  0.320904  0.430706  1
  O  O28  1  0.894499  0.820773  0.431105  1
  O  O29  1  0.394536  0.679660  0.568235  1
  O  O30  1  0.507481  0.714161  0.892024  1
  O  O31  1  0.006438  0.785251  0.108546  1
  O  O32  1  0.495186  0.286402  0.107044  1
  O  O33  1  0.991285  0.215433  0.894752  1
  O  O34  1  0.286518  0.029363  0.793493  1
  O  O35  1  0.787359  0.468488  0.204471  1
  O  O36  1  0.714261  0.973796  0.205816  1
  O  O37  1  0.212861  0.529131  0.793490  1
