# generated using pymatgen
data_Tb3HoGa18(Ir2Pd)2
_symmetry_space_group_name_H-M   'P 1'
_cell_length_a   7.62237181
_cell_length_b   7.62266864
_cell_length_c   9.49944600
_cell_angle_alpha   90.00000000
_cell_angle_beta   90.00000000
_cell_angle_gamma   119.77905280
_symmetry_Int_Tables_number   1
_chemical_formula_structural   Tb3HoGa18(Ir2Pd)2
_chemical_formula_sum   'Tb3 Ho1 Ga18 Ir4 Pd2'
_cell_volume   479.05866390
_cell_formula_units_Z   1
loop_
 _symmetry_equiv_pos_site_id
 _symmetry_equiv_pos_as_xyz
  1  'x, y, z'
loop_
 _atom_site_type_symbol
 _atom_site_label
 _atom_site_symmetry_multiplicity
 _atom_site_fract_x
 _atom_site_fract_y
 _atom_site_fract_z
 _atom_site_occupancy
  Tb  Tb0  1  0.996816  0.669053  0.250000  1
  Tb  Tb1  1  0.003148  0.330951  0.750000  1
  Tb  Tb2  1  0.668988  0.996802  0.250000  1
  Ho  Ho3  1  0.331046  0.003144  0.750000  1
  Ga  Ga4  1  0.128379  0.128321  0.250000  1
  Ga  Ga5  1  0.872024  0.871805  0.750000  1
  Ga  Ga6  1  0.999243  0.336858  0.080926  1
  Ga  Ga7  1  0.001149  0.663574  0.918778  1
  Ga  Ga8  1  0.001149  0.663574  0.581222  1
  Ga  Ga9  1  0.336842  0.999235  0.419336  1
  Ga  Ga10  1  0.999243  0.336858  0.419074  1
  Ga  Ga11  1  0.662754  0.000769  0.581244  1
  Ga  Ga12  1  0.662754  0.000769  0.918756  1
  Ga  Ga13  1  0.336842  0.999235  0.080664  1
  Ga  Ga14  1  0.335057  0.334696  0.567315  1
  Ga  Ga15  1  0.664922  0.664920  0.433041  1
  Ga  Ga16  1  0.664922  0.664920  0.066959  1
  Ga  Ga17  1  0.335057  0.334696  0.932685  1
  Ga  Ga18  1  0.337641  0.545764  0.250000  1
  Ga  Ga19  1  0.662093  0.453876  0.750000  1
  Ga  Ga20  1  0.545732  0.337616  0.250000  1
  Ga  Ga21  1  0.454161  0.662504  0.750000  1
  Ir  Ir22  1  0.671351  0.328520  0.999837  1
  Ir  Ir23  1  0.328593  0.671482  0.999838  1
  Ir  Ir24  1  0.328593  0.671482  0.500162  1
  Ir  Ir25  1  0.671351  0.328520  0.500163  1
  Pd  Pd26  1  0.000074  0.000026  0.999906  1
  Pd  Pd27  1  0.000074  0.000026  0.500094  1
