# generated using pymatgen
data_Tb7SmSc12Si15Os
_symmetry_space_group_name_H-M   'P 1'
_cell_length_a   7.10786120
_cell_length_b   7.46013575
_cell_length_c   14.00246742
_cell_angle_alpha   90.04855101
_cell_angle_beta   90.01704003
_cell_angle_gamma   90.20541339
_symmetry_Int_Tables_number   1
_chemical_formula_structural   Tb7SmSc12Si15Os
_chemical_formula_sum   'Tb7 Sm1 Sc12 Si15 Os1'
_cell_volume   742.48429734
_cell_formula_units_Z   1
loop_
 _symmetry_equiv_pos_site_id
 _symmetry_equiv_pos_as_xyz
  1  'x, y, z'
loop_
 _atom_site_type_symbol
 _atom_site_label
 _atom_site_symmetry_multiplicity
 _atom_site_fract_x
 _atom_site_fract_y
 _atom_site_fract_z
 _atom_site_occupancy
  Tb  Tb0  1  0.990689  0.827678  0.902841  1
  Tb  Tb1  1  0.488276  0.676214  0.903636  1
  Tb  Tb2  1  0.990725  0.827816  0.596999  1
  Tb  Tb3  1  0.510922  0.323706  0.096376  1
  Tb  Tb4  1  0.011463  0.178494  0.403495  1
  Tb  Tb5  1  0.511120  0.323544  0.403698  1
  Tb  Tb6  1  0.488107  0.676151  0.596240  1
  Sm  Sm7  1  0.011126  0.177524  0.095786  1
  Sc  Sc8  1  0.155006  0.494609  0.750050  1
  Sc  Sc9  1  0.838378  0.496052  0.250188  1
  Sc  Sc10  1  0.339225  0.004775  0.250172  1
  Sc  Sc11  1  0.669399  0.999564  0.750023  1
  Sc  Sc12  1  0.318184  0.172170  0.627378  1
  Sc  Sc13  1  0.671793  0.825500  0.374006  1
  Sc  Sc14  1  0.171502  0.677776  0.374326  1
  Sc  Sc15  1  0.671652  0.825176  0.126135  1
  Sc  Sc16  1  0.837200  0.318539  0.627452  1
  Sc  Sc17  1  0.318534  0.172122  0.872458  1
  Sc  Sc18  1  0.836850  0.318887  0.872377  1
  Sc  Sc19  1  0.171509  0.677676  0.125869  1
  Si  Si20  1  0.968304  0.882281  0.250423  1
  Si  Si21  1  0.468872  0.615397  0.250084  1
  Si  Si22  1  0.529419  0.388673  0.749952  1
  Si  Si23  1  0.286330  0.869524  0.749941  1
  Si  Si24  1  0.712184  0.128111  0.250680  1
  Si  Si25  1  0.214438  0.373163  0.250677  1
  Si  Si26  1  0.778813  0.625817  0.749962  1
  Si  Si27  1  0.158777  0.468823  0.536935  1
  Si  Si28  1  0.845320  0.536140  0.461356  1
  Si  Si29  1  0.345831  0.965538  0.460007  1
  Si  Si30  1  0.844831  0.537416  0.038318  1
  Si  Si31  1  0.654681  0.034058  0.538284  1
  Si  Si32  1  0.159062  0.470016  0.962621  1
  Si  Si33  1  0.654145  0.033803  0.961514  1
  Si  Si34  1  0.347417  0.964681  0.039702  1
  Os  Os35  1  0.029909  0.112587  0.750038  1
