# generated using pymatgen
data_Sc5GaAs2
_symmetry_space_group_name_H-M   'P 1'
_cell_length_a   7.97467358
_cell_length_b   7.96158264
_cell_length_c   5.84525600
_cell_angle_alpha   90.00000000
_cell_angle_beta   90.00000000
_cell_angle_gamma   119.94570962
_symmetry_Int_Tables_number   1
_chemical_formula_structural   Sc5GaAs2
_chemical_formula_sum   'Sc10 Ga2 As4'
_cell_volume   321.57614043
_cell_formula_units_Z   2
loop_
 _symmetry_equiv_pos_site_id
 _symmetry_equiv_pos_as_xyz
  1  'x, y, z'
loop_
 _atom_site_type_symbol
 _atom_site_label
 _atom_site_symmetry_multiplicity
 _atom_site_fract_x
 _atom_site_fract_y
 _atom_site_fract_z
 _atom_site_occupancy
  Sc  Sc0  1  0.333142  0.666571  0.000000  1
  Sc  Sc1  1  0.665474  0.332737  0.500000  1
  Sc  Sc2  1  0.665474  0.332737  0.000000  1
  Sc  Sc3  1  0.333142  0.666571  0.500000  1
  Sc  Sc4  1  0.242712  0.002670  0.250000  1
  Sc  Sc5  1  0.242712  0.240042  0.750000  1
  Sc  Sc6  1  0.001481  0.757835  0.750000  1
  Sc  Sc7  1  0.001481  0.243647  0.250000  1
  Sc  Sc8  1  0.756339  0.758358  0.250000  1
  Sc  Sc9  1  0.756339  0.997981  0.750000  1
  Ga  Ga10  1  0.393573  0.394725  0.250000  1
  Ga  Ga11  1  0.393573  0.998848  0.750000  1
  As  As12  1  0.608339  0.999819  0.250000  1
  As  As13  1  0.608339  0.608521  0.750000  1
  As  As14  1  0.998939  0.387965  0.750000  1
  As  As15  1  0.998939  0.610974  0.250000  1
