# generated using pymatgen
data_Pr2Ho3(BiPb)2
_symmetry_space_group_name_H-M   'P 1'
_cell_length_a   8.38247900
_cell_length_b   8.37128000
_cell_length_c   15.73344800
_cell_angle_alpha   90.00000000
_cell_angle_beta   90.00000000
_cell_angle_gamma   90.00000000
_symmetry_Int_Tables_number   1
_chemical_formula_structural   Pr2Ho3(BiPb)2
_chemical_formula_sum   'Pr8 Ho12 Bi8 Pb8'
_cell_volume   1104.04875290
_cell_formula_units_Z   4
loop_
 _symmetry_equiv_pos_site_id
 _symmetry_equiv_pos_as_xyz
  1  'x, y, z'
loop_
 _atom_site_type_symbol
 _atom_site_label
 _atom_site_symmetry_multiplicity
 _atom_site_fract_x
 _atom_site_fract_y
 _atom_site_fract_z
 _atom_site_occupancy
  Pr  Pr0  1  0.471721  0.677688  0.599629  1
  Pr  Pr1  1  0.971721  0.822312  0.900371  1
  Pr  Pr2  1  0.528279  0.322312  0.099629  1
  Pr  Pr3  1  0.028279  0.177688  0.400371  1
  Pr  Pr4  1  0.528279  0.322312  0.400371  1
  Pr  Pr5  1  0.028279  0.177688  0.099629  1
  Pr  Pr6  1  0.471721  0.677688  0.900371  1
  Pr  Pr7  1  0.971721  0.822312  0.599629  1
  Ho  Ho8  1  0.634533  0.157173  0.625592  1
  Ho  Ho9  1  0.134533  0.342827  0.874408  1
  Ho  Ho10  1  0.365467  0.842827  0.125592  1
  Ho  Ho11  1  0.865467  0.657173  0.374408  1
  Ho  Ho12  1  0.365467  0.842827  0.374408  1
  Ho  Ho13  1  0.865467  0.657173  0.125592  1
  Ho  Ho14  1  0.634533  0.157173  0.874408  1
  Ho  Ho15  1  0.134533  0.342827  0.625592  1
  Ho  Ho16  1  0.802342  0.500630  0.750000  1
  Ho  Ho17  1  0.302342  0.999370  0.750000  1
  Ho  Ho18  1  0.197658  0.499370  0.250000  1
  Ho  Ho19  1  0.697658  0.000630  0.250000  1
  Bi  Bi20  1  0.708337  0.959557  0.455945  1
  Bi  Bi21  1  0.208337  0.540443  0.044055  1
  Bi  Bi22  1  0.291663  0.040443  0.955945  1
  Bi  Bi23  1  0.791663  0.459557  0.544055  1
  Bi  Bi24  1  0.291663  0.040443  0.544055  1
  Bi  Bi25  1  0.791663  0.459557  0.955945  1
  Bi  Bi26  1  0.708337  0.959557  0.044055  1
  Bi  Bi27  1  0.208337  0.540443  0.455945  1
  Pb  Pb28  1  0.438985  0.370188  0.750000  1
  Pb  Pb29  1  0.938985  0.129812  0.750000  1
  Pb  Pb30  1  0.561015  0.629812  0.250000  1
  Pb  Pb31  1  0.061015  0.870188  0.250000  1
  Pb  Pb32  1  0.661148  0.850295  0.750000  1
  Pb  Pb33  1  0.161148  0.649705  0.750000  1
  Pb  Pb34  1  0.338852  0.149705  0.250000  1
  Pb  Pb35  1  0.838852  0.350295  0.250000  1
