# generated using pymatgen
data_Dy3Tm13Tl5InIr2
_symmetry_space_group_name_H-M   'P 1'
_cell_length_a   10.27154308
_cell_length_b   10.27154153
_cell_length_c   7.11399600
_cell_angle_alpha   90.00318688
_cell_angle_beta   89.99681085
_cell_angle_gamma   119.96360721
_symmetry_Int_Tables_number   1
_chemical_formula_structural   Dy3Tm13Tl5InIr2
_chemical_formula_sum   'Dy3 Tm13 Tl5 In1 Ir2'
_cell_volume   650.24154350
_cell_formula_units_Z   1
loop_
 _symmetry_equiv_pos_site_id
 _symmetry_equiv_pos_as_xyz
  1  'x, y, z'
loop_
 _atom_site_type_symbol
 _atom_site_label
 _atom_site_symmetry_multiplicity
 _atom_site_fract_x
 _atom_site_fract_y
 _atom_site_fract_z
 _atom_site_occupancy
  Dy  Dy0  1  0.533305  0.068555  0.514836  1
  Dy  Dy1  1  0.931445  0.466695  0.514836  1
  Dy  Dy2  1  0.534746  0.465254  0.516248  1
  Tm  Tm3  1  0.464005  0.927693  0.017028  1
  Tm  Tm4  1  0.072307  0.535995  0.017028  1
  Tm  Tm5  1  0.463686  0.536314  0.016605  1
  Tm  Tm6  1  0.176159  0.352990  0.717673  1
  Tm  Tm7  1  0.647010  0.823841  0.717673  1
  Tm  Tm8  1  0.176481  0.823519  0.719875  1
  Tm  Tm9  1  0.822759  0.646484  0.214523  1
  Tm  Tm10  1  0.353516  0.177241  0.214523  1
  Tm  Tm11  1  0.823471  0.176529  0.214889  1
  Tm  Tm12  1  0.666813  0.333187  0.899099  1
  Tm  Tm13  1  0.333140  0.666860  0.399493  1
  Tm  Tm14  1  0.000879  0.999121  0.497083  1
  Tm  Tm15  1  0.000741  0.999259  0.999202  1
  Tl  Tl16  1  0.837095  0.674406  0.765899  1
  Tl  Tl17  1  0.325594  0.162905  0.765899  1
  Tl  Tl18  1  0.837142  0.162858  0.765702  1
  Tl  Tl19  1  0.163070  0.326356  0.265834  1
  Tl  Tl20  1  0.673644  0.836930  0.265834  1
  In  In21  1  0.162897  0.837103  0.264599  1
  Ir  Ir22  1  0.666691  0.333309  0.285694  1
  Ir  Ir23  1  0.333405  0.666595  0.787928  1
