# generated using pymatgen
data_Y4Al16Si2Ir3PtRh2
_symmetry_space_group_name_H-M   'P 1'
_cell_length_a   7.52468800
_cell_length_b   7.52468897
_cell_length_c   9.37605300
_cell_angle_alpha   89.99795935
_cell_angle_beta   89.99795935
_cell_angle_gamma   119.45867017
_symmetry_Int_Tables_number   1
_chemical_formula_structural   Y4Al16Si2Ir3PtRh2
_chemical_formula_sum   'Y4 Al16 Si2 Ir3 Pt1 Rh2'
_cell_volume   462.24366967
_cell_formula_units_Z   1
loop_
 _symmetry_equiv_pos_site_id
 _symmetry_equiv_pos_as_xyz
  1  'x, y, z'
loop_
 _atom_site_type_symbol
 _atom_site_label
 _atom_site_symmetry_multiplicity
 _atom_site_fract_x
 _atom_site_fract_y
 _atom_site_fract_z
 _atom_site_occupancy
  Y  Y0  1  0.994623  0.674853  0.250581  1
  Y  Y1  1  0.005731  0.325540  0.749509  1
  Y  Y2  1  0.674460  0.994269  0.250491  1
  Y  Y3  1  0.325147  0.005377  0.749419  1
  Al  Al4  1  0.004782  0.336015  0.076793  1
  Al  Al5  1  0.000962  0.667101  0.923359  1
  Al  Al6  1  0.998538  0.663365  0.575066  1
  Al  Al7  1  0.336635  0.001462  0.424934  1
  Al  Al8  1  0.001507  0.336170  0.424531  1
  Al  Al9  1  0.663830  0.998493  0.575469  1
  Al  Al10  1  0.663985  0.995218  0.923207  1
  Al  Al11  1  0.332899  0.999038  0.076641  1
  Al  Al12  1  0.334796  0.334776  0.555554  1
  Al  Al13  1  0.665224  0.665204  0.444446  1
  Al  Al14  1  0.664945  0.668090  0.057762  1
  Al  Al15  1  0.331910  0.335055  0.942238  1
  Al  Al16  1  0.335806  0.548540  0.250364  1
  Al  Al17  1  0.664562  0.453022  0.747627  1
  Al  Al18  1  0.546978  0.335438  0.252373  1
  Al  Al19  1  0.451460  0.664194  0.749636  1
  Si  Si20  1  0.128527  0.128036  0.250308  1
  Si  Si21  1  0.871964  0.871473  0.749692  1
  Ir  Ir22  1  0.328279  0.671721  0.000000  1
  Ir  Ir23  1  0.328437  0.671563  0.500000  1
  Ir  Ir24  1  0.671978  0.328022  0.500000  1
  Pt  Pt25  1  0.671981  0.328019  0.000000  1
  Rh  Rh26  1  0.999776  0.000224  0.000000  1
  Rh  Rh27  1  0.000278  0.999722  0.500000  1
