# generated using pymatgen
data_Pr14IrPdRh4
_symmetry_space_group_name_H-M   'P 1'
_cell_length_a   10.25167263
_cell_length_b   10.17387390
_cell_length_c   6.52467624
_cell_angle_alpha   90.13379661
_cell_angle_beta   89.93635911
_cell_angle_gamma   120.12820104
_symmetry_Int_Tables_number   1
_chemical_formula_structural   Pr14IrPdRh4
_chemical_formula_sum   'Pr14 Ir1 Pd1 Rh4'
_cell_volume   588.58203669
_cell_formula_units_Z   1
loop_
 _symmetry_equiv_pos_site_id
 _symmetry_equiv_pos_as_xyz
  1  'x, y, z'
loop_
 _atom_site_type_symbol
 _atom_site_label
 _atom_site_symmetry_multiplicity
 _atom_site_fract_x
 _atom_site_fract_y
 _atom_site_fract_z
 _atom_site_occupancy
  Pr  Pr0  1  0.328946  0.665080  0.463410  1
  Pr  Pr1  1  0.668505  0.334660  0.969133  1
  Pr  Pr2  1  0.123665  0.875105  0.248318  1
  Pr  Pr3  1  0.751156  0.875228  0.238738  1
  Pr  Pr4  1  0.124304  0.249911  0.250744  1
  Pr  Pr5  1  0.879974  0.131518  0.748653  1
  Pr  Pr6  1  0.248148  0.124763  0.751254  1
  Pr  Pr7  1  0.878004  0.745587  0.747022  1
  Pr  Pr8  1  0.537474  0.457135  0.442398  1
  Pr  Pr9  1  0.919069  0.457736  0.437968  1
  Pr  Pr10  1  0.539558  0.081127  0.446395  1
  Pr  Pr11  1  0.455980  0.534142  0.944035  1
  Pr  Pr12  1  0.083635  0.541662  0.939332  1
  Pr  Pr13  1  0.457028  0.924331  0.948243  1
  Ir  Ir14  1  0.191473  0.379537  0.681494  1
  Pd  Pd15  1  0.623302  0.812164  0.689335  1
  Rh  Rh16  1  0.808225  0.186051  0.188703  1
  Rh  Rh17  1  0.380735  0.189093  0.186391  1
  Rh  Rh18  1  0.809938  0.622601  0.190337  1
  Rh  Rh19  1  0.190880  0.812566  0.690185  1
