# generated using pymatgen
data_Sc6TcBiSb
_symmetry_space_group_name_H-M   'P 1'
_cell_length_a   7.71335700
_cell_length_b   7.71335715
_cell_length_c   4.05406700
_cell_angle_alpha   90.00000000
_cell_angle_beta   90.00000000
_cell_angle_gamma   120.00000363
_symmetry_Int_Tables_number   1
_chemical_formula_structural   Sc6TcBiSb
_chemical_formula_sum   'Sc6 Tc1 Bi1 Sb1'
_cell_volume   208.88555636
_cell_formula_units_Z   1
loop_
 _symmetry_equiv_pos_site_id
 _symmetry_equiv_pos_as_xyz
  1  'x, y, z'
loop_
 _atom_site_type_symbol
 _atom_site_label
 _atom_site_symmetry_multiplicity
 _atom_site_fract_x
 _atom_site_fract_y
 _atom_site_fract_z
 _atom_site_occupancy
  Sc  Sc0  1  0.610843  0.005925  0.500000  1
  Sc  Sc1  1  0.395082  0.389157  0.500000  1
  Sc  Sc2  1  0.994075  0.604918  0.500000  1
  Sc  Sc3  1  0.233744  0.002621  0.000000  1
  Sc  Sc4  1  0.768877  0.766256  0.000000  1
  Sc  Sc5  1  0.997379  0.231123  0.000000  1
  Tc  Tc6  1  0.000000  0.000000  0.500000  1
  Bi  Bi7  1  0.333333  0.666667  0.000000  1
  Sb  Sb8  1  0.666667  0.333333  0.000000  1
