# generated using pymatgen
data_Yb2Cu(PO4)2
_symmetry_space_group_name_H-M   'P 1'
_cell_length_a   4.75544176
_cell_length_b   5.75368405
_cell_length_c   6.80370435
_cell_angle_alpha   103.93682599
_cell_angle_beta   87.34964469
_cell_angle_gamma   108.94900651
_symmetry_Int_Tables_number   1
_chemical_formula_structural   Yb2Cu(PO4)2
_chemical_formula_sum   'Yb2 Cu1 P2 O8'
_cell_volume   170.78312653
_cell_formula_units_Z   1
loop_
 _symmetry_equiv_pos_site_id
 _symmetry_equiv_pos_as_xyz
  1  'x, y, z'
loop_
 _atom_site_type_symbol
 _atom_site_label
 _atom_site_symmetry_multiplicity
 _atom_site_fract_x
 _atom_site_fract_y
 _atom_site_fract_z
 _atom_site_occupancy
  Yb  Yb0  1  0.689480  0.293045  0.690283  1
  Yb  Yb1  1  0.310520  0.706955  0.309717  1
  Cu  Cu2  1  0.000000  0.000000  0.000000  1
  P  P3  1  0.376292  0.695607  0.789351  1
  P  P4  1  0.623708  0.304393  0.210649  1
  O  O5  1  0.383374  0.878804  0.655275  1
  O  O6  1  0.616626  0.121196  0.344725  1
  O  O7  1  0.230314  0.772859  0.994951  1
  O  O8  1  0.769686  0.227141  0.005049  1
  O  O9  1  0.302881  0.297162  0.158083  1
  O  O10  1  0.216122  0.418306  0.676015  1
  O  O11  1  0.783878  0.581694  0.323985  1
  O  O12  1  0.697119  0.702838  0.841917  1
