# generated using pymatgen
data_Li3Ac4MgSi6
_symmetry_space_group_name_H-M   'P 1'
_cell_length_a   9.95305253
_cell_length_b   9.95305244
_cell_length_c   7.11665157
_cell_angle_alpha   88.97777332
_cell_angle_beta   91.02222547
_cell_angle_gamma   152.65330037
_symmetry_Int_Tables_number   1
_chemical_formula_structural   Li3Ac4MgSi6
_chemical_formula_sum   'Li3 Ac4 Mg1 Si6'
_cell_volume   323.80323660
_cell_formula_units_Z   1
loop_
 _symmetry_equiv_pos_site_id
 _symmetry_equiv_pos_as_xyz
  1  'x, y, z'
loop_
 _atom_site_type_symbol
 _atom_site_label
 _atom_site_symmetry_multiplicity
 _atom_site_fract_x
 _atom_site_fract_y
 _atom_site_fract_z
 _atom_site_occupancy
  Li  Li0  1  0.189425  0.810575  0.440585  1
  Li  Li1  1  0.187319  0.812681  0.066167  1
  Li  Li2  1  0.811254  0.188746  0.944462  1
  Ac  Ac3  1  0.552162  0.447838  0.252469  1
  Ac  Ac4  1  0.448779  0.551221  0.746868  1
  Ac  Ac5  1  0.344210  0.655790  0.232503  1
  Ac  Ac6  1  0.655321  0.344679  0.759596  1
  Mg  Mg7  1  0.810562  0.189438  0.558240  1
  Si  Si8  1  0.944049  0.055951  0.073695  1
  Si  Si9  1  0.055829  0.944171  0.923299  1
  Si  Si10  1  0.056140  0.943860  0.580565  1
  Si  Si11  1  0.944312  0.055688  0.416940  1
  Si  Si12  1  0.720375  0.279625  0.248102  1
  Si  Si13  1  0.280264  0.719736  0.756509  1
