# generated using pymatgen
data_Tb2Eu2Tm2TaAuO14
_symmetry_space_group_name_H-M   'P 1'
_cell_length_a   6.47977300
_cell_length_b   6.46412557
_cell_length_c   7.54737700
_cell_angle_alpha   90.00000000
_cell_angle_beta   90.00000000
_cell_angle_gamma   108.84710418
_symmetry_Int_Tables_number   1
_chemical_formula_structural   Tb2Eu2Tm2TaAuO14
_chemical_formula_sum   'Tb2 Eu2 Tm2 Ta1 Au1 O14'
_cell_volume   299.18031051
_cell_formula_units_Z   1
loop_
 _symmetry_equiv_pos_site_id
 _symmetry_equiv_pos_as_xyz
  1  'x, y, z'
loop_
 _atom_site_type_symbol
 _atom_site_label
 _atom_site_symmetry_multiplicity
 _atom_site_fract_x
 _atom_site_fract_y
 _atom_site_fract_z
 _atom_site_occupancy
  Tb  Tb0  1  0.532365  0.999514  0.751758  1
  Tb  Tb1  1  0.467341  0.000523  0.248960  1
  Eu  Eu2  1  0.500459  0.500297  0.500053  1
  Eu  Eu3  1  0.498639  0.499008  0.000063  1
  Tm  Tm4  1  0.000098  0.467584  0.750409  1
  Tm  Tm5  1  0.999930  0.532125  0.248833  1
  Ta  Ta6  1  0.999977  0.999913  0.000032  1
  Au  Au7  1  0.999732  0.999798  0.500027  1
  O  O8  1  0.643859  0.364329  0.752078  1
  O  O9  1  0.356073  0.635679  0.248342  1
  O  O10  1  0.932005  0.076476  0.748481  1
  O  O11  1  0.067606  0.923248  0.251565  1
  O  O12  1  0.931708  0.668231  0.525458  1
  O  O13  1  0.057445  0.316778  0.033802  1
  O  O14  1  0.320533  0.074043  0.971254  1
  O  O15  1  0.668755  0.918924  0.475894  1
  O  O16  1  0.359763  0.630121  0.752720  1
  O  O17  1  0.640307  0.369924  0.246911  1
  O  O18  1  0.944836  0.684492  0.964923  1
  O  O19  1  0.067478  0.331172  0.473965  1
  O  O20  1  0.330747  0.080976  0.524658  1
  O  O21  1  0.680343  0.926845  0.029820  1
