# generated using pymatgen
data_Ba3TbNiO6
_symmetry_space_group_name_H-M   'P 1'
_cell_length_a   7.14718092
_cell_length_b   7.14718104
_cell_length_c   7.14718141
_cell_angle_alpha   93.50837683
_cell_angle_beta   93.50838386
_cell_angle_gamma   93.50837466
_symmetry_Int_Tables_number   1
_chemical_formula_structural   Ba3TbNiO6
_chemical_formula_sum   'Ba6 Tb2 Ni2 O12'
_cell_volume   362.95299448
_cell_formula_units_Z   2
loop_
 _symmetry_equiv_pos_site_id
 _symmetry_equiv_pos_as_xyz
  1  'x, y, z'
loop_
 _atom_site_type_symbol
 _atom_site_label
 _atom_site_symmetry_multiplicity
 _atom_site_fract_x
 _atom_site_fract_y
 _atom_site_fract_z
 _atom_site_occupancy
  Ba  Ba0  1  0.380006  0.119993  0.750000  1
  Ba  Ba1  1  0.750000  0.380007  0.119994  1
  Ba  Ba2  1  0.249999  0.619994  0.880007  1
  Ba  Ba3  1  0.619993  0.880006  0.250001  1
  Ba  Ba4  1  0.119994  0.750000  0.380007  1
  Ba  Ba5  1  0.880006  0.250000  0.619994  1
  Tb  Tb6  1  0.750000  0.750001  0.750000  1
  Tb  Tb7  1  0.250001  0.250000  0.250000  1
  Ni  Ni8  1  0.500000  0.500000  0.500000  1
  Ni  Ni9  1  0.000000  0.000000  0.000000  1
  O  O10  1  0.782513  0.592014  0.464571  1
  O  O11  1  0.592015  0.464570  0.782513  1
  O  O12  1  0.464570  0.782513  0.592015  1
  O  O13  1  0.035429  0.907986  0.717488  1
  O  O14  1  0.907985  0.717487  0.035429  1
  O  O15  1  0.717488  0.035429  0.907985  1
  O  O16  1  0.217488  0.407985  0.535430  1
  O  O17  1  0.407985  0.535429  0.217488  1
  O  O18  1  0.535429  0.217488  0.407984  1
  O  O19  1  0.964571  0.092015  0.282513  1
  O  O20  1  0.282513  0.964570  0.092014  1
  O  O21  1  0.092014  0.282512  0.964570  1
