# generated using pymatgen
data_HoZn6Sn5Rh12
_symmetry_space_group_name_H-M   'P 1'
_cell_length_a   4.44261000
_cell_length_b   6.35970400
_cell_length_c   13.34187100
_cell_angle_alpha   90.00003090
_cell_angle_beta   89.99993985
_cell_angle_gamma   89.99997809
_symmetry_Int_Tables_number   1
_chemical_formula_structural   HoZn6Sn5Rh12
_chemical_formula_sum   'Ho1 Zn6 Sn5 Rh12'
_cell_volume   376.95701504
_cell_formula_units_Z   1
loop_
 _symmetry_equiv_pos_site_id
 _symmetry_equiv_pos_as_xyz
  1  'x, y, z'
loop_
 _atom_site_type_symbol
 _atom_site_label
 _atom_site_symmetry_multiplicity
 _atom_site_fract_x
 _atom_site_fract_y
 _atom_site_fract_z
 _atom_site_occupancy
  Ho  Ho0  1  0.000000  0.500000  0.000000  1
  Zn  Zn1  1  0.000000  0.000000  0.000000  1
  Zn  Zn2  1  0.500031  0.500000  0.161738  1
  Zn  Zn3  1  0.000022  0.000000  0.336401  1
  Zn  Zn4  1  0.500000  0.500000  0.500000  1
  Zn  Zn5  1  0.999979  0.000000  0.663599  1
  Zn  Zn6  1  0.499970  0.500000  0.838262  1
  Sn  Sn7  1  0.500020  0.000000  0.169392  1
  Sn  Sn8  1  0.000018  0.499998  0.333620  1
  Sn  Sn9  1  0.500000  0.000000  0.500000  1
  Sn  Sn10  1  0.999982  0.500002  0.666379  1
  Sn  Sn11  1  0.499981  0.000000  0.830608  1
  Rh  Rh12  1  0.499999  0.233510  0.000001  1
  Rh  Rh13  1  0.500001  0.766490  0.999999  1
  Rh  Rh14  1  0.000024  0.244794  0.173263  1
  Rh  Rh15  1  0.000025  0.755206  0.173264  1
  Rh  Rh16  1  0.500021  0.250740  0.335678  1
  Rh  Rh17  1  0.500021  0.749260  0.335677  1
  Rh  Rh18  1  0.999999  0.250686  0.500000  1
  Rh  Rh19  1  0.000001  0.749313  0.500000  1
  Rh  Rh20  1  0.499980  0.250739  0.664323  1
  Rh  Rh21  1  0.499980  0.749259  0.664322  1
  Rh  Rh22  1  0.999975  0.244793  0.826736  1
  Rh  Rh23  1  0.999976  0.755205  0.826737  1
