# generated using pymatgen
data_La10Nd6MgHg3Rh4
_symmetry_space_group_name_H-M   'P 1'
_cell_length_a   10.02748001
_cell_length_b   10.06817136
_cell_length_c   10.06817100
_cell_angle_alpha   59.99999791
_cell_angle_beta   59.86566983
_cell_angle_gamma   59.86566843
_symmetry_Int_Tables_number   1
_chemical_formula_structural   La10Nd6MgHg3Rh4
_chemical_formula_sum   'La10 Nd6 Mg1 Hg3 Rh4'
_cell_volume   717.28738916
_cell_formula_units_Z   1
loop_
 _symmetry_equiv_pos_site_id
 _symmetry_equiv_pos_as_xyz
  1  'x, y, z'
loop_
 _atom_site_type_symbol
 _atom_site_label
 _atom_site_symmetry_multiplicity
 _atom_site_fract_x
 _atom_site_fract_y
 _atom_site_fract_z
 _atom_site_occupancy
  La  La0  1  0.598632  0.597462  0.597462  1
  La  La1  1  0.598632  0.597462  0.206445  1
  La  La2  1  0.598632  0.206445  0.597462  1
  La  La3  1  0.198490  0.600504  0.600504  1
  La  La4  1  0.057133  0.442285  0.442285  1
  La  La5  1  0.437379  0.061207  0.061207  1
  La  La6  1  0.437379  0.061207  0.440208  1
  La  La7  1  0.057133  0.442285  0.058297  1
  La  La8  1  0.437379  0.440208  0.061207  1
  La  La9  1  0.057133  0.058297  0.442285  1
  Nd  Nd10  1  0.186102  0.814360  0.814360  1
  Nd  Nd11  1  0.812781  0.186219  0.186219  1
  Nd  Nd12  1  0.812781  0.186219  0.814782  1
  Nd  Nd13  1  0.186102  0.814360  0.185178  1
  Nd  Nd14  1  0.812781  0.814782  0.186219  1
  Nd  Nd15  1  0.186102  0.185178  0.814360  1
  Mg  Mg16  1  0.537834  0.820722  0.820722  1
  Hg  Hg17  1  0.830528  0.836688  0.836688  1
  Hg  Hg18  1  0.830528  0.836688  0.496098  1
  Hg  Hg19  1  0.830528  0.496098  0.836688  1
  Rh  Rh20  1  0.390931  0.392121  0.392121  1
  Rh  Rh21  1  0.390931  0.392121  0.824825  1
  Rh  Rh22  1  0.390931  0.824825  0.392121  1
  Rh  Rh23  1  0.823215  0.392261  0.392261  1
