# generated using pymatgen
data_Yb7USb6
_symmetry_space_group_name_H-M   'P 1'
_cell_length_a   8.19087812
_cell_length_b   8.19087742
_cell_length_c   8.09578900
_cell_angle_alpha   109.23622913
_cell_angle_beta   109.23622742
_cell_angle_gamma   109.70518534
_symmetry_Int_Tables_number   1
_chemical_formula_structural   Yb7USb6
_chemical_formula_sum   'Yb7 U1 Sb6'
_cell_volume   419.32377450
_cell_formula_units_Z   1
loop_
 _symmetry_equiv_pos_site_id
 _symmetry_equiv_pos_as_xyz
  1  'x, y, z'
loop_
 _atom_site_type_symbol
 _atom_site_label
 _atom_site_symmetry_multiplicity
 _atom_site_fract_x
 _atom_site_fract_y
 _atom_site_fract_z
 _atom_site_occupancy
  Yb  Yb0  1  0.649716  0.649865  0.650979  1
  Yb  Yb1  1  0.008200  0.363016  0.504900  1
  Yb  Yb2  1  0.354816  0.491800  0.996699  1
  Yb  Yb3  1  0.000149  0.850284  0.501263  1
  Yb  Yb4  1  0.850135  0.499851  0.001114  1
  Yb  Yb5  1  0.500000  0.000000  0.852413  1
  Yb  Yb6  1  0.136984  0.145184  0.141883  1
  U  U7  1  0.500000  0.000000  0.347736  1
  Sb  Sb8  1  0.868323  0.123194  0.740469  1
  Sb  Sb9  1  0.376806  0.245130  0.617275  1
  Sb  Sb10  1  0.132603  0.755491  0.887072  1
  Sb  Sb11  1  0.744509  0.877112  0.131581  1
  Sb  Sb12  1  0.254870  0.631677  0.372145  1
  Sb  Sb13  1  0.622888  0.367397  0.254470  1
