# generated using pymatgen
data_LiEu2CdPd2
_symmetry_space_group_name_H-M   'P 1'
_cell_length_a   4.33513500
_cell_length_b   7.37607800
_cell_length_c   8.71671500
_cell_angle_alpha   90.00000000
_cell_angle_beta   90.00000000
_cell_angle_gamma   90.00000000
_symmetry_Int_Tables_number   1
_chemical_formula_structural   LiEu2CdPd2
_chemical_formula_sum   'Li2 Eu4 Cd2 Pd4'
_cell_volume   278.72824069
_cell_formula_units_Z   2
loop_
 _symmetry_equiv_pos_site_id
 _symmetry_equiv_pos_as_xyz
  1  'x, y, z'
loop_
 _atom_site_type_symbol
 _atom_site_label
 _atom_site_symmetry_multiplicity
 _atom_site_fract_x
 _atom_site_fract_y
 _atom_site_fract_z
 _atom_site_occupancy
  Li  Li0  1  0.250000  0.128998  0.944313  1
  Li  Li1  1  0.750000  0.371002  0.444313  1
  Eu  Eu2  1  0.250000  0.540278  0.179359  1
  Eu  Eu3  1  0.750000  0.460468  0.820372  1
  Eu  Eu4  1  0.250000  0.039532  0.320372  1
  Eu  Eu5  1  0.750000  0.959722  0.679359  1
  Cd  Cd6  1  0.250000  0.631148  0.559310  1
  Cd  Cd7  1  0.750000  0.868852  0.059310  1
  Pd  Pd8  1  0.750000  0.244330  0.126203  1
  Pd  Pd9  1  0.250000  0.255670  0.626203  1
  Pd  Pd10  1  0.750000  0.739352  0.370443  1
  Pd  Pd11  1  0.250000  0.760648  0.870443  1
