# generated using pymatgen
data_Hf5Sc11Ir8
_symmetry_space_group_name_H-M   'P 1'
_cell_length_a   8.75984450
_cell_length_b   8.75984437
_cell_length_c   8.74944100
_cell_angle_alpha   60.03928217
_cell_angle_beta   60.03928267
_cell_angle_gamma   60.03245110
_symmetry_Int_Tables_number   1
_chemical_formula_structural   Hf5Sc11Ir8
_chemical_formula_sum   'Hf5 Sc11 Ir8'
_cell_volume   475.14069537
_cell_formula_units_Z   1
loop_
 _symmetry_equiv_pos_site_id
 _symmetry_equiv_pos_as_xyz
  1  'x, y, z'
loop_
 _atom_site_type_symbol
 _atom_site_label
 _atom_site_symmetry_multiplicity
 _atom_site_fract_x
 _atom_site_fract_y
 _atom_site_fract_z
 _atom_site_occupancy
  Hf  Hf0  1  0.124590  0.626004  0.624703  1
  Hf  Hf1  1  0.626004  0.124590  0.624703  1
  Hf  Hf2  1  0.623919  0.623919  0.125049  1
  Hf  Hf3  1  0.623919  0.623919  0.627112  1
  Hf  Hf4  1  0.812927  0.812927  0.187073  1
  Sc  Sc5  1  0.185738  0.185738  0.814262  1
  Sc  Sc6  1  0.815171  0.185343  0.814892  1
  Sc  Sc7  1  0.185343  0.815171  0.184594  1
  Sc  Sc8  1  0.185343  0.815171  0.814892  1
  Sc  Sc9  1  0.815171  0.185343  0.184594  1
  Sc  Sc10  1  0.435526  0.435526  0.064474  1
  Sc  Sc11  1  0.064533  0.064533  0.435467  1
  Sc  Sc12  1  0.435329  0.064304  0.435981  1
  Sc  Sc13  1  0.064304  0.435329  0.064385  1
  Sc  Sc14  1  0.064304  0.435329  0.435981  1
  Sc  Sc15  1  0.435329  0.064304  0.064385  1
  Ir  Ir16  1  0.765644  0.414789  0.409784  1
  Ir  Ir17  1  0.414789  0.765644  0.409784  1
  Ir  Ir18  1  0.411574  0.411574  0.764866  1
  Ir  Ir19  1  0.411574  0.411574  0.411985  1
  Ir  Ir20  1  0.485191  0.838857  0.837976  1
  Ir  Ir21  1  0.838857  0.485191  0.837976  1
  Ir  Ir22  1  0.837460  0.837460  0.480810  1
  Ir  Ir23  1  0.837460  0.837460  0.844270  1
