# generated using pymatgen
data_Lu2Co3Si6Ir7
_symmetry_space_group_name_H-M   'P 1'
_cell_length_a   3.85378800
_cell_length_b   10.85749419
_cell_length_c   12.48574400
_cell_angle_alpha   89.90737151
_cell_angle_beta   90.00000000
_cell_angle_gamma   90.00000000
_symmetry_Int_Tables_number   1
_chemical_formula_structural   Lu2Co3Si6Ir7
_chemical_formula_sum   'Lu4 Co6 Si12 Ir14'
_cell_volume   522.43382105
_cell_formula_units_Z   2
loop_
 _symmetry_equiv_pos_site_id
 _symmetry_equiv_pos_as_xyz
  1  'x, y, z'
loop_
 _atom_site_type_symbol
 _atom_site_label
 _atom_site_symmetry_multiplicity
 _atom_site_fract_x
 _atom_site_fract_y
 _atom_site_fract_z
 _atom_site_occupancy
  Lu  Lu0  1  0.250000  0.916477  0.209460  1
  Lu  Lu1  1  0.750000  0.083523  0.790540  1
  Lu  Lu2  1  0.750000  0.414076  0.293179  1
  Lu  Lu3  1  0.250000  0.585924  0.706821  1
  Co  Co4  1  0.750000  0.113561  0.303869  1
  Co  Co5  1  0.250000  0.886439  0.696131  1
  Co  Co6  1  0.250000  0.032902  0.433225  1
  Co  Co7  1  0.750000  0.967098  0.566775  1
  Co  Co8  1  0.750000  0.532571  0.065327  1
  Co  Co9  1  0.250000  0.467429  0.934673  1
  Si  Si10  1  0.250000  0.071460  0.609670  1
  Si  Si11  1  0.750000  0.928540  0.390330  1
  Si  Si12  1  0.750000  0.582088  0.892225  1
  Si  Si13  1  0.250000  0.417912  0.107775  1
  Si  Si14  1  0.250000  0.224793  0.373007  1
  Si  Si15  1  0.750000  0.775207  0.626993  1
  Si  Si16  1  0.750000  0.727790  0.127533  1
  Si  Si17  1  0.250000  0.272210  0.872467  1
  Si  Si18  1  0.250000  0.901040  0.884257  1
  Si  Si19  1  0.750000  0.098960  0.115743  1
  Si  Si20  1  0.750000  0.398723  0.609759  1
  Si  Si21  1  0.250000  0.601277  0.390241  1
  Ir  Ir22  1  0.250000  0.795452  0.491376  1
  Ir  Ir23  1  0.750000  0.204548  0.508624  1
  Ir  Ir24  1  0.750000  0.293248  0.015292  1
  Ir  Ir25  1  0.250000  0.706752  0.984708  1
  Ir  Ir26  1  0.250000  0.093593  0.984308  1
  Ir  Ir27  1  0.750000  0.906407  0.015692  1
  Ir  Ir28  1  0.750000  0.594615  0.515491  1
  Ir  Ir29  1  0.250000  0.405385  0.484509  1
  Ir  Ir30  1  0.250000  0.270845  0.678006  1
  Ir  Ir31  1  0.750000  0.729155  0.321994  1
  Ir  Ir32  1  0.750000  0.780407  0.816750  1
  Ir  Ir33  1  0.250000  0.219593  0.183250  1
  Ir  Ir34  1  0.250000  0.609876  0.198662  1
  Ir  Ir35  1  0.750000  0.390124  0.801338  1
