# generated using pymatgen
data_Ti(NbSi3)2
_symmetry_space_group_name_H-M   'P 1'
_cell_length_a   4.79485300
_cell_length_b   4.81337721
_cell_length_c   6.57839500
_cell_angle_alpha   90.00000000
_cell_angle_beta   90.00000000
_cell_angle_gamma   119.87276776
_symmetry_Int_Tables_number   1
_chemical_formula_structural   Ti(NbSi3)2
_chemical_formula_sum   'Ti1 Nb2 Si6'
_cell_volume   131.65311679
_cell_formula_units_Z   1
loop_
 _symmetry_equiv_pos_site_id
 _symmetry_equiv_pos_as_xyz
  1  'x, y, z'
loop_
 _atom_site_type_symbol
 _atom_site_label
 _atom_site_symmetry_multiplicity
 _atom_site_fract_x
 _atom_site_fract_y
 _atom_site_fract_z
 _atom_site_occupancy
  Ti  Ti0  1  0.500000  0.000000  0.000000  1
  Nb  Nb1  1  0.000000  0.500000  0.333104  1
  Nb  Nb2  1  0.500000  0.500000  0.666896  1
  Si  Si3  1  0.844797  0.689593  0.000000  1
  Si  Si4  1  0.164168  0.840167  0.668754  1
  Si  Si5  1  0.675998  0.840167  0.331246  1
  Si  Si6  1  0.155203  0.310407  0.000000  1
  Si  Si7  1  0.835832  0.159833  0.668754  1
  Si  Si8  1  0.324002  0.159833  0.331246  1
