# generated using pymatgen
data_Ho8In2PdRh
_symmetry_space_group_name_H-M   'P 1'
_cell_length_a   9.65161876
_cell_length_b   9.64712573
_cell_length_c   9.64712501
_cell_angle_alpha   59.96478782
_cell_angle_beta   59.98459706
_cell_angle_gamma   59.98459340
_symmetry_Int_Tables_number   1
_chemical_formula_structural   Ho8In2PdRh
_chemical_formula_sum   'Ho16 In4 Pd2 Rh2'
_cell_volume   634.83986729
_cell_formula_units_Z   2
loop_
 _symmetry_equiv_pos_site_id
 _symmetry_equiv_pos_as_xyz
  1  'x, y, z'
loop_
 _atom_site_type_symbol
 _atom_site_label
 _atom_site_symmetry_multiplicity
 _atom_site_fract_x
 _atom_site_fract_y
 _atom_site_fract_z
 _atom_site_occupancy
  Ho  Ho0  1  0.193361  0.185441  0.810453  1
  Ho  Ho1  1  0.437835  0.062165  0.062165  1
  Ho  Ho2  1  0.435941  0.063641  0.438325  1
  Ho  Ho3  1  0.062093  0.438325  0.063641  1
  Ho  Ho4  1  0.647805  0.052060  0.652330  1
  Ho  Ho5  1  0.188817  0.811183  0.811183  1
  Ho  Ho6  1  0.062093  0.063641  0.438325  1
  Ho  Ho7  1  0.809944  0.190056  0.190056  1
  Ho  Ho8  1  0.810745  0.810453  0.185441  1
  Ho  Ho9  1  0.647805  0.652330  0.052060  1
  Ho  Ho10  1  0.644648  0.650402  0.650402  1
  Ho  Ho11  1  0.063300  0.436700  0.436700  1
  Ho  Ho12  1  0.054548  0.650402  0.650402  1
  Ho  Ho13  1  0.810745  0.185441  0.810453  1
  Ho  Ho14  1  0.435941  0.438325  0.063641  1
  Ho  Ho15  1  0.193361  0.810453  0.185441  1
  In  In16  1  0.416987  0.749211  0.416814  1
  In  In17  1  0.416987  0.416814  0.749211  1
  In  In18  1  0.750087  0.416607  0.416607  1
  In  In19  1  0.416700  0.416607  0.416607  1
  Pd  Pd20  1  0.856903  0.430046  0.856147  1
  Pd  Pd21  1  0.856903  0.856147  0.430046  1
  Rh  Rh22  1  0.429229  0.856774  0.856774  1
  Rh  Rh23  1  0.857223  0.856774  0.856774  1
