# generated using pymatgen
data_Tm3Al12(IrOs)2
_symmetry_space_group_name_H-M   'P 1'
_cell_length_a   8.81732847
_cell_length_b   8.81732848
_cell_length_c   9.49711200
_cell_angle_alpha   90.00000000
_cell_angle_beta   90.00000000
_cell_angle_gamma   120.27542039
_symmetry_Int_Tables_number   1
_chemical_formula_structural   Tm3Al12(IrOs)2
_chemical_formula_sum   'Tm6 Al24 Ir4 Os4'
_cell_volume   637.65272925
_cell_formula_units_Z   2
loop_
 _symmetry_equiv_pos_site_id
 _symmetry_equiv_pos_as_xyz
  1  'x, y, z'
loop_
 _atom_site_type_symbol
 _atom_site_label
 _atom_site_symmetry_multiplicity
 _atom_site_fract_x
 _atom_site_fract_y
 _atom_site_fract_z
 _atom_site_occupancy
  Tm  Tm0  1  0.199915  0.391087  0.250000  1
  Tm  Tm1  1  0.800085  0.608913  0.750000  1
  Tm  Tm2  1  0.608913  0.800085  0.250000  1
  Tm  Tm3  1  0.391087  0.199915  0.750000  1
  Tm  Tm4  1  0.194554  0.805446  0.250000  1
  Tm  Tm5  1  0.805446  0.194554  0.750000  1
  Al  Al6  1  0.333761  0.666239  0.027519  1
  Al  Al7  1  0.666239  0.333761  0.972481  1
  Al  Al8  1  0.666239  0.333761  0.527519  1
  Al  Al9  1  0.333761  0.666239  0.472481  1
  Al  Al10  1  0.163791  0.327178  0.575938  1
  Al  Al11  1  0.836209  0.672822  0.424062  1
  Al  Al12  1  0.672822  0.836209  0.575938  1
  Al  Al13  1  0.836209  0.672822  0.075938  1
  Al  Al14  1  0.327178  0.163791  0.424062  1
  Al  Al15  1  0.163791  0.327178  0.924062  1
  Al  Al16  1  0.162583  0.837417  0.577271  1
  Al  Al17  1  0.327178  0.163791  0.075938  1
  Al  Al18  1  0.837417  0.162583  0.422729  1
  Al  Al19  1  0.672822  0.836209  0.924062  1
  Al  Al20  1  0.837417  0.162583  0.077271  1
  Al  Al21  1  0.162583  0.837417  0.922729  1
  Al  Al22  1  0.562075  0.122456  0.250000  1
  Al  Al23  1  0.437925  0.877544  0.750000  1
  Al  Al24  1  0.877544  0.437925  0.250000  1
  Al  Al25  1  0.122456  0.562075  0.750000  1
  Al  Al26  1  0.562818  0.437182  0.250000  1
  Al  Al27  1  0.437182  0.562818  0.750000  1
  Al  Al28  1  0.001288  0.998712  0.250000  1
  Al  Al29  1  0.998712  0.001288  0.750000  1
  Ir  Ir30  1  0.500000  0.000000  0.000000  1
  Ir  Ir31  1  0.000000  0.500000  0.000000  1
  Ir  Ir32  1  0.500000  0.000000  0.500000  1
  Ir  Ir33  1  0.000000  0.500000  0.500000  1
  Os  Os34  1  0.500000  0.500000  0.000000  1
  Os  Os35  1  0.500000  0.500000  0.500000  1
  Os  Os36  1  0.000000  0.000000  0.000000  1
  Os  Os37  1  0.000000  0.000000  0.500000  1
