# generated using pymatgen
data_Te2SeF18
_symmetry_space_group_name_H-M   'P 1'
_cell_length_a   9.36046800
_cell_length_b   9.36046707
_cell_length_c   5.41464500
_cell_angle_alpha   90.00000000
_cell_angle_beta   90.00000000
_cell_angle_gamma   120.00000330
_symmetry_Int_Tables_number   1
_chemical_formula_structural   Te2SeF18
_chemical_formula_sum   'Te2 Se1 F18'
_cell_volume   410.86172764
_cell_formula_units_Z   1
loop_
 _symmetry_equiv_pos_site_id
 _symmetry_equiv_pos_as_xyz
  1  'x, y, z'
loop_
 _atom_site_type_symbol
 _atom_site_label
 _atom_site_symmetry_multiplicity
 _atom_site_fract_x
 _atom_site_fract_y
 _atom_site_fract_z
 _atom_site_occupancy
  Te  Te0  1  0.666667  0.333333  0.446673  1
  Te  Te1  1  0.333333  0.666667  0.553327  1
  Se  Se2  1  0.000000  0.000000  0.000000  1
  F  F3  1  0.239358  0.760642  0.354358  1
  F  F4  1  0.239358  0.478718  0.354358  1
  F  F5  1  0.521282  0.760642  0.354358  1
  F  F6  1  0.087489  0.912511  0.814578  1
  F  F7  1  0.087489  0.174976  0.814578  1
  F  F8  1  0.825024  0.912511  0.814578  1
  F  F9  1  0.174976  0.087489  0.185422  1
  F  F10  1  0.912511  0.825024  0.185422  1
  F  F11  1  0.912511  0.087489  0.185422  1
  F  F12  1  0.427291  0.572709  0.752498  1
  F  F13  1  0.427291  0.854583  0.752498  1
  F  F14  1  0.145417  0.572709  0.752498  1
  F  F15  1  0.854583  0.427291  0.247502  1
  F  F16  1  0.572709  0.145417  0.247502  1
  F  F17  1  0.572709  0.427291  0.247502  1
  F  F18  1  0.760642  0.239358  0.645642  1
  F  F19  1  0.760642  0.521282  0.645642  1
  F  F20  1  0.478718  0.239358  0.645642  1
