# generated using pymatgen
data_Zn2Cd2Sb(PN2)6
_symmetry_space_group_name_H-M   'P 1'
_cell_length_a   7.38867253
_cell_length_b   7.34589310
_cell_length_c   7.38867445
_cell_angle_alpha   110.09189009
_cell_angle_beta   108.47702732
_cell_angle_gamma   110.09188673
_symmetry_Int_Tables_number   1
_chemical_formula_structural   Zn2Cd2Sb(PN2)6
_chemical_formula_sum   'Zn2 Cd2 Sb1 P6 N12'
_cell_volume   307.70754293
_cell_formula_units_Z   1
loop_
 _symmetry_equiv_pos_site_id
 _symmetry_equiv_pos_as_xyz
  1  'x, y, z'
loop_
 _atom_site_type_symbol
 _atom_site_label
 _atom_site_symmetry_multiplicity
 _atom_site_fract_x
 _atom_site_fract_y
 _atom_site_fract_z
 _atom_site_occupancy
  Zn  Zn0  1  0.615946  0.000000  0.004720  1
  Zn  Zn1  1  0.004720  0.000000  0.615946  1
  Cd  Cd2  1  0.021015  0.689415  0.021015  1
  Cd  Cd3  1  0.331599  0.310585  0.331599  1
  Sb  Sb4  1  0.938959  0.000000  0.938959  1
  P  P5  1  0.254787  0.749554  0.507580  1
  P  P6  1  0.758026  0.250446  0.505233  1
  P  P7  1  0.753446  0.500000  0.253446  1
  P  P8  1  0.253446  0.500000  0.753446  1
  P  P9  1  0.507580  0.749554  0.254787  1
  P  P10  1  0.505233  0.250446  0.758026  1
  N  N11  1  0.712957  0.280096  0.284889  1
  N  N12  1  0.295127  0.718591  0.295127  1
  N  N13  1  0.289497  0.568165  0.573229  1
  N  N14  1  0.573229  0.568165  0.289497  1
  N  N15  1  0.432861  0.719904  0.004792  1
  N  N16  1  0.004792  0.719904  0.432861  1
  N  N17  1  0.576538  0.281409  0.576538  1
  N  N18  1  0.730751  0.000000  0.428204  1
  N  N19  1  0.428204  0.000000  0.730751  1
  N  N20  1  0.721332  0.431835  0.005063  1
  N  N21  1  0.284889  0.280096  0.712957  1
  N  N22  1  0.005063  0.431835  0.721332  1
