# generated using pymatgen
data_TbTmPa(InPt)3
_symmetry_space_group_name_H-M   'P 1'
_cell_length_a   7.62360932
_cell_length_b   7.58819262
_cell_length_c   3.95562800
_cell_angle_alpha   90.00000000
_cell_angle_beta   90.00000000
_cell_angle_gamma   120.32363286
_symmetry_Int_Tables_number   1
_chemical_formula_structural   TbTmPa(InPt)3
_chemical_formula_sum   'Tb1 Tm1 Pa1 In3 Pt3'
_cell_volume   197.52383112
_cell_formula_units_Z   1
loop_
 _symmetry_equiv_pos_site_id
 _symmetry_equiv_pos_as_xyz
  1  'x, y, z'
loop_
 _atom_site_type_symbol
 _atom_site_label
 _atom_site_symmetry_multiplicity
 _atom_site_fract_x
 _atom_site_fract_y
 _atom_site_fract_z
 _atom_site_occupancy
  Tb  Tb0  1  0.592205  0.594645  0.000000  1
  Tm  Tm1  1  0.997567  0.404823  0.000000  1
  Pa  Pa2  1  0.411494  0.999994  0.000000  1
  In  In3  1  0.255818  0.270071  0.500000  1
  In  In4  1  0.986614  0.729676  0.500000  1
  In  In5  1  0.756210  0.001089  0.500000  1
  Pt  Pt6  1  0.017048  0.001189  0.000000  1
  Pt  Pt7  1  0.649223  0.311624  0.500000  1
  Pt  Pt8  1  0.333820  0.686889  0.500000  1
