# generated using pymatgen
data_Rb2InGa(SiSe4)2
_symmetry_space_group_name_H-M   'P 1'
_cell_length_a   17.46158500
_cell_length_b   7.30166983
_cell_length_c   7.89609622
_cell_angle_alpha   69.36448780
_cell_angle_beta   90.00000000
_cell_angle_gamma   90.00000000
_symmetry_Int_Tables_number   1
_chemical_formula_structural   Rb2InGa(SiSe4)2
_chemical_formula_sum   'Rb4 In2 Ga2 Si4 Se16'
_cell_volume   942.15093700
_cell_formula_units_Z   2
loop_
 _symmetry_equiv_pos_site_id
 _symmetry_equiv_pos_as_xyz
  1  'x, y, z'
loop_
 _atom_site_type_symbol
 _atom_site_label
 _atom_site_symmetry_multiplicity
 _atom_site_fract_x
 _atom_site_fract_y
 _atom_site_fract_z
 _atom_site_occupancy
  Rb  Rb0  1  0.394975  0.966352  0.184295  1
  Rb  Rb1  1  0.894975  0.033648  0.815705  1
  Rb  Rb2  1  0.602006  0.516673  0.825622  1
  Rb  Rb3  1  0.102006  0.483327  0.174378  1
  In  In4  1  0.586130  0.163393  0.475691  1
  In  In5  1  0.086130  0.836607  0.524309  1
  Ga  Ga6  1  0.275376  0.593150  0.704233  1
  Ga  Ga7  1  0.775376  0.406850  0.295767  1
  Si  Si8  1  0.418484  0.323545  0.540111  1
  Si  Si9  1  0.918484  0.676455  0.459889  1
  Si  Si10  1  0.727542  0.905981  0.271282  1
  Si  Si11  1  0.227542  0.094019  0.728718  1
  Se  Se12  1  0.602161  0.867155  0.367385  1
  Se  Se13  1  0.102161  0.132845  0.632615  1
  Se  Se14  1  0.411215  0.594146  0.624330  1
  Se  Se15  1  0.911215  0.405854  0.375670  1
  Se  Se16  1  0.801164  0.781230  0.533573  1
  Se  Se17  1  0.301164  0.218770  0.466427  1
  Se  Se18  1  0.209110  0.716731  0.420916  1
  Se  Se19  1  0.709110  0.283269  0.579084  1
  Se  Se20  1  0.761566  0.219046  0.092433  1
  Se  Se21  1  0.261566  0.780954  0.907567  1
  Se  Se22  1  0.239615  0.267516  0.919327  1
  Se  Se23  1  0.739615  0.732484  0.080673  1
  Se  Se24  1  0.988670  0.914524  0.247748  1
  Se  Se25  1  0.488670  0.085476  0.752252  1
  Se  Se26  1  0.981984  0.594606  0.732644  1
  Se  Se27  1  0.481984  0.405394  0.267356  1
