# generated using pymatgen
data_TbY5(TmIn4)2
_symmetry_space_group_name_H-M   'P 1'
_cell_length_a   6.50326695
_cell_length_b   6.50326819
_cell_length_c   10.33866000
_cell_angle_alpha   89.99793492
_cell_angle_beta   89.99793738
_cell_angle_gamma   104.02177969
_symmetry_Int_Tables_number   1
_chemical_formula_structural   TbY5(TmIn4)2
_chemical_formula_sum   'Tb1 Y5 Tm2 In8'
_cell_volume   424.21929984
_cell_formula_units_Z   1
loop_
 _symmetry_equiv_pos_site_id
 _symmetry_equiv_pos_as_xyz
  1  'x, y, z'
loop_
 _atom_site_type_symbol
 _atom_site_label
 _atom_site_symmetry_multiplicity
 _atom_site_fract_x
 _atom_site_fract_y
 _atom_site_fract_z
 _atom_site_occupancy
  Tb  Tb0  1  0.752245  0.247755  0.000000  1
  Y  Y1  1  0.524165  0.524211  0.250000  1
  Y  Y2  1  0.475789  0.475835  0.750000  1
  Y  Y3  1  0.247777  0.752223  0.500000  1
  Y  Y4  1  0.247776  0.752224  0.000000  1
  Y  Y5  1  0.752222  0.247778  0.500000  1
  Tm  Tm6  1  0.982292  0.982267  0.249996  1
  Tm  Tm7  1  0.017733  0.017708  0.750004  1
  In  In8  1  0.250605  0.250598  0.013285  1
  In  In9  1  0.749402  0.749395  0.986715  1
  In  In10  1  0.250604  0.250603  0.486700  1
  In  In11  1  0.749397  0.749396  0.513300  1
  In  In12  1  0.486584  0.014563  0.250032  1
  In  In13  1  0.985437  0.513416  0.749968  1
  In  In14  1  0.513355  0.985384  0.749963  1
  In  In15  1  0.014616  0.486645  0.250037  1
