# generated using pymatgen
data_Pr8Zn8Ir7Pd
_symmetry_space_group_name_H-M   'P 1'
_cell_length_a   4.07120600
_cell_length_b   7.35813101
_cell_length_c   16.75567376
_cell_angle_alpha   89.84438582
_cell_angle_beta   90.00000000
_cell_angle_gamma   90.00000000
_symmetry_Int_Tables_number   1
_chemical_formula_structural   Pr8Zn8Ir7Pd
_chemical_formula_sum   'Pr8 Zn8 Ir7 Pd1'
_cell_volume   501.93893864
_cell_formula_units_Z   1
loop_
 _symmetry_equiv_pos_site_id
 _symmetry_equiv_pos_as_xyz
  1  'x, y, z'
loop_
 _atom_site_type_symbol
 _atom_site_label
 _atom_site_symmetry_multiplicity
 _atom_site_fract_x
 _atom_site_fract_y
 _atom_site_fract_z
 _atom_site_occupancy
  Pr  Pr0  1  0.750000  0.453450  0.215727  1
  Pr  Pr1  1  0.750000  0.952063  0.282208  1
  Pr  Pr2  1  0.750000  0.832552  0.060667  1
  Pr  Pr3  1  0.250000  0.042891  0.720680  1
  Pr  Pr4  1  0.250000  0.167100  0.940052  1
  Pr  Pr5  1  0.250000  0.548624  0.784817  1
  Pr  Pr6  1  0.750000  0.335610  0.434908  1
  Pr  Pr7  1  0.250000  0.671453  0.559921  1
  Zn  Zn8  1  0.250000  0.994910  0.435796  1
  Zn  Zn9  1  0.750000  0.500341  0.939856  1
  Zn  Zn10  1  0.750000  0.998228  0.560893  1
  Zn  Zn11  1  0.250000  0.625193  0.348895  1
  Zn  Zn12  1  0.750000  0.378226  0.654477  1
  Zn  Zn13  1  0.750000  0.874450  0.851878  1
  Zn  Zn14  1  0.250000  0.499257  0.059994  1
  Zn  Zn15  1  0.250000  0.125630  0.149569  1
  Ir  Ir16  1  0.750000  0.258647  0.065123  1
  Ir  Ir17  1  0.250000  0.245790  0.315343  1
  Ir  Ir18  1  0.750000  0.254122  0.811607  1
  Ir  Ir19  1  0.250000  0.741588  0.935203  1
  Ir  Ir20  1  0.750000  0.754827  0.684799  1
  Ir  Ir21  1  0.750000  0.758385  0.435186  1
  Ir  Ir22  1  0.250000  0.746536  0.186728  1
  Pd  Pd23  1  0.250000  0.240127  0.565673  1
