# generated using pymatgen
data_YHo7Tc2(B12Rh)2
_symmetry_space_group_name_H-M   'P 1'
_cell_length_a   3.67343700
_cell_length_b   9.13097155
_cell_length_c   11.52041712
_cell_angle_alpha   90.40121429
_cell_angle_beta   90.00000000
_cell_angle_gamma   90.00000000
_symmetry_Int_Tables_number   1
_chemical_formula_structural   YHo7Tc2(B12Rh)2
_chemical_formula_sum   'Y1 Ho7 Tc2 B24 Rh2'
_cell_volume   386.40891886
_cell_formula_units_Z   1
loop_
 _symmetry_equiv_pos_site_id
 _symmetry_equiv_pos_as_xyz
  1  'x, y, z'
loop_
 _atom_site_type_symbol
 _atom_site_label
 _atom_site_symmetry_multiplicity
 _atom_site_fract_x
 _atom_site_fract_y
 _atom_site_fract_z
 _atom_site_occupancy
  Y  Y0  1  0.500000  0.318843  0.410931  1
  Ho  Ho1  1  0.500000  0.681177  0.589165  1
  Ho  Ho2  1  0.500000  0.173191  0.917256  1
  Ho  Ho3  1  0.500000  0.826808  0.082738  1
  Ho  Ho4  1  0.500000  0.441935  0.126746  1
  Ho  Ho5  1  0.500000  0.558129  0.873200  1
  Ho  Ho6  1  0.500000  0.053990  0.628550  1
  Ho  Ho7  1  0.500000  0.945788  0.371509  1
  Tc  Tc8  1  0.500000  0.138970  0.179627  1
  Tc  Tc9  1  0.500000  0.860833  0.820158  1
  B  B10  1  0.000000  0.108159  0.470930  1
  B  B11  1  0.000000  0.891447  0.529194  1
  B  B12  1  0.000000  0.392681  0.970225  1
  B  B13  1  0.000000  0.607350  0.029752  1
  B  B14  1  0.000000  0.132179  0.314593  1
  B  B15  1  0.000000  0.867519  0.685212  1
  B  B16  1  0.000000  0.367224  0.816484  1
  B  B17  1  0.000000  0.632823  0.183507  1
  B  B18  1  0.000000  0.053181  0.067436  1
  B  B19  1  0.000000  0.946805  0.932528  1
  B  B20  1  0.000000  0.445859  0.566206  1
  B  B21  1  0.000000  0.554640  0.434045  1
  B  B22  1  0.000000  0.483987  0.287436  1
  B  B23  1  0.000000  0.516374  0.712397  1
  B  B24  1  0.000000  0.016505  0.787041  1
  B  B25  1  0.000000  0.983415  0.212947  1
  B  B26  1  0.000000  0.247995  0.081051  1
  B  B27  1  0.000000  0.752027  0.918888  1
  B  B28  1  0.000000  0.250848  0.579004  1
  B  B29  1  0.000000  0.749092  0.421349  1
  B  B30  1  0.000000  0.292661  0.234288  1
  B  B31  1  0.000000  0.707239  0.765429  1
  B  B32  1  0.000000  0.208537  0.734786  1
  B  B33  1  0.000000  0.791475  0.265255  1
  Rh  Rh34  1  0.500000  0.362030  0.678702  1
  Rh  Rh35  1  0.500000  0.638283  0.321434  1
