# generated using pymatgen
data_Tb8TcOsI8
_symmetry_space_group_name_H-M   'P 1'
_cell_length_a   11.28149816
_cell_length_b   11.28149557
_cell_length_c   6.21521418
_cell_angle_alpha   89.85557204
_cell_angle_beta   89.85557177
_cell_angle_gamma   89.90649003
_symmetry_Int_Tables_number   1
_chemical_formula_structural   Tb8TcOsI8
_chemical_formula_sum   'Tb8 Tc1 Os1 I8'
_cell_volume   791.01773329
_cell_formula_units_Z   1
loop_
 _symmetry_equiv_pos_site_id
 _symmetry_equiv_pos_as_xyz
  1  'x, y, z'
loop_
 _atom_site_type_symbol
 _atom_site_label
 _atom_site_symmetry_multiplicity
 _atom_site_fract_x
 _atom_site_fract_y
 _atom_site_fract_z
 _atom_site_occupancy
  Tb  Tb0  1  0.799968  0.082052  0.000086  1
  Tb  Tb1  1  0.082008  0.799989  0.499439  1
  Tb  Tb2  1  0.081014  0.199331  0.000234  1
  Tb  Tb3  1  0.199340  0.081021  0.499346  1
  Tb  Tb4  1  0.918979  0.800660  0.000654  1
  Tb  Tb5  1  0.917948  0.200032  0.499914  1
  Tb  Tb6  1  0.200011  0.917992  0.000561  1
  Tb  Tb7  1  0.800669  0.918986  0.499766  1
  Tc  Tc8  1  0.999896  0.000104  0.250000  1
  Os  Os9  1  0.000129  0.999871  0.750000  1
  I  I10  1  0.641684  0.151314  0.499639  1
  I  I11  1  0.848776  0.642881  0.497660  1
  I  I12  1  0.357119  0.151224  0.002340  1
  I  I13  1  0.151208  0.357100  0.502776  1
  I  I14  1  0.642900  0.848792  0.997224  1
  I  I15  1  0.358373  0.848711  0.500659  1
  I  I16  1  0.151289  0.641627  0.999341  1
  I  I17  1  0.848686  0.358316  0.000361  1
