# generated using pymatgen
data_Sc3Cd3NiAu
_symmetry_space_group_name_H-M   'P 1'
_cell_length_a   7.50908800
_cell_length_b   7.50908803
_cell_length_c   3.30170600
_cell_angle_alpha   90.00000000
_cell_angle_beta   90.00000000
_cell_angle_gamma   119.99999988
_symmetry_Int_Tables_number   1
_chemical_formula_structural   Sc3Cd3NiAu
_chemical_formula_sum   'Sc3 Cd3 Ni1 Au1'
_cell_volume   161.22909664
_cell_formula_units_Z   1
loop_
 _symmetry_equiv_pos_site_id
 _symmetry_equiv_pos_as_xyz
  1  'x, y, z'
loop_
 _atom_site_type_symbol
 _atom_site_label
 _atom_site_symmetry_multiplicity
 _atom_site_fract_x
 _atom_site_fract_y
 _atom_site_fract_z
 _atom_site_occupancy
  Sc  Sc0  1  0.588265  0.025156  0.500001  1
  Sc  Sc1  1  0.436890  0.411735  0.500001  1
  Sc  Sc2  1  0.974844  0.563111  0.500001  1
  Cd  Cd3  1  0.230928  0.001547  0.000000  1
  Cd  Cd4  1  0.998453  0.229382  0.000000  1
  Cd  Cd5  1  0.770618  0.769072  0.000000  1
  Ni  Ni6  1  0.666666  0.333333  0.000000  1
  Au  Au7  1  0.333333  0.666666  0.000000  1
