# generated using pymatgen
data_CaPr3Mn4(RuO5)4
_symmetry_space_group_name_H-M   'P 1'
_cell_length_a   5.69187800
_cell_length_b   7.89979928
_cell_length_c   8.95297117
_cell_angle_alpha   89.62044088
_cell_angle_beta   90.00000000
_cell_angle_gamma   90.00000000
_symmetry_Int_Tables_number   1
_chemical_formula_structural   CaPr3Mn4(RuO5)4
_chemical_formula_sum   'Ca1 Pr3 Mn4 Ru4 O20'
_cell_volume   402.55877356
_cell_formula_units_Z   1
loop_
 _symmetry_equiv_pos_site_id
 _symmetry_equiv_pos_as_xyz
  1  'x, y, z'
loop_
 _atom_site_type_symbol
 _atom_site_label
 _atom_site_symmetry_multiplicity
 _atom_site_fract_x
 _atom_site_fract_y
 _atom_site_fract_z
 _atom_site_occupancy
  Ca  Ca0  1  0.000000  0.349507  0.671000  1
  Pr  Pr1  1  0.000000  0.642147  0.330389  1
  Pr  Pr2  1  0.000000  0.854830  0.826167  1
  Pr  Pr3  1  0.000000  0.145629  0.172810  1
  Mn  Mn4  1  0.500000  0.081990  0.851880  1
  Mn  Mn5  1  0.500000  0.918538  0.145763  1
  Mn  Mn6  1  0.500000  0.577210  0.646945  1
  Mn  Mn7  1  0.500000  0.420627  0.355830  1
  Ru  Ru8  1  0.279506  0.500013  0.998372  1
  Ru  Ru9  1  0.720401  0.001008  0.500440  1
  Ru  Ru10  1  0.720494  0.500013  0.998372  1
  Ru  Ru11  1  0.279599  0.001008  0.500440  1
  O  O12  1  0.251344  0.904384  0.289558  1
  O  O13  1  0.251142  0.093318  0.709602  1
  O  O14  1  0.748695  0.403651  0.210412  1
  O  O15  1  0.745227  0.600597  0.792267  1
  O  O16  1  0.748858  0.093318  0.709602  1
  O  O17  1  0.748656  0.904384  0.289558  1
  O  O18  1  0.254773  0.600597  0.792267  1
  O  O19  1  0.251305  0.403651  0.210412  1
  O  O20  1  0.500000  0.328669  0.926663  1
  O  O21  1  0.500000  0.670709  0.072670  1
  O  O22  1  0.500000  0.829004  0.572435  1
  O  O23  1  0.500000  0.172068  0.426596  1
  O  O24  1  0.267655  0.000698  0.000224  1
  O  O25  1  0.730786  0.500887  0.500098  1
  O  O26  1  0.732345  0.000698  0.000224  1
  O  O27  1  0.269214  0.500887  0.500098  1
  O  O28  1  0.000000  0.150105  0.448545  1
  O  O29  1  0.000000  0.847663  0.550762  1
  O  O30  1  0.000000  0.651935  0.051452  1
  O  O31  1  0.000000  0.350258  0.948145  1
