# generated using pymatgen
data_U(S8Cl)3
_symmetry_space_group_name_H-M   'P 1'
_cell_length_a   4.21690906
_cell_length_b   14.84066611
_cell_length_c   15.16515710
_cell_angle_alpha   119.81804922
_cell_angle_beta   95.05052941
_cell_angle_gamma   95.57421985
_symmetry_Int_Tables_number   1
_chemical_formula_structural   U(S8Cl)3
_chemical_formula_sum   'U1 S24 Cl3'
_cell_volume   809.24196152
_cell_formula_units_Z   1
loop_
 _symmetry_equiv_pos_site_id
 _symmetry_equiv_pos_as_xyz
  1  'x, y, z'
loop_
 _atom_site_type_symbol
 _atom_site_label
 _atom_site_symmetry_multiplicity
 _atom_site_fract_x
 _atom_site_fract_y
 _atom_site_fract_z
 _atom_site_occupancy
  U  U0  1  0.565625  0.000000  0.011516  1
  S  S1  1  0.384334  0.404733  0.996178  1
  S  S2  1  0.564199  0.736261  0.003782  1
  S  S3  1  0.256509  0.524017  0.126991  1
  S  S4  1  0.380441  0.755674  0.133487  1
  S  S5  1  0.576529  0.661161  0.179864  1
  S  S6  1  0.623152  0.375217  0.247116  1
  S  S7  1  0.826341  0.263523  0.267001  1
  S  S8  1  0.910182  0.519997  0.339340  1
  S  S9  1  0.123999  0.868983  0.392981  1
  S  S10  1  0.623937  0.244200  0.377527  1
  S  S11  1  0.388470  0.000195  0.405838  1
  S  S12  1  0.389009  0.814576  0.472288  1
  S  S13  1  0.725438  0.604121  0.474005  1
  S  S14  1  0.254124  0.131170  0.524075  1
  S  S15  1  0.915379  0.338624  0.518048  1
  S  S16  1  0.978804  0.595172  0.591011  1
  S  S17  1  0.249052  0.866917  0.614709  1
  S  S18  1  0.732481  0.475680  0.602608  1
  S  S19  1  0.573373  0.185761  0.657742  1
  S  S20  1  0.565684  0.000059  0.724055  1
  S  S21  1  0.381838  0.133209  0.747855  1
  S  S22  1  0.391197  0.479910  0.819672  1
  S  S23  1  0.249282  0.624826  0.872341  1
  S  S24  1  0.122089  0.395801  0.870298  1
  Cl  Cl25  1  0.107385  0.131375  0.010590  1
  Cl  Cl26  1  0.115326  0.000041  0.139586  1
  Cl  Cl27  1  0.978735  0.868798  0.879497  1
