# generated using pymatgen
data_CsRbZrTe3
_symmetry_space_group_name_H-M   'P 1'
_cell_length_a   14.91704600
_cell_length_b   7.00298100
_cell_length_c   10.10372727
_cell_angle_alpha   71.67522266
_cell_angle_beta   90.00000000
_cell_angle_gamma   90.00000000
_symmetry_Int_Tables_number   1
_chemical_formula_structural   CsRbZrTe3
_chemical_formula_sum   'Cs4 Rb4 Zr4 Te12'
_cell_volume   1001.95015549
_cell_formula_units_Z   4
loop_
 _symmetry_equiv_pos_site_id
 _symmetry_equiv_pos_as_xyz
  1  'x, y, z'
loop_
 _atom_site_type_symbol
 _atom_site_label
 _atom_site_symmetry_multiplicity
 _atom_site_fract_x
 _atom_site_fract_y
 _atom_site_fract_z
 _atom_site_occupancy
  Cs  Cs0  1  0.952522  0.675104  0.652478  1
  Cs  Cs1  1  0.452522  0.824896  0.347522  1
  Cs  Cs2  1  0.047478  0.324896  0.347522  1
  Cs  Cs3  1  0.547478  0.175104  0.652478  1
  Rb  Rb4  1  0.864226  0.078796  0.906307  1
  Rb  Rb5  1  0.364226  0.421204  0.093693  1
  Rb  Rb6  1  0.135774  0.921204  0.093693  1
  Rb  Rb7  1  0.635774  0.578796  0.906307  1
  Zr  Zr8  1  0.748389  0.674098  0.295275  1
  Zr  Zr9  1  0.248389  0.825902  0.704725  1
  Zr  Zr10  1  0.251611  0.325902  0.704725  1
  Zr  Zr11  1  0.751611  0.174098  0.295275  1
  Te  Te12  1  0.909024  0.907638  0.269570  1
  Te  Te13  1  0.409024  0.592362  0.730430  1
  Te  Te14  1  0.090976  0.092362  0.730430  1
  Te  Te15  1  0.590976  0.407638  0.269570  1
  Te  Te16  1  0.809665  0.296504  0.523399  1
  Te  Te17  1  0.309665  0.203496  0.476601  1
  Te  Te18  1  0.190335  0.703496  0.476601  1
  Te  Te19  1  0.690335  0.796504  0.523399  1
  Te  Te20  1  0.846523  0.491949  0.095215  1
  Te  Te21  1  0.346523  0.008051  0.904785  1
  Te  Te22  1  0.153477  0.508051  0.904785  1
  Te  Te23  1  0.653477  0.991949  0.095215  1
