# generated using pymatgen
data_ScPa2Zn11
_symmetry_space_group_name_H-M   'P 1'
_cell_length_a   4.35958317
_cell_length_b   8.01637320
_cell_length_c   8.01637416
_cell_angle_alpha   68.58924896
_cell_angle_beta   74.22160339
_cell_angle_gamma   74.22160280
_symmetry_Int_Tables_number   1
_chemical_formula_structural   ScPa2Zn11
_chemical_formula_sum   'Sc1 Pa2 Zn11'
_cell_volume   246.28975211
_cell_formula_units_Z   1
loop_
 _symmetry_equiv_pos_site_id
 _symmetry_equiv_pos_as_xyz
  1  'x, y, z'
loop_
 _atom_site_type_symbol
 _atom_site_label
 _atom_site_symmetry_multiplicity
 _atom_site_fract_x
 _atom_site_fract_y
 _atom_site_fract_z
 _atom_site_occupancy
  Sc  Sc0  1  0.000000  0.000000  0.000000  1
  Pa  Pa1  1  0.707480  0.292520  0.292520  1
  Pa  Pa2  1  0.292520  0.707480  0.707480  1
  Zn  Zn3  1  0.000000  0.500000  0.500000  1
  Zn  Zn4  1  0.500000  0.681528  0.318472  1
  Zn  Zn5  1  0.500000  0.318472  0.681528  1
  Zn  Zn6  1  0.654415  0.708869  0.982301  1
  Zn  Zn7  1  0.345585  0.291131  0.017699  1
  Zn  Zn8  1  0.654415  0.982301  0.708869  1
  Zn  Zn9  1  0.345585  0.017699  0.291131  1
  Zn  Zn10  1  0.861955  0.416693  0.859395  1
  Zn  Zn11  1  0.138045  0.583307  0.140605  1
  Zn  Zn12  1  0.861955  0.859395  0.416693  1
  Zn  Zn13  1  0.138045  0.140605  0.583307  1
