# generated using pymatgen
data_Tm3ZnNi2Ir
_symmetry_space_group_name_H-M   'P 1'
_cell_length_a   5.38837282
_cell_length_b   5.38837306
_cell_length_c   12.86121800
_cell_angle_alpha   90.00000000
_cell_angle_beta   90.00000000
_cell_angle_gamma   134.57187709
_symmetry_Int_Tables_number   1
_chemical_formula_structural   Tm3ZnNi2Ir
_chemical_formula_sum   'Tm6 Zn2 Ni4 Ir2'
_cell_volume   266.01331899
_cell_formula_units_Z   2
loop_
 _symmetry_equiv_pos_site_id
 _symmetry_equiv_pos_as_xyz
  1  'x, y, z'
loop_
 _atom_site_type_symbol
 _atom_site_label
 _atom_site_symmetry_multiplicity
 _atom_site_fract_x
 _atom_site_fract_y
 _atom_site_fract_z
 _atom_site_occupancy
  Tm  Tm0  1  0.293590  0.706410  0.395085  1
  Tm  Tm1  1  0.706410  0.293590  0.604915  1
  Tm  Tm2  1  0.989852  0.010148  0.750000  1
  Tm  Tm3  1  0.010148  0.989852  0.250000  1
  Tm  Tm4  1  0.706410  0.293590  0.895085  1
  Tm  Tm5  1  0.293590  0.706410  0.104915  1
  Zn  Zn6  1  0.000000  0.000000  0.500000  1
  Zn  Zn7  1  0.000000  0.000000  0.000000  1
  Ni  Ni8  1  0.421298  0.578702  0.913496  1
  Ni  Ni9  1  0.578702  0.421298  0.086504  1
  Ni  Ni10  1  0.578702  0.421298  0.413496  1
  Ni  Ni11  1  0.421298  0.578702  0.586504  1
  Ir  Ir12  1  0.722454  0.277546  0.250000  1
  Ir  Ir13  1  0.277546  0.722454  0.750000  1
