# generated using pymatgen
data_TbDyZr2(Al3Ir)6
_symmetry_space_group_name_H-M   'P 1'
_cell_length_a   7.52460401
_cell_length_b   7.50664263
_cell_length_c   9.36756200
_cell_angle_alpha   90.00000000
_cell_angle_beta   90.00000000
_cell_angle_gamma   119.73315712
_symmetry_Int_Tables_number   1
_chemical_formula_structural   TbDyZr2(Al3Ir)6
_chemical_formula_sum   'Tb1 Dy1 Zr2 Al18 Ir6'
_cell_volume   459.46041217
_cell_formula_units_Z   1
loop_
 _symmetry_equiv_pos_site_id
 _symmetry_equiv_pos_as_xyz
  1  'x, y, z'
loop_
 _atom_site_type_symbol
 _atom_site_label
 _atom_site_symmetry_multiplicity
 _atom_site_fract_x
 _atom_site_fract_y
 _atom_site_fract_z
 _atom_site_occupancy
  Tb  Tb0  1  0.329677  0.005600  0.750000  1
  Dy  Dy1  1  0.670373  0.994438  0.250000  1
  Zr  Zr2  1  0.995100  0.670682  0.250000  1
  Zr  Zr3  1  0.004884  0.329320  0.750000  1
  Al  Al4  1  0.126065  0.124065  0.250000  1
  Al  Al5  1  0.873811  0.875901  0.750000  1
  Al  Al6  1  0.000040  0.336971  0.074368  1
  Al  Al7  1  0.999851  0.662911  0.925687  1
  Al  Al8  1  0.999851  0.662911  0.574313  1
  Al  Al9  1  0.332010  0.998471  0.422435  1
  Al  Al10  1  0.000040  0.336971  0.425632  1
  Al  Al11  1  0.668099  0.001530  0.577415  1
  Al  Al12  1  0.668099  0.001530  0.922585  1
  Al  Al13  1  0.332010  0.998471  0.077565  1
  Al  Al14  1  0.331384  0.333728  0.555525  1
  Al  Al15  1  0.668604  0.666363  0.444408  1
  Al  Al16  1  0.668604  0.666363  0.055592  1
  Al  Al17  1  0.331384  0.333728  0.944475  1
  Al  Al18  1  0.334251  0.547598  0.250000  1
  Al  Al19  1  0.665857  0.452534  0.750000  1
  Al  Al20  1  0.553769  0.343918  0.250000  1
  Al  Al21  1  0.446256  0.656002  0.750000  1
  Ir  Ir22  1  0.672113  0.327800  0.999542  1
  Ir  Ir23  1  0.327962  0.672208  0.000554  1
  Ir  Ir24  1  0.327962  0.672208  0.499446  1
  Ir  Ir25  1  0.672113  0.327800  0.500458  1
  Ir  Ir26  1  0.999917  0.999989  0.000053  1
  Ir  Ir27  1  0.999917  0.999989  0.499947  1
