# generated using pymatgen
data_Lu5GaTcTe2
_symmetry_space_group_name_H-M   'P 1'
_cell_length_a   8.60414464
_cell_length_b   8.60414662
_cell_length_c   7.70198420
_cell_angle_alpha   88.90131281
_cell_angle_beta   88.90131515
_cell_angle_gamma   126.67234676
_symmetry_Int_Tables_number   1
_chemical_formula_structural   Lu5GaTcTe2
_chemical_formula_sum   'Lu10 Ga2 Tc2 Te4'
_cell_volume   456.90965709
_cell_formula_units_Z   2
loop_
 _symmetry_equiv_pos_site_id
 _symmetry_equiv_pos_as_xyz
  1  'x, y, z'
loop_
 _atom_site_type_symbol
 _atom_site_label
 _atom_site_symmetry_multiplicity
 _atom_site_fract_x
 _atom_site_fract_y
 _atom_site_fract_z
 _atom_site_occupancy
  Lu  Lu0  1  0.000000  0.000000  0.000000  1
  Lu  Lu1  1  0.500000  0.500000  0.500000  1
  Lu  Lu2  1  0.782497  0.536823  0.158462  1
  Lu  Lu3  1  0.463177  0.217503  0.841538  1
  Lu  Lu4  1  0.936836  0.697000  0.682427  1
  Lu  Lu5  1  0.303000  0.063164  0.317573  1
  Lu  Lu6  1  0.217503  0.463177  0.841538  1
  Lu  Lu7  1  0.536823  0.782497  0.158462  1
  Lu  Lu8  1  0.063164  0.303000  0.317573  1
  Lu  Lu9  1  0.697000  0.936836  0.682427  1
  Ga  Ga10  1  0.873097  0.873097  0.374280  1
  Ga  Ga11  1  0.126903  0.126903  0.625720  1
  Tc  Tc12  1  0.618097  0.618097  0.884207  1
  Tc  Tc13  1  0.381903  0.381903  0.115793  1
  Te  Te14  1  0.207696  0.792304  0.000000  1
  Te  Te15  1  0.712899  0.287101  0.500000  1
  Te  Te16  1  0.792304  0.207696  0.000000  1
  Te  Te17  1  0.287101  0.712899  0.500000  1
