# generated using pymatgen
data_Ca6NdEr(Si3Pd)4
_symmetry_space_group_name_H-M   'P 1'
_cell_length_a   8.26675000
_cell_length_b   8.26674956
_cell_length_c   8.34482400
_cell_angle_alpha   90.00000000
_cell_angle_beta   90.00000000
_cell_angle_gamma   120.00000176
_symmetry_Int_Tables_number   1
_chemical_formula_structural   Ca6NdEr(Si3Pd)4
_chemical_formula_sum   'Ca6 Nd1 Er1 Si12 Pd4'
_cell_volume   493.87539553
_cell_formula_units_Z   1
loop_
 _symmetry_equiv_pos_site_id
 _symmetry_equiv_pos_as_xyz
  1  'x, y, z'
loop_
 _atom_site_type_symbol
 _atom_site_label
 _atom_site_symmetry_multiplicity
 _atom_site_fract_x
 _atom_site_fract_y
 _atom_site_fract_z
 _atom_site_occupancy
  Ca  Ca0  1  0.500792  0.001586  0.250000  1
  Ca  Ca1  1  0.499068  0.998134  0.750000  1
  Ca  Ca2  1  0.998414  0.499208  0.250000  1
  Ca  Ca3  1  0.001866  0.500932  0.750000  1
  Ca  Ca4  1  0.500792  0.499208  0.250000  1
  Ca  Ca5  1  0.499068  0.500932  0.750000  1
  Nd  Nd6  1  0.000000  0.000000  0.250000  1
  Er  Er7  1  0.000000  0.000000  0.750000  1
  Si  Si8  1  0.164770  0.329539  0.996514  1
  Si  Si9  1  0.835223  0.670446  0.994536  1
  Si  Si10  1  0.670461  0.835230  0.996514  1
  Si  Si11  1  0.835223  0.670446  0.505464  1
  Si  Si12  1  0.329554  0.164777  0.994536  1
  Si  Si13  1  0.164770  0.329539  0.503486  1
  Si  Si14  1  0.164770  0.835230  0.996514  1
  Si  Si15  1  0.329554  0.164777  0.505464  1
  Si  Si16  1  0.835223  0.164777  0.994536  1
  Si  Si17  1  0.670461  0.835230  0.503486  1
  Si  Si18  1  0.835223  0.164777  0.505464  1
  Si  Si19  1  0.164770  0.835230  0.503486  1
  Pd  Pd20  1  0.333333  0.666667  0.000440  1
  Pd  Pd21  1  0.666667  0.333333  0.997966  1
  Pd  Pd22  1  0.666667  0.333333  0.502034  1
  Pd  Pd23  1  0.333333  0.666667  0.499560  1
