# generated using pymatgen
data_Yb2GaCu2Ru
_symmetry_space_group_name_H-M   'P 1'
_cell_length_a   5.37994956
_cell_length_b   5.19306535
_cell_length_c   5.19306515
_cell_angle_alpha   118.76706058
_cell_angle_beta   122.50474172
_cell_angle_gamma   87.90027531
_symmetry_Int_Tables_number   1
_chemical_formula_structural   Yb2GaCu2Ru
_chemical_formula_sum   'Yb2 Ga1 Cu2 Ru1'
_cell_volume   102.30787622
_cell_formula_units_Z   1
loop_
 _symmetry_equiv_pos_site_id
 _symmetry_equiv_pos_as_xyz
  1  'x, y, z'
loop_
 _atom_site_type_symbol
 _atom_site_label
 _atom_site_symmetry_multiplicity
 _atom_site_fract_x
 _atom_site_fract_y
 _atom_site_fract_z
 _atom_site_occupancy
  Yb  Yb0  1  0.115196  0.870534  0.244662  1
  Yb  Yb1  1  0.884804  0.129466  0.755338  1
  Ga  Ga2  1  0.500000  0.500000  0.000000  1
  Cu  Cu3  1  0.500000  0.000000  0.000000  1
  Cu  Cu4  1  0.500000  0.500000  0.500000  1
  Ru  Ru5  1  0.000000  0.500000  0.500000  1
