# generated using pymatgen
data_Tm4MnZn(Co2B)6
_symmetry_space_group_name_H-M   'P 1'
_cell_length_a   5.04916200
_cell_length_b   5.04916152
_cell_length_c   12.61729000
_cell_angle_alpha   90.00000000
_cell_angle_beta   90.00000000
_cell_angle_gamma   120.00000318
_symmetry_Int_Tables_number   1
_chemical_formula_structural   Tm4MnZn(Co2B)6
_chemical_formula_sum   'Tm4 Mn1 Zn1 Co12 B6'
_cell_volume   278.57059471
_cell_formula_units_Z   1
loop_
 _symmetry_equiv_pos_site_id
 _symmetry_equiv_pos_as_xyz
  1  'x, y, z'
loop_
 _atom_site_type_symbol
 _atom_site_label
 _atom_site_symmetry_multiplicity
 _atom_site_fract_x
 _atom_site_fract_y
 _atom_site_fract_z
 _atom_site_occupancy
  Tm  Tm0  1  0.000000  0.000000  0.000000  1
  Tm  Tm1  1  0.000000  0.000000  0.500000  1
  Tm  Tm2  1  0.000000  0.000000  0.739259  1
  Tm  Tm3  1  0.000000  0.000000  0.260741  1
  Mn  Mn4  1  0.666667  0.333333  0.000000  1
  Zn  Zn5  1  0.333333  0.666667  0.000000  1
  Co  Co6  1  0.500472  0.499528  0.840243  1
  Co  Co7  1  0.500472  0.000944  0.840243  1
  Co  Co8  1  0.999056  0.499528  0.840243  1
  Co  Co9  1  0.500472  0.499528  0.159757  1
  Co  Co10  1  0.500472  0.000944  0.159757  1
  Co  Co11  1  0.999056  0.499528  0.159757  1
  Co  Co12  1  0.500117  0.499883  0.614110  1
  Co  Co13  1  0.500117  0.000234  0.614110  1
  Co  Co14  1  0.999766  0.499883  0.614110  1
  Co  Co15  1  0.500117  0.499883  0.385890  1
  Co  Co16  1  0.500117  0.000234  0.385890  1
  Co  Co17  1  0.999766  0.499883  0.385890  1
  B  B18  1  0.666667  0.333333  0.500000  1
  B  B19  1  0.333333  0.666667  0.500000  1
  B  B20  1  0.666667  0.333333  0.730555  1
  B  B21  1  0.333333  0.666667  0.729990  1
  B  B22  1  0.333333  0.666667  0.270010  1
  B  B23  1  0.666667  0.333333  0.269445  1
