# generated using pymatgen
data_Hf4Al3OsN
_symmetry_space_group_name_H-M   'P 1'
_cell_length_a   7.94420500
_cell_length_b   7.94420582
_cell_length_c   5.39925600
_cell_angle_alpha   90.00000000
_cell_angle_beta   90.00000000
_cell_angle_gamma   120.00000075
_symmetry_Int_Tables_number   1
_chemical_formula_structural   Hf4Al3OsN
_chemical_formula_sum   'Hf8 Al6 Os2 N2'
_cell_volume   295.09746443
_cell_formula_units_Z   2
loop_
 _symmetry_equiv_pos_site_id
 _symmetry_equiv_pos_as_xyz
  1  'x, y, z'
loop_
 _atom_site_type_symbol
 _atom_site_label
 _atom_site_symmetry_multiplicity
 _atom_site_fract_x
 _atom_site_fract_y
 _atom_site_fract_z
 _atom_site_occupancy
  Hf  Hf0  1  0.228932  0.000000  0.253419  1
  Hf  Hf1  1  0.000000  0.228932  0.253419  1
  Hf  Hf2  1  0.771068  0.771068  0.253419  1
  Hf  Hf3  1  0.666667  0.333333  0.500000  1
  Hf  Hf4  1  0.333333  0.666667  0.500000  1
  Hf  Hf5  1  0.771068  0.000000  0.746581  1
  Hf  Hf6  1  0.000000  0.771068  0.746581  1
  Hf  Hf7  1  0.228932  0.228932  0.746581  1
  Al  Al8  1  0.588011  0.000000  0.225283  1
  Al  Al9  1  0.000000  0.588011  0.225283  1
  Al  Al10  1  0.411989  0.411989  0.225283  1
  Al  Al11  1  0.411989  0.000000  0.774717  1
  Al  Al12  1  0.000000  0.411989  0.774717  1
  Al  Al13  1  0.588011  0.588011  0.774717  1
  Os  Os14  1  0.666667  0.333333  0.000000  1
  Os  Os15  1  0.333333  0.666667  0.000000  1
  N  N16  1  0.000000  0.000000  0.000000  1
  N  N17  1  0.000000  0.000000  0.500000  1
