# generated using pymatgen
data_NdY2Cd(Ir2O7)2
_symmetry_space_group_name_H-M   'P 1'
_cell_length_a   7.22654656
_cell_length_b   7.25061527
_cell_length_c   7.22654758
_cell_angle_alpha   61.18971365
_cell_angle_beta   60.94674206
_cell_angle_gamma   61.18970938
_symmetry_Int_Tables_number   1
_chemical_formula_structural   NdY2Cd(Ir2O7)2
_chemical_formula_sum   'Nd1 Y2 Cd1 Ir4 O14'
_cell_volume   274.42360432
_cell_formula_units_Z   1
loop_
 _symmetry_equiv_pos_site_id
 _symmetry_equiv_pos_as_xyz
  1  'x, y, z'
loop_
 _atom_site_type_symbol
 _atom_site_label
 _atom_site_symmetry_multiplicity
 _atom_site_fract_x
 _atom_site_fract_y
 _atom_site_fract_z
 _atom_site_occupancy
  Nd  Nd0  1  0.125000  0.625000  0.125000  1
  Y  Y1  1  0.625000  0.125000  0.125000  1
  Y  Y2  1  0.125000  0.125000  0.625000  1
  Cd  Cd3  1  0.125000  0.125000  0.125000  1
  Ir  Ir4  1  0.125000  0.625000  0.625000  1
  Ir  Ir5  1  0.625000  0.125000  0.625000  1
  Ir  Ir6  1  0.625000  0.625000  0.125000  1
  Ir  Ir7  1  0.625000  0.625000  0.625000  1
  O  O8  1  0.704375  0.716237  0.291615  1
  O  O9  1  0.297463  0.296585  0.695562  1
  O  O10  1  0.710106  0.291515  0.710106  1
  O  O11  1  0.297690  0.702846  0.297690  1
  O  O12  1  0.291615  0.716237  0.704375  1
  O  O13  1  0.695562  0.296585  0.297463  1
  O  O14  1  0.545625  0.533763  0.958385  1
  O  O15  1  0.952537  0.953415  0.554438  1
  O  O16  1  0.539894  0.958485  0.539894  1
  O  O17  1  0.952310  0.547154  0.952310  1
  O  O18  1  0.958385  0.533763  0.545625  1
  O  O19  1  0.554438  0.953415  0.952537  1
  O  O20  1  0.254538  0.240289  0.254538  1
  O  O21  1  0.995462  0.009711  0.995462  1
