# generated using pymatgen
data_Ca2Tb9In9Au4
_symmetry_space_group_name_H-M   'P 1'
_cell_length_a   13.41807700
_cell_length_b   13.41997478
_cell_length_c   3.75892000
_cell_angle_alpha   90.00000000
_cell_angle_beta   90.00000000
_cell_angle_gamma   111.84499212
_symmetry_Int_Tables_number   1
_chemical_formula_structural   Ca2Tb9In9Au4
_chemical_formula_sum   'Ca2 Tb9 In9 Au4'
_cell_volume   628.26632423
_cell_formula_units_Z   1
loop_
 _symmetry_equiv_pos_site_id
 _symmetry_equiv_pos_as_xyz
  1  'x, y, z'
loop_
 _atom_site_type_symbol
 _atom_site_label
 _atom_site_symmetry_multiplicity
 _atom_site_fract_x
 _atom_site_fract_y
 _atom_site_fract_z
 _atom_site_occupancy
  Ca  Ca0  1  0.338700  0.661488  0.500000  1
  Ca  Ca1  1  0.661300  0.338512  0.500000  1
  Tb  Tb2  1  0.500000  0.500000  0.500000  1
  Tb  Tb3  1  0.806119  0.806174  0.500000  1
  Tb  Tb4  1  0.193881  0.193826  0.500000  1
  Tb  Tb5  1  0.566710  0.915648  0.500000  1
  Tb  Tb6  1  0.433290  0.084352  0.500000  1
  Tb  Tb7  1  0.915611  0.566712  0.500000  1
  Tb  Tb8  1  0.084389  0.433288  0.500000  1
  Tb  Tb9  1  0.132119  0.867974  0.500000  1
  Tb  Tb10  1  0.867881  0.132026  0.500000  1
  In  In11  1  0.343080  0.869897  0.000000  1
  In  In12  1  0.656920  0.130103  0.000000  1
  In  In13  1  0.869830  0.342969  0.000000  1
  In  In14  1  0.130170  0.657031  0.000000  1
  In  In15  1  0.571941  0.716053  0.000000  1
  In  In16  1  0.428059  0.283947  0.000000  1
  In  In17  1  0.716032  0.571997  0.000000  1
  In  In18  1  0.283968  0.428003  0.000000  1
  In  In19  1  0.000000  0.000000  0.000000  1
  Au  Au20  1  0.749058  0.949853  0.000000  1
  Au  Au21  1  0.250942  0.050147  0.000000  1
  Au  Au22  1  0.949816  0.749039  0.000000  1
  Au  Au23  1  0.050184  0.250961  0.000000  1
