# generated using pymatgen
data_Dy2TmV(Co4P3)2
_symmetry_space_group_name_H-M   'P 1'
_cell_length_a   3.68570100
_cell_length_b   10.54303800
_cell_length_c   12.21702100
_cell_angle_alpha   90.00000000
_cell_angle_beta   90.00000000
_cell_angle_gamma   90.00000000
_symmetry_Int_Tables_number   1
_chemical_formula_structural   Dy2TmV(Co4P3)2
_chemical_formula_sum   'Dy4 Tm2 V2 Co16 P12'
_cell_volume   474.73493582
_cell_formula_units_Z   2
loop_
 _symmetry_equiv_pos_site_id
 _symmetry_equiv_pos_as_xyz
  1  'x, y, z'
loop_
 _atom_site_type_symbol
 _atom_site_label
 _atom_site_symmetry_multiplicity
 _atom_site_fract_x
 _atom_site_fract_y
 _atom_site_fract_z
 _atom_site_occupancy
  Dy  Dy0  1  0.000000  0.500000  0.522890  1
  Dy  Dy1  1  0.500000  0.000000  0.476301  1
  Dy  Dy2  1  0.000000  0.681649  0.795688  1
  Dy  Dy3  1  0.000000  0.318351  0.795688  1
  Tm  Tm4  1  0.500000  0.818810  0.204172  1
  Tm  Tm5  1  0.500000  0.181190  0.204172  1
  V  V6  1  0.500000  0.500000  0.154408  1
  V  V7  1  0.000000  0.000000  0.846083  1
  Co  Co8  1  0.500000  0.500000  0.701929  1
  Co  Co9  1  0.000000  0.000000  0.297225  1
  Co  Co10  1  0.000000  0.500000  0.987864  1
  Co  Co11  1  0.500000  0.000000  0.013978  1
  Co  Co12  1  0.500000  0.332040  0.993962  1
  Co  Co13  1  0.500000  0.667960  0.993962  1
  Co  Co14  1  0.000000  0.167290  0.008085  1
  Co  Co15  1  0.000000  0.832710  0.008085  1
  Co  Co16  1  0.500000  0.295380  0.430182  1
  Co  Co17  1  0.500000  0.704620  0.430182  1
  Co  Co18  1  0.000000  0.204046  0.568124  1
  Co  Co19  1  0.000000  0.795954  0.568124  1
  Co  Co20  1  0.500000  0.878954  0.707574  1
  Co  Co21  1  0.500000  0.121046  0.707574  1
  Co  Co22  1  0.000000  0.621784  0.291787  1
  Co  Co23  1  0.000000  0.378216  0.291787  1
  P  P24  1  0.500000  0.500000  0.882800  1
  P  P25  1  0.000000  0.000000  0.118979  1
  P  P26  1  0.500000  0.500000  0.346985  1
  P  P27  1  0.000000  0.000000  0.652857  1
  P  P28  1  0.500000  0.310756  0.615346  1
  P  P29  1  0.500000  0.689244  0.615346  1
  P  P30  1  0.000000  0.188531  0.382726  1
  P  P31  1  0.000000  0.811469  0.382726  1
  P  P32  1  0.500000  0.846268  0.892381  1
  P  P33  1  0.500000  0.153732  0.892381  1
  P  P34  1  0.000000  0.654888  0.108823  1
  P  P35  1  0.000000  0.345112  0.108823  1
