# generated using pymatgen
data_Y5Zr2P12Ir17
_symmetry_space_group_name_H-M   'P 1'
_cell_length_a   12.90569541
_cell_length_b   12.90569550
_cell_length_c   3.99308700
_cell_angle_alpha   90.00000000
_cell_angle_beta   90.00000000
_cell_angle_gamma   121.20720390
_symmetry_Int_Tables_number   1
_chemical_formula_structural   Y5Zr2P12Ir17
_chemical_formula_sum   'Y5 Zr2 P12 Ir17'
_cell_volume   568.83933958
_cell_formula_units_Z   1
loop_
 _symmetry_equiv_pos_site_id
 _symmetry_equiv_pos_as_xyz
  1  'x, y, z'
loop_
 _atom_site_type_symbol
 _atom_site_label
 _atom_site_symmetry_multiplicity
 _atom_site_fract_x
 _atom_site_fract_y
 _atom_site_fract_z
 _atom_site_occupancy
  Y  Y0  1  0.331102  0.669793  0.000000  1
  Y  Y1  1  0.669793  0.331102  0.000000  1
  Y  Y2  1  0.816306  0.999726  0.500000  1
  Y  Y3  1  0.999726  0.816306  0.500000  1
  Y  Y4  1  0.187097  0.187097  0.500000  1
  Zr  Zr5  1  0.448946  0.002133  0.000000  1
  Zr  Zr6  1  0.002133  0.448946  0.000000  1
  P  P7  1  0.175144  0.001147  0.000000  1
  P  P8  1  0.001147  0.175144  0.000000  1
  P  P9  1  0.818549  0.818549  0.000000  1
  P  P10  1  0.171332  0.484976  0.500000  1
  P  P11  1  0.516136  0.690062  0.500000  1
  P  P12  1  0.315785  0.835174  0.500000  1
  P  P13  1  0.690062  0.516136  0.500000  1
  P  P14  1  0.835174  0.315785  0.500000  1
  P  P15  1  0.484976  0.171332  0.500000  1
  P  P16  1  0.644880  0.993824  0.000000  1
  P  P17  1  0.993824  0.644880  0.000000  1
  P  P18  1  0.355616  0.355616  0.000000  1
  Ir  Ir19  1  0.535041  0.535041  0.000000  1
  Ir  Ir20  1  0.360040  0.495271  0.500000  1
  Ir  Ir21  1  0.515552  0.871660  0.500000  1
  Ir  Ir22  1  0.140187  0.645008  0.500000  1
  Ir  Ir23  1  0.871660  0.515552  0.500000  1
  Ir  Ir24  1  0.645008  0.140187  0.500000  1
  Ir  Ir25  1  0.495271  0.360040  0.500000  1
  Ir  Ir26  1  0.184397  0.375694  0.000000  1
  Ir  Ir27  1  0.621827  0.796092  0.000000  1
  Ir  Ir28  1  0.187706  0.822065  0.000000  1
  Ir  Ir29  1  0.796092  0.621827  0.000000  1
  Ir  Ir30  1  0.822065  0.187706  0.000000  1
  Ir  Ir31  1  0.375694  0.184397  0.000000  1
  Ir  Ir32  1  0.280728  0.003138  0.500000  1
  Ir  Ir33  1  0.003138  0.280728  0.500000  1
  Ir  Ir34  1  0.711301  0.711301  0.500000  1
  Ir  Ir35  1  0.996562  0.996562  0.000000  1
