# generated using pymatgen
data_TbTm3(Al3Ir)6
_symmetry_space_group_name_H-M   'P 1'
_cell_length_a   7.53976316
_cell_length_b   7.54352230
_cell_length_c   9.45786000
_cell_angle_alpha   90.00000000
_cell_angle_beta   90.00000000
_cell_angle_gamma   119.50094314
_symmetry_Int_Tables_number   1
_chemical_formula_structural   TbTm3(Al3Ir)6
_chemical_formula_sum   'Tb1 Tm3 Al18 Ir6'
_cell_volume   468.18499915
_cell_formula_units_Z   1
loop_
 _symmetry_equiv_pos_site_id
 _symmetry_equiv_pos_as_xyz
  1  'x, y, z'
loop_
 _atom_site_type_symbol
 _atom_site_label
 _atom_site_symmetry_multiplicity
 _atom_site_fract_x
 _atom_site_fract_y
 _atom_site_fract_z
 _atom_site_occupancy
  Tb  Tb0  1  0.994757  0.670793  0.250000  1
  Tm  Tm1  1  0.005265  0.328884  0.750000  1
  Tm  Tm2  1  0.670966  0.994909  0.250000  1
  Tm  Tm3  1  0.328958  0.005402  0.750000  1
  Al  Al4  1  0.128876  0.129682  0.250000  1
  Al  Al5  1  0.871524  0.871745  0.750000  1
  Al  Al6  1  0.000615  0.333911  0.073230  1
  Al  Al7  1  0.999389  0.665084  0.924637  1
  Al  Al8  1  0.999389  0.665084  0.575363  1
  Al  Al9  1  0.335834  0.001531  0.426671  1
  Al  Al10  1  0.000615  0.333911  0.426770  1
  Al  Al11  1  0.665100  0.999401  0.574296  1
  Al  Al12  1  0.665100  0.999401  0.925704  1
  Al  Al13  1  0.335834  0.001531  0.073329  1
  Al  Al14  1  0.333237  0.333275  0.553173  1
  Al  Al15  1  0.665924  0.666802  0.448141  1
  Al  Al16  1  0.665924  0.666802  0.051859  1
  Al  Al17  1  0.333237  0.333275  0.946827  1
  Al  Al18  1  0.340311  0.548307  0.250000  1
  Al  Al19  1  0.660384  0.451296  0.750000  1
  Al  Al20  1  0.547119  0.338162  0.250000  1
  Al  Al21  1  0.451569  0.660703  0.750000  1
  Ir  Ir22  1  0.672008  0.327669  0.999732  1
  Ir  Ir23  1  0.327897  0.672126  0.999767  1
  Ir  Ir24  1  0.327897  0.672126  0.500233  1
  Ir  Ir25  1  0.672008  0.327669  0.500268  1
  Ir  Ir26  1  0.000132  0.000259  0.999703  1
  Ir  Ir27  1  0.000132  0.000259  0.500297  1
