# generated using pymatgen
data_Er4(Ga8Ni3)3
_symmetry_space_group_name_H-M   'P 1'
_cell_length_a   7.28627527
_cell_length_b   7.30842765
_cell_length_c   12.87936734
_cell_angle_alpha   84.72228683
_cell_angle_beta   100.76343809
_cell_angle_gamma   119.89556997
_symmetry_Int_Tables_number   1
_chemical_formula_structural   Er4(Ga8Ni3)3
_chemical_formula_sum   'Er4 Ga24 Ni9'
_cell_volume   584.11943726
_cell_formula_units_Z   1
loop_
 _symmetry_equiv_pos_site_id
 _symmetry_equiv_pos_as_xyz
  1  'x, y, z'
loop_
 _atom_site_type_symbol
 _atom_site_label
 _atom_site_symmetry_multiplicity
 _atom_site_fract_x
 _atom_site_fract_y
 _atom_site_fract_z
 _atom_site_occupancy
  Er  Er0  1  0.730048  0.998664  0.194428  1
  Er  Er1  1  0.269751  0.001282  0.805648  1
  Er  Er2  1  0.063947  0.667132  0.194486  1
  Er  Er3  1  0.936310  0.332939  0.805368  1
  Ga  Ga4  1  0.815322  0.876505  0.814692  1
  Ga  Ga5  1  0.184709  0.123783  0.185141  1
  Ga  Ga6  1  0.985096  0.666639  0.945827  1
  Ga  Ga7  1  0.014326  0.332726  0.054123  1
  Ga  Ga8  1  0.395503  0.666288  0.815132  1
  Ga  Ga9  1  0.604364  0.333742  0.184973  1
  Ga  Ga10  1  0.882852  0.665986  0.664771  1
  Ga  Ga11  1  0.117401  0.334276  0.335206  1
  Ga  Ga12  1  0.605083  0.456608  0.815261  1
  Ga  Ga13  1  0.394860  0.543211  0.184926  1
  Ga  Ga14  1  0.229609  0.338959  0.665828  1
  Ga  Ga15  1  0.770661  0.661273  0.334175  1
  Ga  Ga16  1  0.854119  0.333171  0.556994  1
  Ga  Ga17  1  0.186540  0.000425  0.556857  1
  Ga  Ga18  1  0.813363  0.999759  0.442973  1
  Ga  Ga19  1  0.351392  0.996720  0.053982  1
  Ga  Ga20  1  0.648962  0.003079  0.946240  1
  Ga  Ga21  1  0.556486  0.994521  0.664777  1
  Ga  Ga22  1  0.443697  0.005432  0.335257  1
  Ga  Ga23  1  0.518977  0.665165  0.558795  1
  Ga  Ga24  1  0.480851  0.334797  0.441286  1
  Ga  Ga25  1  0.685973  0.669990  0.048942  1
  Ga  Ga26  1  0.314069  0.330614  0.951011  1
  Ga  Ga27  1  0.146147  0.666867  0.442946  1
  Ni  Ni28  1  0.330481  0.668698  0.000175  1
  Ni  Ni29  1  0.548844  0.325839  0.638190  1
  Ni  Ni30  1  0.451554  0.673725  0.362070  1
  Ni  Ni31  1  0.887623  0.005885  0.637392  1
  Ni  Ni32  1  0.112221  0.994398  0.362359  1
  Ni  Ni33  1  0.668526  0.330969  0.999907  1
  Ni  Ni34  1  0.206934  0.666718  0.637613  1
  Ni  Ni35  1  0.793210  0.333385  0.362364  1
  Ni  Ni36  1  0.000188  0.999835  0.999885  1
