# generated using pymatgen
data_Tm4Al4CoPt3
_symmetry_space_group_name_H-M   'P 1'
_cell_length_a   4.34872300
_cell_length_b   6.72170873
_cell_length_c   7.73629668
_cell_angle_alpha   89.81703334
_cell_angle_beta   90.00000000
_cell_angle_gamma   90.00000000
_symmetry_Int_Tables_number   1
_chemical_formula_structural   Tm4Al4CoPt3
_chemical_formula_sum   'Tm4 Al4 Co1 Pt3'
_cell_volume   226.13736968
_cell_formula_units_Z   1
loop_
 _symmetry_equiv_pos_site_id
 _symmetry_equiv_pos_as_xyz
  1  'x, y, z'
loop_
 _atom_site_type_symbol
 _atom_site_label
 _atom_site_symmetry_multiplicity
 _atom_site_fract_x
 _atom_site_fract_y
 _atom_site_fract_z
 _atom_site_occupancy
  Tm  Tm0  1  0.250000  0.037705  0.671929  1
  Tm  Tm1  1  0.250000  0.530567  0.821970  1
  Tm  Tm2  1  0.750000  0.978854  0.322001  1
  Tm  Tm3  1  0.750000  0.465907  0.184345  1
  Al  Al4  1  0.250000  0.146980  0.067315  1
  Al  Al5  1  0.250000  0.629674  0.438560  1
  Al  Al6  1  0.750000  0.858223  0.939428  1
  Al  Al7  1  0.750000  0.352857  0.553693  1
  Co  Co8  1  0.250000  0.265923  0.378907  1
  Pt  Pt9  1  0.250000  0.769109  0.122535  1
  Pt  Pt10  1  0.750000  0.730974  0.621322  1
  Pt  Pt11  1  0.750000  0.233229  0.877994  1
