# generated using pymatgen
data_HgOs2F12
_symmetry_space_group_name_H-M   'P 1'
_cell_length_a   10.25319206
_cell_length_b   10.25319245
_cell_length_c   10.25319100
_cell_angle_alpha   131.14582255
_cell_angle_beta   131.14582445
_cell_angle_gamma   71.58149470
_symmetry_Int_Tables_number   1
_chemical_formula_structural   HgOs2F12
_chemical_formula_sum   'Hg2 Os4 F24'
_cell_volume   598.09098033
_cell_formula_units_Z   2
loop_
 _symmetry_equiv_pos_site_id
 _symmetry_equiv_pos_as_xyz
  1  'x, y, z'
loop_
 _atom_site_type_symbol
 _atom_site_label
 _atom_site_symmetry_multiplicity
 _atom_site_fract_x
 _atom_site_fract_y
 _atom_site_fract_z
 _atom_site_occupancy
  Hg  Hg0  1  0.750000  0.250000  0.500000  1
  Hg  Hg1  1  0.000000  0.000000  0.000000  1
  Os  Os2  1  0.786696  0.786696  0.000000  1
  Os  Os3  1  0.213304  0.213304  0.000000  1
  Os  Os4  1  0.963304  0.463304  0.500000  1
  Os  Os5  1  0.536696  0.036696  0.500000  1
  F  F6  1  0.862668  0.750011  0.195352  1
  F  F7  1  0.554658  0.667317  0.804648  1
  F  F8  1  0.417317  0.804658  0.304648  1
  F  F9  1  0.332683  0.137332  0.887342  1
  F  F10  1  0.249989  0.445342  0.112658  1
  F  F11  1  0.195342  0.499989  0.612658  1
  F  F12  1  0.663579  0.271798  0.684353  1
  F  F13  1  0.728202  0.412555  0.391780  1
  F  F14  1  0.020776  0.336421  0.608220  1
  F  F15  1  0.086421  0.270776  0.108220  1
  F  F16  1  0.162555  0.978202  0.891780  1
  F  F17  1  0.587445  0.979224  0.315647  1
  F  F18  1  0.729224  0.837445  0.815647  1
  F  F19  1  0.021798  0.913579  0.184353  1
  F  F20  1  0.318823  0.096710  0.338413  1
  F  F21  1  0.903290  0.241703  0.222112  1
  F  F22  1  0.019591  0.681177  0.777888  1
  F  F23  1  0.431177  0.269591  0.277888  1
  F  F24  1  0.991703  0.153290  0.722112  1
  F  F25  1  0.758297  0.980409  0.661587  1
  F  F26  1  0.730409  0.008297  0.161587  1
  F  F27  1  0.846710  0.568823  0.838413  1
  F  F28  1  0.500011  0.112668  0.695352  1
  F  F29  1  0.887332  0.582683  0.387342  1
