# generated using pymatgen
data_Tm9LuRuRh3
_symmetry_space_group_name_H-M   'P 1'
_cell_length_a   6.32383456
_cell_length_b   7.14908476
_cell_length_c   8.40864288
_cell_angle_alpha   96.69712223
_cell_angle_beta   112.33618910
_cell_angle_gamma   90.00999624
_symmetry_Int_Tables_number   1
_chemical_formula_structural   Tm9LuRuRh3
_chemical_formula_sum   'Tm9 Lu1 Ru1 Rh3'
_cell_volume   348.81958611
_cell_formula_units_Z   1
loop_
 _symmetry_equiv_pos_site_id
 _symmetry_equiv_pos_as_xyz
  1  'x, y, z'
loop_
 _atom_site_type_symbol
 _atom_site_label
 _atom_site_symmetry_multiplicity
 _atom_site_fract_x
 _atom_site_fract_y
 _atom_site_fract_z
 _atom_site_occupancy
  Tm  Tm0  1  0.525860  0.081404  0.816689  1
  Tm  Tm1  1  0.479651  0.917566  0.187666  1
  Tm  Tm2  1  0.711608  0.416699  0.188142  1
  Tm  Tm3  1  0.291139  0.583225  0.812892  1
  Tm  Tm4  1  0.287998  0.312079  0.436881  1
  Tm  Tm5  1  0.708237  0.686080  0.562747  1
  Tm  Tm6  1  0.854442  0.186075  0.560734  1
  Tm  Tm7  1  0.143884  0.815800  0.435216  1
  Tm  Tm8  1  0.076795  0.249481  0.000444  1
  Lu  Lu9  1  0.923945  0.751485  0.000819  1
  Ru  Ru10  1  0.893920  0.074383  0.216870  1
  Rh  Rh11  1  0.322469  0.574724  0.220882  1
  Rh  Rh12  1  0.678465  0.426632  0.779041  1
  Rh  Rh13  1  0.101587  0.924368  0.780977  1
