# generated using pymatgen
data_LiTb2(NdPt)6
_symmetry_space_group_name_H-M   'P 1'
_cell_length_a   7.73922283
_cell_length_b   7.73922225
_cell_length_c   7.73922326
_cell_angle_alpha   69.05261989
_cell_angle_beta   69.05262205
_cell_angle_gamma   69.05262280
_symmetry_Int_Tables_number   1
_chemical_formula_structural   LiTb2(NdPt)6
_chemical_formula_sum   'Li1 Tb2 Nd6 Pt6'
_cell_volume   390.02536490
_cell_formula_units_Z   1
loop_
 _symmetry_equiv_pos_site_id
 _symmetry_equiv_pos_as_xyz
  1  'x, y, z'
loop_
 _atom_site_type_symbol
 _atom_site_label
 _atom_site_symmetry_multiplicity
 _atom_site_fract_x
 _atom_site_fract_y
 _atom_site_fract_z
 _atom_site_occupancy
  Li  Li0  1  0.000000  0.000000  0.000000  1
  Tb  Tb1  1  0.818513  0.818513  0.818513  1
  Tb  Tb2  1  0.181487  0.181487  0.181487  1
  Nd  Nd3  1  0.321561  0.610419  0.860783  1
  Nd  Nd4  1  0.860783  0.321561  0.610419  1
  Nd  Nd5  1  0.610419  0.860783  0.321561  1
  Nd  Nd6  1  0.678439  0.389581  0.139217  1
  Nd  Nd7  1  0.139217  0.678439  0.389581  1
  Nd  Nd8  1  0.389581  0.139217  0.678439  1
  Pt  Pt9  1  0.177365  0.954337  0.572162  1
  Pt  Pt10  1  0.572162  0.177365  0.954337  1
  Pt  Pt11  1  0.954337  0.572162  0.177365  1
  Pt  Pt12  1  0.822635  0.045663  0.427838  1
  Pt  Pt13  1  0.427838  0.822635  0.045663  1
  Pt  Pt14  1  0.045663  0.427838  0.822635  1
