# generated using pymatgen
data_Pu11Se16
_symmetry_space_group_name_H-M   'P 1'
_cell_length_a   8.71952600
_cell_length_b   8.71952600
_cell_length_c   8.72928700
_cell_angle_alpha   90.00000000
_cell_angle_beta   90.00000000
_cell_angle_gamma   90.00000000
_symmetry_Int_Tables_number   1
_chemical_formula_structural   Pu11Se16
_chemical_formula_sum   'Pu11 Se16'
_cell_volume   663.68885741
_cell_formula_units_Z   1
loop_
 _symmetry_equiv_pos_site_id
 _symmetry_equiv_pos_as_xyz
  1  'x, y, z'
loop_
 _atom_site_type_symbol
 _atom_site_label
 _atom_site_symmetry_multiplicity
 _atom_site_fract_x
 _atom_site_fract_y
 _atom_site_fract_z
 _atom_site_occupancy
  Pu  Pu0  1  0.000000  0.000000  0.500000  1
  Pu  Pu1  1  0.253649  0.622979  0.364828  1
  Pu  Pu2  1  0.000000  0.500000  0.747699  1
  Pu  Pu3  1  0.377021  0.253649  0.635172  1
  Pu  Pu4  1  0.746351  0.377021  0.364828  1
  Pu  Pu5  1  0.130201  0.256127  0.121868  1
  Pu  Pu6  1  0.743873  0.130201  0.878132  1
  Pu  Pu7  1  0.500000  0.000000  0.252301  1
  Pu  Pu8  1  0.869799  0.743873  0.121868  1
  Pu  Pu9  1  0.256127  0.869799  0.878132  1
  Pu  Pu10  1  0.622979  0.746351  0.635172  1
  Se  Se11  1  0.578366  0.680921  0.311442  1
  Se  Se12  1  0.171894  0.577734  0.045117  1
  Se  Se13  1  0.929572  0.675755  0.447316  1
  Se  Se14  1  0.070428  0.324245  0.447316  1
  Se  Se15  1  0.421634  0.319079  0.311442  1
  Se  Se16  1  0.319079  0.578366  0.688558  1
  Se  Se17  1  0.828106  0.422266  0.045117  1
  Se  Se18  1  0.072998  0.174495  0.800737  1
  Se  Se19  1  0.680921  0.421634  0.688558  1
  Se  Se20  1  0.675755  0.070428  0.552684  1
  Se  Se21  1  0.422266  0.171894  0.954883  1
  Se  Se22  1  0.577734  0.828106  0.954883  1
  Se  Se23  1  0.927002  0.825505  0.800737  1
  Se  Se24  1  0.825505  0.072998  0.199263  1
  Se  Se25  1  0.324245  0.929572  0.552684  1
  Se  Se26  1  0.174495  0.927002  0.199263  1
