# generated using pymatgen
data_Cr2P4S13
_symmetry_space_group_name_H-M   'P 1'
_cell_length_a   9.56374666
_cell_length_b   9.85642868
_cell_length_c   12.04875010
_cell_angle_alpha   72.72169797
_cell_angle_beta   73.87195020
_cell_angle_gamma   70.37949752
_symmetry_Int_Tables_number   1
_chemical_formula_structural   Cr2P4S13
_chemical_formula_sum   'Cr4 P8 S26'
_cell_volume   1001.32858295
_cell_formula_units_Z   2
loop_
 _symmetry_equiv_pos_site_id
 _symmetry_equiv_pos_as_xyz
  1  'x, y, z'
loop_
 _atom_site_type_symbol
 _atom_site_label
 _atom_site_symmetry_multiplicity
 _atom_site_fract_x
 _atom_site_fract_y
 _atom_site_fract_z
 _atom_site_occupancy
  Cr  Cr0  1  0.598407  0.014398  0.603704  1
  Cr  Cr1  1  0.100176  0.513981  0.102494  1
  Cr  Cr2  1  0.401593  0.985602  0.396296  1
  Cr  Cr3  1  0.899824  0.486019  0.897506  1
  P  P4  1  0.241206  0.568933  0.270463  1
  P  P5  1  0.495187  0.253815  0.392238  1
  P  P6  1  0.758794  0.431067  0.729537  1
  P  P7  1  0.228587  0.934744  0.250027  1
  P  P8  1  0.129880  0.235825  0.025129  1
  P  P9  1  0.870120  0.764175  0.974871  1
  P  P10  1  0.504813  0.746185  0.607762  1
  P  P11  1  0.771413  0.065256  0.749973  1
  S  S12  1  0.146069  0.006091  0.088207  1
  S  S13  1  0.853931  0.993909  0.911793  1
  S  S14  1  0.881981  0.237068  0.660856  1
  S  S15  1  0.930370  0.371642  0.104577  1
  S  S16  1  0.504729  0.176343  0.253413  1
  S  S17  1  0.311880  0.793983  0.549167  1
  S  S18  1  0.454773  0.867395  0.231231  1
  S  S19  1  0.853494  0.919081  0.646338  1
  S  S20  1  0.495271  0.823657  0.746587  1
  S  S21  1  0.358128  0.145167  0.533183  1
  S  S22  1  0.097685  0.443749  0.316082  1
  S  S23  1  0.419517  0.488092  0.368495  1
  S  S24  1  0.118019  0.762932  0.339144  1
  S  S25  1  0.069630  0.628358  0.895423  1
  S  S26  1  0.545227  0.132605  0.768769  1
  S  S27  1  0.641872  0.854833  0.466817  1
  S  S28  1  0.691276  0.389765  0.906416  1
  S  S29  1  0.688120  0.206017  0.450833  1
  S  S30  1  0.705326  0.700278  0.949873  1
  S  S31  1  0.103042  0.270757  0.857651  1
  S  S32  1  0.902315  0.556251  0.683918  1
  S  S33  1  0.308724  0.610235  0.093584  1
  S  S34  1  0.896958  0.729243  0.142349  1
  S  S35  1  0.294674  0.299722  0.050127  1
  S  S36  1  0.580483  0.511908  0.631505  1
  S  S37  1  0.146506  0.080919  0.353662  1
