# generated using pymatgen
data_Ho13Lu3(ScBi3)4
_symmetry_space_group_name_H-M   'P 1'
_cell_length_a   8.08028462
_cell_length_b   9.36342653
_cell_length_c   11.90852771
_cell_angle_alpha   90.00243696
_cell_angle_beta   89.93853104
_cell_angle_gamma   89.96179486
_symmetry_Int_Tables_number   1
_chemical_formula_structural   Ho13Lu3(ScBi3)4
_chemical_formula_sum   'Ho13 Lu3 Sc4 Bi12'
_cell_volume   900.98837989
_cell_formula_units_Z   1
loop_
 _symmetry_equiv_pos_site_id
 _symmetry_equiv_pos_as_xyz
  1  'x, y, z'
loop_
 _atom_site_type_symbol
 _atom_site_label
 _atom_site_symmetry_multiplicity
 _atom_site_fract_x
 _atom_site_fract_y
 _atom_site_fract_z
 _atom_site_occupancy
  Ho  Ho0  1  0.354862  0.251082  0.284175  1
  Ho  Ho1  1  0.644202  0.749732  0.715537  1
  Ho  Ho2  1  0.145688  0.749793  0.783795  1
  Ho  Ho3  1  0.854722  0.251361  0.215779  1
  Ho  Ho4  1  0.184975  0.250455  0.780924  1
  Ho  Ho5  1  0.814813  0.749871  0.219320  1
  Ho  Ho6  1  0.314784  0.749441  0.281124  1
  Ho  Ho7  1  0.685224  0.250640  0.718995  1
  Ho  Ho8  1  0.194835  0.065287  0.058323  1
  Ho  Ho9  1  0.805649  0.934866  0.941711  1
  Ho  Ho10  1  0.305496  0.934781  0.558103  1
  Ho  Ho11  1  0.804502  0.564720  0.941512  1
  Ho  Ho12  1  0.694499  0.065319  0.441857  1
  Lu  Lu13  1  0.195650  0.432540  0.058224  1
  Lu  Lu14  1  0.696172  0.432584  0.441638  1
  Lu  Lu15  1  0.303643  0.567196  0.558333  1
  Sc  Sc16  1  0.023901  0.250203  0.512381  1
  Sc  Sc17  1  0.976271  0.750102  0.487451  1
  Sc  Sc18  1  0.474976  0.750770  0.012797  1
  Sc  Sc19  1  0.523460  0.250068  0.987566  1
  Bi  Bi20  1  0.401039  0.253443  0.542941  1
  Bi  Bi21  1  0.599105  0.746419  0.456910  1
  Bi  Bi22  1  0.099648  0.747210  0.043203  1
  Bi  Bi23  1  0.901845  0.250535  0.957488  1
  Bi  Bi24  1  0.065954  0.004320  0.330934  1
  Bi  Bi25  1  0.934229  0.996205  0.668965  1
  Bi  Bi26  1  0.434173  0.996228  0.830674  1
  Bi  Bi27  1  0.935210  0.504166  0.668702  1
  Bi  Bi28  1  0.565760  0.004341  0.169295  1
  Bi  Bi29  1  0.065314  0.495957  0.331365  1
  Bi  Bi30  1  0.565074  0.496157  0.169227  1
  Bi  Bi31  1  0.434326  0.504209  0.830751  1
