# generated using pymatgen
data_Sm3Mn8NiP6
_symmetry_space_group_name_H-M   'P 1'
_cell_length_a   3.70609300
_cell_length_b   10.90460600
_cell_length_c   12.74597700
_cell_angle_alpha   90.00000000
_cell_angle_beta   90.00000000
_cell_angle_gamma   90.00000000
_symmetry_Int_Tables_number   1
_chemical_formula_structural   Sm3Mn8NiP6
_chemical_formula_sum   'Sm6 Mn16 Ni2 P12'
_cell_volume   515.10933710
_cell_formula_units_Z   2
loop_
 _symmetry_equiv_pos_site_id
 _symmetry_equiv_pos_as_xyz
  1  'x, y, z'
loop_
 _atom_site_type_symbol
 _atom_site_label
 _atom_site_symmetry_multiplicity
 _atom_site_fract_x
 _atom_site_fract_y
 _atom_site_fract_z
 _atom_site_occupancy
  Sm  Sm0  1  0.000000  0.500000  0.530499  1
  Sm  Sm1  1  0.500000  0.000000  0.469501  1
  Sm  Sm2  1  0.500000  0.819943  0.205180  1
  Sm  Sm3  1  0.500000  0.180057  0.205180  1
  Sm  Sm4  1  0.000000  0.680057  0.794820  1
  Sm  Sm5  1  0.000000  0.319943  0.794820  1
  Mn  Mn6  1  0.500000  0.500000  0.167368  1
  Mn  Mn7  1  0.000000  0.000000  0.832632  1
  Mn  Mn8  1  0.000000  0.500000  0.992273  1
  Mn  Mn9  1  0.500000  0.000000  0.007727  1
  Mn  Mn10  1  0.500000  0.333164  0.998205  1
  Mn  Mn11  1  0.500000  0.666836  0.998205  1
  Mn  Mn12  1  0.000000  0.166836  0.001795  1
  Mn  Mn13  1  0.000000  0.833164  0.001795  1
  Mn  Mn14  1  0.500000  0.298296  0.432213  1
  Mn  Mn15  1  0.500000  0.701704  0.432213  1
  Mn  Mn16  1  0.000000  0.201704  0.567787  1
  Mn  Mn17  1  0.000000  0.798296  0.567787  1
  Mn  Mn18  1  0.500000  0.883041  0.702591  1
  Mn  Mn19  1  0.500000  0.116959  0.702591  1
  Mn  Mn20  1  0.000000  0.616959  0.297409  1
  Mn  Mn21  1  0.000000  0.383041  0.297409  1
  Ni  Ni22  1  0.500000  0.500000  0.705907  1
  Ni  Ni23  1  0.000000  0.000000  0.294093  1
  P  P24  1  0.500000  0.500000  0.883896  1
  P  P25  1  0.000000  0.000000  0.116104  1
  P  P26  1  0.500000  0.500000  0.357545  1
  P  P27  1  0.000000  0.000000  0.642455  1
  P  P28  1  0.500000  0.314213  0.617252  1
  P  P29  1  0.500000  0.685787  0.617252  1
  P  P30  1  0.000000  0.185787  0.382748  1
  P  P31  1  0.000000  0.814213  0.382748  1
  P  P32  1  0.500000  0.847371  0.886555  1
  P  P33  1  0.500000  0.152629  0.886555  1
  P  P34  1  0.000000  0.652629  0.113445  1
  P  P35  1  0.000000  0.347371  0.113445  1
