# generated using pymatgen
data_DyErMn8(CoP3)2
_symmetry_space_group_name_H-M   'P 1'
_cell_length_a   3.58891500
_cell_length_b   10.56747400
_cell_length_c   12.18609500
_cell_angle_alpha   90.00000000
_cell_angle_beta   90.00000000
_cell_angle_gamma   90.00000000
_symmetry_Int_Tables_number   1
_chemical_formula_structural   DyErMn8(CoP3)2
_chemical_formula_sum   'Dy2 Er2 Mn16 Co4 P12'
_cell_volume   462.16698682
_cell_formula_units_Z   2
loop_
 _symmetry_equiv_pos_site_id
 _symmetry_equiv_pos_as_xyz
  1  'x, y, z'
loop_
 _atom_site_type_symbol
 _atom_site_label
 _atom_site_symmetry_multiplicity
 _atom_site_fract_x
 _atom_site_fract_y
 _atom_site_fract_z
 _atom_site_occupancy
  Dy  Dy0  1  0.750000  0.415772  0.291922  1
  Dy  Dy1  1  0.750000  0.084228  0.791922  1
  Er  Er2  1  0.250000  0.584143  0.707990  1
  Er  Er3  1  0.250000  0.915857  0.207990  1
  Mn  Mn4  1  0.250000  0.712350  0.986937  1
  Mn  Mn5  1  0.250000  0.787650  0.486937  1
  Mn  Mn6  1  0.750000  0.287645  0.013292  1
  Mn  Mn7  1  0.750000  0.212355  0.513292  1
  Mn  Mn8  1  0.250000  0.407815  0.493191  1
  Mn  Mn9  1  0.250000  0.092185  0.993191  1
  Mn  Mn10  1  0.750000  0.592491  0.507549  1
  Mn  Mn11  1  0.750000  0.907509  0.007549  1
  Mn  Mn12  1  0.250000  0.216549  0.176184  1
  Mn  Mn13  1  0.250000  0.283451  0.676184  1
  Mn  Mn14  1  0.750000  0.782785  0.823671  1
  Mn  Mn15  1  0.750000  0.717215  0.323671  1
  Mn  Mn16  1  0.250000  0.877909  0.697248  1
  Mn  Mn17  1  0.250000  0.622091  0.197248  1
  Mn  Mn18  1  0.750000  0.121078  0.302557  1
  Mn  Mn19  1  0.750000  0.378922  0.802557  1
  Co  Co20  1  0.250000  0.464420  0.933777  1
  Co  Co21  1  0.250000  0.035580  0.433777  1
  Co  Co22  1  0.750000  0.536274  0.065747  1
  Co  Co23  1  0.750000  0.963726  0.565747  1
  P  P24  1  0.250000  0.420670  0.111674  1
  P  P25  1  0.250000  0.079330  0.611674  1
  P  P26  1  0.750000  0.579504  0.887450  1
  P  P27  1  0.750000  0.920496  0.387450  1
  P  P28  1  0.250000  0.266204  0.872283  1
  P  P29  1  0.250000  0.233796  0.372283  1
  P  P30  1  0.750000  0.734858  0.127991  1
  P  P31  1  0.750000  0.765142  0.627991  1
  P  P32  1  0.250000  0.592928  0.386062  1
  P  P33  1  0.250000  0.907072  0.886062  1
  P  P34  1  0.750000  0.408085  0.614474  1
  P  P35  1  0.750000  0.091915  0.114474  1
