# generated using pymatgen
data_Ac10P9
_symmetry_space_group_name_H-M   'P 1'
_cell_length_a   9.82310739
_cell_length_b   7.61132601
_cell_length_c   11.62191200
_cell_angle_alpha   77.34357230
_cell_angle_beta   114.99599338
_cell_angle_gamma   130.22313160
_symmetry_Int_Tables_number   1
_chemical_formula_structural   Ac10P9
_chemical_formula_sum   'Ac10 P9'
_cell_volume   599.50252195
_cell_formula_units_Z   1
loop_
 _symmetry_equiv_pos_site_id
 _symmetry_equiv_pos_as_xyz
  1  'x, y, z'
loop_
 _atom_site_type_symbol
 _atom_site_label
 _atom_site_symmetry_multiplicity
 _atom_site_fract_x
 _atom_site_fract_y
 _atom_site_fract_z
 _atom_site_occupancy
  Ac  Ac0  1  0.420857  0.517122  0.331527  1
  Ac  Ac1  1  0.028823  0.631468  0.039131  1
  Ac  Ac2  1  0.236903  0.325392  0.934695  1
  Ac  Ac3  1  0.824359  0.913557  0.141594  1
  Ac  Ac4  1  0.616491  0.703349  0.726480  1
  Ac  Ac5  1  0.225213  0.818297  0.433948  1
  Ac  Ac6  1  0.021778  0.118497  0.532256  1
  Ac  Ac7  1  0.623805  0.216487  0.232903  1
  Ac  Ac8  1  0.820924  0.422088  0.622869  1
  Ac  Ac9  1  0.407871  0.008515  0.830632  1
  P  P10  1  0.022063  0.863369  0.784647  1
  P  P11  1  0.426544  0.269076  0.586060  1
  P  P12  1  0.822997  0.667948  0.382194  1
  P  P13  1  0.420607  0.765900  0.079346  1
  P  P14  1  0.624415  0.969022  0.485783  1
  P  P15  1  0.021554  0.366180  0.279755  1
  P  P16  1  0.224310  0.568252  0.685946  1
  P  P17  1  0.622874  0.470834  0.980610  1
  P  P18  1  0.219089  0.065978  0.179580  1
