# generated using pymatgen
data_Ru(SCl6)2
_symmetry_space_group_name_H-M   'P 1'
_cell_length_a   8.34957220
_cell_length_b   8.34957278
_cell_length_c   8.34957282
_cell_angle_alpha   78.87523739
_cell_angle_beta   78.87523354
_cell_angle_gamma   78.87523468
_symmetry_Int_Tables_number   1
_chemical_formula_structural   Ru(SCl6)2
_chemical_formula_sum   'Ru1 S2 Cl12'
_cell_volume   553.04440609
_cell_formula_units_Z   1
loop_
 _symmetry_equiv_pos_site_id
 _symmetry_equiv_pos_as_xyz
  1  'x, y, z'
loop_
 _atom_site_type_symbol
 _atom_site_label
 _atom_site_symmetry_multiplicity
 _atom_site_fract_x
 _atom_site_fract_y
 _atom_site_fract_z
 _atom_site_occupancy
  Ru  Ru0  1  0.000000  0.000000  0.000000  1
  S  S1  1  0.208113  0.208113  0.208113  1
  S  S2  1  0.791887  0.791887  0.791887  1
  Cl  Cl3  1  0.835575  0.835575  0.538822  1
  Cl  Cl4  1  0.872361  0.184106  0.184106  1
  Cl  Cl5  1  0.184106  0.184106  0.872361  1
  Cl  Cl6  1  0.184106  0.872361  0.184106  1
  Cl  Cl7  1  0.815894  0.127639  0.815894  1
  Cl  Cl8  1  0.127639  0.815894  0.815894  1
  Cl  Cl9  1  0.815894  0.815894  0.127639  1
  Cl  Cl10  1  0.461178  0.164425  0.164425  1
  Cl  Cl11  1  0.164425  0.164425  0.461178  1
  Cl  Cl12  1  0.164425  0.461178  0.164425  1
  Cl  Cl13  1  0.835575  0.538822  0.835575  1
  Cl  Cl14  1  0.538822  0.835575  0.835575  1
