# generated using pymatgen
data_Tb3ErGa18RuRh5
_symmetry_space_group_name_H-M   'P 1'
_cell_length_a   7.56258385
_cell_length_b   7.56649621
_cell_length_c   9.56276218
_cell_angle_alpha   90.05371006
_cell_angle_beta   90.05402705
_cell_angle_gamma   119.83769204
_symmetry_Int_Tables_number   1
_chemical_formula_structural   Tb3ErGa18RuRh5
_chemical_formula_sum   'Tb3 Er1 Ga18 Ru1 Rh5'
_cell_volume   474.66392106
_cell_formula_units_Z   1
loop_
 _symmetry_equiv_pos_site_id
 _symmetry_equiv_pos_as_xyz
  1  'x, y, z'
loop_
 _atom_site_type_symbol
 _atom_site_label
 _atom_site_symmetry_multiplicity
 _atom_site_fract_x
 _atom_site_fract_y
 _atom_site_fract_z
 _atom_site_occupancy
  Tb  Tb0  1  0.996469  0.667619  0.249331  1
  Tb  Tb1  1  0.002143  0.332069  0.750352  1
  Tb  Tb2  1  0.667853  0.997889  0.249672  1
  Er  Er3  1  0.332483  0.003564  0.750676  1
  Ga  Ga4  1  0.125376  0.125753  0.250397  1
  Ga  Ga5  1  0.874838  0.874851  0.749629  1
  Ga  Ga6  1  0.999860  0.334078  0.079397  1
  Ga  Ga7  1  0.998378  0.665143  0.919981  1
  Ga  Ga8  1  0.999709  0.666540  0.580262  1
  Ga  Ga9  1  0.334158  0.000834  0.420585  1
  Ga  Ga10  1  0.001104  0.334375  0.420853  1
  Ga  Ga11  1  0.664880  0.998987  0.579575  1
  Ga  Ga12  1  0.665091  0.000230  0.920195  1
  Ga  Ga13  1  0.335573  0.002142  0.079168  1
  Ga  Ga14  1  0.333345  0.332857  0.564077  1
  Ga  Ga15  1  0.666595  0.666673  0.436590  1
  Ga  Ga16  1  0.666082  0.664581  0.063065  1
  Ga  Ga17  1  0.335414  0.333337  0.936265  1
  Ga  Ga18  1  0.338088  0.547151  0.250171  1
  Ga  Ga19  1  0.661606  0.451752  0.750652  1
  Ga  Ga20  1  0.547539  0.337874  0.249352  1
  Ga  Ga21  1  0.452809  0.662355  0.749823  1
  Ru  Ru22  1  0.671942  0.327759  0.999733  1
  Rh  Rh23  1  0.328366  0.671610  0.999820  1
  Rh  Rh24  1  0.328469  0.671533  0.500192  1
  Rh  Rh25  1  0.671500  0.328293  0.500164  1
  Rh  Rh26  1  0.000095  0.000154  0.999776  1
  Rh  Rh27  1  0.000233  0.999997  0.500248  1
