# generated using pymatgen
data_Yb3FeSi4Ir3
_symmetry_space_group_name_H-M   'P 1'
_cell_length_a   6.41074514
_cell_length_b   6.25960836
_cell_length_c   6.41074501
_cell_angle_alpha   108.99433755
_cell_angle_beta   109.94385296
_cell_angle_gamma   108.99435902
_symmetry_Int_Tables_number   1
_chemical_formula_structural   Yb3FeSi4Ir3
_chemical_formula_sum   'Yb3 Fe1 Si4 Ir3'
_cell_volume   199.18858341
_cell_formula_units_Z   1
loop_
 _symmetry_equiv_pos_site_id
 _symmetry_equiv_pos_as_xyz
  1  'x, y, z'
loop_
 _atom_site_type_symbol
 _atom_site_label
 _atom_site_symmetry_multiplicity
 _atom_site_fract_x
 _atom_site_fract_y
 _atom_site_fract_z
 _atom_site_occupancy
  Yb  Yb0  1  0.487959  0.978401  0.487959  1
  Yb  Yb1  1  0.512041  0.490442  0.000000  1
  Yb  Yb2  1  0.000000  0.490442  0.512041  1
  Fe  Fe3  1  0.000000  0.745401  0.000000  1
  Si  Si4  1  0.000000  0.390638  0.000000  1
  Si  Si5  1  0.641947  0.629257  0.641947  1
  Si  Si6  1  0.000000  0.987310  0.358053  1
  Si  Si7  1  0.358053  0.987310  0.000000  1
  Ir  Ir8  1  0.000000  0.007919  0.722959  1
  Ir  Ir9  1  0.277041  0.284960  0.277041  1
  Ir  Ir10  1  0.722959  0.007919  0.000000  1
