# generated using pymatgen
data_YIn6IrBr12
_symmetry_space_group_name_H-M   'P 1'
_cell_length_a   9.21608218
_cell_length_b   9.21608255
_cell_length_c   9.21608216
_cell_angle_alpha   104.88649395
_cell_angle_beta   104.88649629
_cell_angle_gamma   104.88650444
_symmetry_Int_Tables_number   1
_chemical_formula_structural   YIn6IrBr12
_chemical_formula_sum   'Y1 In6 Ir1 Br12'
_cell_volume   686.03214404
_cell_formula_units_Z   1
loop_
 _symmetry_equiv_pos_site_id
 _symmetry_equiv_pos_as_xyz
  1  'x, y, z'
loop_
 _atom_site_type_symbol
 _atom_site_label
 _atom_site_symmetry_multiplicity
 _atom_site_fract_x
 _atom_site_fract_y
 _atom_site_fract_z
 _atom_site_occupancy
  Y  Y0  1  0.500000  0.500000  0.500000  1
  In  In1  1  0.046589  0.062957  0.309280  1
  In  In2  1  0.309280  0.046589  0.062957  1
  In  In3  1  0.062957  0.309280  0.046589  1
  In  In4  1  0.953411  0.937043  0.690720  1
  In  In5  1  0.690720  0.953411  0.937043  1
  In  In6  1  0.937043  0.690720  0.953411  1
  Ir  Ir7  1  0.000000  0.000000  0.000000  1
  Br  Br8  1  0.982625  0.558993  0.193124  1
  Br  Br9  1  0.193124  0.982625  0.558993  1
  Br  Br10  1  0.558993  0.193124  0.982625  1
  Br  Br11  1  0.017375  0.441007  0.806876  1
  Br  Br12  1  0.806876  0.017375  0.441007  1
  Br  Br13  1  0.441007  0.806876  0.017375  1
  Br  Br14  1  0.492194  0.183067  0.386190  1
  Br  Br15  1  0.386190  0.492194  0.183067  1
  Br  Br16  1  0.183067  0.386190  0.492194  1
  Br  Br17  1  0.507806  0.816933  0.613810  1
  Br  Br18  1  0.613810  0.507806  0.816933  1
  Br  Br19  1  0.816933  0.613810  0.507806  1
