# generated using pymatgen
data_Tb5Dy3Re3B24Os
_symmetry_space_group_name_H-M   'P 1'
_cell_length_a   3.68852400
_cell_length_b   9.19020946
_cell_length_c   11.58038500
_cell_angle_alpha   90.07729816
_cell_angle_beta   90.00000000
_cell_angle_gamma   90.00000000
_symmetry_Int_Tables_number   1
_chemical_formula_structural   Tb5Dy3Re3B24Os
_chemical_formula_sum   'Tb5 Dy3 Re3 B24 Os1'
_cell_volume   392.55510210
_cell_formula_units_Z   1
loop_
 _symmetry_equiv_pos_site_id
 _symmetry_equiv_pos_as_xyz
  1  'x, y, z'
loop_
 _atom_site_type_symbol
 _atom_site_label
 _atom_site_symmetry_multiplicity
 _atom_site_fract_x
 _atom_site_fract_y
 _atom_site_fract_z
 _atom_site_occupancy
  Tb  Tb0  1  0.000000  0.322299  0.414192  1
  Tb  Tb1  1  0.000000  0.677018  0.587647  1
  Tb  Tb2  1  0.000000  0.824702  0.084446  1
  Tb  Tb3  1  0.000000  0.176474  0.913566  1
  Tb  Tb4  1  0.000000  0.942568  0.369866  1
  Dy  Dy5  1  0.000000  0.056649  0.629763  1
  Dy  Dy6  1  0.000000  0.442712  0.129976  1
  Dy  Dy7  1  0.000000  0.556946  0.870692  1
  Re  Re8  1  0.000000  0.362109  0.678267  1
  Re  Re9  1  0.000000  0.138796  0.179484  1
  Re  Re10  1  0.000000  0.861503  0.820830  1
  B  B11  1  0.500000  0.553864  0.432514  1
  B  B12  1  0.500000  0.446795  0.567185  1
  B  B13  1  0.500000  0.053381  0.067047  1
  B  B14  1  0.500000  0.946718  0.932617  1
  B  B15  1  0.500000  0.747943  0.418112  1
  B  B16  1  0.500000  0.251000  0.581535  1
  B  B17  1  0.500000  0.248965  0.081569  1
  B  B18  1  0.500000  0.751550  0.918462  1
  B  B19  1  0.500000  0.790340  0.265771  1
  B  B20  1  0.500000  0.208420  0.734024  1
  B  B21  1  0.500000  0.291588  0.234429  1
  B  B22  1  0.500000  0.708267  0.766123  1
  B  B23  1  0.500000  0.631261  0.186153  1
  B  B24  1  0.500000  0.369266  0.813694  1
  B  B25  1  0.500000  0.131433  0.314319  1
  B  B26  1  0.500000  0.868711  0.686025  1
  B  B27  1  0.500000  0.983349  0.211694  1
  B  B28  1  0.500000  0.016983  0.787699  1
  B  B29  1  0.500000  0.483867  0.288045  1
  B  B30  1  0.500000  0.517469  0.712106  1
  B  B31  1  0.500000  0.601795  0.028844  1
  B  B32  1  0.500000  0.398428  0.971907  1
  B  B33  1  0.500000  0.101325  0.471697  1
  B  B34  1  0.500000  0.897617  0.528596  1
  Os  Os35  1  0.000000  0.637889  0.321099  1
