# generated using pymatgen
data_Ca3NdAl8
_symmetry_space_group_name_H-M   'P 1'
_cell_length_a   9.73584973
_cell_length_b   9.73584925
_cell_length_c   9.73584827
_cell_angle_alpha   33.92639319
_cell_angle_beta   33.92639943
_cell_angle_gamma   33.92639636
_symmetry_Int_Tables_number   1
_chemical_formula_structural   Ca3NdAl8
_chemical_formula_sum   'Ca3 Nd1 Al8'
_cell_volume   256.21001427
_cell_formula_units_Z   1
loop_
 _symmetry_equiv_pos_site_id
 _symmetry_equiv_pos_as_xyz
  1  'x, y, z'
loop_
 _atom_site_type_symbol
 _atom_site_label
 _atom_site_symmetry_multiplicity
 _atom_site_fract_x
 _atom_site_fract_y
 _atom_site_fract_z
 _atom_site_occupancy
  Ca  Ca0  1  0.624154  0.624154  0.624154  1
  Ca  Ca1  1  0.999727  0.999727  0.999727  1
  Ca  Ca2  1  0.501096  0.501096  0.501096  1
  Nd  Nd3  1  0.125617  0.125617  0.125617  1
  Al  Al4  1  0.561764  0.561764  0.065033  1
  Al  Al5  1  0.063409  0.063409  0.558940  1
  Al  Al6  1  0.561764  0.065033  0.561764  1
  Al  Al7  1  0.063409  0.558940  0.063409  1
  Al  Al8  1  0.812878  0.812878  0.812878  1
  Al  Al9  1  0.312210  0.312210  0.312210  1
  Al  Al10  1  0.065033  0.561764  0.561764  1
  Al  Al11  1  0.558940  0.063409  0.063409  1
