# generated using pymatgen
data_TbDyCo2Hg
_symmetry_space_group_name_H-M   'P 1'
_cell_length_a   7.18202465
_cell_length_b   7.18202558
_cell_length_c   3.86418600
_cell_angle_alpha   90.00000000
_cell_angle_beta   90.00000000
_cell_angle_gamma   149.37858089
_symmetry_Int_Tables_number   1
_chemical_formula_structural   TbDyCo2Hg
_chemical_formula_sum   'Tb1 Dy1 Co2 Hg1'
_cell_volume   101.52649382
_cell_formula_units_Z   1
loop_
 _symmetry_equiv_pos_site_id
 _symmetry_equiv_pos_as_xyz
  1  'x, y, z'
loop_
 _atom_site_type_symbol
 _atom_site_label
 _atom_site_symmetry_multiplicity
 _atom_site_fract_x
 _atom_site_fract_y
 _atom_site_fract_z
 _atom_site_occupancy
  Tb  Tb0  1  0.362940  0.637060  0.500000  1
  Dy  Dy1  1  0.637556  0.362444  0.500000  1
  Co  Co2  1  0.792889  0.207111  0.000000  1
  Co  Co3  1  0.206241  0.793759  0.000000  1
  Hg  Hg4  1  0.000375  0.999625  0.000000  1
