# generated using pymatgen
data_BaSb28
_symmetry_space_group_name_H-M   'P 1'
_cell_length_a   8.56768325
_cell_length_b   11.93268747
_cell_length_c   11.82669500
_cell_angle_alpha   120.74404658
_cell_angle_beta   96.10808477
_cell_angle_gamma   96.57885345
_symmetry_Int_Tables_number   1
_chemical_formula_structural   BaSb28
_chemical_formula_sum   'Ba1 Sb28'
_cell_volume   1012.88206965
_cell_formula_units_Z   1
loop_
 _symmetry_equiv_pos_site_id
 _symmetry_equiv_pos_as_xyz
  1  'x, y, z'
loop_
 _atom_site_type_symbol
 _atom_site_label
 _atom_site_symmetry_multiplicity
 _atom_site_fract_x
 _atom_site_fract_y
 _atom_site_fract_z
 _atom_site_occupancy
  Ba  Ba0  1  0.500000  0.000000  0.000000  1
  Sb  Sb1  1  0.074525  0.051401  0.397289  1
  Sb  Sb2  1  0.596413  0.062800  0.376742  1
  Sb  Sb3  1  0.300059  0.349440  0.860624  1
  Sb  Sb4  1  0.764210  0.304857  0.846305  1
  Sb  Sb5  1  0.130383  0.712842  0.765833  1
  Sb  Sb6  1  0.689624  0.478474  0.644413  1
  Sb  Sb7  1  0.403587  0.937200  0.623258  1
  Sb  Sb8  1  0.925475  0.948599  0.602711  1
  Sb  Sb9  1  0.235790  0.695143  0.153695  1
  Sb  Sb10  1  0.699941  0.650560  0.139376  1
  Sb  Sb11  1  0.310376  0.521526  0.355587  1
  Sb  Sb12  1  0.869617  0.287158  0.234167  1
  Sb  Sb13  1  0.719748  0.039807  0.792901  1
  Sb  Sb14  1  0.179286  0.084716  0.843811  1
  Sb  Sb15  1  0.926173  0.663290  0.972921  1
  Sb  Sb16  1  0.437531  0.648233  0.958119  1
  Sb  Sb17  1  0.581257  0.297251  0.352172  1
  Sb  Sb18  1  0.132831  0.310937  0.430717  1
  Sb  Sb19  1  0.820714  0.915284  0.156189  1
  Sb  Sb20  1  0.280252  0.960193  0.207099  1
  Sb  Sb21  1  0.562469  0.351767  0.041881  1
  Sb  Sb22  1  0.073827  0.336710  0.027079  1
  Sb  Sb23  1  0.867169  0.689063  0.569283  1
  Sb  Sb24  1  0.418743  0.702749  0.647828  1
  Sb  Sb25  1  0.022628  0.436643  0.684388  1
  Sb  Sb26  1  0.479660  0.249843  0.619596  1
  Sb  Sb27  1  0.520340  0.750157  0.380404  1
  Sb  Sb28  1  0.977372  0.563357  0.315612  1
