# generated using pymatgen
data_Y8ReOsBr8
_symmetry_space_group_name_H-M   'P 1'
_cell_length_a   9.00148557
_cell_length_b   9.00148423
_cell_length_c   6.59422300
_cell_angle_alpha   89.51281410
_cell_angle_beta   89.51281284
_cell_angle_gamma   89.36660670
_symmetry_Int_Tables_number   1
_chemical_formula_structural   Y8ReOsBr8
_chemical_formula_sum   'Y8 Re1 Os1 Br8'
_cell_volume   534.23747428
_cell_formula_units_Z   1
loop_
 _symmetry_equiv_pos_site_id
 _symmetry_equiv_pos_as_xyz
  1  'x, y, z'
loop_
 _atom_site_type_symbol
 _atom_site_label
 _atom_site_symmetry_multiplicity
 _atom_site_fract_x
 _atom_site_fract_y
 _atom_site_fract_z
 _atom_site_occupancy
  Y  Y0  1  0.750269  0.099518  0.989496  1
  Y  Y1  1  0.099168  0.751019  0.488426  1
  Y  Y2  1  0.097422  0.248053  0.992180  1
  Y  Y3  1  0.248027  0.097439  0.490979  1
  Y  Y4  1  0.902561  0.751973  0.009021  1
  Y  Y5  1  0.900482  0.249731  0.510504  1
  Y  Y6  1  0.248981  0.900832  0.011574  1
  Y  Y7  1  0.751947  0.902578  0.507820  1
  Re  Re8  1  0.994985  0.005015  0.250000  1
  Os  Os9  1  0.005156  0.994844  0.750000  1
  Br  Br10  1  0.580812  0.182901  0.591635  1
  Br  Br11  1  0.810370  0.584995  0.406554  1
  Br  Br12  1  0.415005  0.189630  0.093446  1
  Br  Br13  1  0.189611  0.414483  0.593738  1
  Br  Br14  1  0.585517  0.810389  0.906262  1
  Br  Br15  1  0.419577  0.816988  0.409037  1
  Br  Br16  1  0.183012  0.580423  0.090963  1
  Br  Br17  1  0.817099  0.419188  0.908365  1
