# generated using pymatgen
data_Lu12ZnIn(CoSi)2
_symmetry_space_group_name_H-M   'P 1'
_cell_length_a   8.24328457
_cell_length_b   8.24306451
_cell_length_c   8.24328477
_cell_angle_alpha   113.48414813
_cell_angle_beta   110.88792285
_cell_angle_gamma   104.18069537
_symmetry_Int_Tables_number   1
_chemical_formula_structural   Lu12ZnIn(CoSi)2
_chemical_formula_sum   'Lu12 Zn1 In1 Co2 Si2'
_cell_volume   428.21632821
_cell_formula_units_Z   1
loop_
 _symmetry_equiv_pos_site_id
 _symmetry_equiv_pos_as_xyz
  1  'x, y, z'
loop_
 _atom_site_type_symbol
 _atom_site_label
 _atom_site_symmetry_multiplicity
 _atom_site_fract_x
 _atom_site_fract_y
 _atom_site_fract_z
 _atom_site_occupancy
  Lu  Lu0  1  0.433414  0.236824  0.196571  1
  Lu  Lu1  1  0.566586  0.763176  0.803429  1
  Lu  Lu2  1  0.040252  0.236824  0.803410  1
  Lu  Lu3  1  0.959748  0.763176  0.196590  1
  Lu  Lu4  1  0.183855  0.285520  0.469376  1
  Lu  Lu5  1  0.816145  0.714480  0.530624  1
  Lu  Lu6  1  0.183856  0.714480  0.898335  1
  Lu  Lu7  1  0.816144  0.285520  0.101665  1
  Lu  Lu8  1  0.305190  0.615586  0.310394  1
  Lu  Lu9  1  0.694810  0.384414  0.689606  1
  Lu  Lu10  1  0.305212  0.994818  0.689607  1
  Lu  Lu11  1  0.694788  0.005182  0.310393  1
  Zn  Zn12  1  0.000000  0.000000  0.000000  1
  In  In13  1  0.500000  0.500000  0.000000  1
  Co  Co14  1  0.110053  0.610066  0.500013  1
  Co  Co15  1  0.889947  0.389934  0.499987  1
  Si  Si16  1  0.358700  0.000000  0.358700  1
  Si  Si17  1  0.641300  0.000000  0.641300  1
