# generated using pymatgen
data_NaLi3HoNi9As7
_symmetry_space_group_name_H-M   'P 1'
_cell_length_a   9.45052100
_cell_length_b   9.45052148
_cell_length_c   3.87607600
_cell_angle_alpha   90.00000000
_cell_angle_beta   90.00000000
_cell_angle_gamma   120.00000224
_symmetry_Int_Tables_number   1
_chemical_formula_structural   NaLi3HoNi9As7
_chemical_formula_sum   'Na1 Li3 Ho1 Ni9 As7'
_cell_volume   299.80193462
_cell_formula_units_Z   1
loop_
 _symmetry_equiv_pos_site_id
 _symmetry_equiv_pos_as_xyz
  1  'x, y, z'
loop_
 _atom_site_type_symbol
 _atom_site_label
 _atom_site_symmetry_multiplicity
 _atom_site_fract_x
 _atom_site_fract_y
 _atom_site_fract_z
 _atom_site_occupancy
  Na  Na0  1  0.666667  0.333333  0.500000  1
  Li  Li1  1  0.210426  0.102826  0.500000  1
  Li  Li2  1  0.897174  0.107600  0.500000  1
  Li  Li3  1  0.892400  0.789574  0.500000  1
  Ho  Ho4  1  0.333333  0.666667  0.000000  1
  Ni  Ni5  1  0.121292  0.289162  0.000000  1
  Ni  Ni6  1  0.710838  0.832130  0.000000  1
  Ni  Ni7  1  0.167870  0.878708  0.000000  1
  Ni  Ni8  1  0.428073  0.380358  0.000000  1
  Ni  Ni9  1  0.619642  0.047716  0.000000  1
  Ni  Ni10  1  0.952284  0.571927  0.000000  1
  Ni  Ni11  1  0.046011  0.434926  0.500000  1
  Ni  Ni12  1  0.565074  0.611084  0.500000  1
  Ni  Ni13  1  0.388916  0.953989  0.500000  1
  As  As14  1  0.287490  0.407344  0.500000  1
  As  As15  1  0.592656  0.880145  0.500000  1
  As  As16  1  0.119855  0.712510  0.500000  1
  As  As17  1  0.416955  0.120207  0.000000  1
  As  As18  1  0.879793  0.296747  0.000000  1
  As  As19  1  0.703253  0.583045  0.000000  1
  As  As20  1  0.000000  0.000000  0.000000  1
