# generated using pymatgen
data_Y3Ho(SiAu2)8
_symmetry_space_group_name_H-M   'P 1'
_cell_length_a   4.41209500
_cell_length_b   4.41188100
_cell_length_c   27.00217000
_cell_angle_alpha   90.00000000
_cell_angle_beta   90.00000000
_cell_angle_gamma   90.00000000
_symmetry_Int_Tables_number   1
_chemical_formula_structural   Y3Ho(SiAu2)8
_chemical_formula_sum   'Y3 Ho1 Si8 Au16'
_cell_volume   525.61446915
_cell_formula_units_Z   1
loop_
 _symmetry_equiv_pos_site_id
 _symmetry_equiv_pos_as_xyz
  1  'x, y, z'
loop_
 _atom_site_type_symbol
 _atom_site_label
 _atom_site_symmetry_multiplicity
 _atom_site_fract_x
 _atom_site_fract_y
 _atom_site_fract_z
 _atom_site_occupancy
  Y  Y0  1  0.500000  0.000000  0.250638  1
  Y  Y1  1  0.500000  0.500000  0.000002  1
  Y  Y2  1  0.500000  0.500000  0.499995  1
  Ho  Ho3  1  0.000000  0.500000  0.749357  1
  Si  Si4  1  0.000000  0.000000  0.956766  1
  Si  Si5  1  0.000000  0.000000  0.456913  1
  Si  Si6  1  0.500000  0.000000  0.792606  1
  Si  Si7  1  0.500000  0.000000  0.706157  1
  Si  Si8  1  0.000000  0.500000  0.207311  1
  Si  Si9  1  0.000000  0.500000  0.293930  1
  Si  Si10  1  0.000000  0.000000  0.043238  1
  Si  Si11  1  0.000000  0.000000  0.543081  1
  Au  Au12  1  0.500000  0.000000  0.086138  1
  Au  Au13  1  0.500000  0.500000  0.663160  1
  Au  Au14  1  0.500000  0.500000  0.835729  1
  Au  Au15  1  0.000000  0.500000  0.085502  1
  Au  Au16  1  0.500000  0.000000  0.914477  1
  Au  Au17  1  0.000000  0.000000  0.664373  1
  Au  Au18  1  0.000000  0.500000  0.415048  1
  Au  Au19  1  0.500000  0.500000  0.337002  1
  Au  Au20  1  0.500000  0.000000  0.414395  1
  Au  Au21  1  0.000000  0.000000  0.335789  1
  Au  Au22  1  0.000000  0.000000  0.165248  1
  Au  Au23  1  0.500000  0.000000  0.584972  1
  Au  Au24  1  0.000000  0.000000  0.834590  1
  Au  Au25  1  0.500000  0.500000  0.164116  1
  Au  Au26  1  0.000000  0.500000  0.585597  1
  Au  Au27  1  0.000000  0.500000  0.913868  1
