# generated using pymatgen
data_SrMnSb12OsRu2
_symmetry_space_group_name_H-M   'P 1'
_cell_length_a   8.18756491
_cell_length_b   8.17375728
_cell_length_c   8.18438603
_cell_angle_alpha   109.41044099
_cell_angle_beta   109.50875468
_cell_angle_gamma   109.44568282
_symmetry_Int_Tables_number   1
_chemical_formula_structural   SrMnSb12OsRu2
_chemical_formula_sum   'Sr1 Mn1 Sb12 Os1 Ru2'
_cell_volume   421.89235417
_cell_formula_units_Z   1
loop_
 _symmetry_equiv_pos_site_id
 _symmetry_equiv_pos_as_xyz
  1  'x, y, z'
loop_
 _atom_site_type_symbol
 _atom_site_label
 _atom_site_symmetry_multiplicity
 _atom_site_fract_x
 _atom_site_fract_y
 _atom_site_fract_z
 _atom_site_occupancy
  Sr  Sr0  1  0.000000  0.000000  0.000000  1
  Mn  Mn1  1  0.000000  0.500000  0.000000  1
  Sb  Sb2  1  0.659928  0.840975  0.502252  1
  Sb  Sb3  1  0.340072  0.159025  0.497748  1
  Sb  Sb4  1  0.841149  0.181125  0.339094  1
  Sb  Sb5  1  0.813106  0.659394  0.158623  1
  Sb  Sb6  1  0.840452  0.500958  0.654248  1
  Sb  Sb7  1  0.186894  0.340606  0.841377  1
  Sb  Sb8  1  0.158851  0.818875  0.660906  1
  Sb  Sb9  1  0.502072  0.660954  0.841347  1
  Sb  Sb10  1  0.497928  0.339046  0.158653  1
  Sb  Sb11  1  0.159548  0.499042  0.345752  1
  Sb  Sb12  1  0.345981  0.846720  0.186388  1
  Sb  Sb13  1  0.654019  0.153280  0.813612  1
  Os  Os14  1  0.000000  0.000000  0.500000  1
  Ru  Ru15  1  0.500000  0.500000  0.500000  1
  Ru  Ru16  1  0.500000  0.000000  0.000000  1
