# generated using pymatgen
data_Y2SiPd14
_symmetry_space_group_name_H-M   'P 1'
_cell_length_a   8.92457900
_cell_length_b   8.92457900
_cell_length_c   7.11054800
_cell_angle_alpha   90.00000000
_cell_angle_beta   90.00000000
_cell_angle_gamma   90.00000000
_symmetry_Int_Tables_number   1
_chemical_formula_structural   Y2SiPd14
_chemical_formula_sum   'Y4 Si2 Pd28'
_cell_volume   566.34171159
_cell_formula_units_Z   2
loop_
 _symmetry_equiv_pos_site_id
 _symmetry_equiv_pos_as_xyz
  1  'x, y, z'
loop_
 _atom_site_type_symbol
 _atom_site_label
 _atom_site_symmetry_multiplicity
 _atom_site_fract_x
 _atom_site_fract_y
 _atom_site_fract_z
 _atom_site_occupancy
  Y  Y0  1  0.250000  0.250000  0.064882  1
  Y  Y1  1  0.750000  0.250000  0.499999  1
  Y  Y2  1  0.250000  0.750000  0.499999  1
  Y  Y3  1  0.750000  0.750000  0.935118  1
  Si  Si4  1  0.750000  0.750000  0.449231  1
  Si  Si5  1  0.250000  0.250000  0.550768  1
  Pd  Pd6  1  0.000000  0.000000  0.000000  1
  Pd  Pd7  1  0.500000  0.000000  0.000000  1
  Pd  Pd8  1  0.000000  0.500000  0.000000  1
  Pd  Pd9  1  0.500000  0.500000  0.000000  1
  Pd  Pd10  1  0.598949  0.250000  0.146359  1
  Pd  Pd11  1  0.901051  0.250000  0.146359  1
  Pd  Pd12  1  0.250000  0.598949  0.146359  1
  Pd  Pd13  1  0.250000  0.901051  0.146359  1
  Pd  Pd14  1  0.750000  0.520425  0.256867  1
  Pd  Pd15  1  0.520425  0.750000  0.256867  1
  Pd  Pd16  1  0.979575  0.750000  0.256867  1
  Pd  Pd17  1  0.750000  0.979575  0.256867  1
  Pd  Pd18  1  0.084346  0.084346  0.383536  1
  Pd  Pd19  1  0.415655  0.084346  0.383536  1
  Pd  Pd20  1  0.084346  0.415655  0.383536  1
  Pd  Pd21  1  0.415655  0.415655  0.383536  1
  Pd  Pd22  1  0.584346  0.584346  0.616465  1
  Pd  Pd23  1  0.915654  0.584346  0.616465  1
  Pd  Pd24  1  0.584346  0.915654  0.616465  1
  Pd  Pd25  1  0.915654  0.915654  0.616465  1
  Pd  Pd26  1  0.250000  0.020425  0.743134  1
  Pd  Pd27  1  0.020425  0.250000  0.743134  1
  Pd  Pd28  1  0.479575  0.250000  0.743134  1
  Pd  Pd29  1  0.250000  0.479575  0.743134  1
  Pd  Pd30  1  0.750000  0.098948  0.853640  1
  Pd  Pd31  1  0.750000  0.401052  0.853640  1
  Pd  Pd32  1  0.098948  0.750000  0.853640  1
  Pd  Pd33  1  0.401052  0.750000  0.853640  1
