# generated using pymatgen
data_Pr8Ag(IrO8)3
_symmetry_space_group_name_H-M   'P 1'
_cell_length_a   5.49966495
_cell_length_b   9.50387959
_cell_length_c   10.25547040
_cell_angle_alpha   90.05533738
_cell_angle_beta   89.99797080
_cell_angle_gamma   90.35257404
_symmetry_Int_Tables_number   1
_chemical_formula_structural   Pr8Ag(IrO8)3
_chemical_formula_sum   'Pr8 Ag1 Ir3 O24'
_cell_volume   536.02410159
_cell_formula_units_Z   1
loop_
 _symmetry_equiv_pos_site_id
 _symmetry_equiv_pos_as_xyz
  1  'x, y, z'
loop_
 _atom_site_type_symbol
 _atom_site_label
 _atom_site_symmetry_multiplicity
 _atom_site_fract_x
 _atom_site_fract_y
 _atom_site_fract_z
 _atom_site_occupancy
  Pr  Pr0  1  0.036234  0.219615  0.133369  1
  Pr  Pr1  1  0.465517  0.777627  0.637427  1
  Pr  Pr2  1  0.964334  0.718474  0.370607  1
  Pr  Pr3  1  0.533241  0.286900  0.861847  1
  Pr  Pr4  1  0.029351  0.108471  0.541550  1
  Pr  Pr5  1  0.472672  0.899219  0.037448  1
  Pr  Pr6  1  0.973837  0.599648  0.956062  1
  Pr  Pr7  1  0.521684  0.400012  0.465406  1
  Ag  Ag8  1  0.043450  0.494783  0.638430  1
  Ir  Ir9  1  0.546178  0.001794  0.358110  1
  Ir  Ir10  1  0.955759  0.997293  0.859466  1
  Ir  Ir11  1  0.455031  0.505153  0.143360  1
  O  O12  1  0.439216  0.147688  0.476677  1
  O  O13  1  0.062416  0.850968  0.980004  1
  O  O14  1  0.561266  0.650035  0.021754  1
  O  O15  1  0.930840  0.346516  0.505040  1
  O  O16  1  0.722579  0.390760  0.069396  1
  O  O17  1  0.764731  0.613493  0.559047  1
  O  O18  1  0.281756  0.888320  0.434142  1
  O  O19  1  0.223526  0.110970  0.937240  1
  O  O20  1  0.250403  0.411429  0.008368  1
  O  O21  1  0.257498  0.594718  0.500752  1
  O  O22  1  0.754655  0.914203  0.493770  1
  O  O23  1  0.750190  0.088544  0.995849  1
  O  O24  1  0.187201  0.629481  0.180983  1
  O  O25  1  0.315940  0.350779  0.672732  1
  O  O26  1  0.816760  0.127680  0.319886  1
  O  O27  1  0.684601  0.868487  0.824188  1
  O  O28  1  0.339425  0.057601  0.216511  1
  O  O29  1  0.161383  0.944682  0.718631  1
  O  O30  1  0.656347  0.563993  0.282313  1
  O  O31  1  0.830685  0.441306  0.793017  1
  O  O32  1  0.329794  0.360807  0.256882  1
  O  O33  1  0.187942  0.641743  0.762629  1
  O  O34  1  0.672411  0.860462  0.242415  1
  O  O35  1  0.821146  0.136343  0.744695  1
