# generated using pymatgen
data_Sc4Tc3Os5
_symmetry_space_group_name_H-M   'P 1'
_cell_length_a   5.17859426
_cell_length_b   5.17576304
_cell_length_c   8.73342200
_cell_angle_alpha   90.00000000
_cell_angle_beta   90.00000000
_cell_angle_gamma   119.98192762
_symmetry_Int_Tables_number   1
_chemical_formula_structural   Sc4Tc3Os5
_chemical_formula_sum   'Sc4 Tc3 Os5'
_cell_volume   202.75912494
_cell_formula_units_Z   1
loop_
 _symmetry_equiv_pos_site_id
 _symmetry_equiv_pos_as_xyz
  1  'x, y, z'
loop_
 _atom_site_type_symbol
 _atom_site_label
 _atom_site_symmetry_multiplicity
 _atom_site_fract_x
 _atom_site_fract_y
 _atom_site_fract_z
 _atom_site_occupancy
  Sc  Sc0  1  0.334143  0.667072  0.433863  1
  Sc  Sc1  1  0.666772  0.333386  0.565682  1
  Sc  Sc2  1  0.666772  0.333386  0.934318  1
  Sc  Sc3  1  0.334143  0.667072  0.066137  1
  Tc  Tc4  1  0.169728  0.342828  0.750000  1
  Tc  Tc5  1  0.169728  0.826898  0.750000  1
  Tc  Tc6  1  0.341818  0.170909  0.250000  1
  Os  Os7  1  0.825311  0.654245  0.250000  1
  Os  Os8  1  0.653635  0.826817  0.750000  1
  Os  Os9  1  0.006321  0.003160  0.000873  1
  Os  Os10  1  0.825311  0.171066  0.250000  1
  Os  Os11  1  0.006321  0.003160  0.499127  1
