# generated using pymatgen
data_Dy2ZnIrRu
_symmetry_space_group_name_H-M   'P 1'
_cell_length_a   5.46774367
_cell_length_b   5.46774324
_cell_length_c   5.46774321
_cell_angle_alpha   135.23111303
_cell_angle_beta   115.26229262
_cell_angle_gamma   82.14214204
_symmetry_Int_Tables_number   1
_chemical_formula_structural   Dy2ZnIrRu
_chemical_formula_sum   'Dy2 Zn1 Ir1 Ru1'
_cell_volume   100.50010822
_cell_formula_units_Z   1
loop_
 _symmetry_equiv_pos_site_id
 _symmetry_equiv_pos_as_xyz
  1  'x, y, z'
loop_
 _atom_site_type_symbol
 _atom_site_label
 _atom_site_symmetry_multiplicity
 _atom_site_fract_x
 _atom_site_fract_y
 _atom_site_fract_z
 _atom_site_occupancy
  Dy  Dy0  1  0.706324  0.206760  0.499563  1
  Dy  Dy1  1  0.292803  0.793241  0.499564  1
  Zn  Zn2  1  0.003397  0.000000  0.003397  1
  Ir  Ir3  1  0.722662  0.499999  0.222662  1
  Ru  Ru4  1  0.274813  0.500001  0.774814  1
