# generated using pymatgen
data_Nd5ThZn4Pt13
_symmetry_space_group_name_H-M   'P 1'
_cell_length_a   8.40375593
_cell_length_b   8.40375588
_cell_length_c   8.40375623
_cell_angle_alpha   109.59707634
_cell_angle_beta   109.59707491
_cell_angle_gamma   109.21980310
_symmetry_Int_Tables_number   1
_chemical_formula_structural   Nd5ThZn4Pt13
_chemical_formula_sum   'Nd5 Th1 Zn4 Pt13'
_cell_volume   456.86947689
_cell_formula_units_Z   1
loop_
 _symmetry_equiv_pos_site_id
 _symmetry_equiv_pos_as_xyz
  1  'x, y, z'
loop_
 _atom_site_type_symbol
 _atom_site_label
 _atom_site_symmetry_multiplicity
 _atom_site_fract_x
 _atom_site_fract_y
 _atom_site_fract_z
 _atom_site_occupancy
  Nd  Nd0  1  0.303022  0.000656  0.302367  1
  Nd  Nd1  1  0.000656  0.303022  0.302367  1
  Nd  Nd2  1  0.296532  0.296532  0.000000  1
  Nd  Nd3  1  0.698289  0.000656  0.697633  1
  Nd  Nd4  1  0.000656  0.698289  0.697633  1
  Th  Th5  1  0.694948  0.694948  0.000000  1
  Zn  Zn6  1  0.001487  0.001487  0.502160  1
  Zn  Zn7  1  0.001487  0.499327  0.000000  1
  Zn  Zn8  1  0.499327  0.001487  0.000000  1
  Zn  Zn9  1  0.499327  0.499327  0.497840  1
  Pt  Pt10  1  0.331608  0.331608  0.662868  1
  Pt  Pt11  1  0.674779  0.000060  0.325281  1
  Pt  Pt12  1  0.000060  0.674779  0.325281  1
  Pt  Pt13  1  0.668739  0.331608  0.000000  1
  Pt  Pt14  1  0.328057  0.656780  0.328724  1
  Pt  Pt15  1  0.999333  0.328057  0.671276  1
  Pt  Pt16  1  0.331608  0.668739  0.000000  1
  Pt  Pt17  1  0.328057  0.999333  0.671276  1
  Pt  Pt18  1  0.656780  0.328057  0.328724  1
  Pt  Pt19  1  0.668739  0.668739  0.337132  1
  Pt  Pt20  1  0.674779  0.349500  0.674719  1
  Pt  Pt21  1  0.349500  0.674779  0.674719  1
  Pt  Pt22  1  0.992231  0.992231  0.000000  1
