# generated using pymatgen
data_Yb6IrRu
_symmetry_space_group_name_H-M   'P 1'
_cell_length_a   6.11696600
_cell_length_b   7.81301000
_cell_length_c   9.05317000
_cell_angle_alpha   90.00000000
_cell_angle_beta   90.00000000
_cell_angle_gamma   90.00000000
_symmetry_Int_Tables_number   1
_chemical_formula_structural   Yb6IrRu
_chemical_formula_sum   'Yb12 Ir2 Ru2'
_cell_volume   432.66834495
_cell_formula_units_Z   2
loop_
 _symmetry_equiv_pos_site_id
 _symmetry_equiv_pos_as_xyz
  1  'x, y, z'
loop_
 _atom_site_type_symbol
 _atom_site_label
 _atom_site_symmetry_multiplicity
 _atom_site_fract_x
 _atom_site_fract_y
 _atom_site_fract_z
 _atom_site_occupancy
  Yb  Yb0  1  0.354225  0.665744  0.066550  1
  Yb  Yb1  1  0.145775  0.165744  0.433450  1
  Yb  Yb2  1  0.646466  0.333939  0.562522  1
  Yb  Yb3  1  0.853534  0.833939  0.937478  1
  Yb  Yb4  1  0.646466  0.333939  0.937478  1
  Yb  Yb5  1  0.853534  0.833939  0.562522  1
  Yb  Yb6  1  0.354225  0.665744  0.433450  1
  Yb  Yb7  1  0.145775  0.165744  0.066550  1
  Yb  Yb8  1  0.882850  0.533623  0.250000  1
  Yb  Yb9  1  0.617150  0.033623  0.250000  1
  Yb  Yb10  1  0.123631  0.466322  0.750000  1
  Yb  Yb11  1  0.376369  0.966322  0.750000  1
  Ir  Ir12  1  0.945797  0.129558  0.750000  1
  Ir  Ir13  1  0.554203  0.629558  0.750000  1
  Ru  Ru14  1  0.052759  0.871133  0.250000  1
  Ru  Ru15  1  0.447241  0.371133  0.250000  1
