# generated using pymatgen
data_Hf2ScCo8TcP6
_symmetry_space_group_name_H-M   'P 1'
_cell_length_a   11.88439943
_cell_length_b   11.92877665
_cell_length_c   3.63441500
_cell_angle_alpha   90.00000000
_cell_angle_beta   90.00000000
_cell_angle_gamma   120.12360663
_symmetry_Int_Tables_number   1
_chemical_formula_structural   Hf2ScCo8TcP6
_chemical_formula_sum   'Hf4 Sc2 Co16 Tc2 P12'
_cell_volume   445.65215841
_cell_formula_units_Z   2
loop_
 _symmetry_equiv_pos_site_id
 _symmetry_equiv_pos_as_xyz
  1  'x, y, z'
loop_
 _atom_site_type_symbol
 _atom_site_label
 _atom_site_symmetry_multiplicity
 _atom_site_fract_x
 _atom_site_fract_y
 _atom_site_fract_z
 _atom_site_occupancy
  Hf  Hf0  1  0.820824  0.818796  0.500000  1
  Hf  Hf1  1  0.000000  0.174968  0.500000  1
  Hf  Hf2  1  0.000000  0.556785  0.000000  1
  Hf  Hf3  1  0.179176  0.997973  0.500000  1
  Sc  Sc4  1  0.334466  0.667257  0.000000  1
  Sc  Sc5  1  0.665534  0.332790  0.000000  1
  Co  Co6  1  0.627331  0.823421  0.000000  1
  Co  Co7  1  0.372669  0.196089  0.000000  1
  Co  Co8  1  0.000000  0.721664  0.500000  1
  Co  Co9  1  0.281365  0.280800  0.500000  1
  Co  Co10  1  0.871804  0.349681  0.500000  1
  Co  Co11  1  0.718635  0.999433  0.500000  1
  Co  Co12  1  0.817628  0.629009  0.000000  1
  Co  Co13  1  0.182372  0.811380  0.000000  1
  Co  Co14  1  0.357676  0.877385  0.500000  1
  Co  Co15  1  0.128196  0.477877  0.500000  1
  Co  Co16  1  0.642324  0.519709  0.500000  1
  Co  Co17  1  0.000000  0.000086  0.000000  1
  Co  Co18  1  0.516587  0.647223  0.500000  1
  Co  Co19  1  0.483413  0.130637  0.500000  1
  Co  Co20  1  0.194761  0.367890  0.000000  1
  Co  Co21  1  0.805239  0.173130  0.000000  1
  Tc  Tc22  1  0.446758  0.448528  0.000000  1
  Tc  Tc23  1  0.553242  0.001770  0.000000  1
  P  P24  1  0.000000  0.346076  0.000000  1
  P  P25  1  0.824044  0.514839  0.500000  1
  P  P26  1  0.683917  0.165825  0.500000  1
  P  P27  1  0.176454  0.173597  0.000000  1
  P  P28  1  0.639763  0.644590  0.000000  1
  P  P29  1  0.823546  0.997143  0.000000  1
  P  P30  1  0.516988  0.834063  0.500000  1
  P  P31  1  0.175956  0.690793  0.500000  1
  P  P32  1  0.360237  0.004828  0.000000  1
  P  P33  1  0.483012  0.317075  0.500000  1
  P  P34  1  0.000000  0.824982  0.000000  1
  P  P35  1  0.316083  0.481906  0.500000  1
