# generated using pymatgen
data_Lu2ReSi14Ir5
_symmetry_space_group_name_H-M   'P 1'
_cell_length_a   7.98575319
_cell_length_b   7.98575407
_cell_length_c   8.06583691
_cell_angle_alpha   56.84434286
_cell_angle_beta   56.84433890
_cell_angle_gamma   57.03755982
_symmetry_Int_Tables_number   1
_chemical_formula_structural   Lu2ReSi14Ir5
_chemical_formula_sum   'Lu2 Re1 Si14 Ir5'
_cell_volume   337.77985100
_cell_formula_units_Z   1
loop_
 _symmetry_equiv_pos_site_id
 _symmetry_equiv_pos_as_xyz
  1  'x, y, z'
loop_
 _atom_site_type_symbol
 _atom_site_label
 _atom_site_symmetry_multiplicity
 _atom_site_fract_x
 _atom_site_fract_y
 _atom_site_fract_z
 _atom_site_occupancy
  Lu  Lu0  1  0.001040  0.004060  0.995950  1
  Lu  Lu1  1  0.495940  0.498960  0.504050  1
  Re  Re2  1  0.078980  0.421020  0.750000  1
  Si  Si3  1  0.753148  0.746852  0.750000  1
  Si  Si4  1  0.249338  0.250662  0.250000  1
  Si  Si5  1  0.848721  0.064925  0.673062  1
  Si  Si6  1  0.671874  0.852630  0.063702  1
  Si  Si7  1  0.062325  0.671202  0.852182  1
  Si  Si8  1  0.647370  0.828126  0.436298  1
  Si  Si9  1  0.435075  0.651279  0.826938  1
  Si  Si10  1  0.828798  0.437675  0.647818  1
  Si  Si11  1  0.171824  0.563026  0.354402  1
  Si  Si12  1  0.566817  0.350680  0.170628  1
  Si  Si13  1  0.353017  0.174072  0.561510  1
  Si  Si14  1  0.936974  0.328176  0.145598  1
  Si  Si15  1  0.325928  0.146983  0.938490  1
  Si  Si16  1  0.149320  0.933183  0.329372  1
  Ir  Ir17  1  0.249941  0.926689  0.572339  1
  Ir  Ir18  1  0.573311  0.250059  0.927661  1
  Ir  Ir19  1  0.923862  0.576138  0.250000  1
  Ir  Ir20  1  0.426976  0.750578  0.072668  1
  Ir  Ir21  1  0.749422  0.073024  0.427332  1
