# generated using pymatgen
data_Zn8GePd3O16
_symmetry_space_group_name_H-M   'P 1'
_cell_length_a   6.09237600
_cell_length_b   6.10609069
_cell_length_c   8.53504705
_cell_angle_alpha   89.81701904
_cell_angle_beta   90.00000000
_cell_angle_gamma   90.00000000
_symmetry_Int_Tables_number   1
_chemical_formula_structural   Zn8GePd3O16
_chemical_formula_sum   'Zn8 Ge1 Pd3 O16'
_cell_volume   317.50725555
_cell_formula_units_Z   1
loop_
 _symmetry_equiv_pos_site_id
 _symmetry_equiv_pos_as_xyz
  1  'x, y, z'
loop_
 _atom_site_type_symbol
 _atom_site_label
 _atom_site_symmetry_multiplicity
 _atom_site_fract_x
 _atom_site_fract_y
 _atom_site_fract_z
 _atom_site_occupancy
  Zn  Zn0  1  0.999335  0.237020  0.998478  1
  Zn  Zn1  1  0.999335  0.762980  0.501522  1
  Zn  Zn2  1  0.255080  0.249736  0.627277  1
  Zn  Zn3  1  0.255080  0.750264  0.872723  1
  Zn  Zn4  1  0.234788  0.000000  0.250000  1
  Zn  Zn5  1  0.763632  0.000000  0.750000  1
  Zn  Zn6  1  0.747157  0.251961  0.376860  1
  Zn  Zn7  1  0.747157  0.748039  0.123140  1
  Ge  Ge8  1  0.762935  0.500000  0.750000  1
  Pd  Pd9  1  0.246719  0.500000  0.250000  1
  Pd  Pd10  1  0.500810  0.747843  0.502316  1
  Pd  Pd11  1  0.500810  0.252157  0.997684  1
  O  O12  1  0.529276  0.730881  0.738851  1
  O  O13  1  0.529276  0.269119  0.761149  1
  O  O14  1  0.739496  0.978415  0.506017  1
  O  O15  1  0.739496  0.021585  0.993983  1
  O  O16  1  0.740272  0.512679  0.523770  1
  O  O17  1  0.740272  0.487321  0.976230  1
  O  O18  1  0.974036  0.728329  0.751050  1
  O  O19  1  0.974036  0.271671  0.748950  1
  O  O20  1  0.015718  0.738940  0.255277  1
  O  O21  1  0.015718  0.261060  0.244723  1
  O  O22  1  0.254182  0.519482  0.488205  1
  O  O23  1  0.254182  0.480518  0.011795  1
  O  O24  1  0.261668  0.979352  0.497694  1
  O  O25  1  0.261668  0.020648  0.002306  1
  O  O26  1  0.478933  0.743970  0.262966  1
  O  O27  1  0.478933  0.256030  0.237034  1
