# generated using pymatgen
data_Er4Si4Ru3Rh
_symmetry_space_group_name_H-M   'P 1'
_cell_length_a   4.30474800
_cell_length_b   6.92538426
_cell_length_c   7.14968835
_cell_angle_alpha   89.83491897
_cell_angle_beta   90.00000000
_cell_angle_gamma   90.00000000
_symmetry_Int_Tables_number   1
_chemical_formula_structural   Er4Si4Ru3Rh
_chemical_formula_sum   'Er4 Si4 Ru3 Rh1'
_cell_volume   213.14586758
_cell_formula_units_Z   1
loop_
 _symmetry_equiv_pos_site_id
 _symmetry_equiv_pos_as_xyz
  1  'x, y, z'
loop_
 _atom_site_type_symbol
 _atom_site_label
 _atom_site_symmetry_multiplicity
 _atom_site_fract_x
 _atom_site_fract_y
 _atom_site_fract_z
 _atom_site_occupancy
  Er  Er0  1  0.250000  0.988082  0.813453  1
  Er  Er1  1  0.750000  0.012866  0.187094  1
  Er  Er2  1  0.250000  0.488103  0.687119  1
  Er  Er3  1  0.750000  0.509084  0.311559  1
  Si  Si4  1  0.250000  0.301577  0.106537  1
  Si  Si5  1  0.750000  0.697931  0.896995  1
  Si  Si6  1  0.250000  0.802423  0.387768  1
  Si  Si7  1  0.750000  0.200386  0.607096  1
  Ru  Ru8  1  0.250000  0.152906  0.435553  1
  Ru  Ru9  1  0.750000  0.345623  0.933631  1
  Ru  Ru10  1  0.250000  0.655273  0.066331  1
  Rh  Rh11  1  0.750000  0.845747  0.566863  1
