# generated using pymatgen
data_Tb2Ho2GaBr6
_symmetry_space_group_name_H-M   'P 1'
_cell_length_a   4.07217700
_cell_length_b   13.33654200
_cell_length_c   14.11265800
_cell_angle_alpha   90.00000000
_cell_angle_beta   90.00000000
_cell_angle_gamma   90.00000000
_symmetry_Int_Tables_number   1
_chemical_formula_structural   Tb2Ho2GaBr6
_chemical_formula_sum   'Tb4 Ho4 Ga2 Br12'
_cell_volume   766.44095053
_cell_formula_units_Z   2
loop_
 _symmetry_equiv_pos_site_id
 _symmetry_equiv_pos_as_xyz
  1  'x, y, z'
loop_
 _atom_site_type_symbol
 _atom_site_label
 _atom_site_symmetry_multiplicity
 _atom_site_fract_x
 _atom_site_fract_y
 _atom_site_fract_z
 _atom_site_occupancy
  Tb  Tb0  1  0.000000  0.121515  0.580719  1
  Tb  Tb1  1  0.000000  0.878485  0.419281  1
  Tb  Tb2  1  0.000000  0.621515  0.919281  1
  Tb  Tb3  1  0.000000  0.378485  0.080719  1
  Ho  Ho4  1  0.500000  0.118659  0.339994  1
  Ho  Ho5  1  0.500000  0.881341  0.660006  1
  Ho  Ho6  1  0.500000  0.618659  0.160006  1
  Ho  Ho7  1  0.500000  0.381341  0.839994  1
  Ga  Ga8  1  0.500000  0.000000  0.500000  1
  Ga  Ga9  1  0.500000  0.500000  0.000000  1
  Br  Br10  1  0.500000  0.243288  0.164641  1
  Br  Br11  1  0.500000  0.756712  0.835359  1
  Br  Br12  1  0.500000  0.743288  0.335359  1
  Br  Br13  1  0.500000  0.256712  0.664641  1
  Br  Br14  1  0.000000  0.254335  0.409591  1
  Br  Br15  1  0.000000  0.745665  0.590409  1
  Br  Br16  1  0.000000  0.754335  0.090409  1
  Br  Br17  1  0.000000  0.245665  0.909591  1
  Br  Br18  1  0.000000  0.003809  0.243256  1
  Br  Br19  1  0.000000  0.996191  0.756744  1
  Br  Br20  1  0.000000  0.503809  0.256744  1
  Br  Br21  1  0.000000  0.496191  0.743256  1
