# generated using pymatgen
data_Sc4TcI4
_symmetry_space_group_name_H-M   'P 1'
_cell_length_a   11.00834927
_cell_length_b   11.00834742
_cell_length_c   5.82542540
_cell_angle_alpha   89.45374545
_cell_angle_beta   89.45373899
_cell_angle_gamma   89.72088796
_symmetry_Int_Tables_number   1
_chemical_formula_structural   Sc4TcI4
_chemical_formula_sum   'Sc8 Tc2 I8'
_cell_volume   705.87456403
_cell_formula_units_Z   2
loop_
 _symmetry_equiv_pos_site_id
 _symmetry_equiv_pos_as_xyz
  1  'x, y, z'
loop_
 _atom_site_type_symbol
 _atom_site_label
 _atom_site_symmetry_multiplicity
 _atom_site_fract_x
 _atom_site_fract_y
 _atom_site_fract_z
 _atom_site_occupancy
  Sc  Sc0  1  0.808867  0.079165  0.003124  1
  Sc  Sc1  1  0.079165  0.808867  0.503124  1
  Sc  Sc2  1  0.078222  0.190995  0.989610  1
  Sc  Sc3  1  0.190995  0.078222  0.489610  1
  Sc  Sc4  1  0.921778  0.809005  0.010390  1
  Sc  Sc5  1  0.920835  0.191133  0.496876  1
  Sc  Sc6  1  0.191133  0.920835  0.996876  1
  Sc  Sc7  1  0.809005  0.921778  0.510390  1
  Tc  Tc8  1  0.999812  0.000188  0.250000  1
  Tc  Tc9  1  0.000188  0.999812  0.750000  1
  I  I10  1  0.650425  0.146530  0.498800  1
  I  I11  1  0.853806  0.652382  0.485712  1
  I  I12  1  0.347618  0.146194  0.014288  1
  I  I13  1  0.146194  0.347618  0.514288  1
  I  I14  1  0.652382  0.853806  0.985712  1
  I  I15  1  0.349575  0.853470  0.501200  1
  I  I16  1  0.146530  0.650425  0.998800  1
  I  I17  1  0.853470  0.349575  0.001200  1
