# generated using pymatgen
data_Rb3LiCl16
_symmetry_space_group_name_H-M   'P 1'
_cell_length_a   7.71361739
_cell_length_b   9.22901407
_cell_length_c   9.92213641
_cell_angle_alpha   68.98877067
_cell_angle_beta   91.52101650
_cell_angle_gamma   90.70148214
_symmetry_Int_Tables_number   1
_chemical_formula_structural   Rb3LiCl16
_chemical_formula_sum   'Rb3 Li1 Cl16'
_cell_volume   659.14771178
_cell_formula_units_Z   1
loop_
 _symmetry_equiv_pos_site_id
 _symmetry_equiv_pos_as_xyz
  1  'x, y, z'
loop_
 _atom_site_type_symbol
 _atom_site_label
 _atom_site_symmetry_multiplicity
 _atom_site_fract_x
 _atom_site_fract_y
 _atom_site_fract_z
 _atom_site_occupancy
  Rb  Rb0  1  0.115704  0.251145  0.794575  1
  Rb  Rb1  1  0.377932  0.247538  0.295983  1
  Rb  Rb2  1  0.850405  0.740325  0.197021  1
  Li  Li3  1  0.640759  0.941481  0.649169  1
  Cl  Cl4  1  0.376343  0.531155  0.510977  1
  Cl  Cl5  1  0.885866  0.455686  0.987118  1
  Cl  Cl6  1  0.619994  0.453236  0.482944  1
  Cl  Cl7  1  0.131948  0.537725  0.013867  1
  Cl  Cl8  1  0.069272  0.648536  0.554552  1
  Cl  Cl9  1  0.538640  0.311891  0.949137  1
  Cl  Cl10  1  0.976184  0.334860  0.423237  1
  Cl  Cl11  1  0.446540  0.660715  0.062163  1
  Cl  Cl12  1  0.205305  0.840534  0.603704  1
  Cl  Cl13  1  0.680040  0.130609  0.897862  1
  Cl  Cl14  1  0.817158  0.129288  0.414076  1
  Cl  Cl15  1  0.293355  0.852600  0.108357  1
  Cl  Cl16  1  0.358793  0.039618  0.654389  1
  Cl  Cl17  1  0.837639  0.940539  0.833899  1
  Cl  Cl18  1  0.648135  0.915401  0.416055  1
  Cl  Cl19  1  0.129991  0.037117  0.150917  1
