# generated using pymatgen
data_Ta10Ti2Al8PdPt3C4
_symmetry_space_group_name_H-M   'P 1'
_cell_length_a   8.33809647
_cell_length_b   8.33809684
_cell_length_c   8.34665700
_cell_angle_alpha   59.97879189
_cell_angle_beta   59.97878246
_cell_angle_gamma   60.07540339
_symmetry_Int_Tables_number   1
_chemical_formula_structural   Ta10Ti2Al8PdPt3C4
_chemical_formula_sum   'Ta10 Ti2 Al8 Pd1 Pt3 C4'
_cell_volume   410.42973162
_cell_formula_units_Z   1
loop_
 _symmetry_equiv_pos_site_id
 _symmetry_equiv_pos_as_xyz
  1  'x, y, z'
loop_
 _atom_site_type_symbol
 _atom_site_label
 _atom_site_symmetry_multiplicity
 _atom_site_fract_x
 _atom_site_fract_y
 _atom_site_fract_z
 _atom_site_occupancy
  Ta  Ta0  1  0.680934  0.317897  0.319392  1
  Ta  Ta1  1  0.316547  0.681162  0.318578  1
  Ta  Ta2  1  0.683345  0.681431  0.319729  1
  Ta  Ta3  1  0.317841  0.318269  0.680786  1
  Ta  Ta4  1  0.568569  0.566655  0.930271  1
  Ta  Ta5  1  0.930863  0.567206  0.568663  1
  Ta  Ta6  1  0.568838  0.933453  0.931422  1
  Ta  Ta7  1  0.931731  0.932159  0.569214  1
  Ta  Ta8  1  0.682794  0.319137  0.681337  1
  Ta  Ta9  1  0.932103  0.569066  0.930608  1
  Ti  Ti10  1  0.569226  0.930173  0.568605  1
  Ti  Ti11  1  0.319827  0.680774  0.681395  1
  Al  Al12  1  0.917556  0.916642  0.915415  1
  Al  Al13  1  0.998497  0.333280  0.334729  1
  Al  Al14  1  0.333606  0.995573  0.337724  1
  Al  Al15  1  0.334083  0.336861  0.994964  1
  Al  Al16  1  0.916720  0.251503  0.915271  1
  Al  Al17  1  0.913139  0.915917  0.255036  1
  Al  Al18  1  0.254427  0.916394  0.912276  1
  Al  Al19  1  0.333358  0.332444  0.334585  1
  Pd  Pd20  1  0.125105  0.124895  0.625000  1
  Pt  Pt21  1  0.125313  0.124687  0.125000  1
  Pt  Pt22  1  0.624232  0.124739  0.125607  1
  Pt  Pt23  1  0.125261  0.625768  0.124393  1
  C  C24  1  0.619760  0.630240  0.625000  1
  C  C25  1  0.128126  0.626024  0.625175  1
  C  C26  1  0.623976  0.121874  0.624825  1
  C  C27  1  0.624223  0.625777  0.125000  1
