# generated using pymatgen
data_Ho4ErZn2Sb
_symmetry_space_group_name_H-M   'P 1'
_cell_length_a   8.49758960
_cell_length_b   8.49758990
_cell_length_c   8.49759009
_cell_angle_alpha   123.49861741
_cell_angle_beta   123.49861615
_cell_angle_gamma   84.04001574
_symmetry_Int_Tables_number   1
_chemical_formula_structural   Ho4ErZn2Sb
_chemical_formula_sum   'Ho8 Er2 Zn4 Sb2'
_cell_volume   408.51947032
_cell_formula_units_Z   2
loop_
 _symmetry_equiv_pos_site_id
 _symmetry_equiv_pos_as_xyz
  1  'x, y, z'
loop_
 _atom_site_type_symbol
 _atom_site_label
 _atom_site_symmetry_multiplicity
 _atom_site_fract_x
 _atom_site_fract_y
 _atom_site_fract_z
 _atom_site_occupancy
  Ho  Ho0  1  0.510071  0.010071  0.808938  1
  Ho  Ho1  1  0.201133  0.701133  0.191062  1
  Ho  Ho2  1  0.010071  0.201133  0.500000  1
  Ho  Ho3  1  0.701133  0.510071  0.500000  1
  Ho  Ho4  1  0.489929  0.989929  0.191062  1
  Ho  Ho5  1  0.798867  0.298867  0.808938  1
  Ho  Ho6  1  0.989929  0.798867  0.500000  1
  Ho  Ho7  1  0.298867  0.489929  0.500000  1
  Er  Er8  1  0.500000  0.500000  0.000000  1
  Er  Er9  1  0.000000  0.000000  0.000000  1
  Zn  Zn10  1  0.136940  0.636940  0.773883  1
  Zn  Zn11  1  0.863060  0.363060  0.226117  1
  Zn  Zn12  1  0.636940  0.863060  0.500000  1
  Zn  Zn13  1  0.363060  0.136940  0.500000  1
  Sb  Sb14  1  0.250000  0.250000  0.000000  1
  Sb  Sb15  1  0.750000  0.750000  0.000000  1
