# generated using pymatgen
data_Ti15VAs12
_symmetry_space_group_name_H-M   'P 1'
_cell_length_a   7.31980742
_cell_length_b   7.31980749
_cell_length_c   18.80154493
_cell_angle_alpha   90.16269496
_cell_angle_beta   89.83730491
_cell_angle_gamma   152.10055243
_symmetry_Int_Tables_number   1
_chemical_formula_structural   Ti15VAs12
_chemical_formula_sum   'Ti15 V1 As12'
_cell_volume   471.37202131
_cell_formula_units_Z   1
loop_
 _symmetry_equiv_pos_site_id
 _symmetry_equiv_pos_as_xyz
  1  'x, y, z'
loop_
 _atom_site_type_symbol
 _atom_site_label
 _atom_site_symmetry_multiplicity
 _atom_site_fract_x
 _atom_site_fract_y
 _atom_site_fract_z
 _atom_site_occupancy
  Ti  Ti0  1  0.000000  0.000000  0.000000  1
  Ti  Ti1  1  0.061558  0.938442  0.749125  1
  Ti  Ti2  1  0.938442  0.061558  0.250875  1
  Ti  Ti3  1  0.732395  0.267605  0.162832  1
  Ti  Ti4  1  0.267605  0.732395  0.837168  1
  Ti  Ti5  1  0.267439  0.732561  0.660003  1
  Ti  Ti6  1  0.732561  0.267439  0.339997  1
  Ti  Ti7  1  0.535645  0.464355  0.120613  1
  Ti  Ti8  1  0.464355  0.535645  0.879387  1
  Ti  Ti9  1  0.465746  0.534254  0.614529  1
  Ti  Ti10  1  0.534254  0.465746  0.385471  1
  Ti  Ti11  1  0.664105  0.335895  0.973213  1
  Ti  Ti12  1  0.335895  0.664105  0.026787  1
  Ti  Ti13  1  0.336994  0.663006  0.473129  1
  Ti  Ti14  1  0.663006  0.336994  0.526871  1
  V  V15  1  0.000000  0.000000  0.500000  1
  As  As16  1  0.419794  0.580206  0.747755  1
  As  As17  1  0.580206  0.419794  0.252245  1
  As  As18  1  0.701203  0.298797  0.748870  1
  As  As19  1  0.298797  0.701203  0.251130  1
  As  As20  1  0.902267  0.097733  0.117159  1
  As  As21  1  0.097733  0.902267  0.882841  1
  As  As22  1  0.097536  0.902464  0.615633  1
  As  As23  1  0.902464  0.097536  0.384367  1
  As  As24  1  0.840516  0.159484  0.924301  1
  As  As25  1  0.159484  0.840516  0.075699  1
  As  As26  1  0.159482  0.840518  0.426274  1
  As  As27  1  0.840518  0.159482  0.573726  1
