# generated using pymatgen
data_Hf8In4Pd7Au
_symmetry_space_group_name_H-M   'P 1'
_cell_length_a   7.52495143
_cell_length_b   7.52495143
_cell_length_c   6.84792204
_cell_angle_alpha   89.93730775
_cell_angle_beta   89.93730775
_cell_angle_gamma   90.03234274
_symmetry_Int_Tables_number   1
_chemical_formula_structural   Hf8In4Pd7Au
_chemical_formula_sum   'Hf8 In4 Pd7 Au1'
_cell_volume   387.76233373
_cell_formula_units_Z   1
loop_
 _symmetry_equiv_pos_site_id
 _symmetry_equiv_pos_as_xyz
  1  'x, y, z'
loop_
 _atom_site_type_symbol
 _atom_site_label
 _atom_site_symmetry_multiplicity
 _atom_site_fract_x
 _atom_site_fract_y
 _atom_site_fract_z
 _atom_site_occupancy
  Hf  Hf0  1  0.147609  0.147609  0.996413  1
  Hf  Hf1  1  0.848012  0.848012  0.000453  1
  Hf  Hf2  1  0.653246  0.350375  0.504348  1
  Hf  Hf3  1  0.350375  0.653246  0.504348  1
  Hf  Hf4  1  0.687603  0.317013  0.997022  1
  Hf  Hf5  1  0.317013  0.687603  0.997022  1
  Hf  Hf6  1  0.816281  0.816281  0.499693  1
  Hf  Hf7  1  0.180968  0.180968  0.502859  1
  In  In8  1  0.501393  0.996241  0.251470  1
  In  In9  1  0.500197  0.001508  0.748877  1
  In  In10  1  0.996241  0.501393  0.251470  1
  In  In11  1  0.001508  0.500197  0.748877  1
  Pd  Pd12  1  0.630883  0.630883  0.781858  1
  Pd  Pd13  1  0.630480  0.630480  0.218552  1
  Pd  Pd14  1  0.869304  0.129091  0.718729  1
  Pd  Pd15  1  0.869245  0.130441  0.281227  1
  Pd  Pd16  1  0.370275  0.370275  0.782542  1
  Pd  Pd17  1  0.130441  0.869245  0.281227  1
  Pd  Pd18  1  0.129091  0.869304  0.718729  1
  Au  Au19  1  0.369839  0.369839  0.214284  1
