# generated using pymatgen
data_Y3(B3Ir4)2
_symmetry_space_group_name_H-M   'P 1'
_cell_length_a   10.01736322
_cell_length_b   9.19248164
_cell_length_c   5.57782088
_cell_angle_alpha   81.43860844
_cell_angle_beta   65.15248224
_cell_angle_gamma   33.40891242
_symmetry_Int_Tables_number   1
_chemical_formula_structural   Y3(B3Ir4)2
_chemical_formula_sum   'Y3 B6 Ir8'
_cell_volume   234.74421552
_cell_formula_units_Z   1
loop_
 _symmetry_equiv_pos_site_id
 _symmetry_equiv_pos_as_xyz
  1  'x, y, z'
loop_
 _atom_site_type_symbol
 _atom_site_label
 _atom_site_symmetry_multiplicity
 _atom_site_fract_x
 _atom_site_fract_y
 _atom_site_fract_z
 _atom_site_occupancy
  Y  Y0  1  0.000000  0.000000  0.000000  1
  Y  Y1  1  0.178524  0.178524  0.821476  1
  Y  Y2  1  0.821476  0.821476  0.178524  1
  B  B3  1  0.824956  0.524489  0.475511  1
  B  B4  1  0.175044  0.475511  0.524489  1
  B  B5  1  0.475511  0.175044  0.824956  1
  B  B6  1  0.671568  0.328432  0.671568  1
  B  B7  1  0.524489  0.824956  0.175044  1
  B  B8  1  0.328432  0.671568  0.328432  1
  Ir  Ir9  1  0.414320  0.414320  0.585680  1
  Ir  Ir10  1  0.587133  0.587133  0.912867  1
  Ir  Ir11  1  0.087133  0.087133  0.412867  1
  Ir  Ir12  1  0.912867  0.912867  0.587133  1
  Ir  Ir13  1  0.585680  0.585680  0.414320  1
  Ir  Ir14  1  0.250000  0.250000  0.250000  1
  Ir  Ir15  1  0.412867  0.412867  0.087133  1
  Ir  Ir16  1  0.750000  0.750000  0.750000  1
