# generated using pymatgen
data_Ho4V3Fe4P12Rh13
_symmetry_space_group_name_H-M   'P 1'
_cell_length_a   3.82189100
_cell_length_b   10.69448258
_cell_length_c   12.45980685
_cell_angle_alpha   90.56116949
_cell_angle_beta   90.00000000
_cell_angle_gamma   90.00000000
_symmetry_Int_Tables_number   1
_chemical_formula_structural   Ho4V3Fe4P12Rh13
_chemical_formula_sum   'Ho4 V3 Fe4 P12 Rh13'
_cell_volume   509.24708704
_cell_formula_units_Z   1
loop_
 _symmetry_equiv_pos_site_id
 _symmetry_equiv_pos_as_xyz
  1  'x, y, z'
loop_
 _atom_site_type_symbol
 _atom_site_label
 _atom_site_symmetry_multiplicity
 _atom_site_fract_x
 _atom_site_fract_y
 _atom_site_fract_z
 _atom_site_occupancy
  Ho  Ho0  1  0.250000  0.583039  0.711362  1
  Ho  Ho1  1  0.250000  0.916628  0.208122  1
  Ho  Ho2  1  0.750000  0.421369  0.288153  1
  Ho  Ho3  1  0.750000  0.078941  0.794898  1
  V  V4  1  0.250000  0.699087  0.988322  1
  V  V5  1  0.250000  0.797745  0.487395  1
  V  V6  1  0.750000  0.298627  0.010055  1
  Fe  Fe7  1  0.250000  0.461279  0.934042  1
  Fe  Fe8  1  0.250000  0.039477  0.437492  1
  Fe  Fe9  1  0.750000  0.535633  0.062841  1
  Fe  Fe10  1  0.750000  0.964927  0.564518  1
  P  P11  1  0.250000  0.426242  0.104712  1
  P  P12  1  0.250000  0.069465  0.609779  1
  P  P13  1  0.750000  0.573053  0.893382  1
  P  P14  1  0.750000  0.926675  0.394443  1
  P  P15  1  0.250000  0.267891  0.871486  1
  P  P16  1  0.250000  0.231150  0.367161  1
  P  P17  1  0.750000  0.728628  0.128573  1
  P  P18  1  0.750000  0.771926  0.629908  1
  P  P19  1  0.250000  0.601907  0.389525  1
  P  P20  1  0.250000  0.896853  0.892576  1
  P  P21  1  0.750000  0.403234  0.609268  1
  P  P22  1  0.750000  0.102148  0.109060  1
  Rh  Rh23  1  0.750000  0.209591  0.512622  1
  Rh  Rh24  1  0.250000  0.405849  0.483243  1
  Rh  Rh25  1  0.250000  0.094617  0.985214  1
  Rh  Rh26  1  0.750000  0.596685  0.516025  1
  Rh  Rh27  1  0.750000  0.904052  0.018005  1
  Rh  Rh28  1  0.250000  0.229443  0.176563  1
  Rh  Rh29  1  0.250000  0.267077  0.677438  1
  Rh  Rh30  1  0.750000  0.770370  0.823919  1
  Rh  Rh31  1  0.750000  0.730724  0.323393  1
  Rh  Rh32  1  0.250000  0.882039  0.699435  1
  Rh  Rh33  1  0.250000  0.615213  0.198345  1
  Rh  Rh34  1  0.750000  0.113859  0.300959  1
  Rh  Rh35  1  0.750000  0.384555  0.797767  1
