# generated using pymatgen
data_Gd2Hf3TiSn5
_symmetry_space_group_name_H-M   'P 1'
_cell_length_a   11.16853292
_cell_length_b   11.16838138
_cell_length_c   11.15688100
_cell_angle_alpha   149.14236183
_cell_angle_beta   132.10341731
_cell_angle_gamma   58.17598467
_symmetry_Int_Tables_number   1
_chemical_formula_structural   Gd2Hf3TiSn5
_chemical_formula_sum   'Gd4 Hf6 Ti2 Sn10'
_cell_volume   525.30873097
_cell_formula_units_Z   2
loop_
 _symmetry_equiv_pos_site_id
 _symmetry_equiv_pos_as_xyz
  1  'x, y, z'
loop_
 _atom_site_type_symbol
 _atom_site_label
 _atom_site_symmetry_multiplicity
 _atom_site_fract_x
 _atom_site_fract_y
 _atom_site_fract_z
 _atom_site_occupancy
  Gd  Gd0  1  0.254853  0.142065  0.110378  1
  Gd  Gd1  1  0.745147  0.857935  0.889622  1
  Gd  Gd2  1  0.031175  0.645450  0.389735  1
  Gd  Gd3  1  0.968825  0.354550  0.610265  1
  Hf  Hf4  1  0.688912  0.938867  0.250199  1
  Hf  Hf5  1  0.311088  0.061133  0.749801  1
  Hf  Hf6  1  0.673440  0.434597  0.236228  1
  Hf  Hf7  1  0.326560  0.565403  0.763772  1
  Hf  Hf8  1  0.198768  0.937077  0.263884  1
  Hf  Hf9  1  0.801232  0.062923  0.736116  1
  Ti  Ti10  1  0.312653  0.562542  0.250014  1
  Ti  Ti11  1  0.687347  0.437458  0.749986  1
  Sn  Sn12  1  0.584081  0.295043  0.303035  1
  Sn  Sn13  1  0.415919  0.704957  0.696965  1
  Sn  Sn14  1  0.991758  0.781199  0.196423  1
  Sn  Sn15  1  0.008242  0.218801  0.803577  1
  Sn  Sn16  1  0.999930  0.249930  0.249968  1
  Sn  Sn17  1  0.000070  0.750070  0.750032  1
  Sn  Sn18  1  0.470977  0.073107  0.407752  1
  Sn  Sn19  1  0.529023  0.926893  0.592248  1
  Sn  Sn20  1  0.665061  0.563098  0.092040  1
  Sn  Sn21  1  0.334939  0.436902  0.907960  1
