# generated using pymatgen
data_KEu4Te5
_symmetry_space_group_name_H-M   'P 1'
_cell_length_a   8.13086789
_cell_length_b   8.13086754
_cell_length_c   11.54345973
_cell_angle_alpha   61.54374937
_cell_angle_beta   61.54375064
_cell_angle_gamma   33.45097377
_symmetry_Int_Tables_number   1
_chemical_formula_structural   KEu4Te5
_chemical_formula_sum   'K1 Eu4 Te5'
_cell_volume   364.90382016
_cell_formula_units_Z   1
loop_
 _symmetry_equiv_pos_site_id
 _symmetry_equiv_pos_as_xyz
  1  'x, y, z'
loop_
 _atom_site_type_symbol
 _atom_site_label
 _atom_site_symmetry_multiplicity
 _atom_site_fract_x
 _atom_site_fract_y
 _atom_site_fract_z
 _atom_site_occupancy
  K  K0  1  0.000000  0.000000  0.000000  1
  Eu  Eu1  1  0.595716  0.595716  0.605890  1
  Eu  Eu2  1  0.205636  0.205636  0.198787  1
  Eu  Eu3  1  0.794364  0.794364  0.801213  1
  Eu  Eu4  1  0.404284  0.404284  0.394110  1
  Te  Te5  1  0.205621  0.205621  0.685649  1
  Te  Te6  1  0.794379  0.794379  0.314351  1
  Te  Te7  1  0.390504  0.390504  0.889696  1
  Te  Te8  1  0.000000  0.000000  0.500000  1
  Te  Te9  1  0.609496  0.609496  0.110304  1
