# generated using pymatgen
data_Ho16Cd2Hg2Ir3Rh
_symmetry_space_group_name_H-M   'P 1'
_cell_length_a   9.56928707
_cell_length_b   9.56928703
_cell_length_c   9.57145263
_cell_angle_alpha   60.04715126
_cell_angle_beta   60.04715140
_cell_angle_gamma   60.06390559
_symmetry_Int_Tables_number   1
_chemical_formula_structural   Ho16Cd2Hg2Ir3Rh
_chemical_formula_sum   'Ho16 Cd2 Hg2 Ir3 Rh1'
_cell_volume   620.49856564
_cell_formula_units_Z   1
loop_
 _symmetry_equiv_pos_site_id
 _symmetry_equiv_pos_as_xyz
  1  'x, y, z'
loop_
 _atom_site_type_symbol
 _atom_site_label
 _atom_site_symmetry_multiplicity
 _atom_site_fract_x
 _atom_site_fract_y
 _atom_site_fract_z
 _atom_site_occupancy
  Ho  Ho0  1  0.599574  0.599574  0.598815  1
  Ho  Ho1  1  0.600468  0.600468  0.200611  1
  Ho  Ho2  1  0.601337  0.198740  0.600613  1
  Ho  Ho3  1  0.198740  0.601337  0.600613  1
  Ho  Ho4  1  0.059810  0.438867  0.439773  1
  Ho  Ho5  1  0.438538  0.060605  0.060696  1
  Ho  Ho6  1  0.438867  0.059810  0.439773  1
  Ho  Ho7  1  0.060605  0.438538  0.060696  1
  Ho  Ho8  1  0.438846  0.438846  0.060337  1
  Ho  Ho9  1  0.060024  0.060024  0.439635  1
  Ho  Ho10  1  0.187105  0.812085  0.812623  1
  Ho  Ho11  1  0.812934  0.186174  0.188271  1
  Ho  Ho12  1  0.812085  0.187105  0.812623  1
  Ho  Ho13  1  0.186174  0.812934  0.188271  1
  Ho  Ho14  1  0.812177  0.812177  0.188299  1
  Ho  Ho15  1  0.187063  0.187063  0.813363  1
  Cd  Cd16  1  0.830353  0.507586  0.830973  1
  Cd  Cd17  1  0.507586  0.830353  0.830973  1
  Hg  Hg18  1  0.833315  0.833315  0.835180  1
  Hg  Hg19  1  0.833556  0.833556  0.497422  1
  Ir  Ir20  1  0.392517  0.392517  0.823562  1
  Ir  Ir21  1  0.392340  0.823854  0.392446  1
  Ir  Ir22  1  0.823854  0.392340  0.392446  1
  Rh  Rh23  1  0.392132  0.392132  0.391981  1
