# generated using pymatgen
data_Nd2NiOs3
_symmetry_space_group_name_H-M   'P 1'
_cell_length_a   5.31221600
_cell_length_b   5.31221513
_cell_length_c   9.08877400
_cell_angle_alpha   90.00000000
_cell_angle_beta   90.00000000
_cell_angle_gamma   120.00000543
_symmetry_Int_Tables_number   1
_chemical_formula_structural   Nd2NiOs3
_chemical_formula_sum   'Nd4 Ni2 Os6'
_cell_volume   222.11980948
_cell_formula_units_Z   2
loop_
 _symmetry_equiv_pos_site_id
 _symmetry_equiv_pos_as_xyz
  1  'x, y, z'
loop_
 _atom_site_type_symbol
 _atom_site_label
 _atom_site_symmetry_multiplicity
 _atom_site_fract_x
 _atom_site_fract_y
 _atom_site_fract_z
 _atom_site_occupancy
  Nd  Nd0  1  0.333333  0.666667  0.431654  1
  Nd  Nd1  1  0.666667  0.333333  0.568346  1
  Nd  Nd2  1  0.666667  0.333333  0.931654  1
  Nd  Nd3  1  0.333333  0.666667  0.068346  1
  Ni  Ni4  1  0.000000  0.000000  0.000000  1
  Ni  Ni5  1  0.000000  0.000000  0.500000  1
  Os  Os6  1  0.168276  0.336551  0.750000  1
  Os  Os7  1  0.168276  0.831724  0.750000  1
  Os  Os8  1  0.336551  0.168276  0.250000  1
  Os  Os9  1  0.831724  0.663449  0.250000  1
  Os  Os10  1  0.663449  0.831724  0.750000  1
  Os  Os11  1  0.831724  0.168276  0.250000  1
