# generated using pymatgen
data_Rb2Ni4P4O15
_symmetry_space_group_name_H-M   'P 1'
_cell_length_a   8.76059339
_cell_length_b   8.76059280
_cell_length_c   18.42376800
_cell_angle_alpha   97.91491145
_cell_angle_beta   97.91491092
_cell_angle_gamma   106.28767025
_symmetry_Int_Tables_number   1
_chemical_formula_structural   Rb2Ni4P4O15
_chemical_formula_sum   'Rb8 Ni16 P16 O60'
_cell_volume   1320.98653930
_cell_formula_units_Z   4
loop_
 _symmetry_equiv_pos_site_id
 _symmetry_equiv_pos_as_xyz
  1  'x, y, z'
loop_
 _atom_site_type_symbol
 _atom_site_label
 _atom_site_symmetry_multiplicity
 _atom_site_fract_x
 _atom_site_fract_y
 _atom_site_fract_z
 _atom_site_occupancy
  Rb  Rb0  1  0.107306  0.592736  0.299710  1
  Rb  Rb1  1  0.346782  0.553918  0.047808  1
  Rb  Rb2  1  0.446082  0.653218  0.452192  1
  Rb  Rb3  1  0.892694  0.407264  0.700290  1
  Rb  Rb4  1  0.653218  0.446082  0.952192  1
  Rb  Rb5  1  0.592736  0.107306  0.799710  1
  Rb  Rb6  1  0.407264  0.892694  0.200290  1
  Rb  Rb7  1  0.553918  0.346782  0.547808  1
  Ni  Ni8  1  0.913812  0.269653  0.068918  1
  Ni  Ni9  1  0.847709  0.959855  0.932483  1
  Ni  Ni10  1  0.540107  0.459893  0.250000  1
  Ni  Ni11  1  0.827411  0.172589  0.250000  1
  Ni  Ni12  1  0.459893  0.540107  0.750000  1
  Ni  Ni13  1  0.000000  0.500000  0.500000  1
  Ni  Ni14  1  0.152291  0.040145  0.067517  1
  Ni  Ni15  1  0.269653  0.913812  0.568918  1
  Ni  Ni16  1  0.040145  0.152291  0.567517  1
  Ni  Ni17  1  0.045981  0.954019  0.250000  1
  Ni  Ni18  1  0.172589  0.827411  0.750000  1
  Ni  Ni19  1  0.959855  0.847709  0.432483  1
  Ni  Ni20  1  0.954019  0.045981  0.750000  1
  Ni  Ni21  1  0.500000  0.000000  0.000000  1
  Ni  Ni22  1  0.730347  0.086188  0.431082  1
  Ni  Ni23  1  0.086188  0.730347  0.931082  1
  P  P24  1  0.440862  0.770028  0.879243  1
  P  P25  1  0.103434  0.221207  0.402463  1
  P  P26  1  0.988446  0.688430  0.097826  1
  P  P27  1  0.311570  0.011554  0.402174  1
  P  P28  1  0.778793  0.896566  0.097537  1
  P  P29  1  0.159860  0.276202  0.179013  1
  P  P30  1  0.723798  0.840140  0.320987  1
  P  P31  1  0.559138  0.229972  0.120757  1
  P  P32  1  0.221207  0.103434  0.902463  1
  P  P33  1  0.276202  0.159860  0.679013  1
  P  P34  1  0.840140  0.723798  0.820987  1
  P  P35  1  0.896566  0.778793  0.597537  1
  P  P36  1  0.011554  0.311570  0.902174  1
  P  P37  1  0.770028  0.440862  0.379243  1
  P  P38  1  0.688430  0.988446  0.597826  1
  P  P39  1  0.229972  0.559138  0.620757  1
  O  O40  1  0.135856  0.400748  0.428695  1
  O  O41  1  0.780295  0.330945  0.439807  1
  O  O42  1  0.703661  0.589701  0.767654  1
  O  O43  1  0.751362  0.055335  0.680639  1
  O  O44  1  0.248638  0.944665  0.319361  1
  O  O45  1  0.599218  0.458380  0.360494  1
  O  O46  1  0.055335  0.751362  0.180639  1
  O  O47  1  0.618463  0.178113  0.192460  1
  O  O48  1  0.948661  0.509402  0.071699  1
  O  O49  1  0.821887  0.381537  0.307540  1
  O  O50  1  0.178113  0.618463  0.692460  1
  O  O51  1  0.959471  0.836063  0.681400  1
  O  O52  1  0.990204  0.295128  0.187365  1
  O  O53  1  0.051339  0.490598  0.928301  1
  O  O54  1  0.944665  0.248638  0.819361  1
  O  O55  1  0.836063  0.959471  0.181400  1
  O  O56  1  0.113550  0.993501  0.948981  1
  O  O57  1  0.163937  0.040529  0.818600  1
  O  O58  1  0.603730  0.904512  0.920084  1
  O  O59  1  0.704872  0.009796  0.312635  1
  O  O60  1  0.101594  0.787280  0.050458  1
  O  O61  1  0.187016  0.276205  0.920856  1
  O  O62  1  0.212720  0.898406  0.449542  1
  O  O63  1  0.330945  0.780295  0.939807  1
  O  O64  1  0.171886  0.102588  0.184372  1
  O  O65  1  0.381537  0.821887  0.807540  1
  O  O66  1  0.282246  0.159920  0.593231  1
  O  O67  1  0.009796  0.704872  0.812635  1
  O  O68  1  0.276205  0.187016  0.420856  1
  O  O69  1  0.904512  0.603730  0.420084  1
  O  O70  1  0.886450  0.006499  0.051019  1
  O  O71  1  0.787280  0.101594  0.550459  1
  O  O72  1  0.812984  0.723795  0.079144  1
  O  O73  1  0.219705  0.669055  0.560193  1
  O  O74  1  0.295128  0.990204  0.687365  1
  O  O75  1  0.102588  0.171886  0.684372  1
  O  O76  1  0.400748  0.135856  0.928695  1
  O  O77  1  0.717754  0.840080  0.406769  1
  O  O78  1  0.296339  0.410299  0.232346  1
  O  O79  1  0.840080  0.717754  0.906769  1
  O  O80  1  0.723795  0.812984  0.579144  1
  O  O81  1  0.095488  0.396270  0.579916  1
  O  O82  1  0.669055  0.219705  0.060193  1
  O  O83  1  0.589701  0.703661  0.267654  1
  O  O84  1  0.006499  0.886450  0.551019  1
  O  O85  1  0.396270  0.095488  0.079916  1
  O  O86  1  0.864144  0.599252  0.571305  1
  O  O87  1  0.828114  0.897412  0.815628  1
  O  O88  1  0.159920  0.282246  0.093231  1
  O  O89  1  0.509402  0.948661  0.571699  1
  O  O90  1  0.599252  0.864144  0.071305  1
  O  O91  1  0.040529  0.163937  0.318600  1
  O  O92  1  0.458380  0.599218  0.860494  1
  O  O93  1  0.490598  0.051339  0.428301  1
  O  O94  1  0.993501  0.113550  0.448981  1
  O  O95  1  0.541620  0.400782  0.139506  1
  O  O96  1  0.400782  0.541620  0.639506  1
  O  O97  1  0.410299  0.296339  0.732346  1
  O  O98  1  0.897412  0.828114  0.315628  1
  O  O99  1  0.898406  0.212720  0.949541  1
