# generated using pymatgen
data_LiSc6Co2Ir3
_symmetry_space_group_name_H-M   'P 1'
_cell_length_a   4.53463700
_cell_length_b   6.45909400
_cell_length_c   13.64950300
_cell_angle_alpha   89.99989221
_cell_angle_beta   90.00171975
_cell_angle_gamma   89.99995699
_symmetry_Int_Tables_number   1
_chemical_formula_structural   LiSc6Co2Ir3
_chemical_formula_sum   'Li2 Sc12 Co4 Ir6'
_cell_volume   399.78911958
_cell_formula_units_Z   2
loop_
 _symmetry_equiv_pos_site_id
 _symmetry_equiv_pos_as_xyz
  1  'x, y, z'
loop_
 _atom_site_type_symbol
 _atom_site_label
 _atom_site_symmetry_multiplicity
 _atom_site_fract_x
 _atom_site_fract_y
 _atom_site_fract_z
 _atom_site_occupancy
  Li  Li0  1  0.000010  0.000002  0.998888  1
  Li  Li1  1  0.499792  0.499997  0.167823  1
  Sc  Sc2  1  0.500025  0.254274  0.994598  1
  Sc  Sc3  1  0.500024  0.745728  0.994598  1
  Sc  Sc4  1  0.999818  0.245675  0.172298  1
  Sc  Sc5  1  0.999823  0.754327  0.172298  1
  Sc  Sc6  1  0.499848  0.247386  0.339262  1
  Sc  Sc7  1  0.499845  0.752618  0.339261  1
  Sc  Sc8  1  0.999989  0.249597  0.501053  1
  Sc  Sc9  1  0.999991  0.750397  0.501053  1
  Sc  Sc10  1  0.500136  0.249823  0.665560  1
  Sc  Sc11  1  0.500137  0.750177  0.665560  1
  Sc  Sc12  1  0.000177  0.252187  0.827247  1
  Sc  Sc13  1  0.000179  0.747813  0.827247  1
  Co  Co14  1  0.999805  0.000000  0.336647  1
  Co  Co15  1  0.499997  0.500002  0.502516  1
  Co  Co16  1  0.000182  0.000000  0.664013  1
  Co  Co17  1  0.500213  0.500000  0.830036  1
  Ir  Ir18  1  0.000019  0.500000  0.999776  1
  Ir  Ir19  1  0.499807  0.000001  0.166989  1
  Ir  Ir20  1  0.999834  0.500000  0.334006  1
  Ir  Ir21  1  0.499998  0.999999  0.501710  1
  Ir  Ir22  1  0.000149  0.500000  0.664884  1
  Ir  Ir23  1  0.500198  0.000002  0.832676  1
