# generated using pymatgen
data_Y2Tm18Cd6NiOs
_symmetry_space_group_name_H-M   'P 1'
_cell_length_a   9.49774706
_cell_length_b   9.49774681
_cell_length_c   9.69075400
_cell_angle_alpha   90.00000000
_cell_angle_beta   90.00000000
_cell_angle_gamma   119.98733125
_symmetry_Int_Tables_number   1
_chemical_formula_structural   Y2Tm18Cd6NiOs
_chemical_formula_sum   'Y2 Tm18 Cd6 Ni1 Os1'
_cell_volume   757.15503683
_cell_formula_units_Z   1
loop_
 _symmetry_equiv_pos_site_id
 _symmetry_equiv_pos_as_xyz
  1  'x, y, z'
loop_
 _atom_site_type_symbol
 _atom_site_label
 _atom_site_symmetry_multiplicity
 _atom_site_fract_x
 _atom_site_fract_y
 _atom_site_fract_z
 _atom_site_occupancy
  Y  Y0  1  0.539700  0.080001  0.250000  1
  Y  Y1  1  0.919998  0.460300  0.250000  1
  Tm  Tm2  1  0.000109  0.999890  0.499665  1
  Tm  Tm3  1  0.000109  0.999890  0.000335  1
  Tm  Tm4  1  0.538841  0.461159  0.250000  1
  Tm  Tm5  1  0.457189  0.542810  0.750000  1
  Tm  Tm6  1  0.457276  0.914803  0.750000  1
  Tm  Tm7  1  0.085197  0.542724  0.750000  1
  Tm  Tm8  1  0.209789  0.790211  0.441635  1
  Tm  Tm9  1  0.210409  0.419011  0.441522  1
  Tm  Tm10  1  0.580989  0.789591  0.441522  1
  Tm  Tm11  1  0.789218  0.210783  0.563924  1
  Tm  Tm12  1  0.788463  0.578206  0.563155  1
  Tm  Tm13  1  0.421794  0.211537  0.563155  1
  Tm  Tm14  1  0.789218  0.210783  0.936076  1
  Tm  Tm15  1  0.788463  0.578206  0.936845  1
  Tm  Tm16  1  0.421794  0.211537  0.936845  1
  Tm  Tm17  1  0.209789  0.790211  0.058365  1
  Tm  Tm18  1  0.210409  0.419011  0.058478  1
  Tm  Tm19  1  0.580989  0.789591  0.058478  1
  Cd  Cd20  1  0.886579  0.113421  0.250000  1
  Cd  Cd21  1  0.884995  0.772060  0.250000  1
  Cd  Cd22  1  0.227940  0.115005  0.250000  1
  Cd  Cd23  1  0.114606  0.885394  0.750000  1
  Cd  Cd24  1  0.114863  0.229409  0.750000  1
  Cd  Cd25  1  0.770591  0.885137  0.750000  1
  Ni  Ni26  1  0.666849  0.333151  0.750000  1
  Os  Os27  1  0.333833  0.666167  0.250000  1
