# generated using pymatgen
data_Ce2P7IrRu11
_symmetry_space_group_name_H-M   'P 1'
_cell_length_a   9.46600207
_cell_length_b   9.50454478
_cell_length_c   3.93663400
_cell_angle_alpha   90.00000000
_cell_angle_beta   90.00000000
_cell_angle_gamma   119.79014277
_symmetry_Int_Tables_number   1
_chemical_formula_structural   Ce2P7IrRu11
_chemical_formula_sum   'Ce2 P7 Ir1 Ru11'
_cell_volume   307.37468294
_cell_formula_units_Z   1
loop_
 _symmetry_equiv_pos_site_id
 _symmetry_equiv_pos_as_xyz
  1  'x, y, z'
loop_
 _atom_site_type_symbol
 _atom_site_label
 _atom_site_symmetry_multiplicity
 _atom_site_fract_x
 _atom_site_fract_y
 _atom_site_fract_z
 _atom_site_occupancy
  Ce  Ce0  1  0.667443  0.335545  0.500000  1
  Ce  Ce1  1  0.331350  0.663557  0.000000  1
  P  P2  1  0.601226  0.709679  0.500000  1
  P  P3  1  0.999100  0.999286  0.000000  1
  P  P4  1  0.282657  0.885890  0.500000  1
  P  P5  1  0.111887  0.398007  0.500000  1
  P  P6  1  0.891320  0.584028  0.000000  1
  P  P7  1  0.417592  0.307344  0.000000  1
  P  P8  1  0.697866  0.114957  0.000000  1
  Ir  Ir9  1  0.554925  0.943110  0.500000  1
  Ru  Ru10  1  0.387693  0.440425  0.500000  1
  Ru  Ru11  1  0.906900  0.125312  0.500000  1
  Ru  Ru12  1  0.217378  0.091332  0.500000  1
  Ru  Ru13  1  0.875286  0.785870  0.500000  1
  Ru  Ru14  1  0.727536  0.889275  0.000000  1
  Ru  Ru15  1  0.113411  0.842039  0.000000  1
  Ru  Ru16  1  0.158031  0.269426  0.000000  1
  Ru  Ru17  1  0.432686  0.069225  0.000000  1
  Ru  Ru18  1  0.932944  0.362965  0.000000  1
  Ru  Ru19  1  0.639019  0.570767  0.000000  1
  Ru  Ru20  1  0.053750  0.611959  0.500000  1
