# generated using pymatgen
data_Sc5PaMn2
_symmetry_space_group_name_H-M   'P 1'
_cell_length_a   5.85473600
_cell_length_b   8.72038000
_cell_length_c   13.14315200
_cell_angle_alpha   90.00000000
_cell_angle_beta   90.00000000
_cell_angle_gamma   90.00000000
_symmetry_Int_Tables_number   1
_chemical_formula_structural   Sc5PaMn2
_chemical_formula_sum   'Sc20 Pa4 Mn8'
_cell_volume   671.03049554
_cell_formula_units_Z   4
loop_
 _symmetry_equiv_pos_site_id
 _symmetry_equiv_pos_as_xyz
  1  'x, y, z'
loop_
 _atom_site_type_symbol
 _atom_site_label
 _atom_site_symmetry_multiplicity
 _atom_site_fract_x
 _atom_site_fract_y
 _atom_site_fract_z
 _atom_site_occupancy
  Sc  Sc0  1  0.815468  0.750000  0.106708  1
  Sc  Sc1  1  0.315468  0.250000  0.393292  1
  Sc  Sc2  1  0.184921  0.250000  0.893357  1
  Sc  Sc3  1  0.684921  0.750000  0.606643  1
  Sc  Sc4  1  0.407490  0.934933  0.790206  1
  Sc  Sc5  1  0.907490  0.065067  0.709794  1
  Sc  Sc6  1  0.592588  0.435004  0.209840  1
  Sc  Sc7  1  0.092588  0.564996  0.290160  1
  Sc  Sc8  1  0.592588  0.064996  0.209840  1
  Sc  Sc9  1  0.092588  0.935004  0.290160  1
  Sc  Sc10  1  0.407490  0.565067  0.790206  1
  Sc  Sc11  1  0.907490  0.434933  0.709794  1
  Sc  Sc12  1  0.235983  0.934789  0.534170  1
  Sc  Sc13  1  0.735983  0.065211  0.965830  1
  Sc  Sc14  1  0.764028  0.434801  0.465826  1
  Sc  Sc15  1  0.264028  0.565199  0.034174  1
  Sc  Sc16  1  0.764028  0.065199  0.465826  1
  Sc  Sc17  1  0.264028  0.934801  0.034174  1
  Sc  Sc18  1  0.235983  0.565211  0.534170  1
  Sc  Sc19  1  0.735983  0.434789  0.965830  1
  Pa  Pa20  1  0.569377  0.750000  0.349668  1
  Pa  Pa21  1  0.069377  0.250000  0.150332  1
  Pa  Pa22  1  0.430318  0.250000  0.650246  1
  Pa  Pa23  1  0.930318  0.750000  0.849754  1
  Mn  Mn24  1  0.907131  0.750000  0.439420  1
  Mn  Mn25  1  0.407131  0.250000  0.060580  1
  Mn  Mn26  1  0.092440  0.250000  0.560264  1
  Mn  Mn27  1  0.592440  0.750000  0.939736  1
  Mn  Mn28  1  0.414201  0.750000  0.194789  1
  Mn  Mn29  1  0.914201  0.250000  0.305211  1
  Mn  Mn30  1  0.585964  0.250000  0.805021  1
  Mn  Mn31  1  0.085964  0.750000  0.694979  1
