# generated using pymatgen
data_NdAuBr6
_symmetry_space_group_name_H-M   'P 1'
_cell_length_a   8.26476007
_cell_length_b   10.62039271
_cell_length_c   15.20416899
_cell_angle_alpha   103.58520535
_cell_angle_beta   95.93425549
_cell_angle_gamma   112.19527508
_symmetry_Int_Tables_number   1
_chemical_formula_structural   NdAuBr6
_chemical_formula_sum   'Nd4 Au4 Br24'
_cell_volume   1173.40167123
_cell_formula_units_Z   4
loop_
 _symmetry_equiv_pos_site_id
 _symmetry_equiv_pos_as_xyz
  1  'x, y, z'
loop_
 _atom_site_type_symbol
 _atom_site_label
 _atom_site_symmetry_multiplicity
 _atom_site_fract_x
 _atom_site_fract_y
 _atom_site_fract_z
 _atom_site_occupancy
  Nd  Nd0  1  0.579679  0.921829  0.621525  1
  Nd  Nd1  1  0.420321  0.078171  0.378475  1
  Nd  Nd2  1  0.976993  0.311819  0.870912  1
  Nd  Nd3  1  0.023007  0.688181  0.129088  1
  Au  Au4  1  0.295772  0.631393  0.762509  1
  Au  Au5  1  0.704228  0.368607  0.237491  1
  Au  Au6  1  0.500000  0.500000  0.500000  1
  Au  Au7  1  0.000000  0.000000  0.000000  1
  Br  Br8  1  0.611485  0.732142  0.747174  1
  Br  Br9  1  0.388515  0.267858  0.252826  1
  Br  Br10  1  0.275794  0.846008  0.735027  1
  Br  Br11  1  0.724206  0.153992  0.264973  1
  Br  Br12  1  0.977843  0.533793  0.774129  1
  Br  Br13  1  0.022157  0.466207  0.225871  1
  Br  Br14  1  0.315179  0.413187  0.785779  1
  Br  Br15  1  0.684821  0.586813  0.214221  1
  Br  Br16  1  0.692212  0.369034  0.506796  1
  Br  Br17  1  0.307788  0.630966  0.493204  1
  Br  Br18  1  0.763654  0.727496  0.524686  1
  Br  Br19  1  0.236346  0.272504  0.475314  1
  Br  Br20  1  0.783824  0.105633  0.975476  1
  Br  Br21  1  0.216176  0.894367  0.024524  1
  Br  Br22  1  0.766981  0.795146  0.030703  1
  Br  Br23  1  0.233019  0.204854  0.969297  1
  Br  Br24  1  0.615163  0.192165  0.746703  1
  Br  Br25  1  0.384837  0.807835  0.253297  1
  Br  Br26  1  0.954045  0.054902  0.727452  1
  Br  Br27  1  0.045955  0.945098  0.272548  1
  Br  Br28  1  0.729541  0.049424  0.480465  1
  Br  Br29  1  0.270459  0.950576  0.519535  1
  Br  Br30  1  0.759857  0.435306  0.977937  1
  Br  Br31  1  0.240143  0.564694  0.022063  1
