# generated using pymatgen
data_La7Pr(Er3Si4)4
_symmetry_space_group_name_H-M   'P 1'
_cell_length_a   7.78932723
_cell_length_b   7.78742852
_cell_length_c   14.37654737
_cell_angle_alpha   90.04135664
_cell_angle_beta   89.97361691
_cell_angle_gamma   90.01002426
_symmetry_Int_Tables_number   1
_chemical_formula_structural   La7Pr(Er3Si4)4
_chemical_formula_sum   'La7 Pr1 Er12 Si16'
_cell_volume   872.06419537
_cell_formula_units_Z   1
loop_
 _symmetry_equiv_pos_site_id
 _symmetry_equiv_pos_as_xyz
  1  'x, y, z'
loop_
 _atom_site_type_symbol
 _atom_site_label
 _atom_site_symmetry_multiplicity
 _atom_site_fract_x
 _atom_site_fract_y
 _atom_site_fract_z
 _atom_site_occupancy
  La  La0  1  0.008635  0.359782  0.540796  1
  La  La1  1  0.640593  0.991027  0.960464  1
  La  La2  1  0.139909  0.509574  0.791216  1
  La  La3  1  0.859949  0.491485  0.290791  1
  La  La4  1  0.508412  0.139806  0.208898  1
  La  La5  1  0.491035  0.859784  0.709222  1
  La  La6  1  0.359898  0.008436  0.458510  1
  Pr  Pr7  1  0.992906  0.639203  0.041222  1
  Er  Er8  1  0.362469  0.491951  0.374924  1
  Er  Er9  1  0.862084  0.007701  0.374160  1
  Er  Er10  1  0.992452  0.137020  0.125011  1
  Er  Er11  1  0.008216  0.862138  0.625377  1
  Er  Er12  1  0.638341  0.508891  0.876200  1
  Er  Er13  1  0.491921  0.362408  0.624778  1
  Er  Er14  1  0.508766  0.637793  0.124293  1
  Er  Er15  1  0.137287  0.992080  0.875131  1
  Er  Er16  1  0.683567  0.684101  0.499827  1
  Er  Er17  1  0.815554  0.183419  0.750242  1
  Er  Er18  1  0.183251  0.815286  0.249882  1
  Er  Er19  1  0.315823  0.317022  0.999988  1
  Si  Si20  1  0.066131  0.711724  0.438479  1
  Si  Si21  1  0.934437  0.289163  0.938544  1
  Si  Si22  1  0.712056  0.066401  0.561565  1
  Si  Si23  1  0.211810  0.434382  0.188030  1
  Si  Si24  1  0.788123  0.565622  0.688886  1
  Si  Si25  1  0.433849  0.211971  0.811767  1
  Si  Si26  1  0.567468  0.787202  0.311032  1
  Si  Si27  1  0.287041  0.932566  0.061337  1
  Si  Si28  1  0.848286  0.794478  0.810350  1
  Si  Si29  1  0.150068  0.206869  0.309814  1
  Si  Si30  1  0.794165  0.848996  0.188080  1
  Si  Si31  1  0.293812  0.651008  0.560085  1
  Si  Si32  1  0.708061  0.350345  0.060771  1
  Si  Si33  1  0.650556  0.293226  0.439743  1
  Si  Si34  1  0.347608  0.705583  0.940315  1
  Si  Si35  1  0.205459  0.151560  0.690270  1
