# generated using pymatgen
data_Ho3Mn7(P3Rh)2
_symmetry_space_group_name_H-M   'P 1'
_cell_length_a   3.70474300
_cell_length_b   10.92014900
_cell_length_c   12.71283800
_cell_angle_alpha   90.00000000
_cell_angle_beta   90.00000000
_cell_angle_gamma   90.00000000
_symmetry_Int_Tables_number   1
_chemical_formula_structural   Ho3Mn7(P3Rh)2
_chemical_formula_sum   'Ho6 Mn14 P12 Rh4'
_cell_volume   514.31496726
_cell_formula_units_Z   2
loop_
 _symmetry_equiv_pos_site_id
 _symmetry_equiv_pos_as_xyz
  1  'x, y, z'
loop_
 _atom_site_type_symbol
 _atom_site_label
 _atom_site_symmetry_multiplicity
 _atom_site_fract_x
 _atom_site_fract_y
 _atom_site_fract_z
 _atom_site_occupancy
  Ho  Ho0  1  0.000000  0.500000  0.528755  1
  Ho  Ho1  1  0.500000  0.000000  0.471245  1
  Ho  Ho2  1  0.500000  0.820779  0.204421  1
  Ho  Ho3  1  0.500000  0.179221  0.204421  1
  Ho  Ho4  1  0.000000  0.679221  0.795579  1
  Ho  Ho5  1  0.000000  0.320779  0.795579  1
  Mn  Mn6  1  0.000000  0.500000  0.997792  1
  Mn  Mn7  1  0.500000  0.000000  0.002208  1
  Mn  Mn8  1  0.500000  0.299491  0.431227  1
  Mn  Mn9  1  0.500000  0.700509  0.431227  1
  Mn  Mn10  1  0.000000  0.200509  0.568773  1
  Mn  Mn11  1  0.000000  0.799491  0.568773  1
  Mn  Mn12  1  0.500000  0.881775  0.699372  1
  Mn  Mn13  1  0.500000  0.118225  0.699372  1
  Mn  Mn14  1  0.000000  0.618225  0.300628  1
  Mn  Mn15  1  0.000000  0.381775  0.300628  1
  Mn  Mn16  1  0.500000  0.330077  0.999394  1
  Mn  Mn17  1  0.500000  0.669923  0.999394  1
  Mn  Mn18  1  0.000000  0.169923  0.000606  1
  Mn  Mn19  1  0.000000  0.830077  0.000606  1
  P  P20  1  0.500000  0.311726  0.614302  1
  P  P21  1  0.500000  0.688274  0.614302  1
  P  P22  1  0.000000  0.188274  0.385698  1
  P  P23  1  0.000000  0.811726  0.385698  1
  P  P24  1  0.500000  0.500000  0.891745  1
  P  P25  1  0.000000  0.000000  0.108255  1
  P  P26  1  0.500000  0.842353  0.886348  1
  P  P27  1  0.500000  0.157647  0.886348  1
  P  P28  1  0.000000  0.657647  0.113652  1
  P  P29  1  0.000000  0.342353  0.113652  1
  P  P30  1  0.500000  0.500000  0.360749  1
  P  P31  1  0.000000  0.000000  0.639251  1
  Rh  Rh32  1  0.500000  0.500000  0.168636  1
  Rh  Rh33  1  0.000000  0.000000  0.831364  1
  Rh  Rh34  1  0.500000  0.500000  0.707494  1
  Rh  Rh35  1  0.000000  0.000000  0.292506  1
