# generated using pymatgen
data_Ce2HfZrF14
_symmetry_space_group_name_H-M   'P 1'
_cell_length_a   5.95262890
_cell_length_b   6.34765821
_cell_length_c   8.56663193
_cell_angle_alpha   102.67822226
_cell_angle_beta   90.03396278
_cell_angle_gamma   89.97968464
_symmetry_Int_Tables_number   1
_chemical_formula_structural   Ce2HfZrF14
_chemical_formula_sum   'Ce2 Hf1 Zr1 F14'
_cell_volume   315.80004155
_cell_formula_units_Z   1
loop_
 _symmetry_equiv_pos_site_id
 _symmetry_equiv_pos_as_xyz
  1  'x, y, z'
loop_
 _atom_site_type_symbol
 _atom_site_label
 _atom_site_symmetry_multiplicity
 _atom_site_fract_x
 _atom_site_fract_y
 _atom_site_fract_z
 _atom_site_occupancy
  Ce  Ce0  1  0.699633  0.659838  0.688279  1
  Ce  Ce1  1  0.200028  0.340059  0.312556  1
  Hf  Hf2  1  0.208487  0.189317  0.776734  1
  Zr  Zr3  1  0.709286  0.809170  0.223988  1
  F  F4  1  0.890322  0.453311  0.477429  1
  F  F5  1  0.391330  0.550061  0.521689  1
  F  F6  1  0.429374  0.945802  0.770155  1
  F  F7  1  0.928415  0.059854  0.228393  1
  F  F8  1  0.964100  0.963317  0.758615  1
  F  F9  1  0.457695  0.035484  0.241991  1
  F  F10  1  0.991932  0.434599  0.787050  1
  F  F11  1  0.496439  0.554876  0.211508  1
  F  F12  1  0.699002  0.755861  0.980484  1
  F  F13  1  0.199385  0.242218  0.016373  1
  F  F14  1  0.712415  0.859309  0.467422  1
  F  F15  1  0.211428  0.143921  0.536887  1
  F  F16  1  0.475974  0.386139  0.785928  1
  F  F17  1  0.987477  0.616865  0.214519  1
