# generated using pymatgen
data_Ho5Tm3(LuPb3)2
_symmetry_space_group_name_H-M   'P 1'
_cell_length_a   6.52353700
_cell_length_b   8.98221083
_cell_length_c   8.98816100
_cell_angle_alpha   120.02391509
_cell_angle_beta   90.00114703
_cell_angle_gamma   89.99847782
_symmetry_Int_Tables_number   1
_chemical_formula_structural   Ho5Tm3(LuPb3)2
_chemical_formula_sum   'Ho5 Tm3 Lu2 Pb6'
_cell_volume   455.99821274
_cell_formula_units_Z   1
loop_
 _symmetry_equiv_pos_site_id
 _symmetry_equiv_pos_as_xyz
  1  'x, y, z'
loop_
 _atom_site_type_symbol
 _atom_site_label
 _atom_site_symmetry_multiplicity
 _atom_site_fract_x
 _atom_site_fract_y
 _atom_site_fract_z
 _atom_site_occupancy
  Ho  Ho0  1  0.750079  0.236933  0.999731  1
  Ho  Ho1  1  0.750080  0.763086  0.762804  1
  Ho  Ho2  1  0.750083  0.000027  0.237619  1
  Ho  Ho3  1  0.249935  0.762876  0.999818  1
  Ho  Ho4  1  0.249926  0.237099  0.236950  1
  Tm  Tm5  1  0.249920  0.999976  0.762905  1
  Tm  Tm6  1  0.499890  0.333331  0.666702  1
  Tm  Tm7  1  0.499895  0.666640  0.333336  1
  Lu  Lu8  1  0.000091  0.666673  0.333323  1
  Lu  Lu9  1  0.000103  0.333353  0.666705  1
  Pb  Pb10  1  0.750178  0.604168  0.999968  1
  Pb  Pb11  1  0.750200  0.395868  0.395834  1
  Pb  Pb12  1  0.750209  0.999984  0.604016  1
  Pb  Pb13  1  0.249815  0.394606  0.999226  1
  Pb  Pb14  1  0.249826  0.605356  0.604541  1
  Pb  Pb15  1  0.249773  0.000027  0.396522  1
