# generated using pymatgen
data_Cs4Ba2ZrBi4
_symmetry_space_group_name_H-M   'P 1'
_cell_length_a   11.98284662
_cell_length_b   11.98284822
_cell_length_c   8.89792777
_cell_angle_alpha   87.52418268
_cell_angle_beta   87.52417917
_cell_angle_gamma   119.28262414
_symmetry_Int_Tables_number   1
_chemical_formula_structural   Cs4Ba2ZrBi4
_chemical_formula_sum   'Cs8 Ba4 Zr2 Bi8'
_cell_volume   1110.30342195
_cell_formula_units_Z   2
loop_
 _symmetry_equiv_pos_site_id
 _symmetry_equiv_pos_as_xyz
  1  'x, y, z'
loop_
 _atom_site_type_symbol
 _atom_site_label
 _atom_site_symmetry_multiplicity
 _atom_site_fract_x
 _atom_site_fract_y
 _atom_site_fract_z
 _atom_site_occupancy
  Cs  Cs0  1  0.477231  0.945129  0.388560  1
  Cs  Cs1  1  0.945129  0.477231  0.888560  1
  Cs  Cs2  1  0.866572  0.720375  0.157470  1
  Cs  Cs3  1  0.260500  0.123045  0.241946  1
  Cs  Cs4  1  0.854740  0.143141  0.190233  1
  Cs  Cs5  1  0.123045  0.260500  0.741946  1
  Cs  Cs6  1  0.720375  0.866572  0.657470  1
  Cs  Cs7  1  0.143141  0.854740  0.690233  1
  Ba  Ba8  1  0.070603  0.532457  0.398286  1
  Ba  Ba9  1  0.478952  0.526538  0.376611  1
  Ba  Ba10  1  0.532457  0.070603  0.898286  1
  Ba  Ba11  1  0.526538  0.478952  0.876611  1
  Zr  Zr12  1  0.664234  0.337989  0.491595  1
  Zr  Zr13  1  0.337989  0.664234  0.991595  1
  Bi  Bi14  1  0.633300  0.328584  0.165805  1
  Bi  Bi15  1  0.328584  0.633300  0.665805  1
  Bi  Bi16  1  0.212783  0.405825  0.138157  1
  Bi  Bi17  1  0.602578  0.796051  0.071841  1
  Bi  Bi18  1  0.214721  0.804463  0.097162  1
  Bi  Bi19  1  0.796051  0.602578  0.571841  1
  Bi  Bi20  1  0.405825  0.212783  0.638157  1
  Bi  Bi21  1  0.804463  0.214721  0.597162  1
