# generated using pymatgen
data_U2Al20Cu3Ru
_symmetry_space_group_name_H-M   'P 1'
_cell_length_a   6.81857838
_cell_length_b   6.85804679
_cell_length_c   9.12640375
_cell_angle_alpha   89.71417579
_cell_angle_beta   89.60597204
_cell_angle_gamma   98.29530905
_symmetry_Int_Tables_number   1
_chemical_formula_structural   U2Al20Cu3Ru
_chemical_formula_sum   'U2 Al20 Cu3 Ru1'
_cell_volume   422.28733728
_cell_formula_units_Z   1
loop_
 _symmetry_equiv_pos_site_id
 _symmetry_equiv_pos_as_xyz
  1  'x, y, z'
loop_
 _atom_site_type_symbol
 _atom_site_label
 _atom_site_symmetry_multiplicity
 _atom_site_fract_x
 _atom_site_fract_y
 _atom_site_fract_z
 _atom_site_occupancy
  U  U0  1  0.877850  0.120204  0.755596  1
  U  U1  1  0.122150  0.879796  0.244404  1
  Al  Al2  1  0.780293  0.778324  0.003565  1
  Al  Al3  1  0.782180  0.782794  0.500999  1
  Al  Al4  1  0.219707  0.221676  0.996435  1
  Al  Al5  1  0.217820  0.217206  0.499001  1
  Al  Al6  1  0.620890  0.380174  0.943178  1
  Al  Al7  1  0.379110  0.619826  0.056822  1
  Al  Al8  1  0.623889  0.378949  0.555276  1
  Al  Al9  1  0.376111  0.621051  0.444724  1
  Al  Al10  1  0.846577  0.153330  0.399290  1
  Al  Al11  1  0.153423  0.846670  0.600710  1
  Al  Al12  1  0.845193  0.154411  0.099503  1
  Al  Al13  1  0.154807  0.845589  0.900497  1
  Al  Al14  1  0.404939  0.137546  0.747933  1
  Al  Al15  1  0.134995  0.398598  0.249191  1
  Al  Al16  1  0.595061  0.862454  0.252067  1
  Al  Al17  1  0.865005  0.601402  0.750809  1
  Al  Al18  1  0.526167  0.774415  0.750259  1
  Al  Al19  1  0.773533  0.522457  0.256540  1
  Al  Al20  1  0.473833  0.225585  0.249741  1
  Al  Al21  1  0.226467  0.477543  0.743460  1
  Cu  Cu22  1  0.500000  0.000000  0.000000  1
  Cu  Cu23  1  0.000000  0.500000  0.000000  1
  Cu  Cu24  1  0.500000  0.000000  0.500000  1
  Ru  Ru25  1  0.000000  0.500000  0.500000  1
