# generated using pymatgen
data_Zr9ScPb6
_symmetry_space_group_name_H-M   'P 1'
_cell_length_a   8.65747587
_cell_length_b   8.65747629
_cell_length_c   5.90050500
_cell_angle_alpha   90.00000000
_cell_angle_beta   90.00000000
_cell_angle_gamma   119.89164291
_symmetry_Int_Tables_number   1
_chemical_formula_structural   Zr9ScPb6
_chemical_formula_sum   'Zr9 Sc1 Pb6'
_cell_volume   383.42071840
_cell_formula_units_Z   1
loop_
 _symmetry_equiv_pos_site_id
 _symmetry_equiv_pos_as_xyz
  1  'x, y, z'
loop_
 _atom_site_type_symbol
 _atom_site_label
 _atom_site_symmetry_multiplicity
 _atom_site_fract_x
 _atom_site_fract_y
 _atom_site_fract_z
 _atom_site_occupancy
  Zr  Zr0  1  0.001977  0.248660  0.250000  1
  Zr  Zr1  1  0.755968  0.000823  0.750000  1
  Zr  Zr2  1  0.330276  0.665714  0.500183  1
  Zr  Zr3  1  0.248660  0.001977  0.250000  1
  Zr  Zr4  1  0.665714  0.330276  0.500183  1
  Zr  Zr5  1  0.000823  0.755968  0.750000  1
  Zr  Zr6  1  0.330276  0.665714  0.999817  1
  Zr  Zr7  1  0.243902  0.243902  0.750000  1
  Zr  Zr8  1  0.665714  0.330276  0.999817  1
  Sc  Sc9  1  0.755625  0.755625  0.250000  1
  Pb  Pb10  1  0.609849  0.609849  0.750000  1
  Pb  Pb11  1  0.390790  0.999584  0.750000  1
  Pb  Pb12  1  0.610731  0.996647  0.250000  1
  Pb  Pb13  1  0.999584  0.390790  0.750000  1
  Pb  Pb14  1  0.393465  0.393465  0.250000  1
  Pb  Pb15  1  0.996647  0.610731  0.250000  1
