# generated using pymatgen
data_YLu2Ga5Rh
_symmetry_space_group_name_H-M   'P 1'
_cell_length_a   6.85505400
_cell_length_b   6.88910042
_cell_length_c   4.25432500
_cell_angle_alpha   90.00000000
_cell_angle_beta   90.00000000
_cell_angle_gamma   119.83665184
_symmetry_Int_Tables_number   1
_chemical_formula_structural   YLu2Ga5Rh
_chemical_formula_sum   'Y1 Lu2 Ga5 Rh1'
_cell_volume   174.27985546
_cell_formula_units_Z   1
loop_
 _symmetry_equiv_pos_site_id
 _symmetry_equiv_pos_as_xyz
  1  'x, y, z'
loop_
 _atom_site_type_symbol
 _atom_site_label
 _atom_site_symmetry_multiplicity
 _atom_site_fract_x
 _atom_site_fract_y
 _atom_site_fract_z
 _atom_site_occupancy
  Y  Y0  1  0.585775  0.000000  0.500000  1
  Lu  Lu1  1  0.409313  0.410301  0.500000  1
  Lu  Lu2  1  0.999012  0.589699  0.500000  1
  Ga  Ga3  1  0.238539  0.000000  0.000000  1
  Ga  Ga4  1  0.000252  0.238742  0.000000  1
  Ga  Ga5  1  0.667923  0.336823  0.000000  1
  Ga  Ga6  1  0.331100  0.663177  0.000000  1
  Ga  Ga7  1  0.761510  0.761258  0.000000  1
  Rh  Rh8  1  0.006576  0.000000  0.500000  1
