# generated using pymatgen
data_Eu3ErAg2(IrO7)2
_symmetry_space_group_name_H-M   'P 1'
_cell_length_a   6.40228306
_cell_length_b   6.53041650
_cell_length_c   7.61062300
_cell_angle_alpha   90.00000000
_cell_angle_beta   90.00000000
_cell_angle_gamma   111.82297173
_symmetry_Int_Tables_number   1
_chemical_formula_structural   Eu3ErAg2(IrO7)2
_chemical_formula_sum   'Eu3 Er1 Ag2 Ir2 O14'
_cell_volume   295.39392264
_cell_formula_units_Z   1
loop_
 _symmetry_equiv_pos_site_id
 _symmetry_equiv_pos_as_xyz
  1  'x, y, z'
loop_
 _atom_site_type_symbol
 _atom_site_label
 _atom_site_symmetry_multiplicity
 _atom_site_fract_x
 _atom_site_fract_y
 _atom_site_fract_z
 _atom_site_occupancy
  Eu  Eu0  1  0.999660  0.000285  0.997922  1
  Eu  Eu1  1  0.999660  0.000285  0.502078  1
  Eu  Eu2  1  0.036462  0.509033  0.250000  1
  Er  Er3  1  0.955792  0.491901  0.750000  1
  Ag  Ag4  1  0.487644  0.987000  0.750000  1
  Ag  Ag5  1  0.511644  0.011525  0.250000  1
  Ir  Ir6  1  0.499637  0.499307  0.998929  1
  Ir  Ir7  1  0.499637  0.499307  0.501071  1
  O  O8  1  0.601483  0.510548  0.750000  1
  O  O9  1  0.403411  0.487143  0.250000  1
  O  O10  1  0.838426  0.120618  0.750000  1
  O  O11  1  0.159534  0.887864  0.250000  1
  O  O12  1  0.133284  0.860308  0.750000  1
  O  O13  1  0.867376  0.130825  0.250000  1
  O  O14  1  0.445468  0.196338  0.002272  1
  O  O15  1  0.554942  0.802884  0.503341  1
  O  O16  1  0.172009  0.418985  0.961469  1
  O  O17  1  0.830756  0.583818  0.474648  1
  O  O18  1  0.445468  0.196338  0.497728  1
  O  O19  1  0.554942  0.802884  0.996659  1
  O  O20  1  0.830756  0.583818  0.025352  1
  O  O21  1  0.172009  0.418985  0.538531  1
