# generated using pymatgen
data_Y6Ho10Cd3InPd4
_symmetry_space_group_name_H-M   'P 1'
_cell_length_a   9.68374960
_cell_length_b   9.68374913
_cell_length_c   9.68374889
_cell_angle_alpha   60.13617323
_cell_angle_beta   60.13617456
_cell_angle_gamma   60.13617364
_symmetry_Int_Tables_number   1
_chemical_formula_structural   Y6Ho10Cd3InPd4
_chemical_formula_sum   'Y6 Ho10 Cd3 In1 Pd4'
_cell_volume   644.09989120
_cell_formula_units_Z   1
loop_
 _symmetry_equiv_pos_site_id
 _symmetry_equiv_pos_as_xyz
  1  'x, y, z'
loop_
 _atom_site_type_symbol
 _atom_site_label
 _atom_site_symmetry_multiplicity
 _atom_site_fract_x
 _atom_site_fract_y
 _atom_site_fract_z
 _atom_site_occupancy
  Y  Y0  1  0.936147  0.566151  0.566151  1
  Y  Y1  1  0.564097  0.936070  0.936070  1
  Y  Y2  1  0.566151  0.936147  0.566151  1
  Y  Y3  1  0.936070  0.564097  0.936070  1
  Y  Y4  1  0.566151  0.566151  0.936147  1
  Y  Y5  1  0.936070  0.936070  0.564097  1
  Ho  Ho6  1  0.351437  0.351437  0.351437  1
  Ho  Ho7  1  0.355666  0.355666  0.937254  1
  Ho  Ho8  1  0.355666  0.937254  0.355666  1
  Ho  Ho9  1  0.937254  0.355666  0.355666  1
  Ho  Ho10  1  0.810947  0.189513  0.189513  1
  Ho  Ho11  1  0.190233  0.809785  0.809785  1
  Ho  Ho12  1  0.189513  0.810947  0.189513  1
  Ho  Ho13  1  0.809785  0.190233  0.809785  1
  Ho  Ho14  1  0.189513  0.189513  0.810947  1
  Ho  Ho15  1  0.809785  0.809785  0.190233  1
  Cd  Cd16  1  0.580892  0.580892  0.252458  1
  Cd  Cd17  1  0.580892  0.252458  0.580892  1
  Cd  Cd18  1  0.252458  0.580892  0.580892  1
  In  In19  1  0.582335  0.582335  0.582335  1
  Pd  Pd20  1  0.145449  0.145449  0.145449  1
  Pd  Pd21  1  0.142813  0.142813  0.567863  1
  Pd  Pd22  1  0.142813  0.567863  0.142813  1
  Pd  Pd23  1  0.567863  0.142813  0.142813  1
