# generated using pymatgen
data_Yb4HoCd5
_symmetry_space_group_name_H-M   'P 1'
_cell_length_a   3.80700100
_cell_length_b   3.80700100
_cell_length_c   18.49300900
_cell_angle_alpha   90.00000000
_cell_angle_beta   90.00000000
_cell_angle_gamma   90.00000000
_symmetry_Int_Tables_number   1
_chemical_formula_structural   Yb4HoCd5
_chemical_formula_sum   'Yb4 Ho1 Cd5'
_cell_volume   268.02392500
_cell_formula_units_Z   1
loop_
 _symmetry_equiv_pos_site_id
 _symmetry_equiv_pos_as_xyz
  1  'x, y, z'
loop_
 _atom_site_type_symbol
 _atom_site_label
 _atom_site_symmetry_multiplicity
 _atom_site_fract_x
 _atom_site_fract_y
 _atom_site_fract_z
 _atom_site_occupancy
  Yb  Yb0  1  0.000000  0.000000  0.200588  1
  Yb  Yb1  1  0.000000  0.000000  0.400028  1
  Yb  Yb2  1  0.000000  0.000000  0.599972  1
  Yb  Yb3  1  0.000000  0.000000  0.799412  1
  Ho  Ho4  1  0.000000  0.000000  0.000000  1
  Cd  Cd5  1  0.500000  0.500000  0.100325  1
  Cd  Cd6  1  0.500000  0.500000  0.301008  1
  Cd  Cd7  1  0.500000  0.500000  0.500000  1
  Cd  Cd8  1  0.500000  0.500000  0.698992  1
  Cd  Cd9  1  0.500000  0.500000  0.899675  1
