# generated using pymatgen
data_Cr4AgHgTe8
_symmetry_space_group_name_H-M   'P 1'
_cell_length_a   8.22213676
_cell_length_b   8.20809630
_cell_length_c   8.20623657
_cell_angle_alpha   59.96493353
_cell_angle_beta   60.04873901
_cell_angle_gamma   59.99817538
_symmetry_Int_Tables_number   1
_chemical_formula_structural   Cr4AgHgTe8
_chemical_formula_sum   'Cr4 Ag1 Hg1 Te8'
_cell_volume   391.64680424
_cell_formula_units_Z   1
loop_
 _symmetry_equiv_pos_site_id
 _symmetry_equiv_pos_as_xyz
  1  'x, y, z'
loop_
 _atom_site_type_symbol
 _atom_site_label
 _atom_site_symmetry_multiplicity
 _atom_site_fract_x
 _atom_site_fract_y
 _atom_site_fract_z
 _atom_site_occupancy
  Cr  Cr0  1  0.127111  0.127101  0.127066  1
  Cr  Cr1  1  0.619013  0.126989  0.126928  1
  Cr  Cr2  1  0.126980  0.127153  0.618808  1
  Cr  Cr3  1  0.127009  0.618700  0.127209  1
  Ag  Ag4  1  0.500078  0.499955  0.499965  1
  Hg  Hg5  1  0.749684  0.750201  0.750090  1
  Te  Te6  1  0.327606  0.890728  0.890806  1
  Te  Te7  1  0.361823  0.361848  0.361896  1
  Te  Te8  1  0.890985  0.891034  0.327071  1
  Te  Te9  1  0.890961  0.326997  0.891054  1
  Te  Te10  1  0.361859  0.361760  0.914512  1
  Te  Te11  1  0.361843  0.914631  0.361733  1
  Te  Te12  1  0.914055  0.362005  0.362000  1
  Te  Te13  1  0.890992  0.890899  0.890863  1
