# generated using pymatgen
data_Er2Re3W
_symmetry_space_group_name_H-M   'P 1'
_cell_length_a   5.47036700
_cell_length_b   5.47036743
_cell_length_c   8.78406900
_cell_angle_alpha   90.00000000
_cell_angle_beta   90.00000000
_cell_angle_gamma   120.00000344
_symmetry_Int_Tables_number   1
_chemical_formula_structural   Er2Re3W
_chemical_formula_sum   'Er4 Re6 W2'
_cell_volume   227.64562941
_cell_formula_units_Z   2
loop_
 _symmetry_equiv_pos_site_id
 _symmetry_equiv_pos_as_xyz
  1  'x, y, z'
loop_
 _atom_site_type_symbol
 _atom_site_label
 _atom_site_symmetry_multiplicity
 _atom_site_fract_x
 _atom_site_fract_y
 _atom_site_fract_z
 _atom_site_occupancy
  Er  Er0  1  0.333333  0.666667  0.437037  1
  Er  Er1  1  0.666667  0.333333  0.562963  1
  Er  Er2  1  0.666667  0.333333  0.937037  1
  Er  Er3  1  0.333333  0.666667  0.062963  1
  Re  Re4  1  0.828301  0.171699  0.250000  1
  Re  Re5  1  0.828301  0.656601  0.250000  1
  Re  Re6  1  0.343399  0.171699  0.250000  1
  Re  Re7  1  0.171699  0.828301  0.750000  1
  Re  Re8  1  0.171699  0.343399  0.750000  1
  Re  Re9  1  0.656601  0.828301  0.750000  1
  W  W10  1  0.000000  0.000000  0.500000  1
  W  W11  1  0.000000  0.000000  0.000000  1
