# generated using pymatgen
data_Ca11YPd12
_symmetry_space_group_name_H-M   'P 1'
_cell_length_a   5.75822253
_cell_length_b   4.49885700
_cell_length_c   22.08186847
_cell_angle_alpha   90.00000000
_cell_angle_beta   96.61996683
_cell_angle_gamma   90.00000000
_symmetry_Int_Tables_number   1
_chemical_formula_structural   Ca11YPd12
_chemical_formula_sum   'Ca11 Y1 Pd12'
_cell_volume   568.22608033
_cell_formula_units_Z   1
loop_
 _symmetry_equiv_pos_site_id
 _symmetry_equiv_pos_as_xyz
  1  'x, y, z'
loop_
 _atom_site_type_symbol
 _atom_site_label
 _atom_site_symmetry_multiplicity
 _atom_site_fract_x
 _atom_site_fract_y
 _atom_site_fract_z
 _atom_site_occupancy
  Ca  Ca0  1  0.180930  0.750000  0.106869  1
  Ca  Ca1  1  0.504168  0.250001  0.226763  1
  Ca  Ca2  1  0.024202  0.750000  0.273487  1
  Ca  Ca3  1  0.809913  0.250001  0.393938  1
  Ca  Ca4  1  0.332400  0.750000  0.439751  1
  Ca  Ca5  1  0.666808  0.250001  0.560375  1
  Ca  Ca6  1  0.190388  0.750000  0.606209  1
  Ca  Ca7  1  0.973814  0.250001  0.726551  1
  Ca  Ca8  1  0.496557  0.750000  0.773254  1
  Ca  Ca9  1  0.823740  0.250001  0.893224  1
  Ca  Ca10  1  0.335499  0.750000  0.939552  1
  Y  Y11  1  0.667490  0.250001  0.060691  1
  Pd  Pd12  1  0.152426  0.250001  0.015100  1
  Pd  Pd13  1  0.694290  0.750000  0.149572  1
  Pd  Pd14  1  0.981322  0.250001  0.178382  1
  Pd  Pd15  1  0.550687  0.750000  0.321129  1
  Pd  Pd16  1  0.282823  0.250001  0.345320  1
  Pd  Pd17  1  0.853553  0.750000  0.487808  1
  Pd  Pd18  1  0.145916  0.250001  0.512336  1
  Pd  Pd19  1  0.716495  0.750000  0.654265  1
  Pd  Pd20  1  0.449193  0.250001  0.678967  1
  Pd  Pd21  1  0.013854  0.750000  0.819640  1
  Pd  Pd22  1  0.304385  0.250001  0.845377  1
  Pd  Pd23  1  0.849148  0.750000  0.991440  1
