# generated using pymatgen
data_Lu4TcB12Rh
_symmetry_space_group_name_H-M   'P 1'
_cell_length_a   3.61131600
_cell_length_b   9.03319150
_cell_length_c   11.40922817
_cell_angle_alpha   90.33377735
_cell_angle_beta   90.00000000
_cell_angle_gamma   90.00000000
_symmetry_Int_Tables_number   1
_chemical_formula_structural   Lu4TcB12Rh
_chemical_formula_sum   'Lu8 Tc2 B24 Rh2'
_cell_volume   372.18220587
_cell_formula_units_Z   2
loop_
 _symmetry_equiv_pos_site_id
 _symmetry_equiv_pos_as_xyz
  1  'x, y, z'
loop_
 _atom_site_type_symbol
 _atom_site_label
 _atom_site_symmetry_multiplicity
 _atom_site_fract_x
 _atom_site_fract_y
 _atom_site_fract_z
 _atom_site_occupancy
  Lu  Lu0  1  0.500000  0.317588  0.410905  1
  Lu  Lu1  1  0.500000  0.682412  0.589095  1
  Lu  Lu2  1  0.500000  0.173707  0.917262  1
  Lu  Lu3  1  0.500000  0.826293  0.082738  1
  Lu  Lu4  1  0.500000  0.442182  0.126400  1
  Lu  Lu5  1  0.500000  0.557818  0.873600  1
  Lu  Lu6  1  0.500000  0.053270  0.628188  1
  Lu  Lu7  1  0.500000  0.946730  0.371812  1
  Tc  Tc8  1  0.500000  0.139614  0.180131  1
  Tc  Tc9  1  0.500000  0.860386  0.819869  1
  B  B10  1  0.000000  0.106358  0.471494  1
  B  B11  1  0.000000  0.893642  0.528506  1
  B  B12  1  0.000000  0.394904  0.970681  1
  B  B13  1  0.000000  0.605096  0.029319  1
  B  B14  1  0.000000  0.132511  0.315732  1
  B  B15  1  0.000000  0.867489  0.684268  1
  B  B16  1  0.000000  0.367351  0.817192  1
  B  B17  1  0.000000  0.632649  0.182808  1
  B  B18  1  0.000000  0.052971  0.066745  1
  B  B19  1  0.000000  0.947029  0.933255  1
  B  B20  1  0.000000  0.445676  0.565118  1
  B  B21  1  0.000000  0.554324  0.434882  1
  B  B22  1  0.000000  0.482783  0.287700  1
  B  B23  1  0.000000  0.517217  0.712300  1
  B  B24  1  0.000000  0.017535  0.786777  1
  B  B25  1  0.000000  0.982465  0.213223  1
  B  B26  1  0.000000  0.249488  0.080269  1
  B  B27  1  0.000000  0.750512  0.919731  1
  B  B28  1  0.000000  0.249852  0.578192  1
  B  B29  1  0.000000  0.750148  0.421808  1
  B  B30  1  0.000000  0.294468  0.235213  1
  B  B31  1  0.000000  0.705532  0.764787  1
  B  B32  1  0.000000  0.206846  0.735459  1
  B  B33  1  0.000000  0.793154  0.264541  1
  Rh  Rh34  1  0.500000  0.361018  0.678740  1
  Rh  Rh35  1  0.500000  0.638982  0.321260  1
