# generated using pymatgen
data_Nd5ZrMoO12
_symmetry_space_group_name_H-M   'P 1'
_cell_length_a   7.13692157
_cell_length_b   7.13692170
_cell_length_c   7.67616719
_cell_angle_alpha   74.42906422
_cell_angle_beta   74.42905980
_cell_angle_gamma   51.31929577
_symmetry_Int_Tables_number   1
_chemical_formula_structural   Nd5ZrMoO12
_chemical_formula_sum   'Nd5 Zr1 Mo1 O12'
_cell_volume   291.37477871
_cell_formula_units_Z   1
loop_
 _symmetry_equiv_pos_site_id
 _symmetry_equiv_pos_as_xyz
  1  'x, y, z'
loop_
 _atom_site_type_symbol
 _atom_site_label
 _atom_site_symmetry_multiplicity
 _atom_site_fract_x
 _atom_site_fract_y
 _atom_site_fract_z
 _atom_site_occupancy
  Nd  Nd0  1  0.305235  0.300060  0.361613  1
  Nd  Nd1  1  0.699940  0.694765  0.638387  1
  Nd  Nd2  1  0.303456  0.310734  0.829126  1
  Nd  Nd3  1  0.689266  0.696544  0.170874  1
  Nd  Nd4  1  0.007425  0.992575  0.500000  1
  Zr  Zr5  1  0.762572  0.237428  0.000000  1
  Mo  Mo6  1  0.246762  0.753238  0.000000  1
  O  O7  1  0.896784  0.440927  0.917071  1
  O  O8  1  0.415656  0.896707  0.919335  1
  O  O9  1  0.103293  0.584344  0.080665  1
  O  O10  1  0.559073  0.103216  0.082929  1
  O  O11  1  0.096466  0.596327  0.573183  1
  O  O12  1  0.594101  0.093851  0.578868  1
  O  O13  1  0.906149  0.405899  0.421132  1
  O  O14  1  0.403673  0.903534  0.426817  1
  O  O15  1  0.011485  0.988892  0.814817  1
  O  O16  1  0.011108  0.988515  0.185183  1
  O  O17  1  0.492443  0.504885  0.816805  1
  O  O18  1  0.495115  0.507557  0.183195  1
