# generated using pymatgen
data_La7Tb3Ru4
_symmetry_space_group_name_H-M   'P 1'
_cell_length_a   8.98575161
_cell_length_b   9.01688042
_cell_length_c   7.28066772
_cell_angle_alpha   85.23129209
_cell_angle_beta   85.25936003
_cell_angle_gamma   43.47819560
_symmetry_Int_Tables_number   1
_chemical_formula_structural   La7Tb3Ru4
_chemical_formula_sum   'La7 Tb3 Ru4'
_cell_volume   404.28137347
_cell_formula_units_Z   1
loop_
 _symmetry_equiv_pos_site_id
 _symmetry_equiv_pos_as_xyz
  1  'x, y, z'
loop_
 _atom_site_type_symbol
 _atom_site_label
 _atom_site_symmetry_multiplicity
 _atom_site_fract_x
 _atom_site_fract_y
 _atom_site_fract_z
 _atom_site_occupancy
  La  La0  1  0.022071  0.793087  0.908303  1
  La  La1  1  0.199308  0.984423  0.590582  1
  La  La2  1  0.983280  0.200982  0.091583  1
  La  La3  1  0.791949  0.021246  0.406548  1
  La  La4  1  0.359521  0.214066  0.815660  1
  La  La5  1  0.790461  0.636809  0.679633  1
  La  La6  1  0.637316  0.790480  0.183277  1
  Tb  Tb7  1  0.209566  0.364680  0.316874  1
  Tb  Tb8  1  0.570001  0.431042  0.750200  1
  Tb  Tb9  1  0.428013  0.568158  0.251725  1
  Ru  Ru10  1  0.177076  0.603193  0.582855  1
  Ru  Ru11  1  0.398537  0.819426  0.921621  1
  Ru  Ru12  1  0.830787  0.394263  0.419588  1
  Ru  Ru13  1  0.602113  0.178145  0.081551  1
