# generated using pymatgen
data_Cs2Mn2AgTe4
_symmetry_space_group_name_H-M   'P 1'
_cell_length_a   10.63373135
_cell_length_b   10.63373208
_cell_length_c   10.63373125
_cell_angle_alpha   144.52452107
_cell_angle_beta   104.29183370
_cell_angle_gamma   86.48987896
_symmetry_Int_Tables_number   1
_chemical_formula_structural   Cs2Mn2AgTe4
_chemical_formula_sum   'Cs4 Mn4 Ag2 Te8'
_cell_volume   655.00485252
_cell_formula_units_Z   2
loop_
 _symmetry_equiv_pos_site_id
 _symmetry_equiv_pos_as_xyz
  1  'x, y, z'
loop_
 _atom_site_type_symbol
 _atom_site_label
 _atom_site_symmetry_multiplicity
 _atom_site_fract_x
 _atom_site_fract_y
 _atom_site_fract_z
 _atom_site_occupancy
  Cs  Cs0  1  0.125777  0.233657  0.359746  1
  Cs  Cs1  1  0.374223  0.733969  0.107880  1
  Cs  Cs2  1  0.626089  0.266343  0.892120  1
  Cs  Cs3  1  0.873911  0.766031  0.640254  1
  Mn  Mn4  1  0.486975  0.250000  0.236975  1
  Mn  Mn5  1  0.750000  0.250000  0.500000  1
  Mn  Mn6  1  0.250000  0.750000  0.500000  1
  Mn  Mn7  1  0.013025  0.250000  0.763025  1
  Ag  Ag8  1  0.511133  0.750000  0.761133  1
  Ag  Ag9  1  0.988867  0.750000  0.238867  1
  Te  Te10  1  0.229172  0.093069  0.623685  1
  Te  Te11  1  0.270828  0.894513  0.863896  1
  Te  Te12  1  0.030616  0.406931  0.136104  1
  Te  Te13  1  0.469384  0.605487  0.376315  1
  Te  Te14  1  0.776778  0.934580  0.416136  1
  Te  Te15  1  0.723223  0.139358  0.157803  1
  Te  Te16  1  0.981556  0.565420  0.842197  1
  Te  Te17  1  0.518444  0.360642  0.583864  1
