# generated using pymatgen
data_CaLa3Ir3RuO14
_symmetry_space_group_name_H-M   'P 1'
_cell_length_a   7.44780712
_cell_length_b   7.36516775
_cell_length_c   7.47405584
_cell_angle_alpha   59.71968934
_cell_angle_beta   60.11611342
_cell_angle_gamma   59.62814811
_symmetry_Int_Tables_number   1
_chemical_formula_structural   CaLa3Ir3RuO14
_chemical_formula_sum   'Ca1 La3 Ir3 Ru1 O14'
_cell_volume   288.71510178
_cell_formula_units_Z   1
loop_
 _symmetry_equiv_pos_site_id
 _symmetry_equiv_pos_as_xyz
  1  'x, y, z'
loop_
 _atom_site_type_symbol
 _atom_site_label
 _atom_site_symmetry_multiplicity
 _atom_site_fract_x
 _atom_site_fract_y
 _atom_site_fract_z
 _atom_site_occupancy
  Ca  Ca0  1  0.625000  0.125000  0.625000  1
  La  La1  1  0.625000  0.625000  0.125000  1
  La  La2  1  0.125000  0.625000  0.625000  1
  La  La3  1  0.625000  0.625000  0.625000  1
  Ir  Ir4  1  0.625000  0.125000  0.125000  1
  Ir  Ir5  1  0.125000  0.625000  0.125000  1
  Ir  Ir6  1  0.125000  0.125000  0.125000  1
  Ru  Ru7  1  0.125000  0.125000  0.625000  1
  O  O8  1  0.199373  0.197949  0.800736  1
  O  O9  1  0.204361  0.794728  0.204898  1
  O  O10  1  0.451360  0.053033  0.044249  1
  O  O11  1  0.203754  0.795329  0.797162  1
  O  O12  1  0.046246  0.454671  0.452838  1
  O  O13  1  0.796012  0.794728  0.204898  1
  O  O14  1  0.453988  0.455272  0.045102  1
  O  O15  1  0.502002  0.495666  0.500332  1
  O  O16  1  0.050627  0.052051  0.449264  1
  O  O17  1  0.448059  0.052051  0.449264  1
  O  O18  1  0.045639  0.455272  0.045102  1
  O  O19  1  0.747998  0.754334  0.749668  1
  O  O20  1  0.801941  0.197949  0.800736  1
  O  O21  1  0.798640  0.196967  0.205751  1
