# generated using pymatgen
data_MoSeS2Br5
_symmetry_space_group_name_H-M   'P 1'
_cell_length_a   10.61984200
_cell_length_b   10.61984223
_cell_length_c   15.22751892
_cell_angle_alpha   66.96155740
_cell_angle_beta   66.96155675
_cell_angle_gamma   57.84639764
_symmetry_Int_Tables_number   1
_chemical_formula_structural   MoSeS2Br5
_chemical_formula_sum   'Mo4 Se4 S8 Br20'
_cell_volume   1300.54141304
_cell_formula_units_Z   4
loop_
 _symmetry_equiv_pos_site_id
 _symmetry_equiv_pos_as_xyz
  1  'x, y, z'
loop_
 _atom_site_type_symbol
 _atom_site_label
 _atom_site_symmetry_multiplicity
 _atom_site_fract_x
 _atom_site_fract_y
 _atom_site_fract_z
 _atom_site_occupancy
  Mo  Mo0  1  0.623750  0.234143  0.238772  1
  Mo  Mo1  1  0.376250  0.765857  0.761228  1
  Mo  Mo2  1  0.234143  0.623750  0.738772  1
  Mo  Mo3  1  0.765857  0.376250  0.261228  1
  Se  Se4  1  0.230455  0.067259  0.762147  1
  Se  Se5  1  0.769545  0.932741  0.237853  1
  Se  Se6  1  0.067259  0.230455  0.262147  1
  Se  Se7  1  0.932741  0.769545  0.737853  1
  S  S8  1  0.863287  0.241915  0.132159  1
  S  S9  1  0.241915  0.863287  0.632159  1
  S  S10  1  0.136713  0.758085  0.867841  1
  S  S11  1  0.328992  0.557070  0.880135  1
  S  S12  1  0.442930  0.671008  0.619865  1
  S  S13  1  0.758085  0.136713  0.367841  1
  S  S14  1  0.671008  0.442930  0.119865  1
  S  S15  1  0.557070  0.328992  0.380135  1
  Br  Br16  1  0.452534  0.349655  0.726060  1
  Br  Br17  1  0.226648  0.140374  0.113045  1
  Br  Br18  1  0.976249  0.130247  0.869470  1
  Br  Br19  1  0.071010  0.475575  0.848813  1
  Br  Br20  1  0.163068  0.619892  0.592223  1
  Br  Br21  1  0.475575  0.071010  0.348813  1
  Br  Br22  1  0.023751  0.869753  0.130530  1
  Br  Br23  1  0.547466  0.650345  0.273940  1
  Br  Br24  1  0.349655  0.452534  0.226060  1
  Br  Br25  1  0.859626  0.773352  0.386955  1
  Br  Br26  1  0.140374  0.226648  0.613045  1
  Br  Br27  1  0.524425  0.928990  0.651187  1
  Br  Br28  1  0.773352  0.859626  0.886955  1
  Br  Br29  1  0.380108  0.836932  0.907777  1
  Br  Br30  1  0.836932  0.380108  0.407777  1
  Br  Br31  1  0.928990  0.524425  0.151187  1
  Br  Br32  1  0.619892  0.163068  0.092223  1
  Br  Br33  1  0.869753  0.023751  0.630530  1
  Br  Br34  1  0.130247  0.976249  0.369470  1
  Br  Br35  1  0.650345  0.547466  0.773940  1
