# generated using pymatgen
data_La4PrEu5Ru4
_symmetry_space_group_name_H-M   'P 1'
_cell_length_a   9.06314845
_cell_length_b   9.06314874
_cell_length_c   7.47627900
_cell_angle_alpha   84.07316672
_cell_angle_beta   84.07316653
_cell_angle_gamma   43.35554257
_symmetry_Int_Tables_number   1
_chemical_formula_structural   La4PrEu5Ru4
_chemical_formula_sum   'La4 Pr1 Eu5 Ru4'
_cell_volume   418.98775008
_cell_formula_units_Z   1
loop_
 _symmetry_equiv_pos_site_id
 _symmetry_equiv_pos_as_xyz
  1  'x, y, z'
loop_
 _atom_site_type_symbol
 _atom_site_label
 _atom_site_symmetry_multiplicity
 _atom_site_fract_x
 _atom_site_fract_y
 _atom_site_fract_z
 _atom_site_occupancy
  La  La0  1  0.010926  0.801959  0.904780  1
  La  La1  1  0.198041  0.989074  0.595220  1
  La  La2  1  0.991122  0.196595  0.092648  1
  La  La3  1  0.803405  0.008878  0.407352  1
  Pr  Pr4  1  0.432807  0.567193  0.250000  1
  Eu  Eu5  1  0.367346  0.208985  0.817663  1
  Eu  Eu6  1  0.791015  0.632654  0.682337  1
  Eu  Eu7  1  0.634280  0.792127  0.182264  1
  Eu  Eu8  1  0.207873  0.365720  0.317736  1
  Eu  Eu9  1  0.574964  0.425036  0.750000  1
  Ru  Ru10  1  0.147965  0.643013  0.589456  1
  Ru  Ru11  1  0.356987  0.852035  0.910544  1
  Ru  Ru12  1  0.846905  0.363636  0.403816  1
  Ru  Ru13  1  0.636364  0.153095  0.096184  1
