# generated using pymatgen
data_TbDy7(ReC2)4
_symmetry_space_group_name_H-M   'P 1'
_cell_length_a   5.12452900
_cell_length_b   6.58364159
_cell_length_c   9.87574788
_cell_angle_alpha   90.04842140
_cell_angle_beta   90.00000000
_cell_angle_gamma   90.00000000
_symmetry_Int_Tables_number   1
_chemical_formula_structural   TbDy7(ReC2)4
_chemical_formula_sum   'Tb1 Dy7 Re4 C8'
_cell_volume   333.18847774
_cell_formula_units_Z   1
loop_
 _symmetry_equiv_pos_site_id
 _symmetry_equiv_pos_as_xyz
  1  'x, y, z'
loop_
 _atom_site_type_symbol
 _atom_site_label
 _atom_site_symmetry_multiplicity
 _atom_site_fract_x
 _atom_site_fract_y
 _atom_site_fract_z
 _atom_site_occupancy
  Tb  Tb0  1  0.250000  0.531078  0.216088  1
  Dy  Dy1  1  0.750000  0.819261  0.056112  1
  Dy  Dy2  1  0.250000  0.680818  0.556280  1
  Dy  Dy3  1  0.750000  0.319072  0.443885  1
  Dy  Dy4  1  0.250000  0.180931  0.943714  1
  Dy  Dy5  1  0.750000  0.468731  0.783684  1
  Dy  Dy6  1  0.250000  0.031165  0.283708  1
  Dy  Dy7  1  0.750000  0.968753  0.716390  1
  Re  Re8  1  0.750000  0.277531  0.134373  1
  Re  Re9  1  0.250000  0.222111  0.634475  1
  Re  Re10  1  0.750000  0.777850  0.365729  1
  Re  Re11  1  0.250000  0.722401  0.865523  1
  C  C12  1  0.750000  0.177420  0.950866  1
  C  C13  1  0.250000  0.823366  0.048748  1
  C  C14  1  0.750000  0.677510  0.549089  1
  C  C15  1  0.250000  0.322158  0.451162  1
  C  C16  1  0.750000  0.044031  0.258913  1
  C  C17  1  0.250000  0.455874  0.758915  1
  C  C18  1  0.750000  0.544062  0.241268  1
  C  C19  1  0.250000  0.955878  0.741078  1
