# generated using pymatgen
data_Tb3HoAl4Ni3Rh
_symmetry_space_group_name_H-M   'P 1'
_cell_length_a   4.28788900
_cell_length_b   6.71291364
_cell_length_c   7.73554267
_cell_angle_alpha   89.47998611
_cell_angle_beta   90.00000000
_cell_angle_gamma   90.00000000
_symmetry_Int_Tables_number   1
_chemical_formula_structural   Tb3HoAl4Ni3Rh
_chemical_formula_sum   'Tb3 Ho1 Al4 Ni3 Rh1'
_cell_volume   222.65245766
_cell_formula_units_Z   1
loop_
 _symmetry_equiv_pos_site_id
 _symmetry_equiv_pos_as_xyz
  1  'x, y, z'
loop_
 _atom_site_type_symbol
 _atom_site_label
 _atom_site_symmetry_multiplicity
 _atom_site_fract_x
 _atom_site_fract_y
 _atom_site_fract_z
 _atom_site_occupancy
  Tb  Tb0  1  0.250000  0.539094  0.177596  1
  Tb  Tb1  1  0.750000  0.462875  0.826757  1
  Tb  Tb2  1  0.750000  0.960577  0.675919  1
  Ho  Ho3  1  0.250000  0.035098  0.320330  1
  Al  Al4  1  0.250000  0.640544  0.558759  1
  Al  Al5  1  0.750000  0.366110  0.436003  1
  Al  Al6  1  0.750000  0.862865  0.059552  1
  Al  Al7  1  0.250000  0.136070  0.944884  1
  Ni  Ni8  1  0.250000  0.774453  0.877495  1
  Ni  Ni9  1  0.750000  0.226805  0.126714  1
  Ni  Ni10  1  0.750000  0.731492  0.375307  1
  Rh  Rh11  1  0.250000  0.264017  0.620683  1
