# generated using pymatgen
data_Sm5Ho5(Pb3Cl)2
_symmetry_space_group_name_H-M   'P 1'
_cell_length_a   9.30673500
_cell_length_b   9.31503986
_cell_length_c   6.68525600
_cell_angle_alpha   90.00000000
_cell_angle_beta   90.00000000
_cell_angle_gamma   119.97050137
_symmetry_Int_Tables_number   1
_chemical_formula_structural   Sm5Ho5(Pb3Cl)2
_chemical_formula_sum   'Sm5 Ho5 Pb6 Cl2'
_cell_volume   502.06477931
_cell_formula_units_Z   1
loop_
 _symmetry_equiv_pos_site_id
 _symmetry_equiv_pos_as_xyz
  1  'x, y, z'
loop_
 _atom_site_type_symbol
 _atom_site_label
 _atom_site_symmetry_multiplicity
 _atom_site_fract_x
 _atom_site_fract_y
 _atom_site_fract_z
 _atom_site_occupancy
  Sm  Sm0  1  0.740717  0.000000  0.750000  1
  Sm  Sm1  1  0.999371  0.260040  0.250000  1
  Sm  Sm2  1  0.000399  0.740944  0.750000  1
  Sm  Sm3  1  0.739333  0.739960  0.250000  1
  Sm  Sm4  1  0.259455  0.259056  0.750000  1
  Ho  Ho5  1  0.333353  0.666969  0.000218  1
  Ho  Ho6  1  0.666385  0.333031  0.000218  1
  Ho  Ho7  1  0.666385  0.333031  0.499782  1
  Ho  Ho8  1  0.333353  0.666969  0.499782  1
  Ho  Ho9  1  0.260426  0.000000  0.250000  1
  Pb  Pb10  1  0.605881  0.000000  0.250000  1
  Pb  Pb11  1  0.391773  0.000000  0.750000  1
  Pb  Pb12  1  0.002133  0.611702  0.250000  1
  Pb  Pb13  1  0.999954  0.391809  0.750000  1
  Pb  Pb14  1  0.390431  0.388298  0.250000  1
  Pb  Pb15  1  0.608144  0.608191  0.750000  1
  Cl  Cl16  1  0.001254  0.000000  0.001805  1
  Cl  Cl17  1  0.001254  0.000000  0.498195  1
