# generated using pymatgen
data_Tb10IrPt5
_symmetry_space_group_name_H-M   'P 1'
_cell_length_a   11.10659200
_cell_length_b   11.10659200
_cell_length_c   6.45309700
_cell_angle_alpha   90.00000000
_cell_angle_beta   90.00000000
_cell_angle_gamma   90.00000000
_symmetry_Int_Tables_number   1
_chemical_formula_structural   Tb10IrPt5
_chemical_formula_sum   'Tb20 Ir2 Pt10'
_cell_volume   796.03072349
_cell_formula_units_Z   2
loop_
 _symmetry_equiv_pos_site_id
 _symmetry_equiv_pos_as_xyz
  1  'x, y, z'
loop_
 _atom_site_type_symbol
 _atom_site_label
 _atom_site_symmetry_multiplicity
 _atom_site_fract_x
 _atom_site_fract_y
 _atom_site_fract_z
 _atom_site_occupancy
  Tb  Tb0  1  0.292639  0.088641  0.377149  1
  Tb  Tb1  1  0.292639  0.911359  0.877149  1
  Tb  Tb2  1  0.707361  0.088641  0.877149  1
  Tb  Tb3  1  0.707361  0.911359  0.377149  1
  Tb  Tb4  1  0.588641  0.792639  0.877149  1
  Tb  Tb5  1  0.588641  0.207361  0.377149  1
  Tb  Tb6  1  0.411359  0.792639  0.377149  1
  Tb  Tb7  1  0.411359  0.207361  0.877149  1
  Tb  Tb8  1  0.205030  0.412034  0.623383  1
  Tb  Tb9  1  0.205030  0.587966  0.123383  1
  Tb  Tb10  1  0.794970  0.412034  0.123383  1
  Tb  Tb11  1  0.794970  0.587966  0.623383  1
  Tb  Tb12  1  0.912034  0.705030  0.123383  1
  Tb  Tb13  1  0.912034  0.294970  0.623383  1
  Tb  Tb14  1  0.087966  0.705030  0.623383  1
  Tb  Tb15  1  0.087966  0.294970  0.123383  1
  Tb  Tb16  1  0.000000  0.000000  0.500463  1
  Tb  Tb17  1  0.000000  0.000000  0.000463  1
  Tb  Tb18  1  0.500000  0.500000  0.000463  1
  Tb  Tb19  1  0.500000  0.500000  0.500463  1
  Ir  Ir20  1  0.000000  0.500000  0.878008  1
  Ir  Ir21  1  0.000000  0.500000  0.378008  1
  Pt  Pt22  1  0.845894  0.153016  0.249916  1
  Pt  Pt23  1  0.845894  0.846984  0.749916  1
  Pt  Pt24  1  0.154106  0.153016  0.749916  1
  Pt  Pt25  1  0.154106  0.846984  0.249916  1
  Pt  Pt26  1  0.653016  0.345894  0.749916  1
  Pt  Pt27  1  0.653016  0.654106  0.249916  1
  Pt  Pt28  1  0.346984  0.345894  0.249916  1
  Pt  Pt29  1  0.346984  0.654106  0.749916  1
  Pt  Pt30  1  0.500000  0.000000  0.119278  1
  Pt  Pt31  1  0.500000  0.000000  0.619278  1
