# generated using pymatgen
data_YHo2(Ir2Rh)3
_symmetry_space_group_name_H-M   'P 1'
_cell_length_a   5.30328004
_cell_length_b   5.30277791
_cell_length_c   17.49199200
_cell_angle_alpha   90.00000000
_cell_angle_beta   90.00000000
_cell_angle_gamma   119.98988449
_symmetry_Int_Tables_number   1
_chemical_formula_structural   YHo2(Ir2Rh)3
_chemical_formula_sum   'Y2 Ho4 Ir12 Rh6'
_cell_volume   426.05155944
_cell_formula_units_Z   2
loop_
 _symmetry_equiv_pos_site_id
 _symmetry_equiv_pos_as_xyz
  1  'x, y, z'
loop_
 _atom_site_type_symbol
 _atom_site_label
 _atom_site_symmetry_multiplicity
 _atom_site_fract_x
 _atom_site_fract_y
 _atom_site_fract_z
 _atom_site_occupancy
  Y  Y0  1  0.333333  0.666667  0.750000  1
  Y  Y1  1  0.666667  0.333333  0.250000  1
  Ho  Ho2  1  0.333333  0.666667  0.958176  1
  Ho  Ho3  1  0.666667  0.333333  0.041824  1
  Ho  Ho4  1  0.666667  0.333333  0.458176  1
  Ho  Ho5  1  0.333333  0.666667  0.541824  1
  Ir  Ir6  1  0.167710  0.832297  0.374357  1
  Ir  Ir7  1  0.167711  0.335411  0.374352  1
  Ir  Ir8  1  0.664591  0.832293  0.374348  1
  Ir  Ir9  1  0.832290  0.167703  0.625643  1
  Ir  Ir10  1  0.832289  0.664589  0.625648  1
  Ir  Ir11  1  0.335409  0.167707  0.625652  1
  Ir  Ir12  1  0.832290  0.167703  0.874357  1
  Ir  Ir13  1  0.832289  0.664589  0.874352  1
  Ir  Ir14  1  0.335409  0.167707  0.874348  1
  Ir  Ir15  1  0.167710  0.832297  0.125643  1
  Ir  Ir16  1  0.167711  0.335411  0.125648  1
  Ir  Ir17  1  0.664591  0.832293  0.125652  1
  Rh  Rh18  1  0.333366  0.666666  0.250000  1
  Rh  Rh19  1  0.666634  0.333334  0.750000  1
  Rh  Rh20  1  0.999964  0.000001  0.250000  1
  Rh  Rh21  1  0.000036  0.999999  0.750000  1
  Rh  Rh22  1  0.000000  0.000000  0.500000  1
  Rh  Rh23  1  0.000000  0.000000  0.000000  1
