# generated using pymatgen
data_Rb2Y7BBr18
_symmetry_space_group_name_H-M   'P 1'
_cell_length_a   10.69388952
_cell_length_b   10.69388853
_cell_length_c   11.54072171
_cell_angle_alpha   117.60097723
_cell_angle_beta   62.39902420
_cell_angle_gamma   120.00000337
_symmetry_Int_Tables_number   1
_chemical_formula_structural   Rb2Y7BBr18
_chemical_formula_sum   'Rb2 Y7 B1 Br18'
_cell_volume   965.65119232
_cell_formula_units_Z   1
loop_
 _symmetry_equiv_pos_site_id
 _symmetry_equiv_pos_as_xyz
  1  'x, y, z'
loop_
 _atom_site_type_symbol
 _atom_site_label
 _atom_site_symmetry_multiplicity
 _atom_site_fract_x
 _atom_site_fract_y
 _atom_site_fract_z
 _atom_site_occupancy
  Rb  Rb0  1  0.221698  0.778302  0.334909  1
  Rb  Rb1  1  0.778303  0.221697  0.665091  1
  Y  Y2  1  0.777155  0.109466  0.157335  1
  Y  Y3  1  0.890533  0.825024  0.157335  1
  Y  Y4  1  0.174977  0.222845  0.157335  1
  Y  Y5  1  0.500000  0.500000  0.500000  1
  Y  Y6  1  0.825024  0.777156  0.842665  1
  Y  Y7  1  0.109466  0.174975  0.842665  1
  Y  Y8  1  0.222844  0.890532  0.842665  1
  B  B9  1  0.000000  0.000000  0.000000  1
  Br  Br10  1  0.284366  0.425023  0.009622  1
  Br  Br11  1  0.574975  0.868966  0.009622  1
  Br  Br12  1  0.131035  0.715635  0.009622  1
  Br  Br13  1  0.945944  0.350005  0.336573  1
  Br  Br14  1  0.067488  0.054056  0.336573  1
  Br  Br15  1  0.649994  0.932512  0.336573  1
  Br  Br16  1  0.518227  0.211018  0.335582  1
  Br  Br17  1  0.788981  0.642792  0.335582  1
  Br  Br18  1  0.357208  0.481772  0.335582  1
  Br  Br19  1  0.642792  0.518228  0.664418  1
  Br  Br20  1  0.211020  0.357210  0.664418  1
  Br  Br21  1  0.481772  0.788981  0.664418  1
  Br  Br22  1  0.350005  0.067487  0.663426  1
  Br  Br23  1  0.932513  0.945943  0.663426  1
  Br  Br24  1  0.054056  0.649994  0.663426  1
  Br  Br25  1  0.868967  0.284366  0.990378  1
  Br  Br26  1  0.425023  0.131033  0.990378  1
  Br  Br27  1  0.715634  0.574977  0.990378  1
