# generated using pymatgen
data_Be6Co2Mo3Ru
_symmetry_space_group_name_H-M   'P 1'
_cell_length_a   4.53080600
_cell_length_b   4.53080592
_cell_length_c   7.14792700
_cell_angle_alpha   90.00000000
_cell_angle_beta   90.00000000
_cell_angle_gamma   120.00000060
_symmetry_Int_Tables_number   1
_chemical_formula_structural   Be6Co2Mo3Ru
_chemical_formula_sum   'Be6 Co2 Mo3 Ru1'
_cell_volume   127.07545212
_cell_formula_units_Z   1
loop_
 _symmetry_equiv_pos_site_id
 _symmetry_equiv_pos_as_xyz
  1  'x, y, z'
loop_
 _atom_site_type_symbol
 _atom_site_label
 _atom_site_symmetry_multiplicity
 _atom_site_fract_x
 _atom_site_fract_y
 _atom_site_fract_z
 _atom_site_occupancy
  Be  Be0  1  0.831953  0.168047  0.253310  1
  Be  Be1  1  0.831953  0.663906  0.253310  1
  Be  Be2  1  0.336094  0.168047  0.253310  1
  Be  Be3  1  0.168740  0.831260  0.749126  1
  Be  Be4  1  0.168740  0.337482  0.749126  1
  Be  Be5  1  0.662518  0.831260  0.749126  1
  Co  Co6  1  0.000000  0.000000  0.500319  1
  Co  Co7  1  0.000000  0.000000  0.004849  1
  Mo  Mo8  1  0.666667  0.333333  0.566178  1
  Mo  Mo9  1  0.666667  0.333333  0.928209  1
  Mo  Mo10  1  0.333333  0.666667  0.070087  1
  Ru  Ru11  1  0.333333  0.666667  0.423049  1
