# generated using pymatgen
data_La7CeZn8Ir7Rh
_symmetry_space_group_name_H-M   'P 1'
_cell_length_a   4.04237200
_cell_length_b   7.50617725
_cell_length_c   16.64845145
_cell_angle_alpha   89.97800125
_cell_angle_beta   90.00000000
_cell_angle_gamma   90.00000000
_symmetry_Int_Tables_number   1
_chemical_formula_structural   La7CeZn8Ir7Rh
_chemical_formula_sum   'La7 Ce1 Zn8 Ir7 Rh1'
_cell_volume   505.15994199
_cell_formula_units_Z   1
loop_
 _symmetry_equiv_pos_site_id
 _symmetry_equiv_pos_as_xyz
  1  'x, y, z'
loop_
 _atom_site_type_symbol
 _atom_site_label
 _atom_site_symmetry_multiplicity
 _atom_site_fract_x
 _atom_site_fract_y
 _atom_site_fract_z
 _atom_site_occupancy
  La  La0  1  0.250000  0.050740  0.716766  1
  La  La1  1  0.250000  0.548708  0.782286  1
  La  La2  1  0.250000  0.670037  0.558128  1
  La  La3  1  0.750000  0.828968  0.060183  1
  La  La4  1  0.250000  0.172243  0.940327  1
  La  La5  1  0.750000  0.452014  0.218501  1
  La  La6  1  0.750000  0.949805  0.284111  1
  Ce  Ce7  1  0.750000  0.324244  0.441063  1
  Zn  Zn8  1  0.250000  0.123663  0.149715  1
  Zn  Zn9  1  0.250000  0.994732  0.439945  1
  Zn  Zn10  1  0.750000  0.874527  0.850446  1
  Zn  Zn11  1  0.750000  0.001425  0.557872  1
  Zn  Zn12  1  0.250000  0.498589  0.059560  1
  Zn  Zn13  1  0.750000  0.372469  0.647189  1
  Zn  Zn14  1  0.750000  0.502100  0.940505  1
  Zn  Zn15  1  0.250000  0.617454  0.352240  1
  Ir  Ir16  1  0.750000  0.257433  0.812046  1
  Ir  Ir17  1  0.250000  0.252819  0.324768  1
  Ir  Ir18  1  0.250000  0.740810  0.934031  1
  Ir  Ir19  1  0.250000  0.248098  0.557809  1
  Ir  Ir20  1  0.250000  0.746503  0.186236  1
  Ir  Ir21  1  0.750000  0.753093  0.434436  1
  Ir  Ir22  1  0.750000  0.260050  0.067069  1
  Rh  Rh23  1  0.750000  0.759474  0.684769  1
