# generated using pymatgen
data_Er2LuCo2Sn3
_symmetry_space_group_name_H-M   'P 1'
_cell_length_a   5.75166337
_cell_length_b   5.75166300
_cell_length_c   14.69344400
_cell_angle_alpha   90.00000000
_cell_angle_beta   90.00000000
_cell_angle_gamma   134.67338746
_symmetry_Int_Tables_number   1
_chemical_formula_structural   Er2LuCo2Sn3
_chemical_formula_sum   'Er4 Lu2 Co4 Sn6'
_cell_volume   345.66636098
_cell_formula_units_Z   2
loop_
 _symmetry_equiv_pos_site_id
 _symmetry_equiv_pos_as_xyz
  1  'x, y, z'
loop_
 _atom_site_type_symbol
 _atom_site_label
 _atom_site_symmetry_multiplicity
 _atom_site_fract_x
 _atom_site_fract_y
 _atom_site_fract_z
 _atom_site_occupancy
  Er  Er0  1  0.568702  0.431298  0.612055  1
  Er  Er1  1  0.431298  0.568702  0.387945  1
  Er  Er2  1  0.431298  0.568702  0.112055  1
  Er  Er3  1  0.568702  0.431298  0.887945  1
  Lu  Lu4  1  0.147509  0.852491  0.250000  1
  Lu  Lu5  1  0.852491  0.147509  0.750000  1
  Co  Co6  1  0.300200  0.699800  0.609445  1
  Co  Co7  1  0.699800  0.300200  0.390555  1
  Co  Co8  1  0.699800  0.300200  0.109445  1
  Co  Co9  1  0.300200  0.699800  0.890555  1
  Sn  Sn10  1  0.860298  0.139702  0.535352  1
  Sn  Sn11  1  0.139702  0.860298  0.464648  1
  Sn  Sn12  1  0.151267  0.848733  0.750000  1
  Sn  Sn13  1  0.848733  0.151267  0.250000  1
  Sn  Sn14  1  0.860298  0.139702  0.964648  1
  Sn  Sn15  1  0.139702  0.860298  0.035352  1
