# generated using pymatgen
data_Pr7DySc12Si15Rh
_symmetry_space_group_name_H-M   'P 1'
_cell_length_a   7.22873797
_cell_length_b   7.58058622
_cell_length_c   14.17467844
_cell_angle_alpha   89.84721684
_cell_angle_beta   90.05767232
_cell_angle_gamma   90.17039444
_symmetry_Int_Tables_number   1
_chemical_formula_structural   Pr7DySc12Si15Rh
_chemical_formula_sum   'Pr7 Dy1 Sc12 Si15 Rh1'
_cell_volume   776.73845752
_cell_formula_units_Z   1
loop_
 _symmetry_equiv_pos_site_id
 _symmetry_equiv_pos_as_xyz
  1  'x, y, z'
loop_
 _atom_site_type_symbol
 _atom_site_label
 _atom_site_symmetry_multiplicity
 _atom_site_fract_x
 _atom_site_fract_y
 _atom_site_fract_z
 _atom_site_occupancy
  Pr  Pr0  1  0.011370  0.175898  0.096791  1
  Pr  Pr1  1  0.991404  0.827121  0.902395  1
  Pr  Pr2  1  0.489417  0.672826  0.904348  1
  Pr  Pr3  1  0.991558  0.826352  0.596072  1
  Pr  Pr4  1  0.510997  0.326854  0.096323  1
  Pr  Pr5  1  0.012440  0.175899  0.404262  1
  Pr  Pr6  1  0.510965  0.326264  0.405246  1
  Dy  Dy7  1  0.488851  0.677559  0.598210  1
  Sc  Sc8  1  0.158244  0.499754  0.749071  1
  Sc  Sc9  1  0.839671  0.500267  0.250170  1
  Sc  Sc10  1  0.339395  0.000907  0.250377  1
  Sc  Sc11  1  0.666867  0.001560  0.749144  1
  Sc  Sc12  1  0.319584  0.172158  0.627543  1
  Sc  Sc13  1  0.670450  0.825265  0.374191  1
  Sc  Sc14  1  0.172189  0.675979  0.374411  1
  Sc  Sc15  1  0.671340  0.827120  0.126705  1
  Sc  Sc16  1  0.833303  0.321919  0.627199  1
  Sc  Sc17  1  0.319502  0.171322  0.871157  1
  Sc  Sc18  1  0.832583  0.322298  0.871365  1
  Sc  Sc19  1  0.171321  0.676451  0.126240  1
  Si  Si20  1  0.967962  0.875983  0.250436  1
  Si  Si21  1  0.467956  0.622363  0.250330  1
  Si  Si22  1  0.529133  0.383803  0.748084  1
  Si  Si23  1  0.292129  0.874836  0.748173  1
  Si  Si24  1  0.710279  0.120022  0.250474  1
  Si  Si25  1  0.210981  0.380928  0.250369  1
  Si  Si26  1  0.780010  0.619585  0.747568  1
  Si  Si27  1  0.158648  0.468313  0.539834  1
  Si  Si28  1  0.848255  0.537629  0.461878  1
  Si  Si29  1  0.350702  0.959452  0.461856  1
  Si  Si30  1  0.849315  0.538201  0.038825  1
  Si  Si31  1  0.650594  0.032505  0.540489  1
  Si  Si32  1  0.152739  0.465274  0.961165  1
  Si  Si33  1  0.651771  0.037109  0.960529  1
  Si  Si34  1  0.349972  0.963934  0.039563  1
  Rh  Rh35  1  0.028099  0.116285  0.749207  1
