# generated using pymatgen
data_Tb2Ho2Ga4Ni3Ru
_symmetry_space_group_name_H-M   'P 1'
_cell_length_a   4.27007300
_cell_length_b   6.80440982
_cell_length_c   7.52035492
_cell_angle_alpha   90.09307025
_cell_angle_beta   90.00000000
_cell_angle_gamma   90.00000000
_symmetry_Int_Tables_number   1
_chemical_formula_structural   Tb2Ho2Ga4Ni3Ru
_chemical_formula_sum   'Tb2 Ho2 Ga4 Ni3 Ru1'
_cell_volume   218.50608038
_cell_formula_units_Z   1
loop_
 _symmetry_equiv_pos_site_id
 _symmetry_equiv_pos_as_xyz
  1  'x, y, z'
loop_
 _atom_site_type_symbol
 _atom_site_label
 _atom_site_symmetry_multiplicity
 _atom_site_fract_x
 _atom_site_fract_y
 _atom_site_fract_z
 _atom_site_occupancy
  Tb  Tb0  1  0.250000  0.026978  0.814304  1
  Tb  Tb1  1  0.250000  0.521787  0.687857  1
  Ho  Ho2  1  0.750000  0.977738  0.193490  1
  Ho  Ho3  1  0.750000  0.479284  0.307576  1
  Ga  Ga4  1  0.250000  0.166304  0.429121  1
  Ga  Ga5  1  0.250000  0.661666  0.062876  1
  Ga  Ga6  1  0.750000  0.837792  0.578514  1
  Ga  Ga7  1  0.750000  0.336486  0.930895  1
  Ni  Ni8  1  0.250000  0.285322  0.105905  1
  Ni  Ni9  1  0.750000  0.217980  0.606266  1
  Ni  Ni10  1  0.750000  0.715933  0.893309  1
  Ru  Ru11  1  0.250000  0.772731  0.389886  1
