# generated using pymatgen
data_TbEr2ZnGa7Ag3
_symmetry_space_group_name_H-M   'P 1'
_cell_length_a   4.32907601
_cell_length_b   8.29034542
_cell_length_c   8.29962690
_cell_angle_alpha   70.88616766
_cell_angle_beta   74.88250430
_cell_angle_gamma   74.86515965
_symmetry_Int_Tables_number   1
_chemical_formula_structural   TbEr2ZnGa7Ag3
_chemical_formula_sum   'Tb1 Er2 Zn1 Ga7 Ag3'
_cell_volume   266.62043035
_cell_formula_units_Z   1
loop_
 _symmetry_equiv_pos_site_id
 _symmetry_equiv_pos_as_xyz
  1  'x, y, z'
loop_
 _atom_site_type_symbol
 _atom_site_label
 _atom_site_symmetry_multiplicity
 _atom_site_fract_x
 _atom_site_fract_y
 _atom_site_fract_z
 _atom_site_occupancy
  Tb  Tb0  1  0.499345  0.500756  0.500555  1
  Er  Er1  1  0.200557  0.798221  0.800665  1
  Er  Er2  1  0.800499  0.201834  0.197168  1
  Zn  Zn3  1  0.357389  0.364445  0.920777  1
  Ga  Ga4  1  0.642503  0.639581  0.075414  1
  Ga  Ga5  1  0.355904  0.925740  0.362452  1
  Ga  Ga6  1  0.641286  0.076365  0.641063  1
  Ga  Ga7  1  0.164090  0.467304  0.204515  1
  Ga  Ga8  1  0.841027  0.526654  0.791290  1
  Ga  Ga9  1  0.159664  0.210732  0.469942  1
  Ga  Ga10  1  0.839452  0.789295  0.531800  1
  Ag  Ag11  1  0.498357  0.001419  0.001867  1
  Ag  Ag12  1  0.000249  0.802860  0.196642  1
  Ag  Ag13  1  0.999678  0.194794  0.805851  1
