# generated using pymatgen
data_SrCuIr4(PbO7)2
_symmetry_space_group_name_H-M   'P 1'
_cell_length_a   7.34340423
_cell_length_b   7.34340295
_cell_length_c   7.26431147
_cell_angle_alpha   59.23307712
_cell_angle_beta   59.23308298
_cell_angle_gamma   59.87266892
_symmetry_Int_Tables_number   1
_chemical_formula_structural   SrCuIr4(PbO7)2
_chemical_formula_sum   'Sr1 Cu1 Ir4 Pb2 O14'
_cell_volume   273.48387848
_cell_formula_units_Z   1
loop_
 _symmetry_equiv_pos_site_id
 _symmetry_equiv_pos_as_xyz
  1  'x, y, z'
loop_
 _atom_site_type_symbol
 _atom_site_label
 _atom_site_symmetry_multiplicity
 _atom_site_fract_x
 _atom_site_fract_y
 _atom_site_fract_z
 _atom_site_occupancy
  Sr  Sr0  1  0.125000  0.125000  0.125000  1
  Cu  Cu1  1  0.125000  0.125000  0.625000  1
  Ir  Ir2  1  0.125000  0.625000  0.625000  1
  Ir  Ir3  1  0.625000  0.125000  0.625000  1
  Ir  Ir4  1  0.625000  0.625000  0.125000  1
  Ir  Ir5  1  0.625000  0.625000  0.625000  1
  Pb  Pb6  1  0.625000  0.125000  0.125000  1
  Pb  Pb7  1  0.125000  0.625000  0.125000  1
  O  O8  1  0.706450  0.706450  0.292332  1
  O  O9  1  0.302559  0.302559  0.686769  1
  O  O10  1  0.687953  0.304287  0.706367  1
  O  O11  1  0.298006  0.694857  0.294681  1
  O  O12  1  0.304287  0.687953  0.706367  1
  O  O13  1  0.694857  0.298006  0.294681  1
  O  O14  1  0.543550  0.543550  0.957668  1
  O  O15  1  0.947441  0.947441  0.563231  1
  O  O16  1  0.562047  0.945713  0.543633  1
  O  O17  1  0.951994  0.555143  0.955319  1
  O  O18  1  0.945713  0.562047  0.543633  1
  O  O19  1  0.555143  0.951994  0.955319  1
  O  O20  1  0.237889  0.237889  0.306042  1
  O  O21  1  0.012111  0.012111  0.943958  1
