# generated using pymatgen
data_Ta2NbIn2Cl9
_symmetry_space_group_name_H-M   'P 1'
_cell_length_a   9.66387775
_cell_length_b   9.66387708
_cell_length_c   9.85495425
_cell_angle_alpha   74.90146215
_cell_angle_beta   74.90146551
_cell_angle_gamma   110.64577578
_symmetry_Int_Tables_number   1
_chemical_formula_structural   Ta2NbIn2Cl9
_chemical_formula_sum   'Ta4 Nb2 In4 Cl18'
_cell_volume   765.68977933
_cell_formula_units_Z   2
loop_
 _symmetry_equiv_pos_site_id
 _symmetry_equiv_pos_as_xyz
  1  'x, y, z'
loop_
 _atom_site_type_symbol
 _atom_site_label
 _atom_site_symmetry_multiplicity
 _atom_site_fract_x
 _atom_site_fract_y
 _atom_site_fract_z
 _atom_site_occupancy
  Ta  Ta0  1  0.780236  0.962371  0.138673  1
  Ta  Ta1  1  0.104695  0.104630  0.129078  1
  Ta  Ta2  1  0.895370  0.895305  0.870922  1
  Ta  Ta3  1  0.037629  0.219764  0.861327  1
  Nb  Nb4  1  0.962163  0.778940  0.139498  1
  Nb  Nb5  1  0.221060  0.037837  0.860502  1
  In  In6  1  0.234712  0.541433  0.339786  1
  In  In7  1  0.541976  0.234338  0.339304  1
  In  In8  1  0.458567  0.765288  0.660214  1
  In  In9  1  0.765662  0.458024  0.660696  1
  Cl  Cl10  1  0.505744  0.086335  0.676118  1
  Cl  Cl11  1  0.687047  0.690310  0.330172  1
  Cl  Cl12  1  0.238258  0.238185  0.290063  1
  Cl  Cl13  1  0.079348  0.863762  0.317948  1
  Cl  Cl14  1  0.614930  0.833800  0.012114  1
  Cl  Cl15  1  0.921708  0.138930  0.682822  1
  Cl  Cl16  1  0.086285  0.502730  0.678661  1
  Cl  Cl17  1  0.782500  0.217500  0.000000  1
  Cl  Cl18  1  0.832550  0.615089  0.009827  1
  Cl  Cl19  1  0.384911  0.167450  0.990173  1
  Cl  Cl20  1  0.218699  0.781301  0.000000  1
  Cl  Cl21  1  0.497270  0.913715  0.321339  1
  Cl  Cl22  1  0.913665  0.494256  0.323882  1
  Cl  Cl23  1  0.761815  0.761742  0.709937  1
  Cl  Cl24  1  0.309690  0.312953  0.669828  1
  Cl  Cl25  1  0.136238  0.920652  0.682052  1
  Cl  Cl26  1  0.861070  0.078292  0.317178  1
  Cl  Cl27  1  0.166200  0.385070  0.987886  1
