# generated using pymatgen
data_Ta8Al6Mo2C
_symmetry_space_group_name_H-M   'P 1'
_cell_length_a   7.78683800
_cell_length_b   7.78683755
_cell_length_c   5.19071200
_cell_angle_alpha   90.00000000
_cell_angle_beta   90.00000000
_cell_angle_gamma   120.00000192
_symmetry_Int_Tables_number   1
_chemical_formula_structural   Ta8Al6Mo2C
_chemical_formula_sum   'Ta8 Al6 Mo2 C1'
_cell_volume   272.57110227
_cell_formula_units_Z   1
loop_
 _symmetry_equiv_pos_site_id
 _symmetry_equiv_pos_as_xyz
  1  'x, y, z'
loop_
 _atom_site_type_symbol
 _atom_site_label
 _atom_site_symmetry_multiplicity
 _atom_site_fract_x
 _atom_site_fract_y
 _atom_site_fract_z
 _atom_site_occupancy
  Ta  Ta0  1  0.666667  0.333333  0.000000  1
  Ta  Ta1  1  0.333333  0.666667  0.000000  1
  Ta  Ta2  1  0.000000  0.769316  0.242846  1
  Ta  Ta3  1  0.230684  0.230684  0.242846  1
  Ta  Ta4  1  0.769316  0.000000  0.242846  1
  Ta  Ta5  1  0.000000  0.230684  0.757154  1
  Ta  Ta6  1  0.769316  0.769316  0.757154  1
  Ta  Ta7  1  0.230684  0.000000  0.757154  1
  Al  Al8  1  0.000000  0.407546  0.260864  1
  Al  Al9  1  0.592454  0.592454  0.260864  1
  Al  Al10  1  0.407546  0.000000  0.260864  1
  Al  Al11  1  0.000000  0.592454  0.739136  1
  Al  Al12  1  0.407546  0.407546  0.739136  1
  Al  Al13  1  0.592454  0.000000  0.739136  1
  Mo  Mo14  1  0.333333  0.666667  0.500000  1
  Mo  Mo15  1  0.666667  0.333333  0.500000  1
  C  C16  1  0.000000  0.000000  0.500000  1
