# generated using pymatgen
data_Pr3Y(AuO3)4
_symmetry_space_group_name_H-M   'P 1'
_cell_length_a   3.92368895
_cell_length_b   5.65121600
_cell_length_c   12.98700500
_cell_angle_alpha   90.00000000
_cell_angle_beta   90.16334410
_cell_angle_gamma   90.00000000
_symmetry_Int_Tables_number   1
_chemical_formula_structural   Pr3Y(AuO3)4
_chemical_formula_sum   'Pr3 Y1 Au4 O12'
_cell_volume   287.96766233
_cell_formula_units_Z   1
loop_
 _symmetry_equiv_pos_site_id
 _symmetry_equiv_pos_as_xyz
  1  'x, y, z'
loop_
 _atom_site_type_symbol
 _atom_site_label
 _atom_site_symmetry_multiplicity
 _atom_site_fract_x
 _atom_site_fract_y
 _atom_site_fract_z
 _atom_site_occupancy
  Pr  Pr0  1  0.260223  0.750000  0.079649  1
  Pr  Pr1  1  0.263252  0.250000  0.423517  1
  Pr  Pr2  1  0.737404  0.250000  0.917718  1
  Y  Y3  1  0.738402  0.750000  0.579467  1
  Au  Au4  1  0.060275  0.750000  0.825966  1
  Au  Au5  1  0.065536  0.250000  0.668072  1
  Au  Au6  1  0.937768  0.250000  0.171461  1
  Au  Au7  1  0.938595  0.750000  0.333054  1
  O  O8  1  0.195778  0.500012  0.252136  1
  O  O9  1  0.801224  0.995773  0.743599  1
  O  O10  1  0.801224  0.504227  0.743599  1
  O  O11  1  0.195778  0.999988  0.252136  1
  O  O12  1  0.742570  0.494677  0.077141  1
  O  O13  1  0.743831  0.508190  0.428445  1
  O  O14  1  0.255874  0.995311  0.920240  1
  O  O15  1  0.259995  0.993153  0.578987  1
  O  O16  1  0.743831  0.991810  0.428445  1
  O  O17  1  0.742570  0.005323  0.077141  1
  O  O18  1  0.259995  0.506847  0.578987  1
  O  O19  1  0.255874  0.504689  0.920240  1
