# generated using pymatgen
data_Pr2Dy9In9Rh4
_symmetry_space_group_name_H-M   'P 1'
_cell_length_a   13.23213306
_cell_length_b   13.23176909
_cell_length_c   3.70384400
_cell_angle_alpha   90.00000000
_cell_angle_beta   90.00000000
_cell_angle_gamma   111.67543103
_symmetry_Int_Tables_number   1
_chemical_formula_structural   Pr2Dy9In9Rh4
_chemical_formula_sum   'Pr2 Dy9 In9 Rh4'
_cell_volume   602.63202567
_cell_formula_units_Z   1
loop_
 _symmetry_equiv_pos_site_id
 _symmetry_equiv_pos_as_xyz
  1  'x, y, z'
loop_
 _atom_site_type_symbol
 _atom_site_label
 _atom_site_symmetry_multiplicity
 _atom_site_fract_x
 _atom_site_fract_y
 _atom_site_fract_z
 _atom_site_occupancy
  Pr  Pr0  1  0.341425  0.658574  0.500000  1
  Pr  Pr1  1  0.658575  0.341426  0.500000  1
  Dy  Dy2  1  0.500000  0.500000  0.500000  1
  Dy  Dy3  1  0.815759  0.815763  0.500000  1
  Dy  Dy4  1  0.184241  0.184237  0.500000  1
  Dy  Dy5  1  0.581319  0.918415  0.500000  1
  Dy  Dy6  1  0.418681  0.081585  0.500000  1
  Dy  Dy7  1  0.918416  0.581323  0.500000  1
  Dy  Dy8  1  0.081584  0.418677  0.500000  1
  Dy  Dy9  1  0.124946  0.875051  0.500000  1
  Dy  Dy10  1  0.875054  0.124949  0.500000  1
  In  In11  1  0.338596  0.869856  0.000000  1
  In  In12  1  0.661404  0.130144  0.000000  1
  In  In13  1  0.869867  0.338593  0.000000  1
  In  In14  1  0.130133  0.661407  0.000000  1
  In  In15  1  0.581821  0.720368  0.000000  1
  In  In16  1  0.418179  0.279632  0.000000  1
  In  In17  1  0.720394  0.581849  0.000000  1
  In  In18  1  0.279606  0.418151  0.000000  1
  In  In19  1  0.000000  0.000000  0.000000  1
  Rh  Rh20  1  0.747218  0.951805  0.000000  1
  Rh  Rh21  1  0.252782  0.048195  0.000000  1
  Rh  Rh22  1  0.951807  0.747217  0.000000  1
  Rh  Rh23  1  0.048193  0.252783  0.000000  1
