# generated using pymatgen
data_AcTb5(WO7)2
_symmetry_space_group_name_H-M   'P 1'
_cell_length_a   6.55941175
_cell_length_b   6.55941235
_cell_length_c   7.66484700
_cell_angle_alpha   89.93872470
_cell_angle_beta   90.06127531
_cell_angle_gamma   108.94361502
_symmetry_Int_Tables_number   1
_chemical_formula_structural   AcTb5(WO7)2
_chemical_formula_sum   'Ac1 Tb5 W2 O14'
_cell_volume   311.92482116
_cell_formula_units_Z   1
loop_
 _symmetry_equiv_pos_site_id
 _symmetry_equiv_pos_as_xyz
  1  'x, y, z'
loop_
 _atom_site_type_symbol
 _atom_site_label
 _atom_site_symmetry_multiplicity
 _atom_site_fract_x
 _atom_site_fract_y
 _atom_site_fract_z
 _atom_site_occupancy
  Ac  Ac0  1  0.500000  0.500000  0.500000  1
  Tb  Tb1  1  0.500000  0.500000  0.000000  1
  Tb  Tb2  1  0.533029  0.001341  0.755977  1
  Tb  Tb3  1  0.001341  0.533029  0.244023  1
  Tb  Tb4  1  0.466971  0.998659  0.244023  1
  Tb  Tb5  1  0.998659  0.466971  0.755977  1
  W  W6  1  0.000000  0.000000  0.500000  1
  W  W7  1  0.000000  0.000000  0.000000  1
  O  O8  1  0.680981  0.932455  0.470231  1
  O  O9  1  0.932455  0.680981  0.529769  1
  O  O10  1  0.681222  0.927691  0.028495  1
  O  O11  1  0.927691  0.681222  0.971505  1
  O  O12  1  0.319019  0.067545  0.529769  1
  O  O13  1  0.067545  0.319019  0.470231  1
  O  O14  1  0.318778  0.072309  0.971505  1
  O  O15  1  0.072309  0.318778  0.028495  1
  O  O16  1  0.929749  0.070251  0.749917  1
  O  O17  1  0.070251  0.929749  0.250083  1
  O  O18  1  0.363488  0.636512  0.767000  1
  O  O19  1  0.636512  0.363488  0.233000  1
  O  O20  1  0.641247  0.358753  0.765669  1
  O  O21  1  0.358753  0.641247  0.234331  1
