# generated using pymatgen
data_CaYb(DyIn)2
_symmetry_space_group_name_H-M   'P 1'
_cell_length_a   5.41946000
_cell_length_b   5.41945947
_cell_length_c   6.84225800
_cell_angle_alpha   90.00000000
_cell_angle_beta   90.00000000
_cell_angle_gamma   119.99999103
_symmetry_Int_Tables_number   1
_chemical_formula_structural   CaYb(DyIn)2
_chemical_formula_sum   'Ca1 Yb1 Dy2 In2'
_cell_volume   174.03720696
_cell_formula_units_Z   1
loop_
 _symmetry_equiv_pos_site_id
 _symmetry_equiv_pos_as_xyz
  1  'x, y, z'
loop_
 _atom_site_type_symbol
 _atom_site_label
 _atom_site_symmetry_multiplicity
 _atom_site_fract_x
 _atom_site_fract_y
 _atom_site_fract_z
 _atom_site_occupancy
  Ca  Ca0  1  0.000000  0.000000  0.000000  1
  Yb  Yb1  1  0.000000  0.000000  0.500000  1
  Dy  Dy2  1  0.333333  0.666667  0.748294  1
  Dy  Dy3  1  0.666667  0.333333  0.251706  1
  In  In4  1  0.666667  0.333333  0.753367  1
  In  In5  1  0.333333  0.666667  0.246633  1
