# generated using pymatgen
data_YHo2Lu(Si2Rh)2
_symmetry_space_group_name_H-M   'P 1'
_cell_length_a   5.66526062
_cell_length_b   5.66526166
_cell_length_c   10.02966607
_cell_angle_alpha   63.80809372
_cell_angle_beta   63.80809100
_cell_angle_gamma   43.42269883
_symmetry_Int_Tables_number   1
_chemical_formula_structural   YHo2Lu(Si2Rh)2
_chemical_formula_sum   'Y1 Ho2 Lu1 Si4 Rh2'
_cell_volume   194.70367398
_cell_formula_units_Z   1
loop_
 _symmetry_equiv_pos_site_id
 _symmetry_equiv_pos_as_xyz
  1  'x, y, z'
loop_
 _atom_site_type_symbol
 _atom_site_label
 _atom_site_symmetry_multiplicity
 _atom_site_fract_x
 _atom_site_fract_y
 _atom_site_fract_z
 _atom_site_occupancy
  Y  Y0  1  0.814027  0.814027  0.108750  1
  Ho  Ho1  1  0.999844  0.999844  0.326353  1
  Ho  Ho2  1  0.186048  0.186048  0.889175  1
  Lu  Lu3  1  0.000893  0.000893  0.673112  1
  Si  Si4  1  0.362319  0.362319  0.565945  1
  Si  Si5  1  0.488011  0.488011  0.877599  1
  Si  Si6  1  0.638345  0.638345  0.436063  1
  Si  Si7  1  0.511919  0.511919  0.119489  1
  Rh  Rh8  1  0.725740  0.725740  0.629433  1
  Rh  Rh9  1  0.272854  0.272854  0.374079  1
