# generated using pymatgen
data_MnCr2P
_symmetry_space_group_name_H-M   'P 1'
_cell_length_a   6.76534850
_cell_length_b   6.76534819
_cell_length_c   6.76534862
_cell_angle_alpha   96.27040804
_cell_angle_beta   96.27040873
_cell_angle_gamma   141.40346730
_symmetry_Int_Tables_number   1
_chemical_formula_structural   MnCr2P
_chemical_formula_sum   'Mn4 Cr8 P4'
_cell_volume   182.31539817
_cell_formula_units_Z   4
loop_
 _symmetry_equiv_pos_site_id
 _symmetry_equiv_pos_as_xyz
  1  'x, y, z'
loop_
 _atom_site_type_symbol
 _atom_site_label
 _atom_site_symmetry_multiplicity
 _atom_site_fract_x
 _atom_site_fract_y
 _atom_site_fract_z
 _atom_site_occupancy
  Mn  Mn0  1  0.463047  0.404131  0.391192  1
  Mn  Mn1  1  0.928145  0.536953  0.941085  1
  Mn  Mn2  1  0.595869  0.987060  0.058915  1
  Mn  Mn3  1  0.012940  0.071855  0.608808  1
  Cr  Cr4  1  0.150449  0.330246  0.029892  1
  Cr  Cr5  1  0.037361  0.363347  0.392369  1
  Cr  Cr6  1  0.879442  0.849551  0.179797  1
  Cr  Cr7  1  0.669754  0.699646  0.820203  1
  Cr  Cr8  1  0.970978  0.644992  0.607631  1
  Cr  Cr9  1  0.300354  0.120558  0.970108  1
  Cr  Cr10  1  0.355008  0.962639  0.325986  1
  Cr  Cr11  1  0.636653  0.029022  0.674014  1
  P  P12  1  0.449833  0.209895  0.663231  1
  P  P13  1  0.790105  0.453336  0.239938  1
  P  P14  1  0.546664  0.786602  0.336769  1
  P  P15  1  0.213398  0.550167  0.760062  1
