# generated using pymatgen
data_Th14Tc5Rh
_symmetry_space_group_name_H-M   'P 1'
_cell_length_a   9.96618239
_cell_length_b   9.96618234
_cell_length_c   6.38034335
_cell_angle_alpha   89.96488493
_cell_angle_beta   90.03511663
_cell_angle_gamma   119.78926764
_symmetry_Int_Tables_number   1
_chemical_formula_structural   Th14Tc5Rh
_chemical_formula_sum   'Th14 Tc5 Rh1'
_cell_volume   549.98460915
_cell_formula_units_Z   1
loop_
 _symmetry_equiv_pos_site_id
 _symmetry_equiv_pos_as_xyz
  1  'x, y, z'
loop_
 _atom_site_type_symbol
 _atom_site_label
 _atom_site_symmetry_multiplicity
 _atom_site_fract_x
 _atom_site_fract_y
 _atom_site_fract_z
 _atom_site_occupancy
  Th  Th0  1  0.665958  0.334042  0.530531  1
  Th  Th1  1  0.333473  0.666527  0.026293  1
  Th  Th2  1  0.874114  0.749808  0.758665  1
  Th  Th3  1  0.250192  0.125886  0.758665  1
  Th  Th4  1  0.874394  0.125606  0.758234  1
  Th  Th5  1  0.130876  0.254829  0.258711  1
  Th  Th6  1  0.745171  0.869124  0.258711  1
  Th  Th7  1  0.124963  0.875037  0.257303  1
  Th  Th8  1  0.455867  0.918135  0.549140  1
  Th  Th9  1  0.081865  0.544133  0.549140  1
  Th  Th10  1  0.459767  0.540233  0.550069  1
  Th  Th11  1  0.536326  0.075423  0.049540  1
  Th  Th12  1  0.924577  0.463674  0.049540  1
  Th  Th13  1  0.540672  0.459328  0.050353  1
  Tc  Tc14  1  0.180771  0.368715  0.795231  1
  Tc  Tc15  1  0.631285  0.819229  0.795231  1
  Tc  Tc16  1  0.184811  0.815189  0.797413  1
  Tc  Tc17  1  0.816555  0.626052  0.296260  1
  Tc  Tc18  1  0.373948  0.183445  0.296260  1
  Rh  Rh19  1  0.814415  0.185585  0.297216  1
