# generated using pymatgen
data_Hf3ScBr12
_symmetry_space_group_name_H-M   'P 1'
_cell_length_a   6.28784663
_cell_length_b   7.42337822
_cell_length_c   12.94856200
_cell_angle_alpha   90.00000000
_cell_angle_beta   90.00000000
_cell_angle_gamma   90.08625091
_symmetry_Int_Tables_number   1
_chemical_formula_structural   Hf3ScBr12
_chemical_formula_sum   'Hf3 Sc1 Br12'
_cell_volume   604.40016846
_cell_formula_units_Z   1
loop_
 _symmetry_equiv_pos_site_id
 _symmetry_equiv_pos_as_xyz
  1  'x, y, z'
loop_
 _atom_site_type_symbol
 _atom_site_label
 _atom_site_symmetry_multiplicity
 _atom_site_fract_x
 _atom_site_fract_y
 _atom_site_fract_z
 _atom_site_occupancy
  Hf  Hf0  1  0.251807  0.249482  0.500000  1
  Hf  Hf1  1  0.748425  0.249409  0.500000  1
  Hf  Hf2  1  0.749796  0.750471  0.000000  1
  Sc  Sc3  1  0.249931  0.750432  0.000000  1
  Br  Br4  1  0.500407  0.397009  0.353909  1
  Br  Br5  1  0.994156  0.605032  0.855345  1
  Br  Br6  1  0.994156  0.605032  0.144655  1
  Br  Br7  1  0.500407  0.397009  0.646091  1
  Br  Br8  1  0.505589  0.896029  0.855425  1
  Br  Br9  1  0.999884  0.102742  0.354716  1
  Br  Br10  1  0.999884  0.102742  0.645284  1
  Br  Br11  1  0.505589  0.896029  0.144575  1
  Br  Br12  1  0.499613  0.955407  0.500000  1
  Br  Br13  1  0.995005  0.041504  0.000000  1
  Br  Br14  1  0.504848  0.459446  0.000000  1
  Br  Br15  1  0.000503  0.542224  0.500000  1
