# generated using pymatgen
data_Y2Th(InIr)3
_symmetry_space_group_name_H-M   'P 1'
_cell_length_a   7.57632880
_cell_length_b   7.76500426
_cell_length_c   3.93776100
_cell_angle_alpha   90.00000000
_cell_angle_beta   90.00000000
_cell_angle_gamma   120.82726508
_symmetry_Int_Tables_number   1
_chemical_formula_structural   Y2Th(InIr)3
_chemical_formula_sum   'Y2 Th1 In3 Ir3'
_cell_volume   198.92963678
_cell_formula_units_Z   1
loop_
 _symmetry_equiv_pos_site_id
 _symmetry_equiv_pos_as_xyz
  1  'x, y, z'
loop_
 _atom_site_type_symbol
 _atom_site_label
 _atom_site_symmetry_multiplicity
 _atom_site_fract_x
 _atom_site_fract_y
 _atom_site_fract_z
 _atom_site_occupancy
  Y  Y0  1  0.404675  0.405838  0.000000  1
  Y  Y1  1  0.595325  0.001163  0.000000  1
  Th  Th2  1  0.000000  0.583488  0.000000  1
  In  In3  1  0.000000  0.243090  0.500000  1
  In  In4  1  0.731917  0.743891  0.500000  1
  In  In5  1  0.268083  0.011973  0.500000  1
  Ir  Ir6  1  0.000000  0.992535  0.000000  1
  Ir  Ir7  1  0.317576  0.667800  0.500000  1
  Ir  Ir8  1  0.682424  0.350223  0.500000  1
