# generated using pymatgen
data_Lu4Al2CuOs5
_symmetry_space_group_name_H-M   'P 1'
_cell_length_a   5.22945000
_cell_length_b   5.26974950
_cell_length_c   8.68225100
_cell_angle_alpha   90.00000000
_cell_angle_beta   90.00000000
_cell_angle_gamma   119.87027350
_symmetry_Int_Tables_number   1
_chemical_formula_structural   Lu4Al2CuOs5
_chemical_formula_sum   'Lu4 Al2 Cu1 Os5'
_cell_volume   207.47949689
_cell_formula_units_Z   1
loop_
 _symmetry_equiv_pos_site_id
 _symmetry_equiv_pos_as_xyz
  1  'x, y, z'
loop_
 _atom_site_type_symbol
 _atom_site_label
 _atom_site_symmetry_multiplicity
 _atom_site_fract_x
 _atom_site_fract_y
 _atom_site_fract_z
 _atom_site_occupancy
  Lu  Lu0  1  0.331631  0.667522  0.437198  1
  Lu  Lu1  1  0.658227  0.327413  0.559833  1
  Lu  Lu2  1  0.658227  0.327413  0.940167  1
  Lu  Lu3  1  0.331631  0.667522  0.062802  1
  Al  Al4  1  0.189898  0.347546  0.750000  1
  Al  Al5  1  0.328096  0.165092  0.250000  1
  Cu  Cu6  1  0.191279  0.840109  0.750000  1
  Os  Os7  1  0.828824  0.651713  0.250000  1
  Os  Os8  1  0.687575  0.835404  0.750000  1
  Os  Os9  1  0.983727  0.996947  0.997063  1
  Os  Os10  1  0.827158  0.176376  0.250000  1
  Os  Os11  1  0.983727  0.996947  0.502937  1
