# generated using pymatgen
data_LiTb2LuAg2Ge3
_symmetry_space_group_name_H-M   'P 1'
_cell_length_a   7.06172103
_cell_length_b   7.10602659
_cell_length_c   4.23574900
_cell_angle_alpha   90.00000000
_cell_angle_beta   90.00000000
_cell_angle_gamma   119.52307335
_symmetry_Int_Tables_number   1
_chemical_formula_structural   LiTb2LuAg2Ge3
_chemical_formula_sum   'Li1 Tb2 Lu1 Ag2 Ge3'
_cell_volume   184.95470405
_cell_formula_units_Z   1
loop_
 _symmetry_equiv_pos_site_id
 _symmetry_equiv_pos_as_xyz
  1  'x, y, z'
loop_
 _atom_site_type_symbol
 _atom_site_label
 _atom_site_symmetry_multiplicity
 _atom_site_fract_x
 _atom_site_fract_y
 _atom_site_fract_z
 _atom_site_occupancy
  Li  Li0  1  0.236860  0.001347  0.500000  1
  Tb  Tb1  1  0.584643  0.999153  0.000000  1
  Tb  Tb2  1  0.996938  0.578788  0.000000  1
  Lu  Lu3  1  0.417340  0.419900  0.000000  1
  Ag  Ag4  1  0.003192  0.247508  0.500000  1
  Ag  Ag5  1  0.754112  0.751495  0.500000  1
  Ge  Ge6  1  0.334432  0.670554  0.500000  1
  Ge  Ge7  1  0.656530  0.327665  0.500000  1
  Ge  Ge8  1  0.015953  0.003591  0.000000  1
