# generated using pymatgen
data_Hf3Zr5(Ni4As3)4
_symmetry_space_group_name_H-M   'P 1'
_cell_length_a   12.67548200
_cell_length_b   12.67548214
_cell_length_c   3.78739900
_cell_angle_alpha   90.00000000
_cell_angle_beta   90.00000000
_cell_angle_gamma   120.00000486
_symmetry_Int_Tables_number   1
_chemical_formula_structural   Hf3Zr5(Ni4As3)4
_chemical_formula_sum   'Hf3 Zr5 Ni16 As12'
_cell_volume   526.98789694
_cell_formula_units_Z   1
loop_
 _symmetry_equiv_pos_site_id
 _symmetry_equiv_pos_as_xyz
  1  'x, y, z'
loop_
 _atom_site_type_symbol
 _atom_site_label
 _atom_site_symmetry_multiplicity
 _atom_site_fract_x
 _atom_site_fract_y
 _atom_site_fract_z
 _atom_site_occupancy
  Hf  Hf0  1  0.557165  0.557165  0.000000  1
  Hf  Hf1  1  0.442835  0.000000  0.000000  1
  Hf  Hf2  1  0.000000  0.442835  0.000000  1
  Zr  Zr3  1  0.176116  0.176116  0.500000  1
  Zr  Zr4  1  0.823884  0.000000  0.500000  1
  Zr  Zr5  1  0.000000  0.823884  0.500000  1
  Zr  Zr6  1  0.333333  0.666667  0.000000  1
  Zr  Zr7  1  0.666667  0.333333  0.000000  1
  Ni  Ni8  1  0.721279  0.721279  0.500000  1
  Ni  Ni9  1  0.278721  0.000000  0.500000  1
  Ni  Ni10  1  0.000000  0.278721  0.500000  1
  Ni  Ni11  1  0.178949  0.370305  0.000000  1
  Ni  Ni12  1  0.629695  0.808645  0.000000  1
  Ni  Ni13  1  0.191355  0.821051  0.000000  1
  Ni  Ni14  1  0.808645  0.629695  0.000000  1
  Ni  Ni15  1  0.821051  0.191355  0.000000  1
  Ni  Ni16  1  0.370305  0.178949  0.000000  1
  Ni  Ni17  1  0.357711  0.478719  0.500000  1
  Ni  Ni18  1  0.521281  0.878994  0.500000  1
  Ni  Ni19  1  0.121006  0.642289  0.500000  1
  Ni  Ni20  1  0.878994  0.521281  0.500000  1
  Ni  Ni21  1  0.642289  0.121006  0.500000  1
  Ni  Ni22  1  0.478719  0.357711  0.500000  1
  Ni  Ni23  1  0.000000  0.000000  0.000000  1
  As  As24  1  0.823769  0.823769  0.000000  1
  As  As25  1  0.176231  0.000000  0.000000  1
  As  As26  1  0.000000  0.176231  0.000000  1
  As  As27  1  0.174791  0.486830  0.500000  1
  As  As28  1  0.513170  0.687961  0.500000  1
  As  As29  1  0.312039  0.825209  0.500000  1
  As  As30  1  0.687961  0.513170  0.500000  1
  As  As31  1  0.825209  0.312039  0.500000  1
  As  As32  1  0.486830  0.174791  0.500000  1
  As  As33  1  0.349635  0.349635  0.000000  1
  As  As34  1  0.650365  0.000000  0.000000  1
  As  As35  1  0.000000  0.650365  0.000000  1
