# generated using pymatgen
data_Sr3Ga2BrClO5
_symmetry_space_group_name_H-M   'P 1'
_cell_length_a   9.74220200
_cell_length_b   9.71257765
_cell_length_c   9.73342765
_cell_angle_alpha   89.95807841
_cell_angle_beta   90.00000000
_cell_angle_gamma   90.00000000
_symmetry_Int_Tables_number   1
_chemical_formula_structural   Sr3Ga2BrClO5
_chemical_formula_sum   'Sr12 Ga8 Br4 Cl4 O20'
_cell_volume   920.99510718
_cell_formula_units_Z   4
loop_
 _symmetry_equiv_pos_site_id
 _symmetry_equiv_pos_as_xyz
  1  'x, y, z'
loop_
 _atom_site_type_symbol
 _atom_site_label
 _atom_site_symmetry_multiplicity
 _atom_site_fract_x
 _atom_site_fract_y
 _atom_site_fract_z
 _atom_site_occupancy
  Sr  Sr0  1  0.281275  0.167215  0.995535  1
  Sr  Sr1  1  0.781275  0.332785  0.004465  1
  Sr  Sr2  1  0.711461  0.662988  0.504811  1
  Sr  Sr3  1  0.211461  0.837012  0.495189  1
  Sr  Sr4  1  0.477342  0.738584  0.164381  1
  Sr  Sr5  1  0.977342  0.761416  0.835619  1
  Sr  Sr6  1  0.665094  0.023081  0.730569  1
  Sr  Sr7  1  0.165094  0.476919  0.269431  1
  Sr  Sr8  1  0.522896  0.255891  0.333267  1
  Sr  Sr9  1  0.022896  0.244109  0.666733  1
  Sr  Sr10  1  0.338425  0.522995  0.760105  1
  Sr  Sr11  1  0.838425  0.977005  0.239895  1
  Ga  Ga12  1  0.341609  0.852834  0.853592  1
  Ga  Ga13  1  0.841609  0.647166  0.146408  1
  Ga  Ga14  1  0.645037  0.656498  0.844272  1
  Ga  Ga15  1  0.145037  0.843502  0.155728  1
  Ga  Ga16  1  0.659466  0.352344  0.645854  1
  Ga  Ga17  1  0.159466  0.147656  0.354146  1
  Ga  Ga18  1  0.356331  0.155479  0.655644  1
  Ga  Ga19  1  0.856331  0.344521  0.344356  1
  Br  Br20  1  0.088274  0.461544  0.951394  1
  Br  Br21  1  0.588274  0.038456  0.048606  1
  Br  Br22  1  0.023482  0.574708  0.563592  1
  Br  Br23  1  0.523482  0.925292  0.436408  1
  Cl  Cl24  1  0.477267  0.421585  0.065074  1
  Cl  Cl25  1  0.977267  0.078415  0.934926  1
  Cl  Cl26  1  0.412768  0.535203  0.448217  1
  Cl  Cl27  1  0.912768  0.964797  0.551783  1
  O  O28  1  0.728424  0.408577  0.473168  1
  O  O29  1  0.228424  0.091423  0.526832  1
  O  O30  1  0.721397  0.739354  0.258205  1
  O  O31  1  0.221397  0.760646  0.741795  1
  O  O32  1  0.778677  0.258614  0.757115  1
  O  O33  1  0.278677  0.241386  0.242885  1
  O  O34  1  0.768072  0.590414  0.975902  1
  O  O35  1  0.268072  0.909586  0.024098  1
  O  O36  1  0.239976  0.719909  0.261913  1
  O  O37  1  0.739976  0.780091  0.738087  1
  O  O38  1  0.591251  0.515531  0.720817  1
  O  O39  1  0.091251  0.984469  0.279183  1
  O  O40  1  0.411741  0.014350  0.777052  1
  O  O41  1  0.911741  0.485650  0.222948  1
  O  O42  1  0.525746  0.221149  0.590340  1
  O  O43  1  0.025746  0.278851  0.409660  1
  O  O44  1  0.472882  0.717520  0.907955  1
  O  O45  1  0.972882  0.782480  0.092045  1
  O  O46  1  0.261107  0.279699  0.760304  1
  O  O47  1  0.761107  0.220301  0.239696  1
