# generated using pymatgen
data_HoEr3(Tm2Os)4
_symmetry_space_group_name_H-M   'P 1'
_cell_length_a   7.35899608
_cell_length_b   8.91411200
_cell_length_c   6.24434622
_cell_angle_alpha   90.00000000
_cell_angle_beta   89.99319660
_cell_angle_gamma   90.00000000
_symmetry_Int_Tables_number   1
_chemical_formula_structural   HoEr3(Tm2Os)4
_chemical_formula_sum   'Ho1 Er3 Tm8 Os4'
_cell_volume   409.62233533
_cell_formula_units_Z   1
loop_
 _symmetry_equiv_pos_site_id
 _symmetry_equiv_pos_as_xyz
  1  'x, y, z'
loop_
 _atom_site_type_symbol
 _atom_site_label
 _atom_site_symmetry_multiplicity
 _atom_site_fract_x
 _atom_site_fract_y
 _atom_site_fract_z
 _atom_site_occupancy
  Ho  Ho0  1  0.540062  0.250000  0.869824  1
  Er  Er1  1  0.040069  0.250000  0.630247  1
  Er  Er2  1  0.959915  0.750000  0.369784  1
  Er  Er3  1  0.459917  0.750000  0.130181  1
  Tm  Tm4  1  0.174623  0.062657  0.166891  1
  Tm  Tm5  1  0.825371  0.937331  0.833113  1
  Tm  Tm6  1  0.325380  0.937341  0.666912  1
  Tm  Tm7  1  0.825371  0.562669  0.833113  1
  Tm  Tm8  1  0.674616  0.062606  0.333081  1
  Tm  Tm9  1  0.174623  0.437343  0.166891  1
  Tm  Tm10  1  0.674616  0.437394  0.333081  1
  Tm  Tm11  1  0.325380  0.562659  0.666912  1
  Os  Os12  1  0.382718  0.250000  0.460095  1
  Os  Os13  1  0.617200  0.750000  0.539880  1
  Os  Os14  1  0.117183  0.750000  0.960125  1
  Os  Os15  1  0.882954  0.250000  0.039869  1
