# generated using pymatgen
data_Ce3Sm(NbN2)4
_symmetry_space_group_name_H-M   'P 1'
_cell_length_a   3.36465500
_cell_length_b   5.77591702
_cell_length_c   11.03288035
_cell_angle_alpha   89.96630225
_cell_angle_beta   90.00000000
_cell_angle_gamma   90.00000000
_symmetry_Int_Tables_number   1
_chemical_formula_structural   Ce3Sm(NbN2)4
_chemical_formula_sum   'Ce3 Sm1 Nb4 N8'
_cell_volume   214.41260773
_cell_formula_units_Z   1
loop_
 _symmetry_equiv_pos_site_id
 _symmetry_equiv_pos_as_xyz
  1  'x, y, z'
loop_
 _atom_site_type_symbol
 _atom_site_label
 _atom_site_symmetry_multiplicity
 _atom_site_fract_x
 _atom_site_fract_y
 _atom_site_fract_z
 _atom_site_occupancy
  Ce  Ce0  1  0.750000  0.419869  0.139505  1
  Ce  Ce1  1  0.750000  0.921717  0.360162  1
  Ce  Ce2  1  0.250000  0.079568  0.641968  1
  Sm  Sm3  1  0.250000  0.581409  0.857559  1
  Nb  Nb4  1  0.250000  0.919069  0.102867  1
  Nb  Nb5  1  0.750000  0.078399  0.898038  1
  Nb  Nb6  1  0.750000  0.579840  0.602398  1
  Nb  Nb7  1  0.250000  0.421588  0.397831  1
  N  N8  1  0.250000  0.659815  0.246494  1
  N  N9  1  0.750000  0.336699  0.751051  1
  N  N10  1  0.750000  0.840517  0.746397  1
  N  N11  1  0.250000  0.159930  0.253948  1
  N  N12  1  0.250000  0.744347  0.509869  1
  N  N13  1  0.750000  0.256181  0.490147  1
  N  N14  1  0.750000  0.757906  0.010461  1
  N  N15  1  0.250000  0.243147  0.991306  1
