# generated using pymatgen
data_YbDy9Tl3Ru
_symmetry_space_group_name_H-M   'P 1'
_cell_length_a   9.62935200
_cell_length_b   9.62935247
_cell_length_c   9.81415800
_cell_angle_alpha   90.00000000
_cell_angle_beta   90.00000000
_cell_angle_gamma   119.99999838
_symmetry_Int_Tables_number   1
_chemical_formula_structural   YbDy9Tl3Ru
_chemical_formula_sum   'Yb2 Dy18 Tl6 Ru2'
_cell_volume   788.09365466
_cell_formula_units_Z   2
loop_
 _symmetry_equiv_pos_site_id
 _symmetry_equiv_pos_as_xyz
  1  'x, y, z'
loop_
 _atom_site_type_symbol
 _atom_site_label
 _atom_site_symmetry_multiplicity
 _atom_site_fract_x
 _atom_site_fract_y
 _atom_site_fract_z
 _atom_site_occupancy
  Yb  Yb0  1  0.000000  0.000000  0.500000  1
  Yb  Yb1  1  0.000000  0.000000  0.000000  1
  Dy  Dy2  1  0.210114  0.789886  0.437014  1
  Dy  Dy3  1  0.210114  0.420229  0.437014  1
  Dy  Dy4  1  0.579771  0.789886  0.437014  1
  Dy  Dy5  1  0.789886  0.210114  0.562986  1
  Dy  Dy6  1  0.789886  0.579771  0.562986  1
  Dy  Dy7  1  0.420229  0.210114  0.562986  1
  Dy  Dy8  1  0.789886  0.210114  0.937014  1
  Dy  Dy9  1  0.789886  0.579771  0.937014  1
  Dy  Dy10  1  0.420229  0.210114  0.937014  1
  Dy  Dy11  1  0.210114  0.789886  0.062986  1
  Dy  Dy12  1  0.210114  0.420229  0.062986  1
  Dy  Dy13  1  0.579771  0.789886  0.062986  1
  Dy  Dy14  1  0.539876  0.460124  0.250000  1
  Dy  Dy15  1  0.539876  0.079753  0.250000  1
  Dy  Dy16  1  0.920247  0.460124  0.250000  1
  Dy  Dy17  1  0.460124  0.539876  0.750000  1
  Dy  Dy18  1  0.460124  0.920247  0.750000  1
  Dy  Dy19  1  0.079753  0.539876  0.750000  1
  Tl  Tl20  1  0.883726  0.116274  0.250000  1
  Tl  Tl21  1  0.883726  0.767453  0.250000  1
  Tl  Tl22  1  0.232547  0.116274  0.250000  1
  Tl  Tl23  1  0.116274  0.883726  0.750000  1
  Tl  Tl24  1  0.116274  0.232547  0.750000  1
  Tl  Tl25  1  0.767453  0.883726  0.750000  1
  Ru  Ru26  1  0.333333  0.666667  0.250000  1
  Ru  Ru27  1  0.666667  0.333333  0.750000  1
