# generated using pymatgen
data_Ca3LaOs6O19
_symmetry_space_group_name_H-M   'P 1'
_cell_length_a   7.86434657
_cell_length_b   7.93789364
_cell_length_c   7.93789354
_cell_angle_alpha   109.65815255
_cell_angle_beta   109.28363982
_cell_angle_gamma   109.28363965
_symmetry_Int_Tables_number   1
_chemical_formula_structural   Ca3LaOs6O19
_chemical_formula_sum   'Ca3 La1 Os6 O19'
_cell_volume   382.34149613
_cell_formula_units_Z   1
loop_
 _symmetry_equiv_pos_site_id
 _symmetry_equiv_pos_as_xyz
  1  'x, y, z'
loop_
 _atom_site_type_symbol
 _atom_site_label
 _atom_site_symmetry_multiplicity
 _atom_site_fract_x
 _atom_site_fract_y
 _atom_site_fract_z
 _atom_site_occupancy
  Ca  Ca0  1  0.997583  0.999527  0.285767  1
  Ca  Ca1  1  0.998056  0.286240  0.000473  1
  Ca  Ca2  1  0.711816  0.714233  0.713760  1
  La  La3  1  0.300497  0.000000  0.000000  1
  Os  Os4  1  0.362483  0.500183  0.862263  1
  Os  Os5  1  0.862300  0.362080  0.499817  1
  Os  Os6  1  0.500220  0.137737  0.637920  1
  Os  Os7  1  0.134993  0.634598  0.496855  1
  Os  Os8  1  0.500394  0.862257  0.365402  1
  Os  Os9  1  0.638138  0.503145  0.137743  1
  O  O10  1  0.325092  0.998926  0.328762  1
  O  O11  1  0.326166  0.329836  0.001074  1
  O  O12  1  0.996330  0.671238  0.670164  1
  O  O13  1  0.673102  0.672986  0.998627  1
  O  O14  1  0.000117  0.325641  0.327014  1
  O  O15  1  0.674475  0.001373  0.674359  1
  O  O16  1  0.013027  0.000000  0.000000  1
  O  O17  1  0.343372  0.281831  0.636972  1
  O  O18  1  0.061540  0.355140  0.718169  1
  O  O19  1  0.706400  0.363028  0.644860  1
  O  O20  1  0.365315  0.651785  0.713584  1
  O  O21  1  0.287126  0.936238  0.653956  1
  O  O22  1  0.633170  0.346044  0.282281  1
  O  O23  1  0.283864  0.633690  0.345769  1
  O  O24  1  0.713531  0.061799  0.348215  1
  O  O25  1  0.938096  0.654231  0.287921  1
  O  O26  1  0.650175  0.712079  0.366310  1
  O  O27  1  0.651731  0.286416  0.938201  1
  O  O28  1  0.350888  0.717719  0.063762  1
