# generated using pymatgen
data_Ho5SiBiSb
_symmetry_space_group_name_H-M   'P 1'
_cell_length_a   8.02164400
_cell_length_b   9.12852500
_cell_length_c   12.00640500
_cell_angle_alpha   90.00000000
_cell_angle_beta   90.00000000
_cell_angle_gamma   90.00000000
_symmetry_Int_Tables_number   1
_chemical_formula_structural   Ho5SiBiSb
_chemical_formula_sum   'Ho20 Si4 Bi4 Sb4'
_cell_volume   879.17834465
_cell_formula_units_Z   4
loop_
 _symmetry_equiv_pos_site_id
 _symmetry_equiv_pos_as_xyz
  1  'x, y, z'
loop_
 _atom_site_type_symbol
 _atom_site_label
 _atom_site_symmetry_multiplicity
 _atom_site_fract_x
 _atom_site_fract_y
 _atom_site_fract_z
 _atom_site_occupancy
  Ho  Ho0  1  0.818864  0.551272  0.066399  1
  Ho  Ho1  1  0.681136  0.948728  0.566399  1
  Ho  Ho2  1  0.181136  0.051272  0.933601  1
  Ho  Ho3  1  0.318864  0.448728  0.433601  1
  Ho  Ho4  1  0.181475  0.447733  0.938122  1
  Ho  Ho5  1  0.318525  0.052267  0.438122  1
  Ho  Ho6  1  0.818525  0.947733  0.061878  1
  Ho  Ho7  1  0.681475  0.552267  0.561878  1
  Ho  Ho8  1  0.165674  0.743289  0.213079  1
  Ho  Ho9  1  0.334326  0.756711  0.713079  1
  Ho  Ho10  1  0.834326  0.243289  0.786921  1
  Ho  Ho11  1  0.665674  0.256711  0.286921  1
  Ho  Ho12  1  0.461038  0.750309  0.001412  1
  Ho  Ho13  1  0.038962  0.749691  0.501412  1
  Ho  Ho14  1  0.538962  0.250309  0.998588  1
  Ho  Ho15  1  0.961038  0.249691  0.498588  1
  Ho  Ho16  1  0.637203  0.744194  0.294862  1
  Ho  Ho17  1  0.862797  0.755806  0.794862  1
  Ho  Ho18  1  0.362797  0.244194  0.705138  1
  Ho  Ho19  1  0.137203  0.255806  0.205138  1
  Si  Si20  1  0.414089  0.750293  0.479826  1
  Si  Si21  1  0.085911  0.749707  0.979826  1
  Si  Si22  1  0.585911  0.250293  0.520174  1
  Si  Si23  1  0.914089  0.249707  0.020174  1
  Bi  Bi24  1  0.068397  0.489279  0.675487  1
  Bi  Bi25  1  0.431603  0.010721  0.175487  1
  Bi  Bi26  1  0.931603  0.989279  0.324513  1
  Bi  Bi27  1  0.568397  0.510721  0.824513  1
  Sb  Sb28  1  0.932826  0.510618  0.327630  1
  Sb  Sb29  1  0.567174  0.989382  0.827630  1
  Sb  Sb30  1  0.067174  0.010618  0.672370  1
  Sb  Sb31  1  0.432826  0.489382  0.172370  1
