# generated using pymatgen
data_Ho2Tm2Lu4Cd2IrRu
_symmetry_space_group_name_H-M   'P 1'
_cell_length_a   9.51844279
_cell_length_b   9.51283964
_cell_length_c   9.54441416
_cell_angle_alpha   59.58394072
_cell_angle_beta   59.57160823
_cell_angle_gamma   59.56366235
_symmetry_Int_Tables_number   1
_chemical_formula_structural   Ho2Tm2Lu4Cd2IrRu
_chemical_formula_sum   'Ho4 Tm4 Lu8 Cd4 Ir2 Ru2'
_cell_volume   605.16642555
_cell_formula_units_Z   2
loop_
 _symmetry_equiv_pos_site_id
 _symmetry_equiv_pos_as_xyz
  1  'x, y, z'
loop_
 _atom_site_type_symbol
 _atom_site_label
 _atom_site_symmetry_multiplicity
 _atom_site_fract_x
 _atom_site_fract_y
 _atom_site_fract_z
 _atom_site_occupancy
  Ho  Ho0  1  0.809174  0.188903  0.812730  1
  Ho  Ho1  1  0.188461  0.809296  0.189123  1
  Ho  Ho2  1  0.810432  0.810552  0.189857  1
  Ho  Ho3  1  0.188970  0.189023  0.810714  1
  Tm  Tm4  1  0.437609  0.437458  0.061771  1
  Tm  Tm5  1  0.059883  0.059880  0.439633  1
  Tm  Tm6  1  0.189340  0.808638  0.811977  1
  Tm  Tm7  1  0.809019  0.188847  0.189736  1
  Lu  Lu8  1  0.597944  0.598058  0.598480  1
  Lu  Lu9  1  0.598602  0.598327  0.205861  1
  Lu  Lu10  1  0.596492  0.210142  0.596967  1
  Lu  Lu11  1  0.209968  0.596549  0.597322  1
  Lu  Lu12  1  0.062266  0.437663  0.439030  1
  Lu  Lu13  1  0.437006  0.062638  0.060355  1
  Lu  Lu14  1  0.437846  0.062216  0.439195  1
  Lu  Lu15  1  0.062418  0.437255  0.060019  1
  Cd  Cd16  1  0.830401  0.829924  0.830040  1
  Cd  Cd17  1  0.830079  0.830515  0.509329  1
  Cd  Cd18  1  0.830458  0.507968  0.831027  1
  Cd  Cd19  1  0.508146  0.830386  0.830528  1
  Ir  Ir20  1  0.394754  0.826238  0.390600  1
  Ir  Ir21  1  0.826349  0.394686  0.390070  1
  Ru  Ru22  1  0.392050  0.391942  0.388663  1
  Ru  Ru23  1  0.392335  0.392899  0.826976  1
