# generated using pymatgen
data_In9Pd12Au
_symmetry_space_group_name_H-M   'P 1'
_cell_length_a   7.23553112
_cell_length_b   7.23553084
_cell_length_c   9.71336858
_cell_angle_alpha   62.43594428
_cell_angle_beta   62.43594607
_cell_angle_gamma   76.70859212
_symmetry_Int_Tables_number   1
_chemical_formula_structural   In9Pd12Au
_chemical_formula_sum   'In9 Pd12 Au1'
_cell_volume   399.55339235
_cell_formula_units_Z   1
loop_
 _symmetry_equiv_pos_site_id
 _symmetry_equiv_pos_as_xyz
  1  'x, y, z'
loop_
 _atom_site_type_symbol
 _atom_site_label
 _atom_site_symmetry_multiplicity
 _atom_site_fract_x
 _atom_site_fract_y
 _atom_site_fract_z
 _atom_site_occupancy
  In  In0  1  0.255862  0.827102  0.192513  1
  In  In1  1  0.175060  0.175060  0.386559  1
  In  In2  1  0.296635  0.296635  0.661589  1
  In  In3  1  0.827102  0.255862  0.192513  1
  In  In4  1  0.703365  0.703365  0.338411  1
  In  In5  1  0.500000  0.500000  0.000000  1
  In  In6  1  0.744138  0.172898  0.807487  1
  In  In7  1  0.172898  0.744138  0.807487  1
  In  In8  1  0.824940  0.824940  0.613441  1
  Pd  Pd9  1  0.543836  0.065905  0.159042  1
  Pd  Pd10  1  0.500000  0.000000  0.500000  1
  Pd  Pd11  1  0.546570  0.546570  0.681493  1
  Pd  Pd12  1  0.065905  0.543836  0.159042  1
  Pd  Pd13  1  0.453430  0.453430  0.318507  1
  Pd  Pd14  1  0.256335  0.743665  0.500000  1
  Pd  Pd15  1  0.257258  0.257258  0.990321  1
  Pd  Pd16  1  0.934095  0.456164  0.840958  1
  Pd  Pd17  1  0.742742  0.742742  0.009679  1
  Pd  Pd18  1  0.456164  0.934095  0.840958  1
  Pd  Pd19  1  0.743665  0.256335  0.500000  1
  Pd  Pd20  1  0.000000  0.500000  0.500000  1
  Au  Au21  1  0.000000  0.000000  0.000000  1
