# generated using pymatgen
data_Er4Ti2AlGaIr4
_symmetry_space_group_name_H-M   'P 1'
_cell_length_a   4.26922800
_cell_length_b   6.84791904
_cell_length_c   7.97691558
_cell_angle_alpha   90.27793970
_cell_angle_beta   90.00000000
_cell_angle_gamma   90.00000000
_symmetry_Int_Tables_number   1
_chemical_formula_structural   Er4Ti2AlGaIr4
_chemical_formula_sum   'Er4 Ti2 Al1 Ga1 Ir4'
_cell_volume   233.20499730
_cell_formula_units_Z   1
loop_
 _symmetry_equiv_pos_site_id
 _symmetry_equiv_pos_as_xyz
  1  'x, y, z'
loop_
 _atom_site_type_symbol
 _atom_site_label
 _atom_site_symmetry_multiplicity
 _atom_site_fract_x
 _atom_site_fract_y
 _atom_site_fract_z
 _atom_site_occupancy
  Er  Er0  1  0.250000  0.962814  0.326463  1
  Er  Er1  1  0.250000  0.461344  0.171574  1
  Er  Er2  1  0.750000  0.030659  0.677889  1
  Er  Er3  1  0.750000  0.527711  0.823901  1
  Ti  Ti4  1  0.250000  0.372907  0.557162  1
  Ti  Ti5  1  0.250000  0.874881  0.944425  1
  Al  Al6  1  0.750000  0.638118  0.440588  1
  Ga  Ga7  1  0.750000  0.139596  0.060454  1
  Ir  Ir8  1  0.250000  0.232343  0.863047  1
  Ir  Ir9  1  0.250000  0.730919  0.631391  1
  Ir  Ir10  1  0.750000  0.762745  0.119603  1
  Ir  Ir11  1  0.750000  0.265964  0.383502  1
