# generated using pymatgen
data_LiTbFeH6
_symmetry_space_group_name_H-M   'P 1'
_cell_length_a   4.71436265
_cell_length_b   4.71436324
_cell_length_c   4.71436400
_cell_angle_alpha   60.00000868
_cell_angle_beta   60.00000453
_cell_angle_gamma   60.00001123
_symmetry_Int_Tables_number   1
_chemical_formula_structural   LiTbFeH6
_chemical_formula_sum   'Li1 Tb1 Fe1 H6'
_cell_volume   74.08908351
_cell_formula_units_Z   1
loop_
 _symmetry_equiv_pos_site_id
 _symmetry_equiv_pos_as_xyz
  1  'x, y, z'
loop_
 _atom_site_type_symbol
 _atom_site_label
 _atom_site_symmetry_multiplicity
 _atom_site_fract_x
 _atom_site_fract_y
 _atom_site_fract_z
 _atom_site_occupancy
  Li  Li0  1  0.750000  0.750000  0.750000  1
  Tb  Tb1  1  0.250000  0.250000  0.250000  1
  Fe  Fe2  1  0.000000  0.000000  0.000000  1
  H  H3  1  0.237783  0.762217  0.237783  1
  H  H4  1  0.762216  0.762216  0.237784  1
  H  H5  1  0.762216  0.237784  0.237784  1
  H  H6  1  0.237784  0.762216  0.762216  1
  H  H7  1  0.762217  0.237783  0.762217  1
  H  H8  1  0.237783  0.237783  0.762217  1
