# generated using pymatgen
data_Nd2Zn14Pd3
_symmetry_space_group_name_H-M   'P 1'
_cell_length_a   6.89017091
_cell_length_b   6.89017048
_cell_length_c   6.89017124
_cell_angle_alpha   82.93712934
_cell_angle_beta   82.93712839
_cell_angle_gamma   82.93714150
_symmetry_Int_Tables_number   1
_chemical_formula_structural   Nd2Zn14Pd3
_chemical_formula_sum   'Nd2 Zn14 Pd3'
_cell_volume   320.22460827
_cell_formula_units_Z   1
loop_
 _symmetry_equiv_pos_site_id
 _symmetry_equiv_pos_as_xyz
  1  'x, y, z'
loop_
 _atom_site_type_symbol
 _atom_site_label
 _atom_site_symmetry_multiplicity
 _atom_site_fract_x
 _atom_site_fract_y
 _atom_site_fract_z
 _atom_site_occupancy
  Nd  Nd0  1  0.662483  0.662483  0.662483  1
  Nd  Nd1  1  0.337517  0.337517  0.337517  1
  Zn  Zn2  1  0.349478  0.349478  0.840171  1
  Zn  Zn3  1  0.840171  0.349478  0.349478  1
  Zn  Zn4  1  0.101732  0.101732  0.101732  1
  Zn  Zn5  1  0.898268  0.898268  0.898268  1
  Zn  Zn6  1  0.296454  0.703546  0.000000  1
  Zn  Zn7  1  0.703546  0.000000  0.296454  1
  Zn  Zn8  1  0.000000  0.296454  0.703546  1
  Zn  Zn9  1  0.703546  0.296454  0.000000  1
  Zn  Zn10  1  0.296454  0.000000  0.703546  1
  Zn  Zn11  1  0.000000  0.703546  0.296454  1
  Zn  Zn12  1  0.159829  0.650522  0.650522  1
  Zn  Zn13  1  0.650522  0.650522  0.159829  1
  Zn  Zn14  1  0.650522  0.159829  0.650522  1
  Zn  Zn15  1  0.349478  0.840171  0.349478  1
  Pd  Pd16  1  0.000000  0.000000  0.500000  1
  Pd  Pd17  1  0.000000  0.500000  0.000000  1
  Pd  Pd18  1  0.500000  0.000000  0.000000  1
