# generated using pymatgen
data_YTm2Lu3FeBi2
_symmetry_space_group_name_H-M   'P 1'
_cell_length_a   8.20735600
_cell_length_b   8.18191566
_cell_length_c   4.14472000
_cell_angle_alpha   90.00000000
_cell_angle_beta   90.00000000
_cell_angle_gamma   120.10291758
_symmetry_Int_Tables_number   1
_chemical_formula_structural   YTm2Lu3FeBi2
_chemical_formula_sum   'Y1 Tm2 Lu3 Fe1 Bi2'
_cell_volume   240.78685360
_cell_formula_units_Z   1
loop_
 _symmetry_equiv_pos_site_id
 _symmetry_equiv_pos_as_xyz
  1  'x, y, z'
loop_
 _atom_site_type_symbol
 _atom_site_label
 _atom_site_symmetry_multiplicity
 _atom_site_fract_x
 _atom_site_fract_y
 _atom_site_fract_z
 _atom_site_occupancy
  Y  Y0  1  0.611931  0.000000  0.000000  1
  Tm  Tm1  1  0.999988  0.613535  0.000000  1
  Tm  Tm2  1  0.386453  0.386465  0.000000  1
  Lu  Lu3  1  0.228909  0.000000  0.500000  1
  Lu  Lu4  1  0.001013  0.229725  0.500000  1
  Lu  Lu5  1  0.771287  0.770275  0.500000  1
  Fe  Fe6  1  0.001387  0.000000  0.000000  1
  Bi  Bi7  1  0.332519  0.666006  0.500000  1
  Bi  Bi8  1  0.666514  0.333994  0.500000  1
