# generated using pymatgen
data_U4ReTc(WC4)2
_symmetry_space_group_name_H-M   'P 1'
_cell_length_a   3.19505100
_cell_length_b   5.63032564
_cell_length_c   11.06380298
_cell_angle_alpha   89.97878652
_cell_angle_beta   90.00000000
_cell_angle_gamma   90.00000000
_symmetry_Int_Tables_number   1
_chemical_formula_structural   U4ReTc(WC4)2
_chemical_formula_sum   'U4 Re1 Tc1 W2 C8'
_cell_volume   199.02870280
_cell_formula_units_Z   1
loop_
 _symmetry_equiv_pos_site_id
 _symmetry_equiv_pos_as_xyz
  1  'x, y, z'
loop_
 _atom_site_type_symbol
 _atom_site_label
 _atom_site_symmetry_multiplicity
 _atom_site_fract_x
 _atom_site_fract_y
 _atom_site_fract_z
 _atom_site_occupancy
  U  U0  1  0.250000  0.080786  0.856557  1
  U  U1  1  0.250000  0.579796  0.642765  1
  U  U2  1  0.750000  0.918632  0.140320  1
  U  U3  1  0.750000  0.416725  0.359455  1
  Re  Re4  1  0.750000  0.578449  0.897656  1
  Tc  Tc5  1  0.750000  0.078302  0.602536  1
  W  W6  1  0.250000  0.421444  0.102048  1
  W  W7  1  0.250000  0.919867  0.398332  1
  C  C8  1  0.250000  0.163297  0.243120  1
  C  C9  1  0.250000  0.663714  0.257093  1
  C  C10  1  0.750000  0.839127  0.755732  1
  C  C11  1  0.750000  0.341140  0.745638  1
  C  C12  1  0.250000  0.747800  0.991869  1
  C  C13  1  0.250000  0.246279  0.507263  1
  C  C14  1  0.750000  0.252561  0.005960  1
  C  C15  1  0.750000  0.752082  0.493656  1
