# generated using pymatgen
data_Dy3Y(MnAl3)2
_symmetry_space_group_name_H-M   'P 1'
_cell_length_a   9.39904262
_cell_length_b   9.39904233
_cell_length_c   9.39904232
_cell_angle_alpha   34.60159941
_cell_angle_beta   34.60159873
_cell_angle_gamma   34.60160075
_symmetry_Int_Tables_number   1
_chemical_formula_structural   Dy3Y(MnAl3)2
_chemical_formula_sum   'Dy3 Y1 Mn2 Al6'
_cell_volume   238.91476743
_cell_formula_units_Z   1
loop_
 _symmetry_equiv_pos_site_id
 _symmetry_equiv_pos_as_xyz
  1  'x, y, z'
loop_
 _atom_site_type_symbol
 _atom_site_label
 _atom_site_symmetry_multiplicity
 _atom_site_fract_x
 _atom_site_fract_y
 _atom_site_fract_z
 _atom_site_occupancy
  Dy  Dy0  1  0.313374  0.313374  0.313374  1
  Dy  Dy1  1  0.686396  0.686396  0.686396  1
  Dy  Dy2  1  0.186774  0.186774  0.186774  1
  Y  Y3  1  0.813489  0.813489  0.813489  1
  Mn  Mn4  1  0.500125  0.500125  0.500125  1
  Mn  Mn5  1  0.000012  0.000012  0.000012  1
  Al  Al6  1  0.249888  0.249888  0.750037  1
  Al  Al7  1  0.750020  0.750020  0.249977  1
  Al  Al8  1  0.249888  0.750037  0.249888  1
  Al  Al9  1  0.750020  0.249977  0.750020  1
  Al  Al10  1  0.750037  0.249888  0.249888  1
  Al  Al11  1  0.249977  0.750020  0.750020  1
