# generated using pymatgen
data_DyY9Tl3Ru
_symmetry_space_group_name_H-M   'P 1'
_cell_length_a   9.78236800
_cell_length_b   9.78236870
_cell_length_c   9.94705800
_cell_angle_alpha   90.00000000
_cell_angle_beta   90.00000000
_cell_angle_gamma   119.99999765
_symmetry_Int_Tables_number   1
_chemical_formula_structural   DyY9Tl3Ru
_chemical_formula_sum   'Dy2 Y18 Tl6 Ru2'
_cell_volume   824.35317676
_cell_formula_units_Z   2
loop_
 _symmetry_equiv_pos_site_id
 _symmetry_equiv_pos_as_xyz
  1  'x, y, z'
loop_
 _atom_site_type_symbol
 _atom_site_label
 _atom_site_symmetry_multiplicity
 _atom_site_fract_x
 _atom_site_fract_y
 _atom_site_fract_z
 _atom_site_occupancy
  Dy  Dy0  1  0.000000  0.000000  0.500000  1
  Dy  Dy1  1  0.000000  0.000000  0.000000  1
  Y  Y2  1  0.210427  0.789573  0.438047  1
  Y  Y3  1  0.210427  0.420852  0.438047  1
  Y  Y4  1  0.579148  0.789573  0.438047  1
  Y  Y5  1  0.789573  0.210427  0.561953  1
  Y  Y6  1  0.789573  0.579148  0.561953  1
  Y  Y7  1  0.420852  0.210427  0.561953  1
  Y  Y8  1  0.789573  0.210427  0.938047  1
  Y  Y9  1  0.789573  0.579148  0.938047  1
  Y  Y10  1  0.420852  0.210427  0.938047  1
  Y  Y11  1  0.210427  0.789573  0.061953  1
  Y  Y12  1  0.210427  0.420852  0.061953  1
  Y  Y13  1  0.579148  0.789573  0.061953  1
  Y  Y14  1  0.539595  0.460405  0.250000  1
  Y  Y15  1  0.539595  0.079189  0.250000  1
  Y  Y16  1  0.920811  0.460405  0.250000  1
  Y  Y17  1  0.460405  0.539595  0.750000  1
  Y  Y18  1  0.460405  0.920811  0.750000  1
  Y  Y19  1  0.079189  0.539595  0.750000  1
  Tl  Tl20  1  0.882713  0.117287  0.250000  1
  Tl  Tl21  1  0.882713  0.765429  0.250000  1
  Tl  Tl22  1  0.234571  0.117287  0.250000  1
  Tl  Tl23  1  0.117287  0.882713  0.750000  1
  Tl  Tl24  1  0.117287  0.234571  0.750000  1
  Tl  Tl25  1  0.765429  0.882713  0.750000  1
  Ru  Ru26  1  0.333333  0.666667  0.250000  1
  Ru  Ru27  1  0.666667  0.333333  0.750000  1
