# generated using pymatgen
data_Tb3Er(Si5Pt3)2
_symmetry_space_group_name_H-M   'P 1'
_cell_length_a   8.14034314
_cell_length_b   8.13986818
_cell_length_c   8.13986900
_cell_angle_alpha   136.27878942
_cell_angle_beta   104.39298753
_cell_angle_gamma   91.64467895
_symmetry_Int_Tables_number   1
_chemical_formula_structural   Tb3Er(Si5Pt3)2
_chemical_formula_sum   'Tb3 Er1 Si10 Pt6'
_cell_volume   343.14594914
_cell_formula_units_Z   1
loop_
 _symmetry_equiv_pos_site_id
 _symmetry_equiv_pos_as_xyz
  1  'x, y, z'
loop_
 _atom_site_type_symbol
 _atom_site_label
 _atom_site_symmetry_multiplicity
 _atom_site_fract_x
 _atom_site_fract_y
 _atom_site_fract_z
 _atom_site_occupancy
  Tb  Tb0  1  0.641574  0.370436  0.271138  1
  Tb  Tb1  1  0.358365  0.629556  0.728809  1
  Tb  Tb2  1  0.099149  0.870409  0.228740  1
  Er  Er3  1  0.901304  0.129697  0.771606  1
  Si  Si4  1  0.271664  0.521788  0.249834  1
  Si  Si5  1  0.728114  0.478159  0.750144  1
  Si  Si6  1  0.728114  0.977970  0.249955  1
  Si  Si7  1  0.271664  0.021830  0.749874  1
  Si  Si8  1  0.460734  0.112122  0.348612  1
  Si  Si9  1  0.539968  0.888520  0.651449  1
  Si  Si10  1  0.763173  0.612039  0.151134  1
  Si  Si11  1  0.236471  0.387583  0.848890  1
  Si  Si12  1  0.000002  0.250189  0.250077  1
  Si  Si13  1  0.000002  0.749924  0.749813  1
  Pt  Pt14  1  0.249862  0.137395  0.112468  1
  Pt  Pt15  1  0.750393  0.863124  0.887270  1
  Pt  Pt16  1  0.024392  0.637391  0.387001  1
  Pt  Pt17  1  0.974803  0.361740  0.613063  1
  Pt  Pt18  1  0.500126  0.249653  0.749650  1
  Pt  Pt19  1  0.500126  0.750477  0.250474  1
