# generated using pymatgen
data_Tm4NbOs7
_symmetry_space_group_name_H-M   'P 1'
_cell_length_a   5.42254804
_cell_length_b   5.42254772
_cell_length_c   8.60796800
_cell_angle_alpha   90.00056045
_cell_angle_beta   89.99944295
_cell_angle_gamma   120.00313972
_symmetry_Int_Tables_number   1
_chemical_formula_structural   Tm4NbOs7
_chemical_formula_sum   'Tm4 Nb1 Os7'
_cell_volume   219.19181130
_cell_formula_units_Z   1
loop_
 _symmetry_equiv_pos_site_id
 _symmetry_equiv_pos_as_xyz
  1  'x, y, z'
loop_
 _atom_site_type_symbol
 _atom_site_label
 _atom_site_symmetry_multiplicity
 _atom_site_fract_x
 _atom_site_fract_y
 _atom_site_fract_z
 _atom_site_occupancy
  Tm  Tm0  1  0.666667  0.333333  0.571480  1
  Tm  Tm1  1  0.333333  0.666667  0.428520  1
  Tm  Tm2  1  0.333334  0.666666  0.061780  1
  Tm  Tm3  1  0.666666  0.333334  0.938220  1
  Nb  Nb4  1  0.000000  0.000000  0.500000  1
  Os  Os5  1  0.000000  0.000000  0.000000  1
  Os  Os6  1  0.174175  0.348344  0.751906  1
  Os  Os7  1  0.174165  0.825835  0.751905  1
  Os  Os8  1  0.651656  0.825825  0.751906  1
  Os  Os9  1  0.825825  0.651656  0.248094  1
  Os  Os10  1  0.825835  0.174165  0.248095  1
  Os  Os11  1  0.348344  0.174175  0.248094  1
