# generated using pymatgen
data_Ti4Nb3Re2Tc7
_symmetry_space_group_name_H-M   'P 1'
_cell_length_a   6.28663627
_cell_length_b   6.28663627
_cell_length_c   6.29195324
_cell_angle_alpha   89.97771013
_cell_angle_beta   90.02228987
_cell_angle_gamma   89.97512122
_symmetry_Int_Tables_number   1
_chemical_formula_structural   Ti4Nb3Re2Tc7
_chemical_formula_sum   'Ti4 Nb3 Re2 Tc7'
_cell_volume   248.66922843
_cell_formula_units_Z   1
loop_
 _symmetry_equiv_pos_site_id
 _symmetry_equiv_pos_as_xyz
  1  'x, y, z'
loop_
 _atom_site_type_symbol
 _atom_site_label
 _atom_site_symmetry_multiplicity
 _atom_site_fract_x
 _atom_site_fract_y
 _atom_site_fract_z
 _atom_site_occupancy
  Ti  Ti0  1  0.500216  0.499784  0.999760  1
  Ti  Ti1  1  0.999828  0.000172  0.999858  1
  Ti  Ti2  1  0.999751  0.499791  0.500202  1
  Ti  Ti3  1  0.500209  0.000249  0.500202  1
  Nb  Nb4  1  0.999845  0.000155  0.500177  1
  Nb  Nb5  1  0.999821  0.499816  0.999832  1
  Nb  Nb6  1  0.500184  0.000179  0.999832  1
  Re  Re7  1  0.499833  0.500167  0.499836  1
  Re  Re8  1  0.252709  0.747291  0.252779  1
  Tc  Tc9  1  0.252384  0.252264  0.252447  1
  Tc  Tc10  1  0.747514  0.747496  0.747445  1
  Tc  Tc11  1  0.747736  0.747616  0.252447  1
  Tc  Tc12  1  0.747526  0.252474  0.252562  1
  Tc  Tc13  1  0.747559  0.252441  0.747504  1
  Tc  Tc14  1  0.252504  0.252486  0.747445  1
  Tc  Tc15  1  0.252381  0.747619  0.747672  1
