# generated using pymatgen
data_Pr20Ga3CoBi8
_symmetry_space_group_name_H-M   'P 1'
_cell_length_a   8.35382400
_cell_length_b   9.55746600
_cell_length_c   12.72323602
_cell_angle_alpha   90.00000000
_cell_angle_beta   90.00283747
_cell_angle_gamma   90.00000000
_symmetry_Int_Tables_number   1
_chemical_formula_structural   Pr20Ga3CoBi8
_chemical_formula_sum   'Pr20 Ga3 Co1 Bi8'
_cell_volume   1015.84083333
_cell_formula_units_Z   1
loop_
 _symmetry_equiv_pos_site_id
 _symmetry_equiv_pos_as_xyz
  1  'x, y, z'
loop_
 _atom_site_type_symbol
 _atom_site_label
 _atom_site_symmetry_multiplicity
 _atom_site_fract_x
 _atom_site_fract_y
 _atom_site_fract_z
 _atom_site_occupancy
  Pr  Pr0  1  0.347377  0.750000  0.702372  1
  Pr  Pr1  1  0.662226  0.250000  0.285341  1
  Pr  Pr2  1  0.841332  0.250000  0.786345  1
  Pr  Pr3  1  0.161427  0.750000  0.214791  1
  Pr  Pr4  1  0.864353  0.750000  0.792241  1
  Pr  Pr5  1  0.137519  0.250000  0.210320  1
  Pr  Pr6  1  0.362447  0.250000  0.710141  1
  Pr  Pr7  1  0.626911  0.750000  0.300958  1
  Pr  Pr8  1  0.678502  0.548059  0.559273  1
  Pr  Pr9  1  0.316023  0.480028  0.439497  1
  Pr  Pr10  1  0.191570  0.455027  0.933583  1
  Pr  Pr11  1  0.316023  0.019972  0.439497  1
  Pr  Pr12  1  0.808664  0.543122  0.062957  1
  Pr  Pr13  1  0.678502  0.951941  0.559273  1
  Pr  Pr14  1  0.808664  0.956878  0.062957  1
  Pr  Pr15  1  0.191570  0.044973  0.933583  1
  Pr  Pr16  1  0.033966  0.750000  0.500589  1
  Pr  Pr17  1  0.972061  0.250000  0.498135  1
  Pr  Pr18  1  0.530762  0.250000  0.000428  1
  Pr  Pr19  1  0.461484  0.750000  0.000482  1
  Ga  Ga20  1  0.072670  0.750000  0.985519  1
  Ga  Ga21  1  0.926724  0.250000  0.018691  1
  Ga  Ga22  1  0.574703  0.250000  0.518265  1
  Co  Co23  1  0.427323  0.750000  0.485609  1
  Bi  Bi24  1  0.578801  0.508152  0.825919  1
  Bi  Bi25  1  0.426163  0.491440  0.173645  1
  Bi  Bi26  1  0.075218  0.492807  0.674033  1
  Bi  Bi27  1  0.426163  0.008560  0.173645  1
  Bi  Bi28  1  0.923417  0.507891  0.325980  1
  Bi  Bi29  1  0.578801  0.991848  0.825919  1
  Bi  Bi30  1  0.923417  0.992109  0.325980  1
  Bi  Bi31  1  0.075218  0.007193  0.674033  1
