# generated using pymatgen
data_NaZr2CdF11
_symmetry_space_group_name_H-M   'P 1'
_cell_length_a   5.92021523
_cell_length_b   5.92021471
_cell_length_c   7.99692746
_cell_angle_alpha   69.70630922
_cell_angle_beta   69.70631136
_cell_angle_gamma   73.18168815
_symmetry_Int_Tables_number   1
_chemical_formula_structural   NaZr2CdF11
_chemical_formula_sum   'Na1 Zr2 Cd1 F11'
_cell_volume   241.97261328
_cell_formula_units_Z   1
loop_
 _symmetry_equiv_pos_site_id
 _symmetry_equiv_pos_as_xyz
  1  'x, y, z'
loop_
 _atom_site_type_symbol
 _atom_site_label
 _atom_site_symmetry_multiplicity
 _atom_site_fract_x
 _atom_site_fract_y
 _atom_site_fract_z
 _atom_site_occupancy
  Na  Na0  1  0.000000  0.000000  0.000000  1
  Zr  Zr1  1  0.498625  0.498625  0.769984  1
  Zr  Zr2  1  0.501375  0.501375  0.230016  1
  Cd  Cd3  1  0.000000  0.000000  0.500000  1
  F  F4  1  0.223450  0.795521  0.702562  1
  F  F5  1  0.204479  0.776550  0.297438  1
  F  F6  1  0.776550  0.204479  0.297438  1
  F  F7  1  0.795521  0.223450  0.702562  1
  F  F8  1  0.500000  0.500000  0.500000  1
  F  F9  1  0.665325  0.334675  0.000000  1
  F  F10  1  0.334675  0.665325  0.000000  1
  F  F11  1  0.263000  0.263000  0.347332  1
  F  F12  1  0.737000  0.737000  0.652668  1
  F  F13  1  0.266098  0.266098  0.889469  1
  F  F14  1  0.733902  0.733902  0.110531  1
