# generated using pymatgen
data_Ni8Ge4MoW11C2
_symmetry_space_group_name_H-M   'P 1'
_cell_length_a   7.80874118
_cell_length_b   7.81251733
_cell_length_c   7.81251836
_cell_angle_alpha   60.02318094
_cell_angle_beta   60.01598454
_cell_angle_gamma   60.01599041
_symmetry_Int_Tables_number   1
_chemical_formula_structural   Ni8Ge4MoW11C2
_chemical_formula_sum   'Ni8 Ge4 Mo1 W11 C2'
_cell_volume   337.15456450
_cell_formula_units_Z   1
loop_
 _symmetry_equiv_pos_site_id
 _symmetry_equiv_pos_as_xyz
  1  'x, y, z'
loop_
 _atom_site_type_symbol
 _atom_site_label
 _atom_site_symmetry_multiplicity
 _atom_site_fract_x
 _atom_site_fract_y
 _atom_site_fract_z
 _atom_site_occupancy
  Ni  Ni0  1  0.332897  0.332731  0.001475  1
  Ni  Ni1  1  0.332443  0.332923  0.332923  1
  Ni  Ni2  1  0.248791  0.917083  0.917083  1
  Ni  Ni3  1  0.917042  0.917083  0.917083  1
  Ni  Ni4  1  0.001712  0.332923  0.332923  1
  Ni  Ni5  1  0.332897  0.001475  0.332731  1
  Ni  Ni6  1  0.917255  0.916646  0.248844  1
  Ni  Ni7  1  0.917255  0.248844  0.916646  1
  Ge  Ge8  1  0.124936  0.625201  0.124927  1
  Ge  Ge9  1  0.124936  0.124927  0.625201  1
  Ge  Ge10  1  0.625324  0.125334  0.125334  1
  Ge  Ge11  1  0.124008  0.125334  0.125334  1
  Mo  Mo12  1  0.691974  0.308026  0.308026  1
  W  W13  1  0.307421  0.692579  0.692579  1
  W  W14  1  0.692021  0.691544  0.308083  1
  W  W15  1  0.692021  0.308083  0.691544  1
  W  W16  1  0.308351  0.691544  0.308083  1
  W  W17  1  0.557954  0.941566  0.557933  1
  W  W18  1  0.557735  0.942265  0.942265  1
  W  W19  1  0.942073  0.557927  0.557927  1
  W  W20  1  0.942548  0.557933  0.941566  1
  W  W21  1  0.308351  0.308083  0.691544  1
  W  W22  1  0.557954  0.557933  0.941566  1
  W  W23  1  0.942548  0.941566  0.557933  1
  C  C24  1  0.499656  0.500344  0.500344  1
  C  C25  1  0.749896  0.750104  0.750104  1
