# generated using pymatgen
data_Dy3ThU4(ReB6)4
_symmetry_space_group_name_H-M   'P 1'
_cell_length_a   3.66300000
_cell_length_b   9.33303180
_cell_length_c   11.45670131
_cell_angle_alpha   89.95118716
_cell_angle_beta   90.00000000
_cell_angle_gamma   90.00000000
_symmetry_Int_Tables_number   1
_chemical_formula_structural   Dy3ThU4(ReB6)4
_chemical_formula_sum   'Dy3 Th1 U4 Re4 B24'
_cell_volume   391.66890787
_cell_formula_units_Z   1
loop_
 _symmetry_equiv_pos_site_id
 _symmetry_equiv_pos_as_xyz
  1  'x, y, z'
loop_
 _atom_site_type_symbol
 _atom_site_label
 _atom_site_symmetry_multiplicity
 _atom_site_fract_x
 _atom_site_fract_y
 _atom_site_fract_z
 _atom_site_occupancy
  Dy  Dy0  1  0.000000  0.337090  0.407327  1
  Dy  Dy1  1  0.000000  0.663176  0.591450  1
  Dy  Dy2  1  0.000000  0.835148  0.093944  1
  Th  Th3  1  0.000000  0.163896  0.907679  1
  U  U4  1  0.000000  0.956744  0.396931  1
  U  U5  1  0.000000  0.042335  0.601884  1
  U  U6  1  0.000000  0.459041  0.104438  1
  U  U7  1  0.000000  0.545030  0.897258  1
  Re  Re8  1  0.000000  0.645985  0.318520  1
  Re  Re9  1  0.000000  0.354644  0.681001  1
  Re  Re10  1  0.000000  0.145653  0.181872  1
  Re  Re11  1  0.000000  0.852318  0.818235  1
  B  B12  1  0.500000  0.552238  0.430754  1
  B  B13  1  0.500000  0.448303  0.568762  1
  B  B14  1  0.500000  0.052033  0.071791  1
  B  B15  1  0.500000  0.944033  0.929766  1
  B  B16  1  0.500000  0.742890  0.422817  1
  B  B17  1  0.500000  0.257442  0.575909  1
  B  B18  1  0.500000  0.244723  0.079279  1
  B  B19  1  0.500000  0.755099  0.922453  1
  B  B20  1  0.500000  0.801864  0.275555  1
  B  B21  1  0.500000  0.199145  0.723006  1
  B  B22  1  0.500000  0.302606  0.226092  1
  B  B23  1  0.500000  0.697076  0.774441  1
  B  B24  1  0.500000  0.644452  0.189010  1
  B  B25  1  0.500000  0.357948  0.810559  1
  B  B26  1  0.500000  0.144260  0.311861  1
  B  B27  1  0.500000  0.853851  0.687384  1
  B  B28  1  0.500000  0.989235  0.220871  1
  B  B29  1  0.500000  0.007401  0.778591  1
  B  B30  1  0.500000  0.489658  0.280927  1
  B  B31  1  0.500000  0.511290  0.718785  1
  B  B32  1  0.500000  0.639807  0.039044  1
  B  B33  1  0.500000  0.364225  0.962614  1
  B  B34  1  0.500000  0.139625  0.461142  1
  B  B35  1  0.500000  0.859734  0.538051  1
