# generated using pymatgen
data_Pr2Dy6Cd2IrPt
_symmetry_space_group_name_H-M   'P 1'
_cell_length_a   9.73582991
_cell_length_b   9.74075448
_cell_length_c   9.72741434
_cell_angle_alpha   60.38788392
_cell_angle_beta   60.03045368
_cell_angle_gamma   60.27118299
_symmetry_Int_Tables_number   1
_chemical_formula_structural   Pr2Dy6Cd2IrPt
_chemical_formula_sum   'Pr4 Dy12 Cd4 Ir2 Pt2'
_cell_volume   655.68197221
_cell_formula_units_Z   2
loop_
 _symmetry_equiv_pos_site_id
 _symmetry_equiv_pos_as_xyz
  1  'x, y, z'
loop_
 _atom_site_type_symbol
 _atom_site_label
 _atom_site_symmetry_multiplicity
 _atom_site_fract_x
 _atom_site_fract_y
 _atom_site_fract_z
 _atom_site_occupancy
  Pr  Pr0  1  0.565523  0.936745  0.563836  1
  Pr  Pr1  1  0.937389  0.564050  0.935236  1
  Pr  Pr2  1  0.564001  0.564779  0.936720  1
  Pr  Pr3  1  0.937566  0.935461  0.562409  1
  Dy  Dy4  1  0.351315  0.347858  0.344273  1
  Dy  Dy5  1  0.348782  0.352430  0.954676  1
  Dy  Dy6  1  0.353374  0.948717  0.351714  1
  Dy  Dy7  1  0.947176  0.353954  0.348723  1
  Dy  Dy8  1  0.808142  0.188227  0.187331  1
  Dy  Dy9  1  0.187191  0.808560  0.815845  1
  Dy  Dy10  1  0.189935  0.807834  0.188650  1
  Dy  Dy11  1  0.808602  0.186653  0.814039  1
  Dy  Dy12  1  0.189450  0.189974  0.810619  1
  Dy  Dy13  1  0.812341  0.811919  0.185004  1
  Dy  Dy14  1  0.945669  0.557581  0.552754  1
  Dy  Dy15  1  0.556490  0.946047  0.944805  1
  Cd  Cd16  1  0.583436  0.578387  0.577819  1
  Cd  Cd17  1  0.577918  0.583629  0.259269  1
  Cd  Cd18  1  0.577431  0.260121  0.583549  1
  Cd  Cd19  1  0.260245  0.578239  0.578613  1
  Ir  Ir20  1  0.138929  0.574158  0.147688  1
  Ir  Ir21  1  0.573705  0.139128  0.140290  1
  Pt  Pt22  1  0.145169  0.140551  0.143163  1
  Pt  Pt23  1  0.140219  0.144998  0.572976  1
