# generated using pymatgen
data_Y10OsRuRh2
_symmetry_space_group_name_H-M   'P 1'
_cell_length_a   6.45069853
_cell_length_b   7.31349661
_cell_length_c   8.56889391
_cell_angle_alpha   96.68777449
_cell_angle_beta   112.14539677
_cell_angle_gamma   89.98553330
_symmetry_Int_Tables_number   1
_chemical_formula_structural   Y10OsRuRh2
_chemical_formula_sum   'Y10 Os1 Ru1 Rh2'
_cell_volume   371.46756242
_cell_formula_units_Z   1
loop_
 _symmetry_equiv_pos_site_id
 _symmetry_equiv_pos_as_xyz
  1  'x, y, z'
loop_
 _atom_site_type_symbol
 _atom_site_label
 _atom_site_symmetry_multiplicity
 _atom_site_fract_x
 _atom_site_fract_y
 _atom_site_fract_z
 _atom_site_occupancy
  Y  Y0  1  0.982706  0.916516  0.188162  1
  Y  Y1  1  0.793333  0.583001  0.811798  1
  Y  Y2  1  0.022363  0.084896  0.814358  1
  Y  Y3  1  0.207334  0.413881  0.182197  1
  Y  Y4  1  0.643618  0.817652  0.433965  1
  Y  Y5  1  0.209876  0.682668  0.565094  1
  Y  Y6  1  0.351165  0.186763  0.563951  1
  Y  Y7  1  0.792275  0.314616  0.439145  1
  Y  Y8  1  0.422453  0.749203  0.999535  1
  Y  Y9  1  0.573964  0.251093  0.999212  1
  Os  Os10  1  0.178010  0.424885  0.781181  1
  Ru  Ru11  1  0.395508  0.074615  0.220619  1
  Rh  Rh12  1  0.824582  0.576203  0.222279  1
  Rh  Rh13  1  0.602813  0.924007  0.778506  1
