# generated using pymatgen
data_Eu3Cu2Ni6Ir
_symmetry_space_group_name_H-M   'P 1'
_cell_length_a   5.09655100
_cell_length_b   5.09655020
_cell_length_c   16.83553600
_cell_angle_alpha   90.00000000
_cell_angle_beta   90.00000000
_cell_angle_gamma   119.99999872
_symmetry_Int_Tables_number   1
_chemical_formula_structural   Eu3Cu2Ni6Ir
_chemical_formula_sum   'Eu6 Cu4 Ni12 Ir2'
_cell_volume   378.71304561
_cell_formula_units_Z   2
loop_
 _symmetry_equiv_pos_site_id
 _symmetry_equiv_pos_as_xyz
  1  'x, y, z'
loop_
 _atom_site_type_symbol
 _atom_site_label
 _atom_site_symmetry_multiplicity
 _atom_site_fract_x
 _atom_site_fract_y
 _atom_site_fract_z
 _atom_site_occupancy
  Eu  Eu0  1  0.333333  0.666667  0.539677  1
  Eu  Eu1  1  0.666667  0.333333  0.039677  1
  Eu  Eu2  1  0.666667  0.333333  0.460323  1
  Eu  Eu3  1  0.333333  0.666667  0.960323  1
  Eu  Eu4  1  0.333333  0.666667  0.750000  1
  Eu  Eu5  1  0.666667  0.333333  0.250000  1
  Cu  Cu6  1  0.333333  0.666667  0.250000  1
  Cu  Cu7  1  0.666667  0.333333  0.750000  1
  Cu  Cu8  1  0.000000  0.000000  0.250000  1
  Cu  Cu9  1  0.000000  0.000000  0.750000  1
  Ni  Ni10  1  0.167189  0.334381  0.128700  1
  Ni  Ni11  1  0.832811  0.665619  0.628700  1
  Ni  Ni12  1  0.665619  0.832811  0.128700  1
  Ni  Ni13  1  0.167189  0.832811  0.128700  1
  Ni  Ni14  1  0.832811  0.167189  0.628700  1
  Ni  Ni15  1  0.334381  0.167189  0.628700  1
  Ni  Ni16  1  0.832811  0.665619  0.871300  1
  Ni  Ni17  1  0.832811  0.167189  0.871300  1
  Ni  Ni18  1  0.334381  0.167189  0.871300  1
  Ni  Ni19  1  0.665619  0.832811  0.371300  1
  Ni  Ni20  1  0.167189  0.832811  0.371300  1
  Ni  Ni21  1  0.167189  0.334381  0.371300  1
  Ir  Ir22  1  0.000000  0.000000  0.000000  1
  Ir  Ir23  1  0.000000  0.000000  0.500000  1
