# generated using pymatgen
data_Y11In9Rh4
_symmetry_space_group_name_H-M   'P 1'
_cell_length_a   13.14223439
_cell_length_b   13.14223423
_cell_length_c   3.69719300
_cell_angle_alpha   90.00000000
_cell_angle_beta   90.00000000
_cell_angle_gamma   111.38463707
_symmetry_Int_Tables_number   1
_chemical_formula_structural   Y11In9Rh4
_chemical_formula_sum   'Y11 In9 Rh4'
_cell_volume   594.60953508
_cell_formula_units_Z   1
loop_
 _symmetry_equiv_pos_site_id
 _symmetry_equiv_pos_as_xyz
  1  'x, y, z'
loop_
 _atom_site_type_symbol
 _atom_site_label
 _atom_site_symmetry_multiplicity
 _atom_site_fract_x
 _atom_site_fract_y
 _atom_site_fract_z
 _atom_site_occupancy
  Y  Y0  1  0.078568  0.416946  0.000000  1
  Y  Y1  1  0.921432  0.583054  0.000000  1
  Y  Y2  1  0.416946  0.078568  0.000000  1
  Y  Y3  1  0.583054  0.921432  0.000000  1
  Y  Y4  1  0.624696  0.375304  0.000000  1
  Y  Y5  1  0.375304  0.624696  0.000000  1
  Y  Y6  1  0.839065  0.160935  0.000000  1
  Y  Y7  1  0.160935  0.839065  0.000000  1
  Y  Y8  1  0.000000  0.000000  0.000000  1
  Y  Y9  1  0.312044  0.312044  0.000000  1
  Y  Y10  1  0.687956  0.687956  0.000000  1
  In  In11  1  0.841059  0.369761  0.500000  1
  In  In12  1  0.158941  0.630239  0.500000  1
  In  In13  1  0.369761  0.841059  0.500000  1
  In  In14  1  0.630239  0.158941  0.500000  1
  In  In15  1  0.076092  0.218162  0.500000  1
  In  In16  1  0.923908  0.781838  0.500000  1
  In  In17  1  0.218162  0.076092  0.500000  1
  In  In18  1  0.781838  0.923908  0.500000  1
  In  In19  1  0.500000  0.500000  0.500000  1
  Rh  Rh20  1  0.246048  0.448693  0.500000  1
  Rh  Rh21  1  0.753952  0.551307  0.500000  1
  Rh  Rh22  1  0.448693  0.246048  0.500000  1
  Rh  Rh23  1  0.551307  0.753952  0.500000  1
