# generated using pymatgen
data_Tb2Mn9V3P7
_symmetry_space_group_name_H-M   'P 1'
_cell_length_a   9.43995600
_cell_length_b   9.43995675
_cell_length_c   3.55723300
_cell_angle_alpha   90.00000000
_cell_angle_beta   90.00000000
_cell_angle_gamma   120.00000437
_symmetry_Int_Tables_number   1
_chemical_formula_structural   Tb2Mn9V3P7
_chemical_formula_sum   'Tb2 Mn9 V3 P7'
_cell_volume   274.52563193
_cell_formula_units_Z   1
loop_
 _symmetry_equiv_pos_site_id
 _symmetry_equiv_pos_as_xyz
  1  'x, y, z'
loop_
 _atom_site_type_symbol
 _atom_site_label
 _atom_site_symmetry_multiplicity
 _atom_site_fract_x
 _atom_site_fract_y
 _atom_site_fract_z
 _atom_site_occupancy
  Tb  Tb0  1  0.666667  0.333333  0.000000  1
  Tb  Tb1  1  0.333333  0.666667  0.500000  1
  Mn  Mn2  1  0.049605  0.620444  0.000000  1
  Mn  Mn3  1  0.570839  0.950395  0.000000  1
  Mn  Mn4  1  0.379556  0.429161  0.000000  1
  Mn  Mn5  1  0.279129  0.119702  0.000000  1
  Mn  Mn6  1  0.840572  0.720871  0.000000  1
  Mn  Mn7  1  0.880298  0.159428  0.000000  1
  Mn  Mn8  1  0.431935  0.047177  0.500000  1
  Mn  Mn9  1  0.615243  0.568065  0.500000  1
  Mn  Mn10  1  0.952823  0.384757  0.500000  1
  V  V11  1  0.094525  0.878075  0.500000  1
  V  V12  1  0.783550  0.905475  0.500000  1
  V  V13  1  0.121925  0.216450  0.500000  1
  P  P14  1  0.288603  0.877889  0.000000  1
  P  P15  1  0.589286  0.711397  0.000000  1
  P  P16  1  0.122111  0.410714  0.000000  1
  P  P17  1  0.414851  0.290764  0.500000  1
  P  P18  1  0.875913  0.585149  0.500000  1
  P  P19  1  0.709236  0.124087  0.500000  1
  P  P20  1  0.000000  0.000000  0.000000  1
