# generated using pymatgen
data_Sm8Dy11Si16Ag
_symmetry_space_group_name_H-M   'P 1'
_cell_length_a   7.72467841
_cell_length_b   7.72467957
_cell_length_c   14.08187300
_cell_angle_alpha   89.78894204
_cell_angle_beta   90.21105799
_cell_angle_gamma   89.70610618
_symmetry_Int_Tables_number   1
_chemical_formula_structural   Sm8Dy11Si16Ag
_chemical_formula_sum   'Sm8 Dy11 Si16 Ag1'
_cell_volume   840.25221863
_cell_formula_units_Z   1
loop_
 _symmetry_equiv_pos_site_id
 _symmetry_equiv_pos_as_xyz
  1  'x, y, z'
loop_
 _atom_site_type_symbol
 _atom_site_label
 _atom_site_symmetry_multiplicity
 _atom_site_fract_x
 _atom_site_fract_y
 _atom_site_fract_z
 _atom_site_occupancy
  Sm  Sm0  1  0.999073  0.359083  0.201225  1
  Sm  Sm1  1  0.008704  0.642083  0.712565  1
  Sm  Sm2  1  0.139327  0.491619  0.457847  1
  Sm  Sm3  1  0.500720  0.867378  0.038765  1
  Sm  Sm4  1  0.867378  0.500720  0.961235  1
  Sm  Sm5  1  0.491619  0.139327  0.542153  1
  Sm  Sm6  1  0.359083  0.999073  0.798775  1
  Sm  Sm7  1  0.642083  0.008704  0.287435  1
  Dy  Dy8  1  0.814505  0.814505  0.500000  1
  Dy  Dy9  1  0.316399  0.686182  0.248482  1
  Dy  Dy10  1  0.686182  0.316399  0.751518  1
  Dy  Dy11  1  0.132817  0.009550  0.374227  1
  Dy  Dy12  1  0.870978  0.998195  0.880296  1
  Dy  Dy13  1  0.491532  0.638716  0.628216  1
  Dy  Dy14  1  0.361116  0.497402  0.877514  1
  Dy  Dy15  1  0.497402  0.361116  0.122486  1
  Dy  Dy16  1  0.638716  0.491532  0.371784  1
  Dy  Dy17  1  0.009550  0.132817  0.625773  1
  Dy  Dy18  1  0.998195  0.870978  0.119704  1
  Si  Si19  1  0.345402  0.295351  0.310723  1
  Si  Si20  1  0.652019  0.708034  0.817628  1
  Si  Si21  1  0.204194  0.844972  0.561881  1
  Si  Si22  1  0.146348  0.778634  0.931562  1
  Si  Si23  1  0.778634  0.146348  0.068438  1
  Si  Si24  1  0.844972  0.204194  0.438119  1
  Si  Si25  1  0.295351  0.345402  0.689277  1
  Si  Si26  1  0.708034  0.652019  0.182372  1
  Si  Si27  1  0.290423  0.067348  0.188157  1
  Si  Si28  1  0.706202  0.933102  0.692863  1
  Si  Si29  1  0.434214  0.792040  0.438668  1
  Si  Si30  1  0.212192  0.579669  0.061845  1
  Si  Si31  1  0.579669  0.212192  0.938155  1
  Si  Si32  1  0.792040  0.434214  0.561332  1
  Si  Si33  1  0.067348  0.290423  0.811843  1
  Si  Si34  1  0.933102  0.706202  0.307137  1
  Ag  Ag35  1  0.184477  0.184477  0.000000  1
