# generated using pymatgen
data_Tb2MnFe2Tc14C3
_symmetry_space_group_name_H-M   'P 1'
_cell_length_a   6.89965459
_cell_length_b   6.89965435
_cell_length_c   6.91443726
_cell_angle_alpha   82.36619804
_cell_angle_beta   82.36619251
_cell_angle_gamma   82.42686423
_symmetry_Int_Tables_number   1
_chemical_formula_structural   Tb2MnFe2Tc14C3
_chemical_formula_sum   'Tb2 Mn1 Fe2 Tc14 C3'
_cell_volume   321.16443290
_cell_formula_units_Z   1
loop_
 _symmetry_equiv_pos_site_id
 _symmetry_equiv_pos_as_xyz
  1  'x, y, z'
loop_
 _atom_site_type_symbol
 _atom_site_label
 _atom_site_symmetry_multiplicity
 _atom_site_fract_x
 _atom_site_fract_y
 _atom_site_fract_z
 _atom_site_occupancy
  Tb  Tb0  1  0.651054  0.651054  0.651681  1
  Tb  Tb1  1  0.348946  0.348946  0.348319  1
  Mn  Mn2  1  0.000000  0.000000  0.500000  1
  Fe  Fe3  1  0.500000  0.000000  0.000000  1
  Fe  Fe4  1  0.000000  0.500000  0.000000  1
  Tc  Tc5  1  0.724026  0.275974  0.000000  1
  Tc  Tc6  1  0.999488  0.722929  0.276028  1
  Tc  Tc7  1  0.277071  0.000512  0.723972  1
  Tc  Tc8  1  0.000512  0.277071  0.723972  1
  Tc  Tc9  1  0.722929  0.999488  0.276028  1
  Tc  Tc10  1  0.275974  0.724026  0.000000  1
  Tc  Tc11  1  0.348808  0.348808  0.860472  1
  Tc  Tc12  1  0.860102  0.348357  0.347528  1
  Tc  Tc13  1  0.348357  0.860102  0.347528  1
  Tc  Tc14  1  0.651192  0.651192  0.139528  1
  Tc  Tc15  1  0.139898  0.651643  0.652472  1
  Tc  Tc16  1  0.651643  0.139898  0.652472  1
  Tc  Tc17  1  0.899283  0.899283  0.900701  1
  Tc  Tc18  1  0.100717  0.100717  0.099299  1
  C  C19  1  0.500000  0.500000  0.000000  1
  C  C20  1  0.000000  0.500000  0.500000  1
  C  C21  1  0.500000  0.000000  0.500000  1
