# generated using pymatgen
data_Zr5Sc3Co8Si13Ge
_symmetry_space_group_name_H-M   'P 1'
_cell_length_a   9.51698459
_cell_length_b   9.51698391
_cell_length_c   9.52812214
_cell_angle_alpha   94.17128239
_cell_angle_beta   93.96794012
_cell_angle_gamma   149.08128951
_symmetry_Int_Tables_number   1
_chemical_formula_structural   Zr5Sc3Co8Si13Ge
_chemical_formula_sum   'Zr5 Sc3 Co8 Si13 Ge1'
_cell_volume   427.41732138
_cell_formula_units_Z   1
loop_
 _symmetry_equiv_pos_site_id
 _symmetry_equiv_pos_as_xyz
  1  'x, y, z'
loop_
 _atom_site_type_symbol
 _atom_site_label
 _atom_site_symmetry_multiplicity
 _atom_site_fract_x
 _atom_site_fract_y
 _atom_site_fract_z
 _atom_site_occupancy
  Zr  Zr0  1  0.137614  0.862178  0.999792  1
  Zr  Zr1  1  0.499551  0.303665  0.803217  1
  Zr  Zr2  1  0.500285  0.695905  0.196190  1
  Zr  Zr3  1  0.696899  0.500406  0.197305  1
  Zr  Zr4  1  0.303278  0.499706  0.802984  1
  Sc  Sc5  1  0.138810  0.139548  0.278359  1
  Sc  Sc6  1  0.860809  0.860982  0.721790  1
  Sc  Sc7  1  0.861665  0.138762  0.000427  1
  Co  Co8  1  0.397924  0.895863  0.798165  1
  Co  Co9  1  0.102676  0.602839  0.205211  1
  Co  Co10  1  0.097999  0.895845  0.498023  1
  Co  Co11  1  0.397326  0.602672  0.500122  1
  Co  Co12  1  0.602178  0.400025  0.498023  1
  Co  Co13  1  0.897450  0.102796  0.500122  1
  Co  Co14  1  0.902303  0.400241  0.798165  1
  Co  Co15  1  0.602373  0.102535  0.205211  1
  Si  Si16  1  0.500183  0.905069  0.405251  1
  Si  Si17  1  0.908267  0.499463  0.407729  1
  Si  Si18  1  0.091825  0.499546  0.591371  1
  Si  Si19  1  0.748766  0.748548  0.000119  1
  Si  Si20  1  0.251571  0.251354  0.000119  1
  Si  Si21  1  0.288691  0.289310  0.578001  1
  Si  Si22  1  0.710145  0.711451  0.421596  1
  Si  Si23  1  0.711496  0.288854  0.000350  1
  Si  Si24  1  0.289903  0.711130  0.001033  1
  Si  Si25  1  0.000102  0.301509  0.301611  1
  Si  Si26  1  0.999469  0.699677  0.699144  1
  Si  Si27  1  0.700248  0.999647  0.699895  1
  Si  Si28  1  0.299956  0.000279  0.300236  1
  Ge  Ge29  1  0.500238  0.090199  0.590437  1
