# generated using pymatgen
data_Ta8Re3Tc4Os
_symmetry_space_group_name_H-M   'P 1'
_cell_length_a   6.39507000
_cell_length_b   4.51933000
_cell_length_c   9.04975500
_cell_angle_alpha   90.00000000
_cell_angle_beta   89.99955442
_cell_angle_gamma   90.00000000
_symmetry_Int_Tables_number   1
_chemical_formula_structural   Ta8Re3Tc4Os
_chemical_formula_sum   'Ta8 Re3 Tc4 Os1'
_cell_volume   261.55087606
_cell_formula_units_Z   1
loop_
 _symmetry_equiv_pos_site_id
 _symmetry_equiv_pos_as_xyz
  1  'x, y, z'
loop_
 _atom_site_type_symbol
 _atom_site_label
 _atom_site_symmetry_multiplicity
 _atom_site_fract_x
 _atom_site_fract_y
 _atom_site_fract_z
 _atom_site_occupancy
  Ta  Ta0  1  0.499407  0.749999  0.126278  1
  Ta  Ta1  1  0.000588  0.749999  0.126293  1
  Ta  Ta2  1  0.499880  0.250000  0.374999  1
  Ta  Ta3  1  0.000152  0.250000  0.375001  1
  Ta  Ta4  1  0.000592  0.749999  0.623709  1
  Ta  Ta5  1  0.499392  0.749999  0.623716  1
  Ta  Ta6  1  0.001268  0.250000  0.874998  1
  Ta  Ta7  1  0.498712  0.250000  0.874997  1
  Re  Re8  1  0.250003  0.250000  0.124371  1
  Re  Re9  1  0.749992  0.749999  0.375007  1
  Re  Re10  1  0.249998  0.250000  0.625627  1
  Tc  Tc11  1  0.750004  0.250000  0.123396  1
  Tc  Tc12  1  0.249997  0.749999  0.375001  1
  Tc  Tc13  1  0.750007  0.250000  0.626612  1
  Tc  Tc14  1  0.249999  0.749999  0.875006  1
  Os  Os15  1  0.750009  0.749999  0.874990  1
