# generated using pymatgen
data_NdDyY4Ta2O14
_symmetry_space_group_name_H-M   'P 1'
_cell_length_a   6.52027874
_cell_length_b   6.51129830
_cell_length_c   7.55174853
_cell_angle_alpha   90.12666815
_cell_angle_beta   89.86297632
_cell_angle_gamma   108.92190720
_symmetry_Int_Tables_number   1
_chemical_formula_structural   NdDyY4Ta2O14
_chemical_formula_sum   'Nd1 Dy1 Y4 Ta2 O14'
_cell_volume   303.28642012
_cell_formula_units_Z   1
loop_
 _symmetry_equiv_pos_site_id
 _symmetry_equiv_pos_as_xyz
  1  'x, y, z'
loop_
 _atom_site_type_symbol
 _atom_site_label
 _atom_site_symmetry_multiplicity
 _atom_site_fract_x
 _atom_site_fract_y
 _atom_site_fract_z
 _atom_site_occupancy
  Nd  Nd0  1  0.482601  0.482999  0.000250  1
  Dy  Dy1  1  0.001023  0.534594  0.246341  1
  Y  Y2  1  0.536405  0.536379  0.499843  1
  Y  Y3  1  0.000454  0.465642  0.741633  1
  Y  Y4  1  0.534082  0.000888  0.753617  1
  Y  Y5  1  0.465873  0.000671  0.258279  1
  Ta  Ta6  1  0.003126  0.003044  0.499854  1
  Ta  Ta7  1  0.998184  0.997954  0.000119  1
  O  O8  1  0.935314  0.065332  0.750408  1
  O  O9  1  0.064815  0.933858  0.249575  1
  O  O10  1  0.358346  0.640989  0.258451  1
  O  O11  1  0.641107  0.359226  0.742075  1
  O  O12  1  0.368053  0.632523  0.741792  1
  O  O13  1  0.632798  0.368658  0.257956  1
  O  O14  1  0.324103  0.075124  0.973101  1
  O  O15  1  0.674543  0.919915  0.474130  1
  O  O16  1  0.308655  0.051007  0.540072  1
  O  O17  1  0.685791  0.938599  0.038982  1
  O  O18  1  0.049960  0.308654  0.458844  1
  O  O19  1  0.939784  0.685599  0.961179  1
  O  O20  1  0.919896  0.674152  0.525570  1
  O  O21  1  0.075087  0.324192  0.027927  1
