# generated using pymatgen
data_Er16In5AgPt2
_symmetry_space_group_name_H-M   'P 1'
_cell_length_a   10.33711600
_cell_length_b   10.34852714
_cell_length_c   6.97397853
_cell_angle_alpha   89.96167649
_cell_angle_beta   90.00000000
_cell_angle_gamma   119.96352387
_symmetry_Int_Tables_number   1
_chemical_formula_structural   Er16In5AgPt2
_chemical_formula_sum   'Er16 In5 Ag1 Pt2'
_cell_volume   646.32142353
_cell_formula_units_Z   1
loop_
 _symmetry_equiv_pos_site_id
 _symmetry_equiv_pos_as_xyz
  1  'x, y, z'
loop_
 _atom_site_type_symbol
 _atom_site_label
 _atom_site_symmetry_multiplicity
 _atom_site_fract_x
 _atom_site_fract_y
 _atom_site_fract_z
 _atom_site_occupancy
  Er  Er0  1  0.529023  0.058048  0.795054  1
  Er  Er1  1  0.935055  0.477049  0.795344  1
  Er  Er2  1  0.541993  0.477049  0.795344  1
  Er  Er3  1  0.469666  0.939330  0.289883  1
  Er  Er4  1  0.062726  0.527291  0.294266  1
  Er  Er5  1  0.464566  0.527291  0.294266  1
  Er  Er6  1  0.825557  0.651116  0.474191  1
  Er  Er7  1  0.351101  0.174663  0.506609  1
  Er  Er8  1  0.823561  0.174663  0.506609  1
  Er  Er9  1  0.174300  0.348599  0.995802  1
  Er  Er10  1  0.657501  0.821147  0.010579  1
  Er  Er11  1  0.163648  0.821147  0.010579  1
  Er  Er12  1  0.670044  0.340087  0.166271  1
  Er  Er13  1  0.333650  0.667301  0.669075  1
  Er  Er14  1  0.996512  0.993024  0.777580  1
  Er  Er15  1  0.004300  0.008600  0.279289  1
  In  In16  1  0.328990  0.162911  0.038831  1
  In  In17  1  0.833919  0.162911  0.038831  1
  In  In18  1  0.163058  0.326114  0.539745  1
  In  In19  1  0.672650  0.835932  0.540485  1
  In  In20  1  0.163283  0.835932  0.540485  1
  Ag  Ag21  1  0.833624  0.667250  0.046026  1
  Pt  Pt22  1  0.667340  0.334679  0.565512  1
  Pt  Pt23  1  0.333932  0.667865  0.065247  1
