# generated using pymatgen
data_Ho12Fe2Ni3Bi
_symmetry_space_group_name_H-M   'P 1'
_cell_length_a   8.31345186
_cell_length_b   8.31325677
_cell_length_c   8.31345306
_cell_angle_alpha   110.54908897
_cell_angle_beta   109.85629096
_cell_angle_gamma   108.01967741
_symmetry_Int_Tables_number   1
_chemical_formula_structural   Ho12Fe2Ni3Bi
_chemical_formula_sum   'Ho12 Fe2 Ni3 Bi1'
_cell_volume   442.06102855
_cell_formula_units_Z   1
loop_
 _symmetry_equiv_pos_site_id
 _symmetry_equiv_pos_as_xyz
  1  'x, y, z'
loop_
 _atom_site_type_symbol
 _atom_site_label
 _atom_site_symmetry_multiplicity
 _atom_site_fract_x
 _atom_site_fract_y
 _atom_site_fract_z
 _atom_site_occupancy
  Ho  Ho0  1  0.819437  0.710542  0.529985  1
  Ho  Ho1  1  0.180563  0.289458  0.470015  1
  Ho  Ho2  1  0.180558  0.710542  0.891105  1
  Ho  Ho3  1  0.819442  0.289458  0.108895  1
  Ho  Ho4  1  0.684769  0.376560  0.691792  1
  Ho  Ho5  1  0.315231  0.623440  0.308208  1
  Ho  Ho6  1  0.684758  0.992950  0.308192  1
  Ho  Ho7  1  0.315242  0.007050  0.691808  1
  Ho  Ho8  1  0.594072  0.790362  0.803708  1
  Ho  Ho9  1  0.405928  0.209638  0.196292  1
  Ho  Ho10  1  0.986654  0.790362  0.196290  1
  Ho  Ho11  1  0.013346  0.209638  0.803710  1
  Fe  Fe12  1  0.109185  0.609218  0.500032  1
  Fe  Fe13  1  0.890815  0.390782  0.499968  1
  Ni  Ni14  1  0.631331  0.000000  0.631331  1
  Ni  Ni15  1  0.368669  0.000000  0.368669  1
  Ni  Ni16  1  0.000000  0.000000  0.000000  1
  Bi  Bi17  1  0.500000  0.500000  0.000000  1
