# generated using pymatgen
data_Li2Zn(Ni2P)6
_symmetry_space_group_name_H-M   'P 1'
_cell_length_a   9.11548259
_cell_length_b   9.11242897
_cell_length_c   3.47707200
_cell_angle_alpha   90.00000000
_cell_angle_beta   90.00000000
_cell_angle_gamma   120.01149346
_symmetry_Int_Tables_number   1
_chemical_formula_structural   Li2Zn(Ni2P)6
_chemical_formula_sum   'Li2 Zn1 Ni12 P6'
_cell_volume   250.09662310
_cell_formula_units_Z   1
loop_
 _symmetry_equiv_pos_site_id
 _symmetry_equiv_pos_as_xyz
  1  'x, y, z'
loop_
 _atom_site_type_symbol
 _atom_site_label
 _atom_site_symmetry_multiplicity
 _atom_site_fract_x
 _atom_site_fract_y
 _atom_site_fract_z
 _atom_site_occupancy
  Li  Li0  1  0.333414  0.666691  0.000000  1
  Li  Li1  1  0.666613  0.333304  0.499999  1
  Zn  Zn2  1  0.999966  0.000008  0.000000  1
  Ni  Ni3  1  0.439086  0.061948  0.000000  1
  Ni  Ni4  1  0.169364  0.295269  0.000000  1
  Ni  Ni5  1  0.937987  0.377147  0.000000  1
  Ni  Ni6  1  0.622966  0.560967  0.000000  1
  Ni  Ni7  1  0.125963  0.830702  0.000000  1
  Ni  Ni8  1  0.704841  0.874086  0.000000  1
  Ni  Ni9  1  0.249467  0.106176  0.499999  1
  Ni  Ni10  1  0.893702  0.143318  0.499999  1
  Ni  Ni11  1  0.387684  0.439598  0.499999  1
  Ni  Ni12  1  0.051847  0.612237  0.499999  1
  Ni  Ni13  1  0.856825  0.750551  0.499999  1
  Ni  Ni14  1  0.560285  0.947968  0.499999  1
  P  P15  1  0.709328  0.124279  0.000000  1
  P  P16  1  0.414794  0.290599  0.000000  1
  P  P17  1  0.875747  0.585126  0.000000  1
  P  P18  1  0.122850  0.415180  0.499999  1
  P  P19  1  0.584953  0.707777  0.499999  1
  P  P20  1  0.292319  0.877068  0.499999  1
