# generated using pymatgen
data_KNd2ZnH12Ir
_symmetry_space_group_name_H-M   'P 1'
_cell_length_a   5.07523700
_cell_length_b   5.07523760
_cell_length_c   8.99577800
_cell_angle_alpha   90.00000000
_cell_angle_beta   90.00000000
_cell_angle_gamma   120.00001564
_symmetry_Int_Tables_number   1
_chemical_formula_structural   KNd2ZnH12Ir
_chemical_formula_sum   'K1 Nd2 Zn1 H12 Ir1'
_cell_volume   200.66979123
_cell_formula_units_Z   1
loop_
 _symmetry_equiv_pos_site_id
 _symmetry_equiv_pos_as_xyz
  1  'x, y, z'
loop_
 _atom_site_type_symbol
 _atom_site_label
 _atom_site_symmetry_multiplicity
 _atom_site_fract_x
 _atom_site_fract_y
 _atom_site_fract_z
 _atom_site_occupancy
  K  K0  1  0.000000  0.000000  0.006340  1
  Nd  Nd1  1  0.666667  0.333333  0.380226  1
  Nd  Nd2  1  0.333333  0.666667  0.636386  1
  Zn  Zn3  1  0.666667  0.333333  0.761259  1
  H  H4  1  0.170841  0.829159  0.383021  1
  H  H5  1  0.658320  0.829159  0.383021  1
  H  H6  1  0.170841  0.341680  0.383021  1
  H  H7  1  0.818481  0.181519  0.595434  1
  H  H8  1  0.363040  0.181519  0.595434  1
  H  H9  1  0.818481  0.636960  0.595434  1
  H  H10  1  0.490622  0.981245  0.835002  1
  H  H11  1  0.490622  0.509378  0.835002  1
  H  H12  1  0.018755  0.509378  0.835002  1
  H  H13  1  0.481637  0.963274  0.164903  1
  H  H14  1  0.481637  0.518363  0.164903  1
  H  H15  1  0.036726  0.518363  0.164903  1
  Ir  Ir16  1  0.333333  0.666667  0.280710  1
