# generated using pymatgen
data_Ho6Fe4Co9P12Ru5
_symmetry_space_group_name_H-M   'P 1'
_cell_length_a   3.77207100
_cell_length_b   10.59862687
_cell_length_c   12.27519049
_cell_angle_alpha   90.33596952
_cell_angle_beta   90.00000000
_cell_angle_gamma   90.00000000
_symmetry_Int_Tables_number   1
_chemical_formula_structural   Ho6Fe4Co9P12Ru5
_chemical_formula_sum   'Ho6 Fe4 Co9 P12 Ru5'
_cell_volume   490.73861787
_cell_formula_units_Z   1
loop_
 _symmetry_equiv_pos_site_id
 _symmetry_equiv_pos_as_xyz
  1  'x, y, z'
loop_
 _atom_site_type_symbol
 _atom_site_label
 _atom_site_symmetry_multiplicity
 _atom_site_fract_x
 _atom_site_fract_y
 _atom_site_fract_z
 _atom_site_occupancy
  Ho  Ho0  1  0.000000  0.501284  0.528406  1
  Ho  Ho1  1  0.500000  0.996414  0.476213  1
  Ho  Ho2  1  0.500000  0.820404  0.201530  1
  Ho  Ho3  1  0.500000  0.182125  0.199814  1
  Ho  Ho4  1  0.000000  0.681472  0.797360  1
  Ho  Ho5  1  0.000000  0.316542  0.800406  1
  Fe  Fe6  1  0.000000  0.500627  0.986092  1
  Fe  Fe7  1  0.500000  0.999347  0.013626  1
  Fe  Fe8  1  0.500000  0.878151  0.712575  1
  Fe  Fe9  1  0.500000  0.115695  0.715337  1
  Co  Co10  1  0.000000  0.799151  0.572834  1
  Co  Co11  1  0.000000  0.622410  0.285045  1
  Co  Co12  1  0.000000  0.382604  0.282222  1
  Co  Co13  1  0.500000  0.331561  0.990078  1
  Co  Co14  1  0.500000  0.669160  0.989874  1
  Co  Co15  1  0.000000  0.168150  0.009649  1
  Co  Co16  1  0.000000  0.830659  0.010007  1
  Co  Co17  1  0.500000  0.499948  0.700617  1
  Co  Co18  1  0.000000  0.000776  0.299052  1
  P  P19  1  0.500000  0.308224  0.624124  1
  P  P20  1  0.500000  0.692723  0.622170  1
  P  P21  1  0.000000  0.189335  0.377759  1
  P  P22  1  0.000000  0.814474  0.381620  1
  P  P23  1  0.500000  0.500022  0.881903  1
  P  P24  1  0.000000  0.000126  0.117068  1
  P  P25  1  0.500000  0.846693  0.893952  1
  P  P26  1  0.500000  0.151431  0.895047  1
  P  P27  1  0.000000  0.653964  0.103525  1
  P  P28  1  0.000000  0.347234  0.102077  1
  P  P29  1  0.500000  0.501124  0.341387  1
  P  P30  1  0.000000  0.996426  0.659808  1
  Ru  Ru31  1  0.500000  0.300265  0.425491  1
  Ru  Ru32  1  0.500000  0.703548  0.429652  1
  Ru  Ru33  1  0.000000  0.198688  0.572180  1
  Ru  Ru34  1  0.500000  0.502021  0.152285  1
  Ru  Ru35  1  0.000000  0.997224  0.849210  1
