# generated using pymatgen
data_DyFeP3Ir3Rh
_symmetry_space_group_name_H-M   'P 1'
_cell_length_a   3.91755600
_cell_length_b   10.72840000
_cell_length_c   12.44019200
_cell_angle_alpha   90.00000000
_cell_angle_beta   90.00000000
_cell_angle_gamma   90.00000000
_symmetry_Int_Tables_number   1
_chemical_formula_structural   DyFeP3Ir3Rh
_chemical_formula_sum   'Dy4 Fe4 P12 Ir12 Rh4'
_cell_volume   522.85017050
_cell_formula_units_Z   4
loop_
 _symmetry_equiv_pos_site_id
 _symmetry_equiv_pos_as_xyz
  1  'x, y, z'
loop_
 _atom_site_type_symbol
 _atom_site_label
 _atom_site_symmetry_multiplicity
 _atom_site_fract_x
 _atom_site_fract_y
 _atom_site_fract_z
 _atom_site_occupancy
  Dy  Dy0  1  0.250000  0.581492  0.710734  1
  Dy  Dy1  1  0.250000  0.918508  0.210734  1
  Dy  Dy2  1  0.750000  0.418508  0.289266  1
  Dy  Dy3  1  0.750000  0.081492  0.789266  1
  Fe  Fe4  1  0.250000  0.458774  0.932756  1
  Fe  Fe5  1  0.250000  0.041226  0.432756  1
  Fe  Fe6  1  0.750000  0.541226  0.067244  1
  Fe  Fe7  1  0.750000  0.958774  0.567244  1
  P  P8  1  0.250000  0.432090  0.104825  1
  P  P9  1  0.250000  0.067910  0.604825  1
  P  P10  1  0.750000  0.567910  0.895175  1
  P  P11  1  0.750000  0.932090  0.395175  1
  P  P12  1  0.250000  0.268879  0.868841  1
  P  P13  1  0.250000  0.231121  0.368841  1
  P  P14  1  0.750000  0.731121  0.131159  1
  P  P15  1  0.750000  0.768879  0.631159  1
  P  P16  1  0.250000  0.599229  0.387206  1
  P  P17  1  0.250000  0.900771  0.887206  1
  P  P18  1  0.750000  0.400771  0.612794  1
  P  P19  1  0.750000  0.099229  0.112794  1
  Ir  Ir20  1  0.250000  0.408455  0.477391  1
  Ir  Ir21  1  0.250000  0.091545  0.977391  1
  Ir  Ir22  1  0.750000  0.591545  0.522609  1
  Ir  Ir23  1  0.750000  0.908455  0.022609  1
  Ir  Ir24  1  0.250000  0.234390  0.176616  1
  Ir  Ir25  1  0.250000  0.265610  0.676616  1
  Ir  Ir26  1  0.750000  0.765610  0.823384  1
  Ir  Ir27  1  0.750000  0.734390  0.323384  1
  Ir  Ir28  1  0.250000  0.881507  0.700205  1
  Ir  Ir29  1  0.250000  0.618493  0.200205  1
  Ir  Ir30  1  0.750000  0.118493  0.299795  1
  Ir  Ir31  1  0.750000  0.381507  0.799795  1
  Rh  Rh32  1  0.250000  0.719290  0.986493  1
  Rh  Rh33  1  0.250000  0.780710  0.486493  1
  Rh  Rh34  1  0.750000  0.280710  0.013507  1
  Rh  Rh35  1  0.750000  0.219290  0.513507  1
