# generated using pymatgen
data_TbY2Th(GaPd2)4
_symmetry_space_group_name_H-M   'P 1'
_cell_length_a   5.67054826
_cell_length_b   7.19778100
_cell_length_c   7.43400303
_cell_angle_alpha   90.00000000
_cell_angle_beta   89.59606249
_cell_angle_gamma   90.00000000
_symmetry_Int_Tables_number   1
_chemical_formula_structural   TbY2Th(GaPd2)4
_chemical_formula_sum   'Tb1 Y2 Th1 Ga4 Pd8'
_cell_volume   303.41400296
_cell_formula_units_Z   1
loop_
 _symmetry_equiv_pos_site_id
 _symmetry_equiv_pos_as_xyz
  1  'x, y, z'
loop_
 _atom_site_type_symbol
 _atom_site_label
 _atom_site_symmetry_multiplicity
 _atom_site_fract_x
 _atom_site_fract_y
 _atom_site_fract_z
 _atom_site_occupancy
  Tb  Tb0  1  0.649732  0.250000  0.968407  1
  Y  Y1  1  0.145710  0.750000  0.529511  1
  Y  Y2  1  0.854336  0.250000  0.467753  1
  Th  Th3  1  0.352687  0.750000  0.033617  1
  Ga  Ga4  1  0.647004  0.750000  0.391014  1
  Ga  Ga5  1  0.855656  0.750000  0.879010  1
  Ga  Ga6  1  0.356731  0.250000  0.616529  1
  Ga  Ga7  1  0.142839  0.250000  0.115780  1
  Pd  Pd8  1  0.910723  0.553120  0.183079  1
  Pd  Pd9  1  0.586803  0.948950  0.683592  1
  Pd  Pd10  1  0.088511  0.051813  0.817007  1
  Pd  Pd11  1  0.411617  0.448431  0.315512  1
  Pd  Pd12  1  0.088511  0.448187  0.817007  1
  Pd  Pd13  1  0.411617  0.051569  0.315512  1
  Pd  Pd14  1  0.910723  0.946880  0.183079  1
  Pd  Pd15  1  0.586803  0.551050  0.683592  1
