# generated using pymatgen
data_Ac6Nd4Sb9Te
_symmetry_space_group_name_H-M   'P 1'
_cell_length_a   8.13192989
_cell_length_b   9.43697373
_cell_length_c   10.50782300
_cell_angle_alpha   102.98989837
_cell_angle_beta   97.37733747
_cell_angle_gamma   106.89393240
_symmetry_Int_Tables_number   1
_chemical_formula_structural   Ac6Nd4Sb9Te
_chemical_formula_sum   'Ac6 Nd4 Sb9 Te1'
_cell_volume   735.42594990
_cell_formula_units_Z   1
loop_
 _symmetry_equiv_pos_site_id
 _symmetry_equiv_pos_as_xyz
  1  'x, y, z'
loop_
 _atom_site_type_symbol
 _atom_site_label
 _atom_site_symmetry_multiplicity
 _atom_site_fract_x
 _atom_site_fract_y
 _atom_site_fract_z
 _atom_site_occupancy
  Ac  Ac0  1  0.902838  0.549006  0.798488  1
  Ac  Ac1  1  0.694647  0.152139  0.398288  1
  Ac  Ac2  1  0.498094  0.750522  0.002397  1
  Ac  Ac3  1  0.696997  0.646054  0.398112  1
  Ac  Ac4  1  0.307755  0.355041  0.604088  1
  Ac  Ac5  1  0.096182  0.947110  0.191849  1
  Nd  Nd6  1  0.498256  0.248473  0.997717  1
  Nd  Nd7  1  0.307390  0.849044  0.603072  1
  Nd  Nd8  1  0.098279  0.449042  0.198644  1
  Nd  Nd9  1  0.899926  0.053704  0.807621  1
  Sb  Sb10  1  0.798943  0.589578  0.099107  1
  Sb  Sb11  1  0.598623  0.190385  0.705280  1
  Sb  Sb12  1  0.391246  0.795682  0.304617  1
  Sb  Sb13  1  0.801100  0.108925  0.096378  1
  Sb  Sb14  1  0.198286  0.390351  0.905005  1
  Sb  Sb15  1  0.603257  0.711807  0.701473  1
  Sb  Sb16  1  0.393247  0.299567  0.291785  1
  Sb  Sb17  1  0.200824  0.908599  0.891902  1
  Sb  Sb18  1  0.009394  0.505483  0.495918  1
  Te  Te19  1  0.004717  0.999488  0.508258  1
