# generated using pymatgen
data_CaY2Ga8Ag3
_symmetry_space_group_name_H-M   'P 1'
_cell_length_a   4.35221614
_cell_length_b   8.42011860
_cell_length_c   8.42011886
_cell_angle_alpha   69.81970375
_cell_angle_beta   75.02239025
_cell_angle_gamma   75.02239343
_symmetry_Int_Tables_number   1
_chemical_formula_structural   CaY2Ga8Ag3
_chemical_formula_sum   'Ca1 Y2 Ga8 Ag3'
_cell_volume   274.86403695
_cell_formula_units_Z   1
loop_
 _symmetry_equiv_pos_site_id
 _symmetry_equiv_pos_as_xyz
  1  'x, y, z'
loop_
 _atom_site_type_symbol
 _atom_site_label
 _atom_site_symmetry_multiplicity
 _atom_site_fract_x
 _atom_site_fract_y
 _atom_site_fract_z
 _atom_site_occupancy
  Ca  Ca0  1  0.000000  0.000000  0.000000  1
  Y  Y1  1  0.299534  0.700466  0.700466  1
  Y  Y2  1  0.700466  0.299534  0.299534  1
  Ga  Ga3  1  0.339375  0.292606  0.028644  1
  Ga  Ga4  1  0.660625  0.707394  0.971356  1
  Ga  Ga5  1  0.339375  0.028644  0.292606  1
  Ga  Ga6  1  0.660625  0.971356  0.707394  1
  Ga  Ga7  1  0.144386  0.574102  0.137128  1
  Ga  Ga8  1  0.855614  0.425898  0.862872  1
  Ga  Ga9  1  0.144386  0.137128  0.574102  1
  Ga  Ga10  1  0.855614  0.862872  0.425898  1
  Ag  Ag11  1  0.500000  0.306948  0.693052  1
  Ag  Ag12  1  0.500000  0.693052  0.306948  1
  Ag  Ag13  1  0.000000  0.500000  0.500000  1
