# generated using pymatgen
data_Y5Nb3Co15NiAs12
_symmetry_space_group_name_H-M   'P 1'
_cell_length_a   12.60443900
_cell_length_b   12.60443893
_cell_length_c   3.82962300
_cell_angle_alpha   90.00000000
_cell_angle_beta   90.00000000
_cell_angle_gamma   120.00000282
_symmetry_Int_Tables_number   1
_chemical_formula_structural   Y5Nb3Co15NiAs12
_chemical_formula_sum   'Y5 Nb3 Co15 Ni1 As12'
_cell_volume   526.90665172
_cell_formula_units_Z   1
loop_
 _symmetry_equiv_pos_site_id
 _symmetry_equiv_pos_as_xyz
  1  'x, y, z'
loop_
 _atom_site_type_symbol
 _atom_site_label
 _atom_site_symmetry_multiplicity
 _atom_site_fract_x
 _atom_site_fract_y
 _atom_site_fract_z
 _atom_site_occupancy
  Y  Y0  1  0.186305  0.186305  0.500000  1
  Y  Y1  1  0.813695  0.000000  0.500000  1
  Y  Y2  1  0.000000  0.813695  0.500000  1
  Y  Y3  1  0.333333  0.666667  0.000000  1
  Y  Y4  1  0.666667  0.333333  0.000000  1
  Nb  Nb5  1  0.559377  0.559377  0.000000  1
  Nb  Nb6  1  0.440623  0.000000  0.000000  1
  Nb  Nb7  1  0.000000  0.440623  0.000000  1
  Co  Co8  1  0.718460  0.718460  0.500000  1
  Co  Co9  1  0.281540  0.000000  0.500000  1
  Co  Co10  1  0.000000  0.281540  0.500000  1
  Co  Co11  1  0.176520  0.374227  0.000000  1
  Co  Co12  1  0.625773  0.802292  0.000000  1
  Co  Co13  1  0.197708  0.823480  0.000000  1
  Co  Co14  1  0.802292  0.625773  0.000000  1
  Co  Co15  1  0.823480  0.197708  0.000000  1
  Co  Co16  1  0.374227  0.176520  0.000000  1
  Co  Co17  1  0.355960  0.480599  0.500000  1
  Co  Co18  1  0.519401  0.875362  0.500000  1
  Co  Co19  1  0.124638  0.644040  0.500000  1
  Co  Co20  1  0.875362  0.519401  0.500000  1
  Co  Co21  1  0.644040  0.124638  0.500000  1
  Co  Co22  1  0.480599  0.355960  0.500000  1
  Ni  Ni23  1  0.000000  0.000000  0.000000  1
  As  As24  1  0.822328  0.822328  0.000000  1
  As  As25  1  0.177672  0.000000  0.000000  1
  As  As26  1  0.000000  0.177672  0.000000  1
  As  As27  1  0.169695  0.481973  0.500000  1
  As  As28  1  0.518027  0.687722  0.500000  1
  As  As29  1  0.312278  0.830305  0.500000  1
  As  As30  1  0.687722  0.518027  0.500000  1
  As  As31  1  0.830305  0.312278  0.500000  1
  As  As32  1  0.481973  0.169695  0.500000  1
  As  As33  1  0.357369  0.357369  0.000000  1
  As  As34  1  0.642631  0.000000  0.000000  1
  As  As35  1  0.000000  0.642631  0.000000  1
