# generated using pymatgen
data_Sc4BeB7MoRu9
_symmetry_space_group_name_H-M   'P 1'
_cell_length_a   3.03882300
_cell_length_b   8.55163125
_cell_length_c   10.09298167
_cell_angle_alpha   90.51807065
_cell_angle_beta   90.00000000
_cell_angle_gamma   90.00000000
_symmetry_Int_Tables_number   1
_chemical_formula_structural   Sc4BeB7MoRu9
_chemical_formula_sum   'Sc4 Be1 B7 Mo1 Ru9'
_cell_volume   262.27452022
_cell_formula_units_Z   1
loop_
 _symmetry_equiv_pos_site_id
 _symmetry_equiv_pos_as_xyz
  1  'x, y, z'
loop_
 _atom_site_type_symbol
 _atom_site_label
 _atom_site_symmetry_multiplicity
 _atom_site_fract_x
 _atom_site_fract_y
 _atom_site_fract_z
 _atom_site_occupancy
  Sc  Sc0  1  0.500000  0.842208  0.180350  1
  Sc  Sc1  1  0.500000  0.157507  0.819192  1
  Sc  Sc2  1  0.500000  0.658690  0.684695  1
  Sc  Sc3  1  0.500000  0.343936  0.319386  1
  Be  Be4  1  0.500000  0.964804  0.589796  1
  B  B5  1  0.500000  0.037485  0.406149  1
  B  B6  1  0.500000  0.849618  0.898721  1
  B  B7  1  0.500000  0.148307  0.099319  1
  B  B8  1  0.500000  0.650391  0.400085  1
  B  B9  1  0.500000  0.348850  0.598911  1
  B  B10  1  0.500000  0.461656  0.913821  1
  B  B11  1  0.500000  0.532326  0.088924  1
  Mo  Mo12  1  0.000000  0.657630  0.955722  1
  Ru  Ru13  1  0.000000  0.335429  0.048588  1
  Ru  Ru14  1  0.000000  0.840956  0.445481  1
  Ru  Ru15  1  0.000000  0.165890  0.542131  1
  Ru  Ru16  1  0.000000  0.002108  0.001544  1
  Ru  Ru17  1  0.000000  0.403429  0.760778  1
  Ru  Ru18  1  0.000000  0.594947  0.239511  1
  Ru  Ru19  1  0.000000  0.503232  0.501295  1
  Ru  Ru20  1  0.000000  0.902352  0.745348  1
  Ru  Ru21  1  0.000000  0.098250  0.260253  1
