# generated using pymatgen
data_Tb9ErIn4(HgPd)4
_symmetry_space_group_name_H-M   'P 1'
_cell_length_a   3.64068900
_cell_length_b   8.08755400
_cell_length_c   18.34021000
_cell_angle_alpha   90.00217874
_cell_angle_beta   90.00000000
_cell_angle_gamma   90.00000000
_symmetry_Int_Tables_number   1
_chemical_formula_structural   Tb9ErIn4(HgPd)4
_chemical_formula_sum   'Tb9 Er1 In4 Hg4 Pd4'
_cell_volume   540.01407445
_cell_formula_units_Z   1
loop_
 _symmetry_equiv_pos_site_id
 _symmetry_equiv_pos_as_xyz
  1  'x, y, z'
loop_
 _atom_site_type_symbol
 _atom_site_label
 _atom_site_symmetry_multiplicity
 _atom_site_fract_x
 _atom_site_fract_y
 _atom_site_fract_z
 _atom_site_occupancy
  Tb  Tb0  1  0.000000  0.499882  0.499764  1
  Tb  Tb1  1  0.000000  0.999854  0.000040  1
  Tb  Tb2  1  0.000000  0.743181  0.284942  1
  Tb  Tb3  1  0.000000  0.257074  0.715064  1
  Tb  Tb4  1  0.000000  0.756871  0.783999  1
  Tb  Tb5  1  0.000000  0.242618  0.216178  1
  Tb  Tb6  1  0.000000  0.609443  0.083788  1
  Tb  Tb7  1  0.000000  0.390363  0.916489  1
  Tb  Tb8  1  0.000000  0.890467  0.582930  1
  Er  Er9  1  0.000000  0.109097  0.415908  1
  In  In10  1  0.500000  0.581505  0.649172  1
  In  In11  1  0.500000  0.417256  0.350973  1
  In  In12  1  0.500000  0.919198  0.150002  1
  In  In13  1  0.500000  0.080993  0.850227  1
  Hg  Hg14  1  0.500000  0.713185  0.932883  1
  Hg  Hg15  1  0.500000  0.286512  0.067235  1
  Hg  Hg16  1  0.500000  0.789654  0.433772  1
  Hg  Hg17  1  0.500000  0.212208  0.565629  1
  Pd  Pd18  1  0.500000  0.530189  0.198437  1
  Pd  Pd19  1  0.500000  0.469647  0.801812  1
  Pd  Pd20  1  0.500000  0.969746  0.697504  1
  Pd  Pd21  1  0.500000  0.031060  0.303254  1
