# generated using pymatgen
data_Li2Dy3Si3Pt
_symmetry_space_group_name_H-M   'P 1'
_cell_length_a   6.85411100
_cell_length_b   7.08625291
_cell_length_c   4.12380600
_cell_angle_alpha   90.00000000
_cell_angle_beta   90.00000000
_cell_angle_gamma   118.92211069
_symmetry_Int_Tables_number   1
_chemical_formula_structural   Li2Dy3Si3Pt
_chemical_formula_sum   'Li2 Dy3 Si3 Pt1'
_cell_volume   175.31214414
_cell_formula_units_Z   1
loop_
 _symmetry_equiv_pos_site_id
 _symmetry_equiv_pos_as_xyz
  1  'x, y, z'
loop_
 _atom_site_type_symbol
 _atom_site_label
 _atom_site_symmetry_multiplicity
 _atom_site_fract_x
 _atom_site_fract_y
 _atom_site_fract_z
 _atom_site_occupancy
  Li  Li0  1  0.775364  0.763417  0.500000  1
  Li  Li1  1  0.011947  0.236583  0.500000  1
  Dy  Dy2  1  0.987742  0.575630  0.000000  1
  Dy  Dy3  1  0.576480  0.000000  0.000000  1
  Dy  Dy4  1  0.412112  0.424370  0.000000  1
  Si  Si5  1  0.325302  0.682449  0.500000  1
  Si  Si6  1  0.642854  0.317551  0.500000  1
  Si  Si7  1  0.029184  0.000000  0.000000  1
  Pt  Pt8  1  0.239015  0.000000  0.500000  1
