# generated using pymatgen
data_CoPt2PbO7
_symmetry_space_group_name_H-M   'P 1'
_cell_length_a   7.08806267
_cell_length_b   7.15236926
_cell_length_c   7.15236839
_cell_angle_alpha   60.68209285
_cell_angle_beta   60.29697901
_cell_angle_gamma   60.29698125
_symmetry_Int_Tables_number   1
_chemical_formula_structural   CoPt2PbO7
_chemical_formula_sum   'Co2 Pt4 Pb2 O14'
_cell_volume   258.85484782
_cell_formula_units_Z   2
loop_
 _symmetry_equiv_pos_site_id
 _symmetry_equiv_pos_as_xyz
  1  'x, y, z'
loop_
 _atom_site_type_symbol
 _atom_site_label
 _atom_site_symmetry_multiplicity
 _atom_site_fract_x
 _atom_site_fract_y
 _atom_site_fract_z
 _atom_site_occupancy
  Co  Co0  1  0.625000  0.125000  0.125000  1
  Co  Co1  1  0.125000  0.125000  0.125000  1
  Pt  Pt2  1  0.625000  0.625000  0.125000  1
  Pt  Pt3  1  0.625000  0.125000  0.625000  1
  Pt  Pt4  1  0.125000  0.625000  0.625000  1
  Pt  Pt5  1  0.625000  0.625000  0.625000  1
  Pb  Pb6  1  0.125000  0.125000  0.625000  1
  Pb  Pb7  1  0.125000  0.625000  0.125000  1
  O  O8  1  0.259421  0.240579  0.240579  1
  O  O9  1  0.990579  0.009421  0.009421  1
  O  O10  1  0.537883  0.965622  0.529518  1
  O  O11  1  0.283024  0.720482  0.284378  1
  O  O12  1  0.537883  0.529518  0.965622  1
  O  O13  1  0.963422  0.536578  0.536578  1
  O  O14  1  0.531417  0.968583  0.968583  1
  O  O15  1  0.966976  0.965622  0.529518  1
  O  O16  1  0.966976  0.529518  0.965622  1
  O  O17  1  0.718583  0.281417  0.281417  1
  O  O18  1  0.286578  0.713422  0.713422  1
  O  O19  1  0.712117  0.284378  0.720482  1
  O  O20  1  0.283024  0.284378  0.720482  1
  O  O21  1  0.712117  0.720482  0.284378  1
