# generated using pymatgen
data_YbHo4Pa3(Pt2Pb)4
_symmetry_space_group_name_H-M   'P 1'
_cell_length_a   7.96248407
_cell_length_b   7.96248350
_cell_length_c   7.19485100
_cell_angle_alpha   90.00000000
_cell_angle_beta   90.00000000
_cell_angle_gamma   90.91798746
_symmetry_Int_Tables_number   1
_chemical_formula_structural   YbHo4Pa3(Pt2Pb)4
_chemical_formula_sum   'Yb1 Ho4 Pa3 Pt8 Pb4'
_cell_volume   456.10326628
_cell_formula_units_Z   1
loop_
 _symmetry_equiv_pos_site_id
 _symmetry_equiv_pos_as_xyz
  1  'x, y, z'
loop_
 _atom_site_type_symbol
 _atom_site_label
 _atom_site_symmetry_multiplicity
 _atom_site_fract_x
 _atom_site_fract_y
 _atom_site_fract_z
 _atom_site_occupancy
  Yb  Yb0  1  0.176278  0.823722  0.500000  1
  Ho  Ho1  1  0.341101  0.344162  0.500000  1
  Ho  Ho2  1  0.655838  0.658899  0.500000  1
  Ho  Ho3  1  0.841626  0.158374  0.000000  1
  Ho  Ho4  1  0.157762  0.842238  0.000000  1
  Pa  Pa5  1  0.678896  0.675995  0.000000  1
  Pa  Pa6  1  0.826894  0.173106  0.500000  1
  Pa  Pa7  1  0.324005  0.321104  0.000000  1
  Pt  Pt8  1  0.864614  0.873517  0.736348  1
  Pt  Pt9  1  0.126483  0.135386  0.736348  1
  Pt  Pt10  1  0.632784  0.367216  0.767494  1
  Pt  Pt11  1  0.632784  0.367216  0.232506  1
  Pt  Pt12  1  0.378958  0.621042  0.217818  1
  Pt  Pt13  1  0.126483  0.135386  0.263652  1
  Pt  Pt14  1  0.864614  0.873517  0.263652  1
  Pt  Pt15  1  0.378958  0.621042  0.782182  1
  Pb  Pb16  1  0.493605  0.997642  0.746002  1
  Pb  Pb17  1  0.493605  0.997642  0.253998  1
  Pb  Pb18  1  0.002358  0.506395  0.746002  1
  Pb  Pb19  1  0.002358  0.506395  0.253998  1
