# generated using pymatgen
data_Zr5Fe15(NiP3)4
_symmetry_space_group_name_H-M   'P 1'
_cell_length_a   11.80629915
_cell_length_b   11.81890812
_cell_length_c   3.63930300
_cell_angle_alpha   90.00000000
_cell_angle_beta   90.00000000
_cell_angle_gamma   120.12841314
_symmetry_Int_Tables_number   1
_chemical_formula_structural   Zr5Fe15(NiP3)4
_chemical_formula_sum   'Zr5 Fe15 Ni4 P12'
_cell_volume   439.21439418
_cell_formula_units_Z   1
loop_
 _symmetry_equiv_pos_site_id
 _symmetry_equiv_pos_as_xyz
  1  'x, y, z'
loop_
 _atom_site_type_symbol
 _atom_site_label
 _atom_site_symmetry_multiplicity
 _atom_site_fract_x
 _atom_site_fract_y
 _atom_site_fract_z
 _atom_site_occupancy
  Zr  Zr0  1  0.333259  0.666433  0.500000  1
  Zr  Zr1  1  0.666689  0.333612  0.500000  1
  Zr  Zr2  1  0.812704  0.998385  0.000000  1
  Zr  Zr3  1  0.001545  0.814172  0.000000  1
  Zr  Zr4  1  0.185980  0.187567  0.000000  1
  Fe  Fe5  1  0.623979  0.801052  0.500000  1
  Fe  Fe6  1  0.199011  0.822738  0.500000  1
  Fe  Fe7  1  0.177166  0.376204  0.500000  1
  Fe  Fe8  1  0.379743  0.183256  0.500000  1
  Fe  Fe9  1  0.803996  0.620240  0.500000  1
  Fe  Fe10  1  0.816065  0.196136  0.500000  1
  Fe  Fe11  1  0.283646  0.001074  0.000000  1
  Fe  Fe12  1  0.998279  0.282031  0.000000  1
  Fe  Fe13  1  0.718058  0.716380  0.000000  1
  Fe  Fe14  1  0.444871  0.998475  0.500000  1
  Fe  Fe15  1  0.001754  0.446601  0.500000  1
  Fe  Fe16  1  0.553299  0.555505  0.500000  1
  Fe  Fe17  1  0.514111  0.873419  0.000000  1
  Fe  Fe18  1  0.127107  0.640423  0.000000  1
  Fe  Fe19  1  0.359629  0.486460  0.000000  1
  Ni  Ni20  1  0.876723  0.514372  0.000000  1
  Ni  Ni21  1  0.637190  0.123441  0.000000  1
  Ni  Ni22  1  0.484992  0.361691  0.000000  1
  Ni  Ni23  1  0.000240  0.000482  0.500000  1
  P  P24  1  0.181951  0.001992  0.500000  1
  P  P25  1  0.997678  0.180086  0.500000  1
  P  P26  1  0.820454  0.818125  0.500000  1
  P  P27  1  0.520038  0.687720  0.000000  1
  P  P28  1  0.312571  0.832201  0.000000  1
  P  P29  1  0.167758  0.479870  0.000000  1
  P  P30  1  0.478112  0.167835  0.000000  1
  P  P31  1  0.689125  0.521411  0.000000  1
  P  P32  1  0.832266  0.310681  0.000000  1
  P  P33  1  0.633027  0.993917  0.500000  1
  P  P34  1  0.006071  0.638933  0.500000  1
  P  P35  1  0.360910  0.367080  0.500000  1
