# generated using pymatgen
data_Y6Tm14Cd6FeRu
_symmetry_space_group_name_H-M   'P 1'
_cell_length_a   9.49650400
_cell_length_b   9.49650425
_cell_length_c   9.71355200
_cell_angle_alpha   90.00000000
_cell_angle_beta   90.00000000
_cell_angle_gamma   119.99999913
_symmetry_Int_Tables_number   1
_chemical_formula_structural   Y6Tm14Cd6FeRu
_chemical_formula_sum   'Y6 Tm14 Cd6 Fe1 Ru1'
_cell_volume   758.64085570
_cell_formula_units_Z   1
loop_
 _symmetry_equiv_pos_site_id
 _symmetry_equiv_pos_as_xyz
  1  'x, y, z'
loop_
 _atom_site_type_symbol
 _atom_site_label
 _atom_site_symmetry_multiplicity
 _atom_site_fract_x
 _atom_site_fract_y
 _atom_site_fract_z
 _atom_site_occupancy
  Y  Y0  1  0.539352  0.460648  0.250000  1
  Y  Y1  1  0.539352  0.078705  0.250000  1
  Y  Y2  1  0.921295  0.460648  0.250000  1
  Y  Y3  1  0.459500  0.540500  0.750000  1
  Y  Y4  1  0.459500  0.919000  0.750000  1
  Y  Y5  1  0.081000  0.540500  0.750000  1
  Tm  Tm6  1  0.000000  0.000000  0.499812  1
  Tm  Tm7  1  0.000000  0.000000  0.000188  1
  Tm  Tm8  1  0.212406  0.787594  0.436470  1
  Tm  Tm9  1  0.212406  0.424814  0.436470  1
  Tm  Tm10  1  0.575186  0.787594  0.436470  1
  Tm  Tm11  1  0.790179  0.209821  0.559830  1
  Tm  Tm12  1  0.790179  0.580358  0.559830  1
  Tm  Tm13  1  0.419642  0.209821  0.559830  1
  Tm  Tm14  1  0.790179  0.209821  0.940170  1
  Tm  Tm15  1  0.790179  0.580358  0.940170  1
  Tm  Tm16  1  0.419642  0.209821  0.940170  1
  Tm  Tm17  1  0.212406  0.787594  0.063530  1
  Tm  Tm18  1  0.212406  0.424814  0.063530  1
  Tm  Tm19  1  0.575186  0.787594  0.063530  1
  Cd  Cd20  1  0.886297  0.113703  0.250000  1
  Cd  Cd21  1  0.886297  0.772596  0.250000  1
  Cd  Cd22  1  0.227404  0.113703  0.250000  1
  Cd  Cd23  1  0.113880  0.886120  0.750000  1
  Cd  Cd24  1  0.113880  0.227760  0.750000  1
  Cd  Cd25  1  0.772240  0.886120  0.750000  1
  Fe  Fe26  1  0.333333  0.666667  0.250000  1
  Ru  Ru27  1  0.666667  0.333333  0.750000  1
