# generated using pymatgen
data_Zr3MnAs2IrRu2
_symmetry_space_group_name_H-M   'P 1'
_cell_length_a   6.61782781
_cell_length_b   6.62630795
_cell_length_c   3.92158600
_cell_angle_alpha   90.00000000
_cell_angle_beta   90.00000000
_cell_angle_gamma   120.04239748
_symmetry_Int_Tables_number   1
_chemical_formula_structural   Zr3MnAs2IrRu2
_chemical_formula_sum   'Zr3 Mn1 As2 Ir1 Ru2'
_cell_volume   148.86539475
_cell_formula_units_Z   1
loop_
 _symmetry_equiv_pos_site_id
 _symmetry_equiv_pos_as_xyz
  1  'x, y, z'
loop_
 _atom_site_type_symbol
 _atom_site_label
 _atom_site_symmetry_multiplicity
 _atom_site_fract_x
 _atom_site_fract_y
 _atom_site_fract_z
 _atom_site_occupancy
  Zr  Zr0  1  0.393572  0.395374  0.500000  1
  Zr  Zr1  1  0.606428  0.001803  0.500000  1
  Zr  Zr2  1  0.000000  0.603301  0.500000  1
  Mn  Mn3  1  0.000000  0.993021  0.500000  1
  As  As4  1  0.664937  0.335213  0.000000  1
  As  As5  1  0.335063  0.670277  0.000000  1
  Ir  Ir6  1  0.000000  0.235418  0.000000  1
  Ru  Ru7  1  0.235970  0.000782  0.000000  1
  Ru  Ru8  1  0.764030  0.764812  0.000000  1
