# generated using pymatgen
data_CaLaPr3Ir2
_symmetry_space_group_name_H-M   'P 1'
_cell_length_a   9.04232859
_cell_length_b   9.04232695
_cell_length_c   7.44726721
_cell_angle_alpha   83.69796019
_cell_angle_beta   83.69796274
_cell_angle_gamma   43.61515480
_symmetry_Int_Tables_number   1
_chemical_formula_structural   CaLaPr3Ir2
_chemical_formula_sum   'Ca2 La2 Pr6 Ir4'
_cell_volume   417.09096148
_cell_formula_units_Z   2
loop_
 _symmetry_equiv_pos_site_id
 _symmetry_equiv_pos_as_xyz
  1  'x, y, z'
loop_
 _atom_site_type_symbol
 _atom_site_label
 _atom_site_symmetry_multiplicity
 _atom_site_fract_x
 _atom_site_fract_y
 _atom_site_fract_z
 _atom_site_occupancy
  Ca  Ca0  1  0.015125  0.800055  0.915994  1
  Ca  Ca1  1  0.199945  0.984875  0.584006  1
  La  La2  1  0.986515  0.199063  0.087776  1
  La  La3  1  0.800937  0.013485  0.412224  1
  Pr  Pr4  1  0.351376  0.215054  0.817785  1
  Pr  Pr5  1  0.784946  0.648624  0.682215  1
  Pr  Pr6  1  0.652682  0.786957  0.181628  1
  Pr  Pr7  1  0.213043  0.347318  0.318372  1
  Pr  Pr8  1  0.561753  0.438247  0.750000  1
  Pr  Pr9  1  0.429556  0.570444  0.250000  1
  Ir  Ir10  1  0.177019  0.592151  0.569641  1
  Ir  Ir11  1  0.407849  0.822981  0.930359  1
  Ir  Ir12  1  0.819809  0.400557  0.420364  1
  Ir  Ir13  1  0.599443  0.180191  0.079636  1
