# generated using pymatgen
data_Cs4NaDySe4
_symmetry_space_group_name_H-M   'P 1'
_cell_length_a   9.26012630
_cell_length_b   9.26012551
_cell_length_c   9.26012600
_cell_angle_alpha   133.09532336
_cell_angle_beta   129.15282749
_cell_angle_gamma   71.66301996
_symmetry_Int_Tables_number   1
_chemical_formula_structural   Cs4NaDySe4
_chemical_formula_sum   'Cs4 Na1 Dy1 Se4'
_cell_volume   439.97616087
_cell_formula_units_Z   1
loop_
 _symmetry_equiv_pos_site_id
 _symmetry_equiv_pos_as_xyz
  1  'x, y, z'
loop_
 _atom_site_type_symbol
 _atom_site_label
 _atom_site_symmetry_multiplicity
 _atom_site_fract_x
 _atom_site_fract_y
 _atom_site_fract_z
 _atom_site_occupancy
  Cs  Cs0  1  0.513169  0.864799  0.674825  1
  Cs  Cs1  1  0.486831  0.161656  0.351630  1
  Cs  Cs2  1  0.810026  0.635201  0.148370  1
  Cs  Cs3  1  0.189974  0.338344  0.825175  1
  Na  Na4  1  0.000000  0.250000  0.250000  1
  Dy  Dy5  1  0.000000  0.750000  0.750000  1
  Se  Se6  1  0.090917  0.871537  0.168461  1
  Se  Se7  1  0.703076  0.422457  0.331539  1
  Se  Se8  1  0.909083  0.077543  0.780620  1
  Se  Se9  1  0.296925  0.628463  0.719380  1
