# generated using pymatgen
data_Ta4TcOs2W
_symmetry_space_group_name_H-M   'P 1'
_cell_length_a   4.52893700
_cell_length_b   6.38810500
_cell_length_c   4.52897000
_cell_angle_alpha   90.00013059
_cell_angle_beta   90.00037952
_cell_angle_gamma   89.99994119
_symmetry_Int_Tables_number   1
_chemical_formula_structural   Ta4TcOs2W
_chemical_formula_sum   'Ta4 Tc1 Os2 W1'
_cell_volume   131.02910355
_cell_formula_units_Z   1
loop_
 _symmetry_equiv_pos_site_id
 _symmetry_equiv_pos_as_xyz
  1  'x, y, z'
loop_
 _atom_site_type_symbol
 _atom_site_label
 _atom_site_symmetry_multiplicity
 _atom_site_fract_x
 _atom_site_fract_y
 _atom_site_fract_z
 _atom_site_occupancy
  Ta  Ta0  1  0.000002  0.999662  0.000000  1
  Ta  Ta1  1  0.500000  0.500342  0.500000  1
  Ta  Ta2  1  0.000001  0.500339  0.000000  1
  Ta  Ta3  1  0.500002  0.999659  0.499999  1
  Tc  Tc4  1  0.500000  0.250000  0.000001  1
  Os  Os5  1  0.000002  0.250001  0.500000  1
  Os  Os6  1  0.500000  0.750000  0.000000  1
  W  W7  1  0.000001  0.750000  0.500000  1
