# generated using pymatgen
data_Ho8TmAl(SiB4)4
_symmetry_space_group_name_H-M   'P 1'
_cell_length_a   7.13979800
_cell_length_b   7.13979800
_cell_length_c   7.92963000
_cell_angle_alpha   90.00000000
_cell_angle_beta   90.00000000
_cell_angle_gamma   90.00000000
_symmetry_Int_Tables_number   1
_chemical_formula_structural   Ho8TmAl(SiB4)4
_chemical_formula_sum   'Ho8 Tm1 Al1 Si4 B16'
_cell_volume   404.22649238
_cell_formula_units_Z   1
loop_
 _symmetry_equiv_pos_site_id
 _symmetry_equiv_pos_as_xyz
  1  'x, y, z'
loop_
 _atom_site_type_symbol
 _atom_site_label
 _atom_site_symmetry_multiplicity
 _atom_site_fract_x
 _atom_site_fract_y
 _atom_site_fract_z
 _atom_site_occupancy
  Ho  Ho0  1  0.682271  0.179440  0.227512  1
  Ho  Ho1  1  0.317729  0.820560  0.772488  1
  Ho  Ho2  1  0.317729  0.820560  0.227512  1
  Ho  Ho3  1  0.820560  0.682271  0.227512  1
  Ho  Ho4  1  0.820560  0.682271  0.772488  1
  Ho  Ho5  1  0.682271  0.179440  0.772488  1
  Ho  Ho6  1  0.179440  0.317729  0.772488  1
  Ho  Ho7  1  0.179440  0.317729  0.227512  1
  Tm  Tm8  1  0.500000  0.500000  0.500000  1
  Al  Al9  1  0.000000  0.000000  0.500000  1
  Si  Si10  1  0.114303  0.620782  0.500000  1
  Si  Si11  1  0.885697  0.379218  0.500000  1
  Si  Si12  1  0.379218  0.114303  0.500000  1
  Si  Si13  1  0.620782  0.885697  0.500000  1
  B  B14  1  0.174718  0.039743  0.000000  1
  B  B15  1  0.825282  0.960257  0.000000  1
  B  B16  1  0.960257  0.174718  0.000000  1
  B  B17  1  0.327080  0.539504  0.000000  1
  B  B18  1  0.039743  0.825282  0.000000  1
  B  B19  1  0.672920  0.460496  0.000000  1
  B  B20  1  0.539504  0.672920  0.000000  1
  B  B21  1  0.460496  0.327080  0.000000  1
  B  B22  1  0.089810  0.588448  0.000000  1
  B  B23  1  0.910190  0.411552  0.000000  1
  B  B24  1  0.411552  0.089810  0.000000  1
  B  B25  1  0.588448  0.910190  0.000000  1
  B  B26  1  0.000000  0.000000  0.162063  1
  B  B27  1  0.000000  0.000000  0.837937  1
  B  B28  1  0.500000  0.500000  0.834747  1
  B  B29  1  0.500000  0.500000  0.165253  1
