# generated using pymatgen
data_TbHo9Cd4In4(PdPt)2
_symmetry_space_group_name_H-M   'P 1'
_cell_length_a   3.59634600
_cell_length_b   8.07472501
_cell_length_c   18.35420400
_cell_angle_alpha   89.99782162
_cell_angle_beta   90.00000000
_cell_angle_gamma   90.00000000
_symmetry_Int_Tables_number   1
_chemical_formula_structural   TbHo9Cd4In4(PdPt)2
_chemical_formula_sum   'Tb1 Ho9 Cd4 In4 Pd2 Pt2'
_cell_volume   532.99699800
_cell_formula_units_Z   1
loop_
 _symmetry_equiv_pos_site_id
 _symmetry_equiv_pos_as_xyz
  1  'x, y, z'
loop_
 _atom_site_type_symbol
 _atom_site_label
 _atom_site_symmetry_multiplicity
 _atom_site_fract_x
 _atom_site_fract_y
 _atom_site_fract_z
 _atom_site_occupancy
  Tb  Tb0  1  0.000000  0.500000  0.500000  1
  Ho  Ho1  1  0.000000  0.000000  0.000000  1
  Ho  Ho2  1  0.000000  0.739284  0.280205  1
  Ho  Ho3  1  0.000000  0.260716  0.719795  1
  Ho  Ho4  1  0.000000  0.755773  0.781243  1
  Ho  Ho5  1  0.000000  0.244227  0.218757  1
  Ho  Ho6  1  0.000000  0.611957  0.084350  1
  Ho  Ho7  1  0.000000  0.388043  0.915650  1
  Ho  Ho8  1  0.000000  0.887336  0.583677  1
  Ho  Ho9  1  0.000000  0.112664  0.416323  1
  Cd  Cd10  1  0.500000  0.712756  0.931885  1
  Cd  Cd11  1  0.500000  0.287244  0.068115  1
  Cd  Cd12  1  0.500000  0.788894  0.431428  1
  Cd  Cd13  1  0.500000  0.211106  0.568572  1
  In  In14  1  0.500000  0.576811  0.647783  1
  In  In15  1  0.500000  0.423189  0.352217  1
  In  In16  1  0.500000  0.924388  0.147422  1
  In  In17  1  0.500000  0.075612  0.852578  1
  Pd  Pd18  1  0.500000  0.974780  0.696387  1
  Pd  Pd19  1  0.500000  0.025220  0.303613  1
  Pt  Pt20  1  0.500000  0.524881  0.196616  1
  Pt  Pt21  1  0.500000  0.475119  0.803384  1
