# generated using pymatgen
data_La2Tb2Y2OsI10
_symmetry_space_group_name_H-M   'P 1'
_cell_length_a   7.90364386
_cell_length_b   9.95979092
_cell_length_c   9.89287423
_cell_angle_alpha   106.53559571
_cell_angle_beta   95.60512456
_cell_angle_gamma   105.41387569
_symmetry_Int_Tables_number   1
_chemical_formula_structural   La2Tb2Y2OsI10
_chemical_formula_sum   'La2 Tb2 Y2 Os1 I10'
_cell_volume   706.92453551
_cell_formula_units_Z   1
loop_
 _symmetry_equiv_pos_site_id
 _symmetry_equiv_pos_as_xyz
  1  'x, y, z'
loop_
 _atom_site_type_symbol
 _atom_site_label
 _atom_site_symmetry_multiplicity
 _atom_site_fract_x
 _atom_site_fract_y
 _atom_site_fract_z
 _atom_site_occupancy
  La  La0  1  0.115237  0.043907  0.769859  1
  La  La1  1  0.884763  0.956093  0.230141  1
  Tb  Tb2  1  0.970219  0.289030  0.087269  1
  Tb  Tb3  1  0.029781  0.710970  0.912731  1
  Y  Y4  1  0.352236  0.127365  0.166469  1
  Y  Y5  1  0.647764  0.872635  0.833531  1
  Os  Os6  1  0.000000  0.000000  0.000000  1
  I  I7  1  0.345972  0.445276  0.268560  1
  I  I8  1  0.654028  0.554724  0.731440  1
  I  I9  1  0.268309  0.089082  0.453935  1
  I  I10  1  0.731691  0.910918  0.546065  1
  I  I11  1  0.083272  0.378785  0.825523  1
  I  I12  1  0.916728  0.621215  0.174477  1
  I  I13  1  0.448022  0.818470  0.087839  1
  I  I14  1  0.551978  0.181530  0.912161  1
  I  I15  1  0.773857  0.261752  0.340899  1
  I  I16  1  0.226143  0.738248  0.659101  1
