# generated using pymatgen
data_Dy8Lu2In8Pt3Rh
_symmetry_space_group_name_H-M   'P 1'
_cell_length_a   3.62078400
_cell_length_b   8.12433713
_cell_length_c   18.17940042
_cell_angle_alpha   89.95470179
_cell_angle_beta   90.00000000
_cell_angle_gamma   90.00000000
_symmetry_Int_Tables_number   1
_chemical_formula_structural   Dy8Lu2In8Pt3Rh
_chemical_formula_sum   'Dy8 Lu2 In8 Pt3 Rh1'
_cell_volume   534.77361773
_cell_formula_units_Z   1
loop_
 _symmetry_equiv_pos_site_id
 _symmetry_equiv_pos_as_xyz
  1  'x, y, z'
loop_
 _atom_site_type_symbol
 _atom_site_label
 _atom_site_symmetry_multiplicity
 _atom_site_fract_x
 _atom_site_fract_y
 _atom_site_fract_z
 _atom_site_occupancy
  Dy  Dy0  1  0.000000  0.383210  0.915245  1
  Dy  Dy1  1  0.000000  0.617176  0.086268  1
  Dy  Dy2  1  0.000000  0.238718  0.222848  1
  Dy  Dy3  1  0.000000  0.757921  0.779294  1
  Dy  Dy4  1  0.000000  0.258581  0.718343  1
  Dy  Dy5  1  0.000000  0.749635  0.280652  1
  Dy  Dy6  1  0.000000  0.000070  0.000021  1
  Dy  Dy7  1  0.000000  0.499927  0.499777  1
  Lu  Lu8  1  0.000000  0.113501  0.412169  1
  Lu  Lu9  1  0.000000  0.883028  0.585245  1
  In  In10  1  0.500000  0.420007  0.352772  1
  In  In11  1  0.500000  0.579890  0.647473  1
  In  In12  1  0.500000  0.075949  0.850224  1
  In  In13  1  0.500000  0.929549  0.150245  1
  In  In14  1  0.500000  0.290971  0.067632  1
  In  In15  1  0.500000  0.708303  0.933614  1
  In  In16  1  0.500000  0.202458  0.563299  1
  In  In17  1  0.500000  0.796509  0.433830  1
  Pt  Pt18  1  0.500000  0.974466  0.693611  1
  Pt  Pt19  1  0.500000  0.474844  0.802860  1
  Pt  Pt20  1  0.500000  0.522746  0.198095  1
  Rh  Rh21  1  0.500000  0.022540  0.306485  1
