# generated using pymatgen
data_Ho4Er16Ni3Bi8Ru
_symmetry_space_group_name_H-M   'P 1'
_cell_length_a   7.95450295
_cell_length_b   8.90418600
_cell_length_c   12.29491001
_cell_angle_alpha   90.00000000
_cell_angle_beta   90.22785135
_cell_angle_gamma   90.00000000
_symmetry_Int_Tables_number   1
_chemical_formula_structural   Ho4Er16Ni3Bi8Ru
_chemical_formula_sum   'Ho4 Er16 Ni3 Bi8 Ru1'
_cell_volume   870.82159625
_cell_formula_units_Z   1
loop_
 _symmetry_equiv_pos_site_id
 _symmetry_equiv_pos_as_xyz
  1  'x, y, z'
loop_
 _atom_site_type_symbol
 _atom_site_label
 _atom_site_symmetry_multiplicity
 _atom_site_fract_x
 _atom_site_fract_y
 _atom_site_fract_z
 _atom_site_occupancy
  Ho  Ho0  1  0.619733  0.250000  0.306712  1
  Ho  Ho1  1  0.880331  0.250000  0.809016  1
  Ho  Ho2  1  0.051142  0.250000  0.497726  1
  Ho  Ho3  1  0.450695  0.250000  0.000101  1
  Er  Er4  1  0.838774  0.750000  0.791556  1
  Er  Er5  1  0.158250  0.250000  0.204707  1
  Er  Er6  1  0.345056  0.250000  0.702349  1
  Er  Er7  1  0.654923  0.750000  0.296460  1
  Er  Er8  1  0.378337  0.750000  0.695326  1
  Er  Er9  1  0.118861  0.750000  0.189297  1
  Er  Er10  1  0.949936  0.750000  0.501968  1
  Er  Er11  1  0.549508  0.750000  0.000740  1
  Er  Er12  1  0.676944  0.041179  0.565097  1
  Er  Er13  1  0.324641  0.956653  0.436715  1
  Er  Er14  1  0.176187  0.958633  0.935038  1
  Er  Er15  1  0.324641  0.543347  0.436715  1
  Er  Er16  1  0.823558  0.042045  0.064191  1
  Er  Er17  1  0.676944  0.458821  0.565097  1
  Er  Er18  1  0.823558  0.457955  0.064191  1
  Er  Er19  1  0.176187  0.541367  0.935038  1
  Ni  Ni20  1  0.427166  0.250000  0.488565  1
  Ni  Ni21  1  0.070511  0.250000  0.991374  1
  Ni  Ni22  1  0.928509  0.750000  0.006448  1
  Bi  Bi23  1  0.570876  0.489148  0.828461  1
  Bi  Bi24  1  0.428272  0.510059  0.172873  1
  Bi  Bi25  1  0.070623  0.507875  0.673951  1
  Bi  Bi26  1  0.428272  0.989941  0.172873  1
  Bi  Bi27  1  0.930681  0.491316  0.325910  1
  Bi  Bi28  1  0.570876  0.010852  0.828461  1
  Bi  Bi29  1  0.930681  0.008684  0.325910  1
  Bi  Bi30  1  0.070623  0.992125  0.673951  1
  Ru  Ru31  1  0.574706  0.750000  0.513184  1
