# generated using pymatgen
data_Tb4Mn4Fe3Ni13P12
_symmetry_space_group_name_H-M   'P 1'
_cell_length_a   3.70740800
_cell_length_b   10.43940703
_cell_length_c   11.94783375
_cell_angle_alpha   90.00506337
_cell_angle_beta   90.00000000
_cell_angle_gamma   90.00000000
_symmetry_Int_Tables_number   1
_chemical_formula_structural   Tb4Mn4Fe3Ni13P12
_chemical_formula_sum   'Tb4 Mn4 Fe3 Ni13 P12'
_cell_volume   462.41869407
_cell_formula_units_Z   1
loop_
 _symmetry_equiv_pos_site_id
 _symmetry_equiv_pos_as_xyz
  1  'x, y, z'
loop_
 _atom_site_type_symbol
 _atom_site_label
 _atom_site_symmetry_multiplicity
 _atom_site_fract_x
 _atom_site_fract_y
 _atom_site_fract_z
 _atom_site_occupancy
  Tb  Tb0  1  0.250000  0.580864  0.704420  1
  Tb  Tb1  1  0.250000  0.918188  0.204837  1
  Tb  Tb2  1  0.750000  0.420120  0.296658  1
  Tb  Tb3  1  0.750000  0.081200  0.794442  1
  Mn  Mn4  1  0.250000  0.706942  0.988648  1
  Mn  Mn5  1  0.250000  0.792929  0.490055  1
  Mn  Mn6  1  0.750000  0.291181  0.009985  1
  Mn  Mn7  1  0.750000  0.207304  0.509508  1
  Fe  Fe8  1  0.250000  0.035472  0.430359  1
  Fe  Fe9  1  0.750000  0.532776  0.068650  1
  Fe  Fe10  1  0.750000  0.964647  0.568891  1
  Ni  Ni11  1  0.250000  0.406488  0.489579  1
  Ni  Ni12  1  0.250000  0.092478  0.989496  1
  Ni  Ni13  1  0.750000  0.593645  0.511718  1
  Ni  Ni14  1  0.750000  0.905267  0.011170  1
  Ni  Ni15  1  0.250000  0.224085  0.176820  1
  Ni  Ni16  1  0.250000  0.274749  0.675948  1
  Ni  Ni17  1  0.750000  0.777984  0.821711  1
  Ni  Ni18  1  0.750000  0.724336  0.323773  1
  Ni  Ni19  1  0.250000  0.880898  0.701687  1
  Ni  Ni20  1  0.250000  0.619566  0.201323  1
  Ni  Ni21  1  0.750000  0.120026  0.297503  1
  Ni  Ni22  1  0.750000  0.381752  0.799334  1
  Ni  Ni23  1  0.250000  0.466401  0.931696  1
  P  P24  1  0.250000  0.423326  0.113454  1
  P  P25  1  0.250000  0.075557  0.609802  1
  P  P26  1  0.750000  0.581194  0.889163  1
  P  P27  1  0.750000  0.924561  0.389482  1
  P  P28  1  0.250000  0.267412  0.868405  1
  P  P29  1  0.250000  0.230661  0.368898  1
  P  P30  1  0.750000  0.729765  0.130106  1
  P  P31  1  0.750000  0.769735  0.630512  1
  P  P32  1  0.250000  0.602457  0.393657  1
  P  P33  1  0.250000  0.897752  0.893747  1
  P  P34  1  0.750000  0.397437  0.608114  1
  P  P35  1  0.750000  0.100845  0.106451  1
