# generated using pymatgen
data_Y3Tm5Pd4
_symmetry_space_group_name_H-M   'P 1'
_cell_length_a   4.86994000
_cell_length_b   7.11682863
_cell_length_c   8.76097100
_cell_angle_alpha   89.82125705
_cell_angle_beta   90.00000000
_cell_angle_gamma   90.00000000
_symmetry_Int_Tables_number   1
_chemical_formula_structural   Y3Tm5Pd4
_chemical_formula_sum   'Y3 Tm5 Pd4'
_cell_volume   303.64088487
_cell_formula_units_Z   1
loop_
 _symmetry_equiv_pos_site_id
 _symmetry_equiv_pos_as_xyz
  1  'x, y, z'
loop_
 _atom_site_type_symbol
 _atom_site_label
 _atom_site_symmetry_multiplicity
 _atom_site_fract_x
 _atom_site_fract_y
 _atom_site_fract_z
 _atom_site_occupancy
  Y  Y0  1  0.250000  0.484377  0.173340  1
  Y  Y1  1  0.750000  0.515816  0.825960  1
  Y  Y2  1  0.250000  0.984087  0.327003  1
  Tm  Tm3  1  0.750000  0.015744  0.671398  1
  Tm  Tm4  1  0.750000  0.644680  0.422449  1
  Tm  Tm5  1  0.250000  0.354675  0.578278  1
  Tm  Tm6  1  0.750000  0.143646  0.077580  1
  Tm  Tm7  1  0.250000  0.857135  0.920502  1
  Pd  Pd8  1  0.250000  0.253506  0.905805  1
  Pd  Pd9  1  0.750000  0.745898  0.094131  1
  Pd  Pd10  1  0.250000  0.755887  0.595368  1
  Pd  Pd11  1  0.750000  0.244549  0.408185  1
