# generated using pymatgen
data_Ho2ErNi2Sn3Rh
_symmetry_space_group_name_H-M   'P 1'
_cell_length_a   7.46748229
_cell_length_b   7.46686316
_cell_length_c   3.77203300
_cell_angle_alpha   90.00000000
_cell_angle_beta   90.00000000
_cell_angle_gamma   120.03469499
_symmetry_Int_Tables_number   1
_chemical_formula_structural   Ho2ErNi2Sn3Rh
_chemical_formula_sum   'Ho2 Er1 Ni2 Sn3 Rh1'
_cell_volume   182.08181298
_cell_formula_units_Z   1
loop_
 _symmetry_equiv_pos_site_id
 _symmetry_equiv_pos_as_xyz
  1  'x, y, z'
loop_
 _atom_site_type_symbol
 _atom_site_label
 _atom_site_symmetry_multiplicity
 _atom_site_fract_x
 _atom_site_fract_y
 _atom_site_fract_z
 _atom_site_occupancy
  Ho  Ho0  1  0.404317  0.405347  0.000000  1
  Ho  Ho1  1  0.000910  0.595248  0.000000  1
  Er  Er2  1  0.594372  0.998446  0.000000  1
  Ni  Ni3  1  0.000633  0.000267  0.000000  1
  Ni  Ni4  1  0.665830  0.333749  0.500000  1
  Sn  Sn5  1  0.744568  0.740479  0.500000  1
  Sn  Sn6  1  0.995319  0.254996  0.500000  1
  Sn  Sn7  1  0.259877  0.004209  0.500000  1
  Rh  Rh8  1  0.334172  0.667262  0.500000  1
