# generated using pymatgen
data_CaHo7(B6Os)4
_symmetry_space_group_name_H-M   'P 1'
_cell_length_a   3.64650300
_cell_length_b   9.14030159
_cell_length_c   11.52461601
_cell_angle_alpha   89.90017619
_cell_angle_beta   90.00000000
_cell_angle_gamma   90.00000000
_symmetry_Int_Tables_number   1
_chemical_formula_structural   CaHo7(B6Os)4
_chemical_formula_sum   'Ca1 Ho7 B24 Os4'
_cell_volume   384.11644939
_cell_formula_units_Z   1
loop_
 _symmetry_equiv_pos_site_id
 _symmetry_equiv_pos_as_xyz
  1  'x, y, z'
loop_
 _atom_site_type_symbol
 _atom_site_label
 _atom_site_symmetry_multiplicity
 _atom_site_fract_x
 _atom_site_fract_y
 _atom_site_fract_z
 _atom_site_occupancy
  Ca  Ca0  1  0.000000  0.322723  0.413837  1
  Ho  Ho1  1  0.000000  0.675874  0.585073  1
  Ho  Ho2  1  0.000000  0.822572  0.086312  1
  Ho  Ho3  1  0.000000  0.177934  0.914557  1
  Ho  Ho4  1  0.000000  0.944182  0.371500  1
  Ho  Ho5  1  0.000000  0.057433  0.627916  1
  Ho  Ho6  1  0.000000  0.443406  0.128766  1
  Ho  Ho7  1  0.000000  0.555848  0.872863  1
  B  B8  1  0.500000  0.554572  0.432747  1
  B  B9  1  0.500000  0.446349  0.567768  1
  B  B10  1  0.500000  0.053081  0.066285  1
  B  B11  1  0.500000  0.945976  0.932656  1
  B  B12  1  0.500000  0.748487  0.419311  1
  B  B13  1  0.500000  0.252223  0.581456  1
  B  B14  1  0.500000  0.247531  0.080089  1
  B  B15  1  0.500000  0.751811  0.919783  1
  B  B16  1  0.500000  0.791811  0.266037  1
  B  B17  1  0.500000  0.209344  0.734307  1
  B  B18  1  0.500000  0.289911  0.232938  1
  B  B19  1  0.500000  0.709103  0.766427  1
  B  B20  1  0.500000  0.632344  0.185619  1
  B  B21  1  0.500000  0.368375  0.815365  1
  B  B22  1  0.500000  0.130866  0.313549  1
  B  B23  1  0.500000  0.868374  0.685243  1
  B  B24  1  0.500000  0.983014  0.211805  1
  B  B25  1  0.500000  0.016602  0.787229  1
  B  B26  1  0.500000  0.484323  0.287279  1
  B  B27  1  0.500000  0.516624  0.713046  1
  B  B28  1  0.500000  0.608459  0.030172  1
  B  B29  1  0.500000  0.391814  0.970473  1
  B  B30  1  0.500000  0.103963  0.471112  1
  B  B31  1  0.500000  0.894352  0.529259  1
  Os  Os32  1  0.000000  0.640018  0.320497  1
  Os  Os33  1  0.000000  0.362223  0.680624  1
  Os  Os34  1  0.000000  0.136101  0.176933  1
  Os  Os35  1  0.000000  0.862377  0.821164  1
