# generated using pymatgen
data_Pr6Pd3Rh2Au3
_symmetry_space_group_name_H-M   'P 1'
_cell_length_a   8.25136245
_cell_length_b   8.25136356
_cell_length_c   8.25136482
_cell_angle_alpha   114.27798264
_cell_angle_beta   114.27798957
_cell_angle_gamma   114.27798009
_symmetry_Int_Tables_number   1
_chemical_formula_structural   Pr6Pd3Rh2Au3
_chemical_formula_sum   'Pr6 Pd3 Rh2 Au3'
_cell_volume   334.16726231
_cell_formula_units_Z   1
loop_
 _symmetry_equiv_pos_site_id
 _symmetry_equiv_pos_as_xyz
  1  'x, y, z'
loop_
 _atom_site_type_symbol
 _atom_site_label
 _atom_site_symmetry_multiplicity
 _atom_site_fract_x
 _atom_site_fract_y
 _atom_site_fract_z
 _atom_site_occupancy
  Pr  Pr0  1  0.406450  0.034791  0.287752  1
  Pr  Pr1  1  0.034791  0.287752  0.406450  1
  Pr  Pr2  1  0.287752  0.406450  0.034791  1
  Pr  Pr3  1  0.610503  0.952929  0.718963  1
  Pr  Pr4  1  0.952929  0.718963  0.610503  1
  Pr  Pr5  1  0.718963  0.610503  0.952929  1
  Pd  Pd6  1  0.776646  0.944373  0.440047  1
  Pd  Pd7  1  0.944373  0.440047  0.776646  1
  Pd  Pd8  1  0.440047  0.776646  0.944373  1
  Rh  Rh9  1  0.019699  0.019699  0.019699  1
  Rh  Rh10  1  0.488657  0.488657  0.488657  1
  Au  Au11  1  0.213574  0.052285  0.553331  1
  Au  Au12  1  0.052285  0.553331  0.213574  1
  Au  Au13  1  0.553331  0.213574  0.052285  1
