# generated using pymatgen
data_Er9TmSi5P
_symmetry_space_group_name_H-M   'P 1'
_cell_length_a   8.32536400
_cell_length_b   8.32751756
_cell_length_c   6.23061704
_cell_angle_alpha   89.98761998
_cell_angle_beta   90.00387421
_cell_angle_gamma   119.99182132
_symmetry_Int_Tables_number   1
_chemical_formula_structural   Er9TmSi5P
_chemical_formula_sum   'Er9 Tm1 Si5 P1'
_cell_volume   374.12458972
_cell_formula_units_Z   1
loop_
 _symmetry_equiv_pos_site_id
 _symmetry_equiv_pos_as_xyz
  1  'x, y, z'
loop_
 _atom_site_type_symbol
 _atom_site_label
 _atom_site_symmetry_multiplicity
 _atom_site_fract_x
 _atom_site_fract_y
 _atom_site_fract_z
 _atom_site_occupancy
  Er  Er0  1  0.000846  0.757152  0.749735  1
  Er  Er1  1  0.001215  0.244083  0.250201  1
  Er  Er2  1  0.756976  0.756049  0.250217  1
  Er  Er3  1  0.755178  0.999893  0.749824  1
  Er  Er4  1  0.243631  0.242968  0.749865  1
  Er  Er5  1  0.243374  0.999872  0.250156  1
  Er  Er6  1  0.666242  0.332401  0.999497  1
  Er  Er7  1  0.666175  0.332324  0.500552  1
  Er  Er8  1  0.333860  0.667640  0.999719  1
  Tm  Tm9  1  0.333850  0.667472  0.500115  1
  Si  Si10  1  0.394329  0.394161  0.250623  1
  Si  Si11  1  0.001388  0.606485  0.250687  1
  Si  Si12  1  0.000757  0.394095  0.749364  1
  Si  Si13  1  0.606124  0.606608  0.749394  1
  Si  Si14  1  0.606682  0.999365  0.250606  1
  P  P15  1  0.389375  0.999433  0.749447  1
