# generated using pymatgen
data_Tb9Dy2Er9(CoSb2)4
_symmetry_space_group_name_H-M   'P 1'
_cell_length_a   7.85819180
_cell_length_b   8.76983000
_cell_length_c   12.20060000
_cell_angle_alpha   90.00000000
_cell_angle_beta   89.94208125
_cell_angle_gamma   90.00000000
_symmetry_Int_Tables_number   1
_chemical_formula_structural   Tb9Dy2Er9(CoSb2)4
_chemical_formula_sum   'Tb9 Dy2 Er9 Co4 Sb8'
_cell_volume   840.80399488
_cell_formula_units_Z   1
loop_
 _symmetry_equiv_pos_site_id
 _symmetry_equiv_pos_as_xyz
  1  'x, y, z'
loop_
 _atom_site_type_symbol
 _atom_site_label
 _atom_site_symmetry_multiplicity
 _atom_site_fract_x
 _atom_site_fract_y
 _atom_site_fract_z
 _atom_site_occupancy
  Tb  Tb0  1  0.653492  0.250000  0.296577  1
  Tb  Tb1  1  0.846975  0.250000  0.797171  1
  Tb  Tb2  1  0.953990  0.250000  0.501766  1
  Tb  Tb3  1  0.546017  0.250000  0.002534  1
  Tb  Tb4  1  0.046905  0.750000  0.497519  1
  Tb  Tb5  1  0.622111  0.750000  0.307347  1
  Tb  Tb6  1  0.122528  0.250000  0.192446  1
  Tb  Tb7  1  0.377429  0.250000  0.692606  1
  Tb  Tb8  1  0.877283  0.750000  0.807302  1
  Dy  Dy9  1  0.346724  0.750000  0.703113  1
  Dy  Dy10  1  0.452590  0.750000  0.997979  1
  Er  Er11  1  0.153238  0.750000  0.202174  1
  Er  Er12  1  0.823269  0.963659  0.065405  1
  Er  Er13  1  0.323151  0.035158  0.434999  1
  Er  Er14  1  0.176998  0.465270  0.935375  1
  Er  Er15  1  0.676766  0.535344  0.565083  1
  Er  Er16  1  0.176998  0.034730  0.935375  1
  Er  Er17  1  0.676766  0.964656  0.565083  1
  Er  Er18  1  0.823269  0.536341  0.065405  1
  Er  Er19  1  0.323151  0.464842  0.434999  1
  Co  Co20  1  0.436516  0.750000  0.491617  1
  Co  Co21  1  0.935931  0.250000  0.008903  1
  Co  Co22  1  0.564154  0.250000  0.508515  1
  Co  Co23  1  0.064203  0.750000  0.991681  1
  Sb  Sb24  1  0.930191  0.991264  0.326220  1
  Sb  Sb25  1  0.427836  0.006782  0.173136  1
  Sb  Sb26  1  0.071261  0.492459  0.673024  1
  Sb  Sb27  1  0.570486  0.508294  0.827132  1
  Sb  Sb28  1  0.071261  0.007541  0.673024  1
  Sb  Sb29  1  0.570486  0.991706  0.827132  1
  Sb  Sb30  1  0.930191  0.508736  0.326220  1
  Sb  Sb31  1  0.427836  0.493218  0.173136  1
