# generated using pymatgen
data_Ce3InSn2Ir2Rh
_symmetry_space_group_name_H-M   'P 1'
_cell_length_a   7.52783206
_cell_length_b   7.52783199
_cell_length_c   4.04347600
_cell_angle_alpha   90.00000000
_cell_angle_beta   90.00000000
_cell_angle_gamma   119.99023084
_symmetry_Int_Tables_number   1
_chemical_formula_structural   Ce3InSn2Ir2Rh
_chemical_formula_sum   'Ce3 In1 Sn2 Ir2 Rh1'
_cell_volume   198.45775999
_cell_formula_units_Z   1
loop_
 _symmetry_equiv_pos_site_id
 _symmetry_equiv_pos_as_xyz
  1  'x, y, z'
loop_
 _atom_site_type_symbol
 _atom_site_label
 _atom_site_symmetry_multiplicity
 _atom_site_fract_x
 _atom_site_fract_y
 _atom_site_fract_z
 _atom_site_occupancy
  Ce  Ce0  1  0.000279  0.414522  0.000000  1
  Ce  Ce1  1  0.585814  0.585814  0.000000  1
  Ce  Ce2  1  0.414522  0.000279  0.000000  1
  In  In3  1  0.252332  0.252332  0.500000  1
  Sn  Sn4  1  0.001992  0.749014  0.500000  1
  Sn  Sn5  1  0.749014  0.001992  0.500000  1
  Ir  Ir6  1  0.670267  0.334794  0.500000  1
  Ir  Ir7  1  0.334794  0.670267  0.500000  1
  Rh  Rh8  1  0.990988  0.990988  0.000000  1
