# generated using pymatgen
data_CaZn3CdPt
_symmetry_space_group_name_H-M   'P 1'
_cell_length_a   5.34092751
_cell_length_b   5.34092716
_cell_length_c   5.34948400
_cell_angle_alpha   60.05289909
_cell_angle_beta   60.05288889
_cell_angle_gamma   59.99999597
_symmetry_Int_Tables_number   1
_chemical_formula_structural   CaZn3CdPt
_chemical_formula_sum   'Ca1 Zn3 Cd1 Pt1'
_cell_volume   107.98836690
_cell_formula_units_Z   1
loop_
 _symmetry_equiv_pos_site_id
 _symmetry_equiv_pos_as_xyz
  1  'x, y, z'
loop_
 _atom_site_type_symbol
 _atom_site_label
 _atom_site_symmetry_multiplicity
 _atom_site_fract_x
 _atom_site_fract_y
 _atom_site_fract_z
 _atom_site_occupancy
  Ca  Ca0  1  0.251968  0.251968  0.244095  1
  Zn  Zn1  1  0.626379  0.121590  0.625653  1
  Zn  Zn2  1  0.121590  0.626379  0.625653  1
  Zn  Zn3  1  0.626379  0.626379  0.625653  1
  Cd  Cd4  1  0.999546  0.999546  0.001360  1
  Pt  Pt5  1  0.624137  0.624137  0.127588  1
