# generated using pymatgen
data_Zr20C17N
_symmetry_space_group_name_H-M   'P 1'
_cell_length_a   8.82636197
_cell_length_b   8.82875727
_cell_length_c   11.07152912
_cell_angle_alpha   62.96662473
_cell_angle_beta   62.97172762
_cell_angle_gamma   44.52638905
_symmetry_Int_Tables_number   1
_chemical_formula_structural   Zr20C17N
_chemical_formula_sum   'Zr20 C17 N1'
_cell_volume   527.02346663
_cell_formula_units_Z   1
loop_
 _symmetry_equiv_pos_site_id
 _symmetry_equiv_pos_as_xyz
  1  'x, y, z'
loop_
 _atom_site_type_symbol
 _atom_site_label
 _atom_site_symmetry_multiplicity
 _atom_site_fract_x
 _atom_site_fract_y
 _atom_site_fract_z
 _atom_site_occupancy
  Zr  Zr0  1  0.223441  0.479292  0.946774  1
  Zr  Zr1  1  0.720964  0.967557  0.955995  1
  Zr  Zr2  1  0.564152  0.330818  0.648523  1
  Zr  Zr3  1  0.435665  0.668624  0.351500  1
  Zr  Zr4  1  0.278816  0.033473  0.043571  1
  Zr  Zr5  1  0.082072  0.813961  0.645010  1
  Zr  Zr6  1  0.123332  0.372679  0.750143  1
  Zr  Zr7  1  0.917644  0.186236  0.355089  1
  Zr  Zr8  1  0.967247  0.720807  0.456271  1
  Zr  Zr9  1  0.777015  0.520686  0.052689  1
  Zr  Zr10  1  0.627370  0.876870  0.749510  1
  Zr  Zr11  1  0.813684  0.082050  0.145138  1
  Zr  Zr12  1  0.479120  0.222773  0.447325  1
  Zr  Zr13  1  0.669043  0.436285  0.851394  1
  Zr  Zr14  1  0.521058  0.776882  0.552931  1
  Zr  Zr15  1  0.331010  0.564276  0.148522  1
  Zr  Zr16  1  0.372325  0.123162  0.250544  1
  Zr  Zr17  1  0.186457  0.917929  0.855015  1
  Zr  Zr18  1  0.032459  0.279165  0.544012  1
  Zr  Zr19  1  0.876448  0.628126  0.249797  1
  C  C20  1  0.924905  0.677691  0.850776  1
  C  C21  1  0.574783  0.827689  0.147449  1
  C  C22  1  0.776331  0.025675  0.549863  1
  C  C23  1  0.423998  0.172584  0.853488  1
  C  C24  1  0.625607  0.375479  0.249628  1
  C  C25  1  0.275697  0.528241  0.551005  1
  C  C26  1  0.472136  0.724716  0.949732  1
  C  C27  1  0.321602  0.075324  0.650104  1
  C  C28  1  0.172165  0.425013  0.351958  1
  C  C29  1  0.975051  0.224187  0.950494  1
  C  C30  1  0.827504  0.574911  0.647490  1
  C  C31  1  0.025232  0.774762  0.050771  1
  C  C32  1  0.678194  0.924078  0.349144  1
  C  C33  1  0.725165  0.471356  0.448067  1
  C  C34  1  0.527211  0.275932  0.051385  1
  C  C35  1  0.375556  0.623830  0.750496  1
  C  C36  1  0.223807  0.975849  0.448482  1
  N  N37  1  0.075734  0.321034  0.149918  1
