# generated using pymatgen
data_TbErCl8
_symmetry_space_group_name_H-M   'P 1'
_cell_length_a   6.97656504
_cell_length_b   6.97656465
_cell_length_c   9.56643332
_cell_angle_alpha   92.66616290
_cell_angle_beta   92.66616616
_cell_angle_gamma   119.37728721
_symmetry_Int_Tables_number   1
_chemical_formula_structural   TbErCl8
_chemical_formula_sum   'Tb1 Er1 Cl8'
_cell_volume   404.01969982
_cell_formula_units_Z   1
loop_
 _symmetry_equiv_pos_site_id
 _symmetry_equiv_pos_as_xyz
  1  'x, y, z'
loop_
 _atom_site_type_symbol
 _atom_site_label
 _atom_site_symmetry_multiplicity
 _atom_site_fract_x
 _atom_site_fract_y
 _atom_site_fract_z
 _atom_site_occupancy
  Tb  Tb0  1  0.831315  0.168685  0.000000  1
  Er  Er1  1  0.168633  0.831367  0.000000  1
  Cl  Cl2  1  0.905138  0.901133  0.158468  1
  Cl  Cl3  1  0.513414  0.136259  0.158381  1
  Cl  Cl4  1  0.140256  0.521348  0.158533  1
  Cl  Cl5  1  0.615628  0.615645  0.446788  1
  Cl  Cl6  1  0.384355  0.384372  0.553211  1
  Cl  Cl7  1  0.863741  0.486585  0.841619  1
  Cl  Cl8  1  0.478651  0.859744  0.841467  1
  Cl  Cl9  1  0.098867  0.094862  0.841533  1
