# generated using pymatgen
data_Ce3Al12Tc3Ag
_symmetry_space_group_name_H-M   'P 1'
_cell_length_a   8.99804120
_cell_length_b   8.94189132
_cell_length_c   9.65965900
_cell_angle_alpha   89.23656050
_cell_angle_beta   90.37932609
_cell_angle_gamma   119.79379229
_symmetry_Int_Tables_number   1
_chemical_formula_structural   Ce3Al12Tc3Ag
_chemical_formula_sum   'Ce6 Al24 Tc6 Ag2'
_cell_volume   674.41917013
_cell_formula_units_Z   2
loop_
 _symmetry_equiv_pos_site_id
 _symmetry_equiv_pos_as_xyz
  1  'x, y, z'
loop_
 _atom_site_type_symbol
 _atom_site_label
 _atom_site_symmetry_multiplicity
 _atom_site_fract_x
 _atom_site_fract_y
 _atom_site_fract_z
 _atom_site_occupancy
  Ce  Ce0  1  0.811114  0.611774  0.750400  1
  Ce  Ce1  1  0.188886  0.800659  0.250400  1
  Ce  Ce2  1  0.617711  0.808856  0.250000  1
  Ce  Ce3  1  0.382289  0.191144  0.750000  1
  Ce  Ce4  1  0.811114  0.199341  0.749600  1
  Ce  Ce5  1  0.188886  0.388226  0.249600  1
  Al  Al6  1  0.328614  0.657317  0.484598  1
  Al  Al7  1  0.671386  0.328702  0.984598  1
  Al  Al8  1  0.671386  0.342683  0.515402  1
  Al  Al9  1  0.328614  0.671298  0.015402  1
  Al  Al10  1  0.162255  0.323870  0.578453  1
  Al  Al11  1  0.681164  0.829521  0.579516  1
  Al  Al12  1  0.151370  0.829762  0.579480  1
  Al  Al13  1  0.837745  0.161615  0.078453  1
  Al  Al14  1  0.848630  0.170238  0.420520  1
  Al  Al15  1  0.848630  0.678393  0.079480  1
  Al  Al16  1  0.318836  0.148357  0.079516  1
  Al  Al17  1  0.681164  0.851643  0.920484  1
  Al  Al18  1  0.151370  0.321607  0.920520  1
  Al  Al19  1  0.837745  0.676130  0.421547  1
  Al  Al20  1  0.999409  0.999705  0.250000  1
  Al  Al21  1  0.000591  0.000295  0.750000  1
  Al  Al22  1  0.563582  0.127483  0.243037  1
  Al  Al23  1  0.436418  0.563900  0.743037  1
  Al  Al24  1  0.127692  0.563845  0.750000  1
  Al  Al25  1  0.872308  0.436155  0.250000  1
  Al  Al26  1  0.563582  0.436100  0.256963  1
  Al  Al27  1  0.436418  0.872517  0.756963  1
  Al  Al28  1  0.162255  0.838385  0.921547  1
  Al  Al29  1  0.318836  0.170479  0.420484  1
  Tc  Tc30  1  0.000000  0.000000  0.500000  1
  Tc  Tc31  1  0.000000  0.000000  0.000000  1
  Tc  Tc32  1  0.000000  0.500000  0.000000  1
  Tc  Tc33  1  0.000000  0.500000  0.500000  1
  Tc  Tc34  1  0.500000  0.500000  0.500000  1
  Tc  Tc35  1  0.500000  0.000000  0.000000  1
  Ag  Ag36  1  0.500000  0.000000  0.500000  1
  Ag  Ag37  1  0.500000  0.500000  0.000000  1
