# generated using pymatgen
data_Dy4MgMn2NiO12
_symmetry_space_group_name_H-M   'P 1'
_cell_length_a   5.27949058
_cell_length_b   5.59391245
_cell_length_c   7.59117498
_cell_angle_alpha   89.74960914
_cell_angle_beta   89.76372265
_cell_angle_gamma   89.98857391
_symmetry_Int_Tables_number   1
_chemical_formula_structural   Dy4MgMn2NiO12
_chemical_formula_sum   'Dy4 Mg1 Mn2 Ni1 O12'
_cell_volume   224.18618106
_cell_formula_units_Z   1
loop_
 _symmetry_equiv_pos_site_id
 _symmetry_equiv_pos_as_xyz
  1  'x, y, z'
loop_
 _atom_site_type_symbol
 _atom_site_label
 _atom_site_symmetry_multiplicity
 _atom_site_fract_x
 _atom_site_fract_y
 _atom_site_fract_z
 _atom_site_occupancy
  Dy  Dy0  1  0.479695  0.430940  0.749771  1
  Dy  Dy1  1  0.017095  0.929689  0.752438  1
  Dy  Dy2  1  0.520305  0.569060  0.250229  1
  Dy  Dy3  1  0.982905  0.070311  0.247562  1
  Mg  Mg4  1  0.500000  0.000000  0.500000  1
  Mn  Mn5  1  0.500000  0.000001  0.000000  1
  Mn  Mn6  1  0.000000  0.500001  0.500001  1
  Ni  Ni7  1  0.000000  0.500000  0.000000  1
  O  O8  1  0.201700  0.188074  0.947280  1
  O  O9  1  0.296435  0.687669  0.552902  1
  O  O10  1  0.798300  0.811926  0.052721  1
  O  O11  1  0.703565  0.312331  0.447098  1
  O  O12  1  0.183337  0.207423  0.558191  1
  O  O13  1  0.316410  0.707239  0.942110  1
  O  O14  1  0.816662  0.792577  0.441809  1
  O  O15  1  0.683590  0.292761  0.057890  1
  O  O16  1  0.109508  0.462589  0.257996  1
  O  O17  1  0.392903  0.962416  0.241262  1
  O  O18  1  0.890491  0.537411  0.742003  1
  O  O19  1  0.607097  0.037584  0.758738  1
