# generated using pymatgen
data_CdAu2(SeO4)4
_symmetry_space_group_name_H-M   'P 1'
_cell_length_a   6.72417224
_cell_length_b   6.72413786
_cell_length_c   9.04832333
_cell_angle_alpha   74.46133302
_cell_angle_beta   74.46080306
_cell_angle_gamma   89.48038468
_symmetry_Int_Tables_number   1
_chemical_formula_structural   CdAu2(SeO4)4
_chemical_formula_sum   'Cd1 Au2 Se4 O16'
_cell_volume   378.88526540
_cell_formula_units_Z   1
loop_
 _symmetry_equiv_pos_site_id
 _symmetry_equiv_pos_as_xyz
  1  'x, y, z'
loop_
 _atom_site_type_symbol
 _atom_site_label
 _atom_site_symmetry_multiplicity
 _atom_site_fract_x
 _atom_site_fract_y
 _atom_site_fract_z
 _atom_site_occupancy
  Cd  Cd0  1  0.000000  0.000000  0.000000  1
  Au  Au1  1  0.000000  0.000000  0.500000  1
  Au  Au2  1  0.500000  0.500000  0.500000  1
  Se  Se3  1  0.081657  0.582801  0.745682  1
  Se  Se4  1  0.582799  0.081660  0.745682  1
  Se  Se5  1  0.918343  0.417199  0.254318  1
  Se  Se6  1  0.417201  0.918340  0.254318  1
  O  O7  1  0.348312  0.634859  0.670750  1
  O  O8  1  0.634856  0.348315  0.670749  1
  O  O9  1  0.651688  0.365141  0.329250  1
  O  O10  1  0.365144  0.651685  0.329251  1
  O  O11  1  0.005977  0.703834  0.884051  1
  O  O12  1  0.703831  0.005984  0.884049  1
  O  O13  1  0.994023  0.296166  0.115949  1
  O  O14  1  0.296169  0.994016  0.115951  1
  O  O15  1  0.978096  0.687057  0.586121  1
  O  O16  1  0.687058  0.978095  0.586122  1
  O  O17  1  0.021904  0.312943  0.413879  1
  O  O18  1  0.312942  0.021905  0.413878  1
  O  O19  1  0.020908  0.333472  0.790431  1
  O  O20  1  0.333472  0.020909  0.790434  1
  O  O21  1  0.979092  0.666528  0.209569  1
  O  O22  1  0.666528  0.979091  0.209566  1
