# generated using pymatgen
data_Hf3Ga3IrAu2
_symmetry_space_group_name_H-M   'P 1'
_cell_length_a   7.26579600
_cell_length_b   7.26579521
_cell_length_c   7.12631600
_cell_angle_alpha   90.00000000
_cell_angle_beta   90.00000000
_cell_angle_gamma   120.00000361
_symmetry_Int_Tables_number   1
_chemical_formula_structural   Hf3Ga3IrAu2
_chemical_formula_sum   'Hf6 Ga6 Ir2 Au4'
_cell_volume   325.80822589
_cell_formula_units_Z   2
loop_
 _symmetry_equiv_pos_site_id
 _symmetry_equiv_pos_as_xyz
  1  'x, y, z'
loop_
 _atom_site_type_symbol
 _atom_site_label
 _atom_site_symmetry_multiplicity
 _atom_site_fract_x
 _atom_site_fract_y
 _atom_site_fract_z
 _atom_site_occupancy
  Hf  Hf0  1  0.427774  0.376997  0.250000  1
  Hf  Hf1  1  0.602418  0.991979  0.750000  1
  Hf  Hf2  1  0.389561  0.397582  0.750000  1
  Hf  Hf3  1  0.008021  0.610439  0.750000  1
  Hf  Hf4  1  0.949222  0.572226  0.250000  1
  Hf  Hf5  1  0.623003  0.050778  0.250000  1
  Ga  Ga6  1  0.275437  0.000278  0.998463  1
  Ga  Ga7  1  0.275437  0.000278  0.501537  1
  Ga  Ga8  1  0.999722  0.275157  0.501537  1
  Ga  Ga9  1  0.999722  0.275157  0.998463  1
  Ga  Ga10  1  0.724843  0.724563  0.998463  1
  Ga  Ga11  1  0.724843  0.724563  0.501537  1
  Ir  Ir12  1  0.666667  0.333333  0.538232  1
  Ir  Ir13  1  0.666667  0.333333  0.961768  1
  Au  Au14  1  0.000000  0.000000  0.750000  1
  Au  Au15  1  0.333333  0.666667  0.037915  1
  Au  Au16  1  0.333333  0.666667  0.462085  1
  Au  Au17  1  0.000000  0.000000  0.250000  1
