# generated using pymatgen
data_Er7Co4Tc2Sn22Hg
_symmetry_space_group_name_H-M   'P 1'
_cell_length_a   9.69459474
_cell_length_b   9.69459560
_cell_length_c   10.03759100
_cell_angle_alpha   89.98113843
_cell_angle_beta   90.01886210
_cell_angle_gamma   119.56244071
_symmetry_Int_Tables_number   1
_chemical_formula_structural   Er7Co4Tc2Sn22Hg
_chemical_formula_sum   'Er7 Co4 Tc2 Sn22 Hg1'
_cell_volume   820.57348625
_cell_formula_units_Z   1
loop_
 _symmetry_equiv_pos_site_id
 _symmetry_equiv_pos_as_xyz
  1  'x, y, z'
loop_
 _atom_site_type_symbol
 _atom_site_label
 _atom_site_symmetry_multiplicity
 _atom_site_fract_x
 _atom_site_fract_y
 _atom_site_fract_z
 _atom_site_occupancy
  Er  Er0  1  0.481969  0.518031  0.310193  1
  Er  Er1  1  0.518031  0.481969  0.689807  1
  Er  Er2  1  0.484586  0.961380  0.306320  1
  Er  Er3  1  0.515414  0.038620  0.693680  1
  Er  Er4  1  0.038620  0.515414  0.306320  1
  Er  Er5  1  0.961380  0.484586  0.693680  1
  Er  Er6  1  0.000000  0.000000  0.000000  1
  Co  Co7  1  0.829378  0.658600  0.200157  1
  Co  Co8  1  0.170622  0.341400  0.799843  1
  Co  Co9  1  0.341400  0.170622  0.200157  1
  Co  Co10  1  0.658600  0.829378  0.799843  1
  Tc  Tc11  1  0.836067  0.163933  0.201046  1
  Tc  Tc12  1  0.163933  0.836067  0.798954  1
  Sn  Sn13  1  0.117461  0.882539  0.273979  1
  Sn  Sn14  1  0.882539  0.117461  0.726021  1
  Sn  Sn15  1  0.130565  0.242880  0.264633  1
  Sn  Sn16  1  0.869435  0.757120  0.735367  1
  Sn  Sn17  1  0.757120  0.869435  0.264633  1
  Sn  Sn18  1  0.242880  0.130565  0.735367  1
  Sn  Sn19  1  0.782980  0.217020  0.460093  1
  Sn  Sn20  1  0.217020  0.782980  0.539907  1
  Sn  Sn21  1  0.782130  0.561312  0.454056  1
  Sn  Sn22  1  0.217870  0.438688  0.545944  1
  Sn  Sn23  1  0.438688  0.217870  0.454056  1
  Sn  Sn24  1  0.561312  0.782130  0.545944  1
  Sn  Sn25  1  0.347150  0.000042  0.006735  1
  Sn  Sn26  1  0.652850  0.999958  0.993265  1
  Sn  Sn27  1  0.000042  0.347150  0.993265  1
  Sn  Sn28  1  0.999958  0.652850  0.006735  1
  Sn  Sn29  1  0.651225  0.651225  0.000000  1
  Sn  Sn30  1  0.348775  0.348775  0.000000  1
  Sn  Sn31  1  0.333976  0.666024  0.123851  1
  Sn  Sn32  1  0.666024  0.333976  0.876149  1
  Sn  Sn33  1  0.332252  0.667748  0.818445  1
  Sn  Sn34  1  0.667748  0.332252  0.181555  1
  Hg  Hg35  1  0.000000  0.000000  0.500000  1
