# generated using pymatgen
data_Sm2LuV(Co4P3)2
_symmetry_space_group_name_H-M   'P 1'
_cell_length_a   3.70186400
_cell_length_b   10.58998500
_cell_length_c   12.27659800
_cell_angle_alpha   90.00000000
_cell_angle_beta   90.00000000
_cell_angle_gamma   90.00000000
_symmetry_Int_Tables_number   1
_chemical_formula_structural   Sm2LuV(Co4P3)2
_chemical_formula_sum   'Sm4 Lu2 V2 Co16 P12'
_cell_volume   481.27559484
_cell_formula_units_Z   2
loop_
 _symmetry_equiv_pos_site_id
 _symmetry_equiv_pos_as_xyz
  1  'x, y, z'
loop_
 _atom_site_type_symbol
 _atom_site_label
 _atom_site_symmetry_multiplicity
 _atom_site_fract_x
 _atom_site_fract_y
 _atom_site_fract_z
 _atom_site_occupancy
  Sm  Sm0  1  0.000000  0.500000  0.522212  1
  Sm  Sm1  1  0.500000  0.000000  0.475994  1
  Sm  Sm2  1  0.000000  0.681674  0.795829  1
  Sm  Sm3  1  0.000000  0.318326  0.795829  1
  Lu  Lu4  1  0.500000  0.819325  0.203615  1
  Lu  Lu5  1  0.500000  0.180675  0.203615  1
  V  V6  1  0.500000  0.500000  0.153377  1
  V  V7  1  0.000000  0.000000  0.847818  1
  Co  Co8  1  0.500000  0.500000  0.702895  1
  Co  Co9  1  0.000000  0.000000  0.295080  1
  Co  Co10  1  0.000000  0.500000  0.990015  1
  Co  Co11  1  0.500000  0.000000  0.016288  1
  Co  Co12  1  0.500000  0.331097  0.996379  1
  Co  Co13  1  0.500000  0.668903  0.996379  1
  Co  Co14  1  0.000000  0.166721  0.009748  1
  Co  Co15  1  0.000000  0.833279  0.009748  1
  Co  Co16  1  0.500000  0.294735  0.427702  1
  Co  Co17  1  0.500000  0.705265  0.427702  1
  Co  Co18  1  0.000000  0.203477  0.566513  1
  Co  Co19  1  0.000000  0.796523  0.566513  1
  Co  Co20  1  0.500000  0.879990  0.708142  1
  Co  Co21  1  0.500000  0.120010  0.708142  1
  Co  Co22  1  0.000000  0.621622  0.289817  1
  Co  Co23  1  0.000000  0.378378  0.289817  1
  P  P24  1  0.500000  0.500000  0.886416  1
  P  P25  1  0.000000  0.000000  0.119768  1
  P  P26  1  0.500000  0.500000  0.344147  1
  P  P27  1  0.000000  0.000000  0.654926  1
  P  P28  1  0.500000  0.308225  0.613422  1
  P  P29  1  0.500000  0.691775  0.613422  1
  P  P30  1  0.000000  0.189345  0.380532  1
  P  P31  1  0.000000  0.810655  0.380532  1
  P  P32  1  0.500000  0.847527  0.894570  1
  P  P33  1  0.500000  0.152473  0.894570  1
  P  P34  1  0.000000  0.655535  0.109263  1
  P  P35  1  0.000000  0.344465  0.109263  1
