# generated using pymatgen
data_LaPrLu6(WO6)4
_symmetry_space_group_name_H-M   'P 1'
_cell_length_a   5.39329200
_cell_length_b   7.70250836
_cell_length_c   11.44293589
_cell_angle_alpha   75.43654234
_cell_angle_beta   90.00000000
_cell_angle_gamma   90.00000000
_symmetry_Int_Tables_number   1
_chemical_formula_structural   LaPrLu6(WO6)4
_chemical_formula_sum   'La1 Pr1 Lu6 W4 O24'
_cell_volume   460.08755846
_cell_formula_units_Z   1
loop_
 _symmetry_equiv_pos_site_id
 _symmetry_equiv_pos_as_xyz
  1  'x, y, z'
loop_
 _atom_site_type_symbol
 _atom_site_label
 _atom_site_symmetry_multiplicity
 _atom_site_fract_x
 _atom_site_fract_y
 _atom_site_fract_z
 _atom_site_occupancy
  La  La0  1  0.312316  0.500000  0.750000  1
  Pr  Pr1  1  0.686922  0.500000  0.250000  1
  Lu  Lu2  1  0.255682  0.000000  0.750000  1
  Lu  Lu3  1  0.184961  0.798452  0.077512  1
  Lu  Lu4  1  0.184961  0.201548  0.422488  1
  Lu  Lu5  1  0.744287  0.000000  0.250000  1
  Lu  Lu6  1  0.814891  0.200912  0.922936  1
  Lu  Lu7  1  0.814891  0.799088  0.577064  1
  W  W8  1  0.745798  0.730648  0.884163  1
  W  W9  1  0.254324  0.730368  0.383615  1
  W  W10  1  0.745798  0.269352  0.615837  1
  W  W11  1  0.254324  0.269632  0.116385  1
  O  O12  1  0.541937  0.155850  0.069378  1
  O  O13  1  0.041200  0.054888  0.104285  1
  O  O14  1  0.013470  0.726408  0.766892  1
  O  O15  1  0.457608  0.155940  0.569295  1
  O  O16  1  0.343339  0.492142  0.387439  1
  O  O17  1  0.959166  0.055172  0.603802  1
  O  O18  1  0.544849  0.801497  0.724494  1
  O  O19  1  0.456276  0.800724  0.224232  1
  O  O20  1  0.138959  0.644327  0.545071  1
  O  O21  1  0.041200  0.945112  0.395715  1
  O  O22  1  0.457608  0.844060  0.930705  1
  O  O23  1  0.456276  0.199276  0.275768  1
  O  O24  1  0.859462  0.355772  0.453709  1
  O  O25  1  0.658486  0.492301  0.887868  1
  O  O26  1  0.343339  0.507858  0.112561  1
  O  O27  1  0.959166  0.944828  0.896198  1
  O  O28  1  0.541937  0.844150  0.430622  1
  O  O29  1  0.985670  0.274997  0.232913  1
  O  O30  1  0.544849  0.198503  0.775506  1
  O  O31  1  0.859462  0.644228  0.046291  1
  O  O32  1  0.013470  0.273592  0.733108  1
  O  O33  1  0.138959  0.355673  0.954929  1
  O  O34  1  0.985670  0.725003  0.267087  1
  O  O35  1  0.658486  0.507699  0.612132  1
