# generated using pymatgen
data_Tm4Cd3Co2
_symmetry_space_group_name_H-M   'P 1'
_cell_length_a   3.66617100
_cell_length_b   7.30570327
_cell_length_c   7.88970424
_cell_angle_alpha   71.22079789
_cell_angle_beta   90.00000000
_cell_angle_gamma   90.00000000
_symmetry_Int_Tables_number   1
_chemical_formula_structural   Tm4Cd3Co2
_chemical_formula_sum   'Tm4 Cd3 Co2'
_cell_volume   200.06826424
_cell_formula_units_Z   1
loop_
 _symmetry_equiv_pos_site_id
 _symmetry_equiv_pos_as_xyz
  1  'x, y, z'
loop_
 _atom_site_type_symbol
 _atom_site_label
 _atom_site_symmetry_multiplicity
 _atom_site_fract_x
 _atom_site_fract_y
 _atom_site_fract_z
 _atom_site_occupancy
  Tm  Tm0  1  0.500000  0.602213  0.186607  1
  Tm  Tm1  1  0.500000  0.095582  0.274806  1
  Tm  Tm2  1  0.500000  0.397787  0.813393  1
  Tm  Tm3  1  0.500000  0.904418  0.725194  1
  Cd  Cd4  1  0.000000  0.706672  0.503091  1
  Cd  Cd5  1  0.000000  0.000000  0.000000  1
  Cd  Cd6  1  0.000000  0.293328  0.496909  1
  Co  Co7  1  0.000000  0.650434  0.896434  1
  Co  Co8  1  0.000000  0.349566  0.103566  1
