# generated using pymatgen
data_Y13Tm7Bi12
_symmetry_space_group_name_H-M   'P 1'
_cell_length_a   8.22342319
_cell_length_b   9.48883414
_cell_length_c   12.05857189
_cell_angle_alpha   89.98075885
_cell_angle_beta   90.06144948
_cell_angle_gamma   89.99719318
_symmetry_Int_Tables_number   1
_chemical_formula_structural   Y13Tm7Bi12
_chemical_formula_sum   'Y13 Tm7 Bi12'
_cell_volume   940.93819485
_cell_formula_units_Z   1
loop_
 _symmetry_equiv_pos_site_id
 _symmetry_equiv_pos_as_xyz
  1  'x, y, z'
loop_
 _atom_site_type_symbol
 _atom_site_label
 _atom_site_symmetry_multiplicity
 _atom_site_fract_x
 _atom_site_fract_y
 _atom_site_fract_z
 _atom_site_occupancy
  Y  Y0  1  0.186043  0.750240  0.719009  1
  Y  Y1  1  0.686303  0.750861  0.781717  1
  Y  Y2  1  0.813988  0.249501  0.281356  1
  Y  Y3  1  0.313907  0.250521  0.218459  1
  Y  Y4  1  0.191453  0.563748  0.440716  1
  Y  Y5  1  0.692516  0.561826  0.059184  1
  Y  Y6  1  0.192744  0.937345  0.440313  1
  Y  Y7  1  0.307412  0.061833  0.940797  1
  Y  Y8  1  0.807636  0.438002  0.559500  1
  Y  Y9  1  0.356199  0.751803  0.215561  1
  Y  Y10  1  0.853714  0.751002  0.283622  1
  Y  Y11  1  0.645205  0.250623  0.784005  1
  Y  Y12  1  0.145912  0.250528  0.716255  1
  Tm  Tm13  1  0.024647  0.750543  0.988633  1
  Tm  Tm14  1  0.525501  0.750444  0.511379  1
  Tm  Tm15  1  0.975343  0.250580  0.011146  1
  Tm  Tm16  1  0.475649  0.249844  0.488502  1
  Tm  Tm17  1  0.308178  0.431656  0.940879  1
  Tm  Tm18  1  0.806986  0.067752  0.559854  1
  Tm  Tm19  1  0.691923  0.931980  0.058742  1
  Bi  Bi20  1  0.434475  0.003988  0.671827  1
  Bi  Bi21  1  0.934074  0.496419  0.828522  1
  Bi  Bi22  1  0.566336  0.504125  0.327984  1
  Bi  Bi23  1  0.065570  0.996519  0.171499  1
  Bi  Bi24  1  0.566979  0.996392  0.328344  1
  Bi  Bi25  1  0.066576  0.504825  0.171171  1
  Bi  Bi26  1  0.433127  0.496210  0.671748  1
  Bi  Bi27  1  0.933020  0.004830  0.828721  1
  Bi  Bi28  1  0.405375  0.746023  0.957163  1
  Bi  Bi29  1  0.905949  0.754129  0.542489  1
  Bi  Bi30  1  0.594596  0.246255  0.042468  1
  Bi  Bi31  1  0.092663  0.249652  0.458432  1
