# generated using pymatgen
data_Cd22NiPt2
_symmetry_space_group_name_H-M   'P 1'
_cell_length_a   8.70070588
_cell_length_b   8.70070548
_cell_length_c   8.67154886
_cell_angle_alpha   71.59110501
_cell_angle_beta   71.59110725
_cell_angle_gamma   58.50186665
_symmetry_Int_Tables_number   1
_chemical_formula_structural   Cd22NiPt2
_chemical_formula_sum   'Cd22 Ni1 Pt2'
_cell_volume   521.78089985
_cell_formula_units_Z   1
loop_
 _symmetry_equiv_pos_site_id
 _symmetry_equiv_pos_as_xyz
  1  'x, y, z'
loop_
 _atom_site_type_symbol
 _atom_site_label
 _atom_site_symmetry_multiplicity
 _atom_site_fract_x
 _atom_site_fract_y
 _atom_site_fract_z
 _atom_site_occupancy
  Cd  Cd0  1  0.344506  0.741103  0.310984  1
  Cd  Cd1  1  0.655494  0.258897  0.689016  1
  Cd  Cd2  1  0.258897  0.655494  0.689016  1
  Cd  Cd3  1  0.741103  0.344506  0.310984  1
  Cd  Cd4  1  0.678181  0.321819  0.000000  1
  Cd  Cd5  1  0.321819  0.678181  0.000000  1
  Cd  Cd6  1  0.834036  0.834036  0.778219  1
  Cd  Cd7  1  0.165964  0.165964  0.221781  1
  Cd  Cd8  1  0.978229  0.978229  0.177363  1
  Cd  Cd9  1  0.021771  0.021771  0.822637  1
  Cd  Cd10  1  0.351013  0.351013  0.274071  1
  Cd  Cd11  1  0.648987  0.648987  0.725929  1
  Cd  Cd12  1  0.687040  0.687040  0.376353  1
  Cd  Cd13  1  0.312960  0.312960  0.623647  1
  Cd  Cd14  1  0.665084  0.024994  0.463557  1
  Cd  Cd15  1  0.334916  0.975006  0.536443  1
  Cd  Cd16  1  0.975006  0.334916  0.536443  1
  Cd  Cd17  1  0.024994  0.665084  0.463557  1
  Cd  Cd18  1  0.616038  0.999361  0.098358  1
  Cd  Cd19  1  0.383962  0.000639  0.901642  1
  Cd  Cd20  1  0.000639  0.383962  0.901642  1
  Cd  Cd21  1  0.999361  0.616038  0.098358  1
  Ni  Ni22  1  0.000000  0.000000  0.500000  1
  Pt  Pt23  1  0.658797  0.658797  0.052228  1
  Pt  Pt24  1  0.341203  0.341203  0.947772  1
