# generated using pymatgen
data_Sm8GaPdPt23
_symmetry_space_group_name_H-M   'P 1'
_cell_length_a   8.44492900
_cell_length_b   8.44492900
_cell_length_c   8.46347500
_cell_angle_alpha   90.00000000
_cell_angle_beta   90.00000000
_cell_angle_gamma   90.00000000
_symmetry_Int_Tables_number   1
_chemical_formula_structural   Sm8GaPdPt23
_chemical_formula_sum   'Sm8 Ga1 Pd1 Pt23'
_cell_volume   603.58817236
_cell_formula_units_Z   1
loop_
 _symmetry_equiv_pos_site_id
 _symmetry_equiv_pos_as_xyz
  1  'x, y, z'
loop_
 _atom_site_type_symbol
 _atom_site_label
 _atom_site_symmetry_multiplicity
 _atom_site_fract_x
 _atom_site_fract_y
 _atom_site_fract_z
 _atom_site_occupancy
  Sm  Sm0  1  0.250825  0.250825  0.251064  1
  Sm  Sm1  1  0.748672  0.748672  0.748552  1
  Sm  Sm2  1  0.749175  0.749175  0.251064  1
  Sm  Sm3  1  0.748672  0.251328  0.748552  1
  Sm  Sm4  1  0.251328  0.251328  0.748552  1
  Sm  Sm5  1  0.250825  0.749175  0.251064  1
  Sm  Sm6  1  0.251328  0.748672  0.748552  1
  Sm  Sm7  1  0.749175  0.250825  0.251064  1
  Ga  Ga8  1  0.000000  0.000000  0.002686  1
  Pd  Pd9  1  0.000000  0.000000  0.705660  1
  Pt  Pt10  1  0.261998  0.500000  0.999976  1
  Pt  Pt11  1  0.738002  0.500000  0.999976  1
  Pt  Pt12  1  0.000000  0.261739  0.500091  1
  Pt  Pt13  1  0.500000  0.261998  0.999976  1
  Pt  Pt14  1  0.000000  0.738261  0.500091  1
  Pt  Pt15  1  0.500000  0.738002  0.999976  1
  Pt  Pt16  1  0.500000  0.000000  0.261382  1
  Pt  Pt17  1  0.261739  0.000000  0.500091  1
  Pt  Pt18  1  0.500000  0.000000  0.737346  1
  Pt  Pt19  1  0.738261  0.000000  0.500091  1
  Pt  Pt20  1  0.000000  0.500000  0.261382  1
  Pt  Pt21  1  0.000000  0.500000  0.737346  1
  Pt  Pt22  1  0.253674  0.500000  0.499874  1
  Pt  Pt23  1  0.746326  0.500000  0.499874  1
  Pt  Pt24  1  0.500000  0.253674  0.499874  1
  Pt  Pt25  1  0.500000  0.746326  0.499874  1
  Pt  Pt26  1  0.500000  0.500000  0.254102  1
  Pt  Pt27  1  0.500000  0.500000  0.746163  1
  Pt  Pt28  1  0.295966  0.000000  0.999161  1
  Pt  Pt29  1  0.704034  0.000000  0.999161  1
  Pt  Pt30  1  0.000000  0.295966  0.999161  1
  Pt  Pt31  1  0.000000  0.704034  0.999161  1
  Pt  Pt32  1  0.000000  0.000000  0.299062  1
