# generated using pymatgen
data_Tb2Dy18Ir7Ru5
_symmetry_space_group_name_H-M   'P 1'
_cell_length_a   10.85913992
_cell_length_b   10.85860682
_cell_length_c   6.40612306
_cell_angle_alpha   89.96115914
_cell_angle_beta   89.98385072
_cell_angle_gamma   90.01421799
_symmetry_Int_Tables_number   1
_chemical_formula_structural   Tb2Dy18Ir7Ru5
_chemical_formula_sum   'Tb2 Dy18 Ir7 Ru5'
_cell_volume   755.37861203
_cell_formula_units_Z   1
loop_
 _symmetry_equiv_pos_site_id
 _symmetry_equiv_pos_as_xyz
  1  'x, y, z'
loop_
 _atom_site_type_symbol
 _atom_site_label
 _atom_site_symmetry_multiplicity
 _atom_site_fract_x
 _atom_site_fract_y
 _atom_site_fract_z
 _atom_site_occupancy
  Tb  Tb0  1  0.293249  0.086730  0.378916  1
  Tb  Tb1  1  0.292618  0.913133  0.879020  1
  Dy  Dy2  1  0.707430  0.087044  0.879541  1
  Dy  Dy3  1  0.707069  0.913607  0.378321  1
  Dy  Dy4  1  0.586887  0.793466  0.879198  1
  Dy  Dy5  1  0.587768  0.206767  0.379435  1
  Dy  Dy6  1  0.413346  0.793169  0.379239  1
  Dy  Dy7  1  0.413247  0.206616  0.878541  1
  Dy  Dy8  1  0.206428  0.413326  0.620856  1
  Dy  Dy9  1  0.206563  0.586729  0.120826  1
  Dy  Dy10  1  0.793328  0.412390  0.120636  1
  Dy  Dy11  1  0.793631  0.586889  0.621485  1
  Dy  Dy12  1  0.913370  0.706556  0.120889  1
  Dy  Dy13  1  0.912941  0.292625  0.620405  1
  Dy  Dy14  1  0.086654  0.707120  0.620705  1
  Dy  Dy15  1  0.086308  0.293054  0.121604  1
  Dy  Dy16  1  0.999356  0.001032  0.499415  1
  Dy  Dy17  1  0.998765  0.000546  0.000585  1
  Dy  Dy18  1  0.500158  0.500059  0.000171  1
  Dy  Dy19  1  0.499914  0.499872  0.499840  1
  Ir  Ir20  1  0.846857  0.846559  0.749744  1
  Ir  Ir21  1  0.153194  0.153411  0.750594  1
  Ir  Ir22  1  0.152849  0.846623  0.250356  1
  Ir  Ir23  1  0.652030  0.347941  0.750003  1
  Ir  Ir24  1  0.653035  0.652747  0.249778  1
  Ir  Ir25  1  0.347319  0.347213  0.250100  1
  Ir  Ir26  1  0.347438  0.652374  0.749865  1
  Ru  Ru27  1  0.847789  0.152197  0.249994  1
  Ru  Ru28  1  0.500488  0.000185  0.123612  1
  Ru  Ru29  1  0.500144  0.000045  0.623656  1
  Ru  Ru30  1  0.999969  0.500139  0.876314  1
  Ru  Ru31  1  0.999854  0.499839  0.376357  1
