# generated using pymatgen
data_YHoMnAl3
_symmetry_space_group_name_H-M   'P 1'
_cell_length_a   5.57465002
_cell_length_b   5.57464915
_cell_length_c   5.45628027
_cell_angle_alpha   59.27972756
_cell_angle_beta   59.27973222
_cell_angle_gamma   60.00000958
_symmetry_Int_Tables_number   1
_chemical_formula_structural   YHoMnAl3
_chemical_formula_sum   'Y1 Ho1 Mn1 Al3'
_cell_volume   118.57740272
_cell_formula_units_Z   1
loop_
 _symmetry_equiv_pos_site_id
 _symmetry_equiv_pos_as_xyz
  1  'x, y, z'
loop_
 _atom_site_type_symbol
 _atom_site_label
 _atom_site_symmetry_multiplicity
 _atom_site_fract_x
 _atom_site_fract_y
 _atom_site_fract_z
 _atom_site_occupancy
  Y  Y0  1  0.998896  0.998896  0.003313  1
  Ho  Ho1  1  0.251252  0.251252  0.246245  1
  Mn  Mn2  1  0.624849  0.624849  0.125453  1
  Al  Al3  1  0.624967  0.125071  0.624997  1
  Al  Al4  1  0.125071  0.624967  0.624997  1
  Al  Al5  1  0.624967  0.624967  0.624997  1
