# generated using pymatgen
data_Pr10Sn5BiS2
_symmetry_space_group_name_H-M   'P 1'
_cell_length_a   9.50952088
_cell_length_b   9.50952117
_cell_length_c   6.92293400
_cell_angle_alpha   90.00000000
_cell_angle_beta   90.00000000
_cell_angle_gamma   120.16516425
_symmetry_Int_Tables_number   1
_chemical_formula_structural   Pr10Sn5BiS2
_chemical_formula_sum   'Pr10 Sn5 Bi1 S2'
_cell_volume   541.26868495
_cell_formula_units_Z   1
loop_
 _symmetry_equiv_pos_site_id
 _symmetry_equiv_pos_as_xyz
  1  'x, y, z'
loop_
 _atom_site_type_symbol
 _atom_site_label
 _atom_site_symmetry_multiplicity
 _atom_site_fract_x
 _atom_site_fract_y
 _atom_site_fract_z
 _atom_site_occupancy
  Pr  Pr0  1  0.669009  0.332577  0.001381  1
  Pr  Pr1  1  0.332577  0.669009  0.001381  1
  Pr  Pr2  1  0.332577  0.669009  0.498619  1
  Pr  Pr3  1  0.669009  0.332577  0.498619  1
  Pr  Pr4  1  0.757276  0.757276  0.750000  1
  Pr  Pr5  1  0.243546  0.996073  0.750000  1
  Pr  Pr6  1  0.996073  0.243546  0.750000  1
  Pr  Pr7  1  0.244004  0.244004  0.250000  1
  Pr  Pr8  1  0.754611  0.999575  0.250000  1
  Pr  Pr9  1  0.999575  0.754611  0.250000  1
  Sn  Sn10  1  0.603227  0.000070  0.750000  1
  Sn  Sn11  1  0.000070  0.603227  0.750000  1
  Sn  Sn12  1  0.603581  0.603581  0.250000  1
  Sn  Sn13  1  0.396831  0.000293  0.250000  1
  Sn  Sn14  1  0.000293  0.396831  0.250000  1
  Bi  Bi15  1  0.396205  0.396205  0.750000  1
  S  S16  1  0.000770  0.000770  0.999733  1
  S  S17  1  0.000770  0.000770  0.500267  1
