# generated using pymatgen
data_Er10In8Ir3Rh
_symmetry_space_group_name_H-M   'P 1'
_cell_length_a   3.61321100
_cell_length_b   7.98305200
_cell_length_c   18.19749700
_cell_angle_alpha   90.07155966
_cell_angle_beta   90.00000000
_cell_angle_gamma   90.00000000
_symmetry_Int_Tables_number   1
_chemical_formula_structural   Er10In8Ir3Rh
_chemical_formula_sum   'Er10 In8 Ir3 Rh1'
_cell_volume   524.89640647
_cell_formula_units_Z   1
loop_
 _symmetry_equiv_pos_site_id
 _symmetry_equiv_pos_as_xyz
  1  'x, y, z'
loop_
 _atom_site_type_symbol
 _atom_site_label
 _atom_site_symmetry_multiplicity
 _atom_site_fract_x
 _atom_site_fract_y
 _atom_site_fract_z
 _atom_site_occupancy
  Er  Er0  1  0.000000  0.115123  0.411023  1
  Er  Er1  1  0.000000  0.883840  0.588771  1
  Er  Er2  1  0.000000  0.385159  0.911352  1
  Er  Er3  1  0.000000  0.615810  0.089355  1
  Er  Er4  1  0.000000  0.246763  0.221712  1
  Er  Er5  1  0.000000  0.755104  0.777599  1
  Er  Er6  1  0.000000  0.255125  0.722094  1
  Er  Er7  1  0.000000  0.742930  0.277575  1
  Er  Er8  1  0.000000  0.000312  0.000106  1
  Er  Er9  1  0.000000  0.499787  0.499690  1
  In  In10  1  0.500000  0.426879  0.350940  1
  In  In11  1  0.500000  0.571428  0.648729  1
  In  In12  1  0.500000  0.072530  0.851101  1
  In  In13  1  0.500000  0.929180  0.149533  1
  In  In14  1  0.500000  0.292999  0.067982  1
  In  In15  1  0.500000  0.707799  0.932651  1
  In  In16  1  0.500000  0.206421  0.566779  1
  In  In17  1  0.500000  0.792568  0.431913  1
  Ir  Ir18  1  0.500000  0.979110  0.695564  1
  Ir  Ir19  1  0.500000  0.478773  0.804284  1
  Ir  Ir20  1  0.500000  0.520505  0.196320  1
  Rh  Rh21  1  0.500000  0.021856  0.304925  1
