# generated using pymatgen
data_Na2Hf(Zr2Se5)2
_symmetry_space_group_name_H-M   'P 1'
_cell_length_a   6.53177088
_cell_length_b   10.63370411
_cell_length_c   8.35547241
_cell_angle_alpha   62.28429857
_cell_angle_beta   66.86621187
_cell_angle_gamma   89.94186205
_symmetry_Int_Tables_number   1
_chemical_formula_structural   Na2Hf(Zr2Se5)2
_chemical_formula_sum   'Na2 Hf1 Zr4 Se10'
_cell_volume   460.52946753
_cell_formula_units_Z   1
loop_
 _symmetry_equiv_pos_site_id
 _symmetry_equiv_pos_as_xyz
  1  'x, y, z'
loop_
 _atom_site_type_symbol
 _atom_site_label
 _atom_site_symmetry_multiplicity
 _atom_site_fract_x
 _atom_site_fract_y
 _atom_site_fract_z
 _atom_site_occupancy
  Na  Na0  1  0.793200  0.087554  0.412489  1
  Na  Na1  1  0.006800  0.512446  0.987511  1
  Hf  Hf2  1  0.400000  0.800000  0.200000  1
  Zr  Zr3  1  0.800295  0.599975  0.401759  1
  Zr  Zr4  1  0.197167  0.399535  0.598047  1
  Zr  Zr5  1  0.602833  0.200465  0.801953  1
  Zr  Zr6  1  0.999705  0.000025  0.998241  1
  Se  Se7  1  0.983848  0.841949  0.374228  1
  Se  Se8  1  0.574150  0.040323  0.177514  1
  Se  Se9  1  0.177830  0.244678  0.975307  1
  Se  Se10  1  0.775490  0.443741  0.776415  1
  Se  Se11  1  0.381008  0.646447  0.568709  1
  Se  Se12  1  0.418992  0.953553  0.831291  1
  Se  Se13  1  0.024510  0.156259  0.623585  1
  Se  Se14  1  0.622170  0.355322  0.424693  1
  Se  Se15  1  0.225850  0.559677  0.222486  1
  Se  Se16  1  0.816152  0.758051  0.025772  1
