# generated using pymatgen
data_Y10AsPb6Se
_symmetry_space_group_name_H-M   'P 1'
_cell_length_a   9.14233500
_cell_length_b   9.14233630
_cell_length_c   6.80620400
_cell_angle_alpha   90.00000000
_cell_angle_beta   90.00000000
_cell_angle_gamma   120.00000614
_symmetry_Int_Tables_number   1
_chemical_formula_structural   Y10AsPb6Se
_chemical_formula_sum   'Y10 As1 Pb6 Se1'
_cell_volume   492.66293599
_cell_formula_units_Z   1
loop_
 _symmetry_equiv_pos_site_id
 _symmetry_equiv_pos_as_xyz
  1  'x, y, z'
loop_
 _atom_site_type_symbol
 _atom_site_label
 _atom_site_symmetry_multiplicity
 _atom_site_fract_x
 _atom_site_fract_y
 _atom_site_fract_z
 _atom_site_occupancy
  Y  Y0  1  0.753370  0.753370  0.753227  1
  Y  Y1  1  0.246630  0.000000  0.753227  1
  Y  Y2  1  0.000000  0.246630  0.753227  1
  Y  Y3  1  0.246630  0.246630  0.246773  1
  Y  Y4  1  0.753370  0.000000  0.246773  1
  Y  Y5  1  0.000000  0.753370  0.246773  1
  Y  Y6  1  0.666667  0.333333  0.000000  1
  Y  Y7  1  0.333333  0.666667  0.000000  1
  Y  Y8  1  0.333333  0.666667  0.500000  1
  Y  Y9  1  0.666667  0.333333  0.500000  1
  As  As10  1  0.000000  0.000000  0.000000  1
  Pb  Pb11  1  0.398542  0.398542  0.749443  1
  Pb  Pb12  1  0.601458  0.000000  0.749443  1
  Pb  Pb13  1  0.000000  0.601458  0.749443  1
  Pb  Pb14  1  0.601458  0.601458  0.250557  1
  Pb  Pb15  1  0.398542  0.000000  0.250557  1
  Pb  Pb16  1  0.000000  0.398542  0.250557  1
  Se  Se17  1  0.000000  0.000000  0.500000  1
