# generated using pymatgen
data_PaH6Ir
_symmetry_space_group_name_H-M   'P 1'
_cell_length_a   4.74340708
_cell_length_b   4.74340839
_cell_length_c   4.74783358
_cell_angle_alpha   55.90057608
_cell_angle_beta   55.90057962
_cell_angle_gamma   55.86345647
_symmetry_Int_Tables_number   1
_chemical_formula_structural   PaH6Ir
_chemical_formula_sum   'Pa1 H6 Ir1'
_cell_volume   68.33810468
_cell_formula_units_Z   1
loop_
 _symmetry_equiv_pos_site_id
 _symmetry_equiv_pos_as_xyz
  1  'x, y, z'
loop_
 _atom_site_type_symbol
 _atom_site_label
 _atom_site_symmetry_multiplicity
 _atom_site_fract_x
 _atom_site_fract_y
 _atom_site_fract_z
 _atom_site_occupancy
  Pa  Pa0  1  0.500000  0.500000  0.500000  1
  H  H1  1  0.556713  0.101787  0.101734  1
  H  H2  1  0.101787  0.556713  0.101734  1
  H  H3  1  0.898626  0.898626  0.442472  1
  H  H4  1  0.101374  0.101374  0.557527  1
  H  H5  1  0.898213  0.443286  0.898266  1
  H  H6  1  0.443286  0.898213  0.898266  1
  Ir  Ir7  1  0.000000  0.000000  0.000000  1
