# generated using pymatgen
data_YbY5(Si3Pt2)4
_symmetry_space_group_name_H-M   'P 1'
_cell_length_a   4.26223900
_cell_length_b   8.59059236
_cell_length_c   12.92308392
_cell_angle_alpha   80.09984266
_cell_angle_beta   90.00000000
_cell_angle_gamma   90.00000000
_symmetry_Int_Tables_number   1
_chemical_formula_structural   YbY5(Si3Pt2)4
_chemical_formula_sum   'Yb1 Y5 Si12 Pt8'
_cell_volume   466.13455300
_cell_formula_units_Z   1
loop_
 _symmetry_equiv_pos_site_id
 _symmetry_equiv_pos_as_xyz
  1  'x, y, z'
loop_
 _atom_site_type_symbol
 _atom_site_label
 _atom_site_symmetry_multiplicity
 _atom_site_fract_x
 _atom_site_fract_y
 _atom_site_fract_z
 _atom_site_occupancy
  Yb  Yb0  1  0.250000  0.071284  0.186174  1
  Y  Y1  1  0.250000  0.766641  0.438909  1
  Y  Y2  1  0.250000  0.588372  0.183569  1
  Y  Y3  1  0.750000  0.234051  0.561679  1
  Y  Y4  1  0.750000  0.416374  0.812265  1
  Y  Y5  1  0.750000  0.926668  0.815483  1
  Si  Si6  1  0.750000  0.586796  0.571472  1
  Si  Si7  1  0.750000  0.128718  0.006710  1
  Si  Si8  1  0.750000  0.867431  0.579919  1
  Si  Si9  1  0.250000  0.697611  0.713058  1
  Si  Si10  1  0.750000  0.305034  0.287441  1
  Si  Si11  1  0.750000  0.805356  0.275590  1
  Si  Si12  1  0.250000  0.873027  0.992220  1
  Si  Si13  1  0.250000  0.192952  0.723570  1
  Si  Si14  1  0.250000  0.377426  0.002345  1
  Si  Si15  1  0.250000  0.124460  0.428521  1
  Si  Si16  1  0.750000  0.620920  0.997523  1
  Si  Si17  1  0.250000  0.411573  0.429019  1
  Pt  Pt18  1  0.750000  0.352702  0.100619  1
  Pt  Pt19  1  0.250000  0.972336  0.621545  1
  Pt  Pt20  1  0.750000  0.850632  0.086555  1
  Pt  Pt21  1  0.750000  0.031263  0.374220  1
  Pt  Pt22  1  0.250000  0.646713  0.900925  1
  Pt  Pt23  1  0.250000  0.150951  0.911589  1
  Pt  Pt24  1  0.750000  0.532972  0.375333  1
  Pt  Pt25  1  0.250000  0.467737  0.623745  1
