# generated using pymatgen
data_Dy16Cd4NiIrRu2
_symmetry_space_group_name_H-M   'P 1'
_cell_length_a   9.60442020
_cell_length_b   9.59609349
_cell_length_c   9.59609369
_cell_angle_alpha   60.03189316
_cell_angle_beta   60.03576659
_cell_angle_gamma   60.03576663
_symmetry_Int_Tables_number   1
_chemical_formula_structural   Dy16Cd4NiIrRu2
_chemical_formula_sum   'Dy16 Cd4 Ni1 Ir1 Ru2'
_cell_volume   625.87032560
_cell_formula_units_Z   1
loop_
 _symmetry_equiv_pos_site_id
 _symmetry_equiv_pos_as_xyz
  1  'x, y, z'
loop_
 _atom_site_type_symbol
 _atom_site_label
 _atom_site_symmetry_multiplicity
 _atom_site_fract_x
 _atom_site_fract_y
 _atom_site_fract_z
 _atom_site_occupancy
  Dy  Dy0  1  0.597444  0.598794  0.598794  1
  Dy  Dy1  1  0.597360  0.598917  0.204870  1
  Dy  Dy2  1  0.597360  0.204870  0.598917  1
  Dy  Dy3  1  0.206129  0.597106  0.597106  1
  Dy  Dy4  1  0.061218  0.439932  0.439932  1
  Dy  Dy5  1  0.437015  0.060918  0.060918  1
  Dy  Dy6  1  0.439335  0.060269  0.439187  1
  Dy  Dy7  1  0.061640  0.438008  0.058789  1
  Dy  Dy8  1  0.439335  0.439187  0.060269  1
  Dy  Dy9  1  0.061640  0.058789  0.438008  1
  Dy  Dy10  1  0.189206  0.810837  0.810837  1
  Dy  Dy11  1  0.814486  0.187031  0.187031  1
  Dy  Dy12  1  0.809844  0.189411  0.812255  1
  Dy  Dy13  1  0.187268  0.814971  0.187598  1
  Dy  Dy14  1  0.809844  0.812255  0.189411  1
  Dy  Dy15  1  0.187268  0.187598  0.814971  1
  Cd  Cd16  1  0.830264  0.830429  0.830429  1
  Cd  Cd17  1  0.831209  0.831105  0.507390  1
  Cd  Cd18  1  0.831209  0.507390  0.831105  1
  Cd  Cd19  1  0.507113  0.831148  0.831148  1
  Ni  Ni20  1  0.392626  0.390696  0.390696  1
  Ir  Ir21  1  0.826460  0.391651  0.391651  1
  Ru  Ru22  1  0.392363  0.390914  0.827770  1
  Ru  Ru23  1  0.392363  0.827770  0.390914  1
