# generated using pymatgen
data_Ta6Zn5GaN
_symmetry_space_group_name_H-M   'P 1'
_cell_length_a   8.17569563
_cell_length_b   8.18174983
_cell_length_c   8.18174868
_cell_angle_alpha   60.09052132
_cell_angle_beta   60.02446735
_cell_angle_gamma   60.02447343
_symmetry_Int_Tables_number   1
_chemical_formula_structural   Ta6Zn5GaN
_chemical_formula_sum   'Ta12 Zn10 Ga2 N2'
_cell_volume   387.39947533
_cell_formula_units_Z   2
loop_
 _symmetry_equiv_pos_site_id
 _symmetry_equiv_pos_as_xyz
  1  'x, y, z'
loop_
 _atom_site_type_symbol
 _atom_site_label
 _atom_site_symmetry_multiplicity
 _atom_site_fract_x
 _atom_site_fract_y
 _atom_site_fract_z
 _atom_site_occupancy
  Ta  Ta0  1  0.189181  0.810878  0.188576  1
  Ta  Ta1  1  0.438636  0.061424  0.439122  1
  Ta  Ta2  1  0.438604  0.060079  0.062713  1
  Ta  Ta3  1  0.439308  0.439471  0.061776  1
  Ta  Ta4  1  0.189253  0.810481  0.811013  1
  Ta  Ta5  1  0.059445  0.439471  0.061776  1
  Ta  Ta6  1  0.811364  0.810878  0.188576  1
  Ta  Ta7  1  0.060747  0.438987  0.439519  1
  Ta  Ta8  1  0.190555  0.188224  0.810529  1
  Ta  Ta9  1  0.811396  0.187287  0.189921  1
  Ta  Ta10  1  0.810692  0.188224  0.810529  1
  Ta  Ta11  1  0.060819  0.061424  0.439122  1
  Zn  Zn12  1  0.751862  0.415856  0.415873  1
  Zn  Zn13  1  0.416406  0.415856  0.415873  1
  Zn  Zn14  1  0.833960  0.834450  0.497631  1
  Zn  Zn15  1  0.416040  0.752369  0.415550  1
  Zn  Zn16  1  0.833594  0.834127  0.834144  1
  Zn  Zn17  1  0.498138  0.834127  0.834144  1
  Zn  Zn18  1  0.626513  0.123794  0.623181  1
  Zn  Zn19  1  0.623487  0.626819  0.126206  1
  Zn  Zn20  1  0.125000  0.628268  0.621732  1
  Zn  Zn21  1  0.625000  0.628268  0.621732  1
  Ga  Ga22  1  0.835059  0.494166  0.835719  1
  Ga  Ga23  1  0.414941  0.414281  0.755834  1
  N  N24  1  0.000533  0.999863  0.999071  1
  N  N25  1  0.249467  0.250929  0.250137  1
