# generated using pymatgen
data_Yb3Ho(Ir2O7)2
_symmetry_space_group_name_H-M   'P 1'
_cell_length_a   7.23165828
_cell_length_b   7.23165836
_cell_length_c   7.22370606
_cell_angle_alpha   59.96358685
_cell_angle_beta   59.96357408
_cell_angle_gamma   59.99999970
_symmetry_Int_Tables_number   1
_chemical_formula_structural   Yb3Ho(Ir2O7)2
_chemical_formula_sum   'Yb3 Ho1 Ir4 O14'
_cell_volume   266.98174911
_cell_formula_units_Z   1
loop_
 _symmetry_equiv_pos_site_id
 _symmetry_equiv_pos_as_xyz
  1  'x, y, z'
loop_
 _atom_site_type_symbol
 _atom_site_label
 _atom_site_symmetry_multiplicity
 _atom_site_fract_x
 _atom_site_fract_y
 _atom_site_fract_z
 _atom_site_occupancy
  Yb  Yb0  1  0.625000  0.625000  0.625000  1
  Yb  Yb1  1  0.625000  0.125000  0.625000  1
  Yb  Yb2  1  0.125000  0.625000  0.625000  1
  Ho  Ho3  1  0.625000  0.625000  0.125000  1
  Ir  Ir4  1  0.125000  0.125000  0.125000  1
  Ir  Ir5  1  0.625000  0.125000  0.125000  1
  Ir  Ir6  1  0.125000  0.625000  0.125000  1
  Ir  Ir7  1  0.125000  0.125000  0.625000  1
  O  O8  1  0.047047  0.453322  0.452585  1
  O  O9  1  0.795603  0.795603  0.198734  1
  O  O10  1  0.795603  0.210060  0.198734  1
  O  O11  1  0.453322  0.047047  0.452585  1
  O  O12  1  0.747045  0.747045  0.758865  1
  O  O13  1  0.047047  0.047047  0.452585  1
  O  O14  1  0.039940  0.454397  0.051266  1
  O  O15  1  0.796678  0.202953  0.797415  1
  O  O16  1  0.210060  0.795603  0.198734  1
  O  O17  1  0.202953  0.202953  0.797415  1
  O  O18  1  0.502955  0.502955  0.491135  1
  O  O19  1  0.454397  0.039940  0.051266  1
  O  O20  1  0.454397  0.454397  0.051266  1
  O  O21  1  0.202953  0.796678  0.797415  1
