# generated using pymatgen
data_Rb11LiMn4O16
_symmetry_space_group_name_H-M   'P 1'
_cell_length_a   8.23089197
_cell_length_b   8.23144653
_cell_length_c   10.96506078
_cell_angle_alpha   112.04780636
_cell_angle_beta   112.05152945
_cell_angle_gamma   90.00639557
_symmetry_Int_Tables_number   1
_chemical_formula_structural   Rb11LiMn4O16
_chemical_formula_sum   'Rb11 Li1 Mn4 O16'
_cell_volume   629.54596238
_cell_formula_units_Z   1
loop_
 _symmetry_equiv_pos_site_id
 _symmetry_equiv_pos_as_xyz
  1  'x, y, z'
loop_
 _atom_site_type_symbol
 _atom_site_label
 _atom_site_symmetry_multiplicity
 _atom_site_fract_x
 _atom_site_fract_y
 _atom_site_fract_z
 _atom_site_occupancy
  Rb  Rb0  1  0.290514  0.290530  0.581053  1
  Rb  Rb1  1  0.499986  0.999997  0.000018  1
  Rb  Rb2  1  0.249991  0.749967  0.499991  1
  Rb  Rb3  1  0.928104  0.928110  0.243724  1
  Rb  Rb4  1  0.071865  0.684372  0.756260  1
  Rb  Rb5  1  0.709468  0.709442  0.418960  1
  Rb  Rb6  1  0.999978  0.499993  0.000012  1
  Rb  Rb7  1  0.684391  0.071877  0.756262  1
  Rb  Rb8  1  0.315592  0.315603  0.243717  1
  Rb  Rb9  1  0.749959  0.250004  0.499993  1
  Rb  Rb10  1  0.500001  0.500003  0.000013  1
  Li  Li11  1  0.000006  0.000018  0.999985  1
  Mn  Mn12  1  0.868781  0.375233  0.244006  1
  Mn  Mn13  1  0.131179  0.131162  0.755959  1
  Mn  Mn14  1  0.624751  0.624735  0.755906  1
  Mn  Mn15  1  0.375245  0.868879  0.244128  1
  O  O16  1  0.405819  0.010490  0.416303  1
  O  O17  1  0.797181  0.797192  0.884174  1
  O  O18  1  0.654450  0.333479  0.226290  1
  O  O19  1  0.333457  0.654383  0.226326  1
  O  O20  1  0.010414  0.405782  0.416184  1
  O  O21  1  0.571910  0.892861  0.226305  1
  O  O22  1  0.345726  0.107152  0.773748  1
  O  O23  1  0.202869  0.913020  0.115916  1
  O  O24  1  0.594202  0.594220  0.583776  1
  O  O25  1  0.087005  0.086997  0.884055  1
  O  O26  1  0.666519  0.428120  0.773714  1
  O  O27  1  0.989558  0.989548  0.583760  1
  O  O28  1  0.892831  0.571902  0.226261  1
  O  O29  1  0.913018  0.202709  0.115741  1
  O  O30  1  0.107163  0.345684  0.773746  1
  O  O31  1  0.428065  0.666534  0.773717  1
