# generated using pymatgen
data_SrPr4Al7Ga2
_symmetry_space_group_name_H-M   'P 1'
_cell_length_a   12.14636235
_cell_length_b   12.14636211
_cell_length_c   12.14636500
_cell_angle_alpha   26.95485611
_cell_angle_beta   26.95485683
_cell_angle_gamma   26.95485662
_symmetry_Int_Tables_number   1
_chemical_formula_structural   SrPr4Al7Ga2
_chemical_formula_sum   'Sr1 Pr4 Al7 Ga2'
_cell_volume   324.74923049
_cell_formula_units_Z   1
loop_
 _symmetry_equiv_pos_site_id
 _symmetry_equiv_pos_as_xyz
  1  'x, y, z'
loop_
 _atom_site_type_symbol
 _atom_site_label
 _atom_site_symmetry_multiplicity
 _atom_site_fract_x
 _atom_site_fract_y
 _atom_site_fract_z
 _atom_site_occupancy
  Sr  Sr0  1  0.500000  0.500000  0.500000  1
  Pr  Pr1  1  0.214858  0.214858  0.214858  1
  Pr  Pr2  1  0.785142  0.785142  0.785142  1
  Pr  Pr3  1  0.314323  0.314323  0.314323  1
  Pr  Pr4  1  0.685677  0.685677  0.685677  1
  Al  Al5  1  0.000000  0.000000  0.000000  1
  Al  Al6  1  0.723127  0.237457  0.237457  1
  Al  Al7  1  0.237457  0.237457  0.723127  1
  Al  Al8  1  0.237457  0.723127  0.237457  1
  Al  Al9  1  0.762543  0.276873  0.762543  1
  Al  Al10  1  0.276873  0.762543  0.762543  1
  Al  Al11  1  0.762543  0.762543  0.276873  1
  Ga  Ga12  1  0.127035  0.127035  0.127035  1
  Ga  Ga13  1  0.872965  0.872965  0.872965  1
