# generated using pymatgen
data_La8Ho2AlPb5
_symmetry_space_group_name_H-M   'P 1'
_cell_length_a   9.44586439
_cell_length_b   9.44586522
_cell_length_c   9.44586500
_cell_angle_alpha   96.28474682
_cell_angle_beta   96.28474737
_cell_angle_gamma   141.35778748
_symmetry_Int_Tables_number   1
_chemical_formula_structural   La8Ho2AlPb5
_chemical_formula_sum   'La8 Ho2 Al1 Pb5'
_cell_volume   496.65044233
_cell_formula_units_Z   1
loop_
 _symmetry_equiv_pos_site_id
 _symmetry_equiv_pos_as_xyz
  1  'x, y, z'
loop_
 _atom_site_type_symbol
 _atom_site_label
 _atom_site_symmetry_multiplicity
 _atom_site_fract_x
 _atom_site_fract_y
 _atom_site_fract_z
 _atom_site_occupancy
  La  La0  1  0.905002  0.215065  0.132336  1
  La  La1  1  0.215065  0.082730  0.310063  1
  La  La2  1  0.772667  0.905002  0.689937  1
  La  La3  1  0.082730  0.772667  0.867664  1
  La  La4  1  0.727333  0.417270  0.132336  1
  La  La5  1  0.284935  0.594998  0.867664  1
  La  La6  1  0.594998  0.727333  0.310063  1
  La  La7  1  0.417270  0.284935  0.689937  1
  Ho  Ho8  1  0.750000  0.250000  0.500000  1
  Ho  Ho9  1  0.250000  0.750000  0.500000  1
  Al  Al10  1  0.750000  0.750000  0.000000  1
  Pb  Pb11  1  0.250000  0.250000  0.000000  1
  Pb  Pb12  1  0.845790  0.654210  0.500000  1
  Pb  Pb13  1  0.654210  0.154210  0.808422  1
  Pb  Pb14  1  0.345790  0.845790  0.191578  1
  Pb  Pb15  1  0.154210  0.345790  0.500000  1
