# generated using pymatgen
data_Y19Tm(SiBi2)4
_symmetry_space_group_name_H-M   'P 1'
_cell_length_a   12.14758151
_cell_length_b   9.18109311
_cell_length_c   8.07922826
_cell_angle_alpha   89.99405390
_cell_angle_beta   89.97158679
_cell_angle_gamma   90.01707661
_symmetry_Int_Tables_number   1
_chemical_formula_structural   Y19Tm(SiBi2)4
_chemical_formula_sum   'Y19 Tm1 Si4 Bi8'
_cell_volume   901.06063525
_cell_formula_units_Z   1
loop_
 _symmetry_equiv_pos_site_id
 _symmetry_equiv_pos_as_xyz
  1  'x, y, z'
loop_
 _atom_site_type_symbol
 _atom_site_label
 _atom_site_symmetry_multiplicity
 _atom_site_fract_x
 _atom_site_fract_y
 _atom_site_fract_z
 _atom_site_occupancy
  Y  Y0  1  0.064296  0.448891  0.180839  1
  Y  Y1  1  0.435698  0.551080  0.680864  1
  Y  Y2  1  0.935639  0.948880  0.819147  1
  Y  Y3  1  0.435861  0.949024  0.680577  1
  Y  Y4  1  0.935664  0.551071  0.819125  1
  Y  Y5  1  0.564308  0.448541  0.319012  1
  Y  Y6  1  0.064326  0.051132  0.180902  1
  Y  Y7  1  0.711201  0.249771  0.661541  1
  Y  Y8  1  0.211297  0.249979  0.838306  1
  Y  Y9  1  0.288649  0.749988  0.338293  1
  Y  Y10  1  0.788662  0.750061  0.161794  1
  Y  Y11  1  0.500819  0.249765  0.959423  1
  Y  Y12  1  0.000696  0.249952  0.541128  1
  Y  Y13  1  0.499296  0.750260  0.041327  1
  Y  Y14  1  0.999229  0.750013  0.458899  1
  Y  Y15  1  0.795643  0.249710  0.135656  1
  Y  Y16  1  0.296155  0.249777  0.364399  1
  Y  Y17  1  0.204056  0.749972  0.864554  1
  Y  Y18  1  0.704046  0.749983  0.635418  1
  Tm  Tm19  1  0.564192  0.051843  0.319886  1
  Si  Si20  1  0.980525  0.250023  0.916385  1
  Si  Si21  1  0.480698  0.249362  0.583096  1
  Si  Si22  1  0.019453  0.749998  0.083668  1
  Si  Si23  1  0.519738  0.751175  0.415862  1
  Bi  Bi24  1  0.826333  0.010169  0.430254  1
  Bi  Bi25  1  0.326635  0.489750  0.069517  1
  Bi  Bi26  1  0.173444  0.510200  0.569501  1
  Bi  Bi27  1  0.673306  0.989735  0.930725  1
  Bi  Bi28  1  0.173461  0.989801  0.569487  1
  Bi  Bi29  1  0.673383  0.510144  0.930493  1
  Bi  Bi30  1  0.826566  0.489752  0.430476  1
  Bi  Bi31  1  0.326723  0.010195  0.069445  1
