# generated using pymatgen
data_Nd4TlIn(CuRh)2
_symmetry_space_group_name_H-M   'P 1'
_cell_length_a   7.77444343
_cell_length_b   7.79268438
_cell_length_c   3.87623100
_cell_angle_alpha   90.00000000
_cell_angle_beta   90.00000000
_cell_angle_gamma   90.34104778
_symmetry_Int_Tables_number   1
_chemical_formula_structural   Nd4TlIn(CuRh)2
_chemical_formula_sum   'Nd4 Tl1 In1 Cu2 Rh2'
_cell_volume   234.83258094
_cell_formula_units_Z   1
loop_
 _symmetry_equiv_pos_site_id
 _symmetry_equiv_pos_as_xyz
  1  'x, y, z'
loop_
 _atom_site_type_symbol
 _atom_site_label
 _atom_site_symmetry_multiplicity
 _atom_site_fract_x
 _atom_site_fract_y
 _atom_site_fract_z
 _atom_site_occupancy
  Nd  Nd0  1  0.667836  0.169710  0.500000  1
  Nd  Nd1  1  0.332164  0.830290  0.500000  1
  Nd  Nd2  1  0.184021  0.315448  0.500000  1
  Nd  Nd3  1  0.815979  0.684552  0.500000  1
  Tl  Tl4  1  0.000000  0.000000  0.000000  1
  In  In5  1  0.500000  0.500000  0.000000  1
  Cu  Cu6  1  0.118843  0.610721  0.000000  1
  Cu  Cu7  1  0.881157  0.389279  0.000000  1
  Rh  Rh8  1  0.621094  0.865787  0.000000  1
  Rh  Rh9  1  0.378906  0.134213  0.000000  1
