# generated using pymatgen
data_Er16Al3AgPd4
_symmetry_space_group_name_H-M   'P 1'
_cell_length_a   9.51136477
_cell_length_b   9.49496500
_cell_length_c   9.49496500
_cell_angle_alpha   59.99999651
_cell_angle_beta   60.05701720
_cell_angle_gamma   60.05701374
_symmetry_Int_Tables_number   1
_chemical_formula_structural   Er16Al3AgPd4
_chemical_formula_sum   'Er16 Al3 Ag1 Pd4'
_cell_volume   606.85969955
_cell_formula_units_Z   1
loop_
 _symmetry_equiv_pos_site_id
 _symmetry_equiv_pos_as_xyz
  1  'x, y, z'
loop_
 _atom_site_type_symbol
 _atom_site_label
 _atom_site_symmetry_multiplicity
 _atom_site_fract_x
 _atom_site_fract_y
 _atom_site_fract_z
 _atom_site_occupancy
  Er  Er0  1  0.355461  0.357621  0.357621  1
  Er  Er1  1  0.355461  0.357621  0.929298  1
  Er  Er2  1  0.355461  0.929298  0.357621  1
  Er  Er3  1  0.931584  0.356138  0.356138  1
  Er  Er4  1  0.807368  0.192284  0.192284  1
  Er  Er5  1  0.191679  0.809778  0.809778  1
  Er  Er6  1  0.191679  0.809778  0.188766  1
  Er  Er7  1  0.807368  0.192284  0.808064  1
  Er  Er8  1  0.191679  0.188766  0.809778  1
  Er  Er9  1  0.807368  0.808064  0.192284  1
  Er  Er10  1  0.935644  0.565435  0.565435  1
  Er  Er11  1  0.566476  0.933760  0.933760  1
  Er  Er12  1  0.566476  0.933760  0.566006  1
  Er  Er13  1  0.935644  0.565435  0.933485  1
  Er  Er14  1  0.566476  0.566006  0.933760  1
  Er  Er15  1  0.935644  0.933485  0.565435  1
  Al  Al16  1  0.580563  0.578027  0.578027  1
  Al  Al17  1  0.580563  0.578027  0.263384  1
  Al  Al18  1  0.580563  0.263384  0.578027  1
  Ag  Ag19  1  0.255560  0.581480  0.581480  1
  Pd  Pd20  1  0.145961  0.144731  0.144731  1
  Pd  Pd21  1  0.145961  0.144731  0.564578  1
  Pd  Pd22  1  0.145961  0.564578  0.144731  1
  Pd  Pd23  1  0.563402  0.145532  0.145532  1
