# generated using pymatgen
data_YLuZrFe9
_symmetry_space_group_name_H-M   'P 1'
_cell_length_a   5.01599691
_cell_length_b   5.01599767
_cell_length_c   8.51347200
_cell_angle_alpha   72.86694261
_cell_angle_beta   72.86694108
_cell_angle_gamma   60.00001500
_symmetry_Int_Tables_number   1
_chemical_formula_structural   YLuZrFe9
_chemical_formula_sum   'Y1 Lu1 Zr1 Fe9'
_cell_volume   174.44107741
_cell_formula_units_Z   1
loop_
 _symmetry_equiv_pos_site_id
 _symmetry_equiv_pos_as_xyz
  1  'x, y, z'
loop_
 _atom_site_type_symbol
 _atom_site_label
 _atom_site_symmetry_multiplicity
 _atom_site_fract_x
 _atom_site_fract_y
 _atom_site_fract_z
 _atom_site_occupancy
  Y  Y0  1  0.999724  0.999724  0.000829  1
  Lu  Lu1  1  0.142375  0.142375  0.572873  1
  Zr  Zr2  1  0.857469  0.857469  0.427593  1
  Fe  Fe3  1  0.082491  0.584392  0.748722  1
  Fe  Fe4  1  0.584392  0.584392  0.748722  1
  Fe  Fe5  1  0.584392  0.082491  0.748722  1
  Fe  Fe6  1  0.917683  0.415766  0.250786  1
  Fe  Fe7  1  0.415766  0.415766  0.250786  1
  Fe  Fe8  1  0.415766  0.917683  0.250786  1
  Fe  Fe9  1  0.332507  0.332507  0.002479  1
  Fe  Fe10  1  0.667258  0.667258  0.998226  1
  Fe  Fe11  1  0.500175  0.500175  0.499476  1
