# generated using pymatgen
data_Dy3YMn4F28
_symmetry_space_group_name_H-M   'P 1'
_cell_length_a   5.44259401
_cell_length_b   8.71375223
_cell_length_c   11.71447832
_cell_angle_alpha   62.51230701
_cell_angle_beta   90.00469777
_cell_angle_gamma   89.99859925
_symmetry_Int_Tables_number   1
_chemical_formula_structural   Dy3YMn4F28
_chemical_formula_sum   'Dy3 Y1 Mn4 F28'
_cell_volume   492.84637769
_cell_formula_units_Z   1
loop_
 _symmetry_equiv_pos_site_id
 _symmetry_equiv_pos_as_xyz
  1  'x, y, z'
loop_
 _atom_site_type_symbol
 _atom_site_label
 _atom_site_symmetry_multiplicity
 _atom_site_fract_x
 _atom_site_fract_y
 _atom_site_fract_z
 _atom_site_occupancy
  Dy  Dy0  1  0.261427  0.190392  0.735228  1
  Dy  Dy1  1  0.238550  0.189979  0.235312  1
  Dy  Dy2  1  0.738588  0.810130  0.264684  1
  Y  Y3  1  0.761439  0.810204  0.764664  1
  Mn  Mn4  1  0.758638  0.273126  0.956909  1
  Mn  Mn5  1  0.258583  0.726462  0.543002  1
  Mn  Mn6  1  0.241294  0.726452  0.043689  1
  Mn  Mn7  1  0.741319  0.273882  0.456454  1
  F  F8  1  0.429576  0.704758  0.921982  1
  F  F9  1  0.930381  0.294796  0.578235  1
  F  F10  1  0.569515  0.294608  0.078405  1
  F  F11  1  0.069796  0.705203  0.421364  1
  F  F12  1  0.454255  0.279427  0.539737  1
  F  F13  1  0.953947  0.720270  0.960951  1
  F  F14  1  0.545906  0.720702  0.460103  1
  F  F15  1  0.045683  0.279128  0.039942  1
  F  F16  1  0.774214  0.511556  0.862419  1
  F  F17  1  0.274245  0.488054  0.637407  1
  F  F18  1  0.226154  0.487996  0.137931  1
  F  F19  1  0.725948  0.512086  0.362300  1
  F  F20  1  0.756516  0.036757  0.046745  1
  F  F21  1  0.256549  0.962987  0.453204  1
  F  F22  1  0.243363  0.962954  0.953480  1
  F  F23  1  0.743480  0.037301  0.545985  1
  F  F24  1  0.979113  0.726348  0.632074  1
  F  F25  1  0.479340  0.273095  0.867548  1
  F  F26  1  0.020480  0.273302  0.367284  1
  F  F27  1  0.520663  0.726931  0.132667  1
  F  F28  1  0.055092  0.743620  0.170165  1
  F  F29  1  0.554695  0.256707  0.329947  1
  F  F30  1  0.945166  0.256207  0.830278  1
  F  F31  1  0.444351  0.743245  0.669900  1
  F  F32  1  0.408235  0.969324  0.228902  1
  F  F33  1  0.908312  0.030825  0.271090  1
  F  F34  1  0.592083  0.031730  0.771289  1
  F  F35  1  0.093104  0.969456  0.728723  1
