# generated using pymatgen
data_Y8Cd4In3Ru
_symmetry_space_group_name_H-M   'P 1'
_cell_length_a   7.43157403
_cell_length_b   7.48325800
_cell_length_c   7.43174003
_cell_angle_alpha   90.00000000
_cell_angle_beta   89.99013931
_cell_angle_gamma   90.00000000
_symmetry_Int_Tables_number   1
_chemical_formula_structural   Y8Cd4In3Ru
_chemical_formula_sum   'Y8 Cd4 In3 Ru1'
_cell_volume   413.29678741
_cell_formula_units_Z   1
loop_
 _symmetry_equiv_pos_site_id
 _symmetry_equiv_pos_as_xyz
  1  'x, y, z'
loop_
 _atom_site_type_symbol
 _atom_site_label
 _atom_site_symmetry_multiplicity
 _atom_site_fract_x
 _atom_site_fract_y
 _atom_site_fract_z
 _atom_site_occupancy
  Y  Y0  1  0.262164  0.013154  0.237849  1
  Y  Y1  1  0.262164  0.486843  0.237849  1
  Y  Y2  1  0.737961  0.013061  0.237937  1
  Y  Y3  1  0.737961  0.486943  0.237937  1
  Y  Y4  1  0.262041  0.013061  0.762065  1
  Y  Y5  1  0.262041  0.486936  0.762065  1
  Y  Y6  1  0.737834  0.013154  0.762152  1
  Y  Y7  1  0.737834  0.486850  0.762152  1
  Cd  Cd8  1  0.000000  0.250001  0.000000  1
  Cd  Cd9  1  0.000000  0.750000  0.000000  1
  Cd  Cd10  1  0.499994  0.750000  0.499996  1
  Cd  Cd11  1  0.500006  0.250001  0.500003  1
  In  In12  1  0.499996  0.750000  0.000000  1
  In  In13  1  0.000000  0.250001  0.499996  1
  In  In14  1  0.000000  0.750000  0.500003  1
  Ru  Ru15  1  0.500004  0.250001  0.000000  1
