# generated using pymatgen
data_La3In3HgPtRh
_symmetry_space_group_name_H-M   'P 1'
_cell_length_a   7.88815200
_cell_length_b   7.88815385
_cell_length_c   4.21754800
_cell_angle_alpha   90.00000000
_cell_angle_beta   90.00000000
_cell_angle_gamma   120.00000902
_symmetry_Int_Tables_number   1
_chemical_formula_structural   La3In3HgPtRh
_chemical_formula_sum   'La3 In3 Hg1 Pt1 Rh1'
_cell_volume   227.26955896
_cell_formula_units_Z   1
loop_
 _symmetry_equiv_pos_site_id
 _symmetry_equiv_pos_as_xyz
  1  'x, y, z'
loop_
 _atom_site_type_symbol
 _atom_site_label
 _atom_site_symmetry_multiplicity
 _atom_site_fract_x
 _atom_site_fract_y
 _atom_site_fract_z
 _atom_site_occupancy
  La  La0  1  0.396821  0.416606  0.500000  1
  La  La1  1  0.019786  0.603179  0.500000  1
  La  La2  1  0.583394  0.980214  0.500000  1
  In  In3  1  0.758819  0.761780  0.000000  1
  In  In4  1  0.238220  0.997037  0.000000  1
  In  In5  1  0.002963  0.241181  0.000000  1
  Hg  Hg6  1  0.666667  0.333333  0.000000  1
  Pt  Pt7  1  0.333333  0.666667  0.000000  1
  Rh  Rh8  1  0.000000  0.000000  0.500000  1
