# generated using pymatgen
data_NdSc2(NiIr2)3
_symmetry_space_group_name_H-M   'P 1'
_cell_length_a   8.66946550
_cell_length_b   8.66946498
_cell_length_c   8.66946404
_cell_angle_alpha   35.33250325
_cell_angle_beta   35.33250707
_cell_angle_gamma   35.33251490
_symmetry_Int_Tables_number   1
_chemical_formula_structural   NdSc2(NiIr2)3
_chemical_formula_sum   'Nd1 Sc2 Ni3 Ir6'
_cell_volume   194.69526711
_cell_formula_units_Z   1
loop_
 _symmetry_equiv_pos_site_id
 _symmetry_equiv_pos_as_xyz
  1  'x, y, z'
loop_
 _atom_site_type_symbol
 _atom_site_label
 _atom_site_symmetry_multiplicity
 _atom_site_fract_x
 _atom_site_fract_y
 _atom_site_fract_z
 _atom_site_occupancy
  Nd  Nd0  1  0.000000  0.000000  0.000000  1
  Sc  Sc1  1  0.858303  0.858303  0.858303  1
  Sc  Sc2  1  0.141697  0.141697  0.141697  1
  Ni  Ni3  1  0.666783  0.666783  0.666783  1
  Ni  Ni4  1  0.333217  0.333217  0.333217  1
  Ni  Ni5  1  0.500000  0.500000  0.500000  1
  Ir  Ir6  1  0.414250  0.918070  0.414250  1
  Ir  Ir7  1  0.414250  0.414250  0.918070  1
  Ir  Ir8  1  0.918070  0.414250  0.414250  1
  Ir  Ir9  1  0.585750  0.081930  0.585750  1
  Ir  Ir10  1  0.585750  0.585750  0.081930  1
  Ir  Ir11  1  0.081930  0.585750  0.585750  1
