# generated using pymatgen
data_Zr11Nb9AlSi15
_symmetry_space_group_name_H-M   'P 1'
_cell_length_a   6.96517542
_cell_length_b   6.95261637
_cell_length_c   12.83768400
_cell_angle_alpha   90.14293847
_cell_angle_beta   89.83923015
_cell_angle_gamma   90.04083075
_symmetry_Int_Tables_number   1
_chemical_formula_structural   Zr11Nb9AlSi15
_chemical_formula_sum   'Zr11 Nb9 Al1 Si15'
_cell_volume   621.67562145
_cell_formula_units_Z   1
loop_
 _symmetry_equiv_pos_site_id
 _symmetry_equiv_pos_as_xyz
  1  'x, y, z'
loop_
 _atom_site_type_symbol
 _atom_site_label
 _atom_site_symmetry_multiplicity
 _atom_site_fract_x
 _atom_site_fract_y
 _atom_site_fract_z
 _atom_site_occupancy
  Zr  Zr0  1  0.500143  0.350750  0.623656  1
  Zr  Zr1  1  0.501534  0.649905  0.124420  1
  Zr  Zr2  1  0.147992  0.998590  0.874060  1
  Zr  Zr3  1  0.001071  0.654370  0.032991  1
  Zr  Zr4  1  0.997032  0.340530  0.531526  1
  Zr  Zr5  1  0.658550  0.999633  0.968781  1
  Zr  Zr6  1  0.152880  0.498365  0.782012  1
  Zr  Zr7  1  0.842673  0.499625  0.279851  1
  Zr  Zr8  1  0.501959  0.157692  0.219251  1
  Zr  Zr9  1  0.499987  0.842952  0.717740  1
  Zr  Zr10  1  0.344987  0.003715  0.467894  1
  Nb  Nb11  1  0.353406  0.505500  0.374689  1
  Nb  Nb12  1  0.847713  0.003587  0.372078  1
  Nb  Nb13  1  0.006790  0.152518  0.126040  1
  Nb  Nb14  1  0.991618  0.849341  0.629014  1
  Nb  Nb15  1  0.651636  0.490898  0.875948  1
  Nb  Nb16  1  0.666988  0.672604  0.500308  1
  Nb  Nb17  1  0.827647  0.169244  0.749634  1
  Nb  Nb18  1  0.174119  0.834160  0.248945  1
  Nb  Nb19  1  0.330127  0.327101  0.000357  1
  Al  Al20  1  0.043118  0.703080  0.435440  1
  Si  Si21  1  0.953725  0.299287  0.936616  1
  Si  Si22  1  0.703671  0.043973  0.562100  1
  Si  Si23  1  0.200933  0.453717  0.187523  1
  Si  Si24  1  0.799639  0.546917  0.685739  1
  Si  Si25  1  0.455033  0.199081  0.814813  1
  Si  Si26  1  0.548413  0.801371  0.315825  1
  Si  Si27  1  0.300665  0.956319  0.064696  1
  Si  Si28  1  0.855311  0.787746  0.822412  1
  Si  Si29  1  0.137758  0.210174  0.323860  1
  Si  Si30  1  0.800598  0.865549  0.179294  1
  Si  Si31  1  0.287821  0.643508  0.571472  1
  Si  Si32  1  0.710556  0.356467  0.071664  1
  Si  Si33  1  0.637944  0.295406  0.425872  1
  Si  Si34  1  0.364093  0.699952  0.926686  1
  Si  Si35  1  0.201873  0.136373  0.676792  1
