# generated using pymatgen
data_Cs2RbErBr6
_symmetry_space_group_name_H-M   'P 1'
_cell_length_a   8.54693085
_cell_length_b   8.54693150
_cell_length_c   8.54693123
_cell_angle_alpha   121.33273999
_cell_angle_beta   121.33274139
_cell_angle_gamma   87.70672768
_symmetry_Int_Tables_number   1
_chemical_formula_structural   Cs2RbErBr6
_chemical_formula_sum   'Cs2 Rb1 Er1 Br6'
_cell_volume   432.21511453
_cell_formula_units_Z   1
loop_
 _symmetry_equiv_pos_site_id
 _symmetry_equiv_pos_as_xyz
  1  'x, y, z'
loop_
 _atom_site_type_symbol
 _atom_site_label
 _atom_site_symmetry_multiplicity
 _atom_site_fract_x
 _atom_site_fract_y
 _atom_site_fract_z
 _atom_site_occupancy
  Cs  Cs0  1  0.750000  0.250000  0.500000  1
  Cs  Cs1  1  0.250000  0.750000  0.500000  1
  Rb  Rb2  1  0.000000  0.000000  0.000000  1
  Er  Er3  1  0.500000  0.500000  0.000000  1
  Br  Br4  1  0.273344  0.273344  0.000000  1
  Br  Br5  1  0.726656  0.726656  0.000000  1
  Br  Br6  1  0.341545  0.792928  0.134473  1
  Br  Br7  1  0.792928  0.658455  0.451383  1
  Br  Br8  1  0.207072  0.341545  0.548617  1
  Br  Br9  1  0.658455  0.207072  0.865527  1
