# generated using pymatgen
data_ErTmCu2(AuO4)2
_symmetry_space_group_name_H-M   'P 1'
_cell_length_a   6.41183170
_cell_length_b   6.41183193
_cell_length_c   6.44714354
_cell_angle_alpha   126.03274342
_cell_angle_beta   126.14753033
_cell_angle_gamma   79.36208343
_symmetry_Int_Tables_number   1
_chemical_formula_structural   ErTmCu2(AuO4)2
_chemical_formula_sum   'Er1 Tm1 Cu2 Au2 O8'
_cell_volume   167.64504101
_cell_formula_units_Z   1
loop_
 _symmetry_equiv_pos_site_id
 _symmetry_equiv_pos_as_xyz
  1  'x, y, z'
loop_
 _atom_site_type_symbol
 _atom_site_label
 _atom_site_symmetry_multiplicity
 _atom_site_fract_x
 _atom_site_fract_y
 _atom_site_fract_z
 _atom_site_occupancy
  Er  Er0  1  0.749899  0.249899  0.500000  1
  Tm  Tm1  1  0.000262  0.000262  0.000000  1
  Cu  Cu2  1  0.375035  0.625058  0.250093  1
  Cu  Cu3  1  0.374965  0.124942  0.749907  1
  Au  Au4  1  0.374933  0.625060  0.750013  1
  Au  Au5  1  0.875047  0.624920  0.249987  1
  O  O6  1  0.141706  0.603309  0.859717  1
  O  O7  1  0.743591  0.281990  0.140283  1
  O  O8  1  0.350482  0.012023  0.967654  1
  O  O9  1  0.706244  0.866736  0.468892  1
  O  O10  1  0.044369  0.382827  0.032346  1
  O  O11  1  0.397843  0.237352  0.531108  1
  O  O12  1  0.007016  0.967353  0.358747  1
  O  O13  1  0.608607  0.648270  0.641253  1
