# generated using pymatgen
data_Y7Lu3Si5Ge
_symmetry_space_group_name_H-M   'P 1'
_cell_length_a   8.41327400
_cell_length_b   8.41636707
_cell_length_c   6.30192600
_cell_angle_alpha   90.00258461
_cell_angle_beta   89.99732874
_cell_angle_gamma   119.98884290
_symmetry_Int_Tables_number   1
_chemical_formula_structural   Y7Lu3Si5Ge
_chemical_formula_sum   'Y7 Lu3 Si5 Ge1'
_cell_volume   386.49372481
_cell_formula_units_Z   1
loop_
 _symmetry_equiv_pos_site_id
 _symmetry_equiv_pos_as_xyz
  1  'x, y, z'
loop_
 _atom_site_type_symbol
 _atom_site_label
 _atom_site_symmetry_multiplicity
 _atom_site_fract_x
 _atom_site_fract_y
 _atom_site_fract_z
 _atom_site_occupancy
  Y  Y0  1  0.998407  0.754474  0.749181  1
  Y  Y1  1  0.999571  0.244082  0.250903  1
  Y  Y2  1  0.755653  0.755766  0.250844  1
  Y  Y3  1  0.756833  0.000137  0.749188  1
  Y  Y4  1  0.244203  0.245447  0.749081  1
  Y  Y5  1  0.244100  0.000303  0.250671  1
  Y  Y6  1  0.332942  0.665017  0.001268  1
  Lu  Lu7  1  0.333037  0.665056  0.498892  1
  Lu  Lu8  1  0.667940  0.334947  0.000942  1
  Lu  Lu9  1  0.667913  0.334826  0.498945  1
  Si  Si10  1  0.396344  0.394160  0.253842  1
  Si  Si11  1  0.998318  0.603930  0.253732  1
  Si  Si12  1  0.997854  0.394347  0.746191  1
  Si  Si13  1  0.605410  0.603671  0.746162  1
  Si  Si14  1  0.605671  0.001926  0.253504  1
  Ge  Ge15  1  0.395803  0.001911  0.746655  1
