# generated using pymatgen
data_Zr2CdCuPt
_symmetry_space_group_name_H-M   'P 1'
_cell_length_a   7.47052100
_cell_length_b   7.42484700
_cell_length_c   3.45508400
_cell_angle_alpha   90.00000000
_cell_angle_beta   90.00000000
_cell_angle_gamma   90.00000000
_symmetry_Int_Tables_number   1
_chemical_formula_structural   Zr2CdCuPt
_chemical_formula_sum   'Zr4 Cd2 Cu2 Pt2'
_cell_volume   191.64478690
_cell_formula_units_Z   2
loop_
 _symmetry_equiv_pos_site_id
 _symmetry_equiv_pos_as_xyz
  1  'x, y, z'
loop_
 _atom_site_type_symbol
 _atom_site_label
 _atom_site_symmetry_multiplicity
 _atom_site_fract_x
 _atom_site_fract_y
 _atom_site_fract_z
 _atom_site_occupancy
  Zr  Zr0  1  0.669232  0.172608  0.500001  1
  Zr  Zr1  1  0.169232  0.327392  0.500001  1
  Zr  Zr2  1  0.828863  0.665353  0.500001  1
  Zr  Zr3  1  0.328864  0.834646  0.500001  1
  Cd  Cd4  1  0.994781  0.991915  0.000000  1
  Cd  Cd5  1  0.494780  0.508084  0.000000  1
  Cu  Cu6  1  0.129603  0.629760  0.000000  1
  Cu  Cu7  1  0.629602  0.870239  0.000000  1
  Pt  Pt8  1  0.377521  0.120538  0.000000  1
  Pt  Pt9  1  0.877520  0.379463  0.000000  1
