# generated using pymatgen
data_ThUAl20Fe3Re
_symmetry_space_group_name_H-M   'P 1'
_cell_length_a   6.82265746
_cell_length_b   6.82079383
_cell_length_c   9.04582024
_cell_angle_alpha   90.00847046
_cell_angle_beta   89.44119532
_cell_angle_gamma   97.54115725
_symmetry_Int_Tables_number   1
_chemical_formula_structural   ThUAl20Fe3Re
_chemical_formula_sum   'Th1 U1 Al20 Fe3 Re1'
_cell_volume   417.29471554
_cell_formula_units_Z   1
loop_
 _symmetry_equiv_pos_site_id
 _symmetry_equiv_pos_as_xyz
  1  'x, y, z'
loop_
 _atom_site_type_symbol
 _atom_site_label
 _atom_site_symmetry_multiplicity
 _atom_site_fract_x
 _atom_site_fract_y
 _atom_site_fract_z
 _atom_site_occupancy
  Th  Th0  1  0.130359  0.877662  0.250095  1
  U  U1  1  0.871147  0.116455  0.750806  1
  Al  Al2  1  0.519328  0.777117  0.747274  1
  Al  Al3  1  0.482591  0.224233  0.252960  1
  Al  Al4  1  0.594422  0.864796  0.255157  1
  Al  Al5  1  0.777861  0.769191  0.999882  1
  Al  Al6  1  0.157351  0.840795  0.599737  1
  Al  Al7  1  0.220119  0.229293  0.993233  1
  Al  Al8  1  0.136479  0.411976  0.250462  1
  Al  Al9  1  0.626646  0.378719  0.948504  1
  Al  Al10  1  0.845029  0.166162  0.099624  1
  Al  Al11  1  0.375605  0.623552  0.452491  1
  Al  Al12  1  0.153564  0.837873  0.898160  1
  Al  Al13  1  0.215035  0.476975  0.747402  1
  Al  Al14  1  0.374295  0.620437  0.046692  1
  Al  Al15  1  0.840419  0.162528  0.403810  1
  Al  Al16  1  0.625359  0.376404  0.551736  1
  Al  Al17  1  0.407691  0.134087  0.744622  1
  Al  Al18  1  0.782005  0.520603  0.253049  1
  Al  Al19  1  0.773720  0.773900  0.505193  1
  Al  Al20  1  0.223828  0.228104  0.501209  1
  Al  Al21  1  0.864941  0.584221  0.749402  1
  Fe  Fe22  1  0.999859  0.502880  0.499246  1
  Fe  Fe23  1  0.000485  0.500257  0.999692  1
  Fe  Fe24  1  0.499764  0.000697  0.500832  1
  Re  Re25  1  0.502101  0.001083  0.998729  1
