# generated using pymatgen
data_YbY7(Si4W3)4
_symmetry_space_group_name_H-M   'P 1'
_cell_length_a   6.77142467
_cell_length_b   6.94622716
_cell_length_c   12.93038059
_cell_angle_alpha   89.92135886
_cell_angle_beta   89.96926425
_cell_angle_gamma   89.91976808
_symmetry_Int_Tables_number   1
_chemical_formula_structural   YbY7(Si4W3)4
_chemical_formula_sum   'Yb1 Y7 Si16 W12'
_cell_volume   608.19023700
_cell_formula_units_Z   1
loop_
 _symmetry_equiv_pos_site_id
 _symmetry_equiv_pos_as_xyz
  1  'x, y, z'
loop_
 _atom_site_type_symbol
 _atom_site_label
 _atom_site_symmetry_multiplicity
 _atom_site_fract_x
 _atom_site_fract_y
 _atom_site_fract_z
 _atom_site_occupancy
  Yb  Yb0  1  0.996450  0.833474  0.590812  1
  Y  Y1  1  0.497196  0.668423  0.593978  1
  Y  Y2  1  0.997143  0.831726  0.906106  1
  Y  Y3  1  0.504359  0.331792  0.093418  1
  Y  Y4  1  0.003477  0.165912  0.408270  1
  Y  Y5  1  0.503288  0.332231  0.407020  1
  Y  Y6  1  0.004027  0.167864  0.093591  1
  Y  Y7  1  0.496353  0.668226  0.905791  1
  Si  Si8  1  0.660404  0.956550  0.453578  1
  Si  Si9  1  0.162115  0.543804  0.046093  1
  Si  Si10  1  0.337826  0.043096  0.953544  1
  Si  Si11  1  0.839382  0.459121  0.547431  1
  Si  Si12  1  0.338578  0.041663  0.547390  1
  Si  Si13  1  0.838312  0.456871  0.953838  1
  Si  Si14  1  0.662495  0.956581  0.046122  1
  Si  Si15  1  0.160228  0.543501  0.453200  1
  Si  Si16  1  0.464464  0.370437  0.750325  1
  Si  Si17  1  0.965017  0.128318  0.749387  1
  Si  Si18  1  0.534783  0.630077  0.250106  1
  Si  Si19  1  0.035080  0.869321  0.250659  1
  Si  Si20  1  0.699133  0.867997  0.748450  1
  Si  Si21  1  0.194291  0.634874  0.748155  1
  Si  Si22  1  0.302989  0.132842  0.250234  1
  Si  Si23  1  0.803898  0.366033  0.250647  1
  W  W24  1  0.668208  0.165538  0.625638  1
  W  W25  1  0.169449  0.338217  0.874874  1
  W  W26  1  0.331467  0.836956  0.126025  1
  W  W27  1  0.829397  0.661541  0.373679  1
  W  W28  1  0.331417  0.837312  0.374244  1
  W  W29  1  0.830445  0.661993  0.125727  1
  W  W30  1  0.668756  0.163363  0.874003  1
  W  W31  1  0.169230  0.335787  0.626573  1
  W  W32  1  0.834710  0.495875  0.750743  1
  W  W33  1  0.333945  0.002551  0.750852  1
  W  W34  1  0.165479  0.502136  0.249965  1
  W  W35  1  0.666208  0.997992  0.249530  1
