# generated using pymatgen
data_Sm3Cd(Rh2O7)2
_symmetry_space_group_name_H-M   'P 1'
_cell_length_a   7.22506261
_cell_length_b   7.22506222
_cell_length_c   7.22506247
_cell_angle_alpha   61.21878941
_cell_angle_beta   61.21879104
_cell_angle_gamma   61.21877915
_symmetry_Int_Tables_number   1
_chemical_formula_structural   Sm3Cd(Rh2O7)2
_chemical_formula_sum   'Sm3 Cd1 Rh4 O14'
_cell_volume   274.00247243
_cell_formula_units_Z   1
loop_
 _symmetry_equiv_pos_site_id
 _symmetry_equiv_pos_as_xyz
  1  'x, y, z'
loop_
 _atom_site_type_symbol
 _atom_site_label
 _atom_site_symmetry_multiplicity
 _atom_site_fract_x
 _atom_site_fract_y
 _atom_site_fract_z
 _atom_site_occupancy
  Sm  Sm0  1  0.125000  0.625000  0.125000  1
  Sm  Sm1  1  0.625000  0.125000  0.125000  1
  Sm  Sm2  1  0.125000  0.125000  0.625000  1
  Cd  Cd3  1  0.125000  0.125000  0.125000  1
  Rh  Rh4  1  0.625000  0.625000  0.625000  1
  Rh  Rh5  1  0.625000  0.625000  0.125000  1
  Rh  Rh6  1  0.125000  0.625000  0.625000  1
  Rh  Rh7  1  0.625000  0.125000  0.625000  1
  O  O8  1  0.247855  0.247855  0.247855  1
  O  O9  1  0.298367  0.698788  0.298367  1
  O  O10  1  0.951633  0.951633  0.551212  1
  O  O11  1  0.540409  0.957694  0.540409  1
  O  O12  1  0.709591  0.709591  0.292306  1
  O  O13  1  0.957694  0.540409  0.540409  1
  O  O14  1  0.709591  0.292306  0.709591  1
  O  O15  1  0.298367  0.298367  0.698788  1
  O  O16  1  0.698788  0.298367  0.298367  1
  O  O17  1  0.292306  0.709591  0.709591  1
  O  O18  1  0.951633  0.551212  0.951633  1
  O  O19  1  0.540409  0.540409  0.957694  1
  O  O20  1  0.002145  0.002145  0.002145  1
  O  O21  1  0.551212  0.951633  0.951633  1
