# generated using pymatgen
data_Dy7ErSc12Si15Sn
_symmetry_space_group_name_H-M   'P 1'
_cell_length_a   7.12003202
_cell_length_b   7.41156158
_cell_length_c   14.05309596
_cell_angle_alpha   89.97982327
_cell_angle_beta   89.58670205
_cell_angle_gamma   90.04303526
_symmetry_Int_Tables_number   1
_chemical_formula_structural   Dy7ErSc12Si15Sn
_chemical_formula_sum   'Dy7 Er1 Sc12 Si15 Sn1'
_cell_volume   741.57013455
_cell_formula_units_Z   1
loop_
 _symmetry_equiv_pos_site_id
 _symmetry_equiv_pos_as_xyz
  1  'x, y, z'
loop_
 _atom_site_type_symbol
 _atom_site_label
 _atom_site_symmetry_multiplicity
 _atom_site_fract_x
 _atom_site_fract_y
 _atom_site_fract_z
 _atom_site_occupancy
  Dy  Dy0  1  0.010649  0.176098  0.096362  1
  Dy  Dy1  1  0.988999  0.824692  0.904537  1
  Dy  Dy2  1  0.489701  0.676200  0.904709  1
  Dy  Dy3  1  0.990067  0.830006  0.598342  1
  Dy  Dy4  1  0.510039  0.323961  0.096645  1
  Dy  Dy5  1  0.004998  0.169559  0.399252  1
  Dy  Dy6  1  0.512411  0.320244  0.399555  1
  Er  Er7  1  0.502281  0.684978  0.600067  1
  Sc  Sc8  1  0.163469  0.502179  0.755030  1
  Sc  Sc9  1  0.836249  0.497780  0.249022  1
  Sc  Sc10  1  0.336218  0.002518  0.249262  1
  Sc  Sc11  1  0.665087  0.997394  0.751759  1
  Sc  Sc12  1  0.344262  0.162468  0.630952  1
  Sc  Sc13  1  0.662927  0.824752  0.372492  1
  Sc  Sc14  1  0.162435  0.683481  0.368998  1
  Sc  Sc15  1  0.666527  0.823006  0.124227  1
  Sc  Sc16  1  0.824162  0.323971  0.626811  1
  Sc  Sc17  1  0.331649  0.175920  0.875513  1
  Sc  Sc18  1  0.832227  0.323279  0.875498  1
  Sc  Sc19  1  0.167623  0.676682  0.125104  1
  Si  Si20  1  0.036106  0.118417  0.751372  1
  Si  Si21  1  0.961939  0.885347  0.246686  1
  Si  Si22  1  0.464257  0.614948  0.248510  1
  Si  Si23  1  0.534075  0.386205  0.752192  1
  Si  Si24  1  0.288119  0.869784  0.752257  1
  Si  Si25  1  0.711199  0.126473  0.247310  1
  Si  Si26  1  0.210994  0.372719  0.249029  1
  Si  Si27  1  0.789875  0.628161  0.751390  1
  Si  Si28  1  0.829841  0.539139  0.458819  1
  Si  Si29  1  0.337841  0.963385  0.460442  1
  Si  Si30  1  0.841457  0.534898  0.039376  1
  Si  Si31  1  0.662649  0.036894  0.537913  1
  Si  Si32  1  0.157389  0.464707  0.961731  1
  Si  Si33  1  0.657670  0.035535  0.961000  1
  Si  Si34  1  0.340939  0.965180  0.039696  1
  Sn  Sn35  1  0.173670  0.459042  0.538142  1
