# generated using pymatgen
data_Al5V12Ni3N4
_symmetry_space_group_name_H-M   'P 1'
_cell_length_a   6.52914100
_cell_length_b   6.52914022
_cell_length_c   6.52914190
_cell_angle_alpha   90.11111198
_cell_angle_beta   90.11111499
_cell_angle_gamma   90.11111301
_symmetry_Int_Tables_number   1
_chemical_formula_structural   Al5V12Ni3N4
_chemical_formula_sum   'Al5 V12 Ni3 N4'
_cell_volume   278.33363867
_cell_formula_units_Z   1
loop_
 _symmetry_equiv_pos_site_id
 _symmetry_equiv_pos_as_xyz
  1  'x, y, z'
loop_
 _atom_site_type_symbol
 _atom_site_label
 _atom_site_symmetry_multiplicity
 _atom_site_fract_x
 _atom_site_fract_y
 _atom_site_fract_z
 _atom_site_occupancy
  Al  Al0  1  0.677353  0.677353  0.677353  1
  Al  Al1  1  0.570065  0.414094  0.935893  1
  Al  Al2  1  0.414094  0.935893  0.570065  1
  Al  Al3  1  0.935893  0.570065  0.414094  1
  Al  Al4  1  0.074037  0.074037  0.074037  1
  V  V5  1  0.789443  0.961947  0.376538  1
  V  V6  1  0.709597  0.040147  0.872686  1
  V  V7  1  0.209955  0.460323  0.126350  1
  V  V8  1  0.290247  0.538752  0.626294  1
  V  V9  1  0.961947  0.376538  0.789443  1
  V  V10  1  0.040147  0.872686  0.709597  1
  V  V11  1  0.460323  0.126350  0.209955  1
  V  V12  1  0.538752  0.626294  0.290247  1
  V  V13  1  0.376538  0.789443  0.961947  1
  V  V14  1  0.872686  0.709597  0.040147  1
  V  V15  1  0.126350  0.209955  0.460323  1
  V  V16  1  0.626294  0.290247  0.538752  1
  Ni  Ni17  1  0.176033  0.824724  0.319360  1
  Ni  Ni18  1  0.319360  0.176033  0.824724  1
  Ni  Ni19  1  0.824724  0.319360  0.176033  1
  N  N20  1  0.879092  0.125676  0.625260  1
  N  N21  1  0.625260  0.879092  0.125676  1
  N  N22  1  0.125676  0.625260  0.879092  1
  N  N23  1  0.376135  0.376135  0.376135  1
