# generated using pymatgen
data_La4YbSn3N
_symmetry_space_group_name_H-M   'P 1'
_cell_length_a   9.52603891
_cell_length_b   9.52603940
_cell_length_c   9.52604000
_cell_angle_alpha   127.73884976
_cell_angle_beta   127.73884443
_cell_angle_gamma   77.04847052
_symmetry_Int_Tables_number   1
_chemical_formula_structural   La4YbSn3N
_chemical_formula_sum   'La8 Yb2 Sn6 N2'
_cell_volume   524.71817711
_cell_formula_units_Z   2
loop_
 _symmetry_equiv_pos_site_id
 _symmetry_equiv_pos_as_xyz
  1  'x, y, z'
loop_
 _atom_site_type_symbol
 _atom_site_label
 _atom_site_symmetry_multiplicity
 _atom_site_fract_x
 _atom_site_fract_y
 _atom_site_fract_z
 _atom_site_occupancy
  La  La0  1  0.503307  0.003307  0.815311  1
  La  La1  1  0.187997  0.687997  0.184689  1
  La  La2  1  0.003307  0.187997  0.500000  1
  La  La3  1  0.687997  0.503307  0.500000  1
  La  La4  1  0.496693  0.996693  0.184689  1
  La  La5  1  0.812003  0.312003  0.815311  1
  La  La6  1  0.996693  0.812003  0.500000  1
  La  La7  1  0.312003  0.496693  0.500000  1
  Yb  Yb8  1  0.500000  0.500000  0.000000  1
  Yb  Yb9  1  0.000000  0.000000  0.000000  1
  Sn  Sn10  1  0.250000  0.250000  0.000000  1
  Sn  Sn11  1  0.750000  0.750000  0.000000  1
  Sn  Sn12  1  0.870971  0.370971  0.241943  1
  Sn  Sn13  1  0.129029  0.629029  0.758057  1
  Sn  Sn14  1  0.370971  0.129029  0.500000  1
  Sn  Sn15  1  0.629029  0.870971  0.500000  1
  N  N16  1  0.250000  0.750000  0.500000  1
  N  N17  1  0.750000  0.250000  0.500000  1
