# generated using pymatgen
data_CoCu3Mo12(PtN)4
_symmetry_space_group_name_H-M   'P 1'
_cell_length_a   6.80789210
_cell_length_b   6.80789210
_cell_length_c   6.80789210
_cell_angle_alpha   90.11697423
_cell_angle_beta   89.88302577
_cell_angle_gamma   89.88302577
_symmetry_Int_Tables_number   1
_chemical_formula_structural   CoCu3Mo12(PtN)4
_chemical_formula_sum   'Co1 Cu3 Mo12 Pt4 N4'
_cell_volume   315.52608799
_cell_formula_units_Z   1
loop_
 _symmetry_equiv_pos_site_id
 _symmetry_equiv_pos_as_xyz
  1  'x, y, z'
loop_
 _atom_site_type_symbol
 _atom_site_label
 _atom_site_symmetry_multiplicity
 _atom_site_fract_x
 _atom_site_fract_y
 _atom_site_fract_z
 _atom_site_occupancy
  Co  Co0  1  0.185707  0.814293  0.314293  1
  Cu  Cu1  1  0.315012  0.185475  0.814595  1
  Cu  Cu2  1  0.814525  0.314595  0.184988  1
  Cu  Cu3  1  0.685405  0.684988  0.685475  1
  Mo  Mo4  1  0.807020  0.957130  0.372399  1
  Mo  Mo5  1  0.696874  0.040581  0.873608  1
  Mo  Mo6  1  0.196465  0.465139  0.127638  1
  Mo  Mo7  1  0.299347  0.543236  0.623782  1
  Mo  Mo8  1  0.959419  0.373608  0.803126  1
  Mo  Mo9  1  0.042870  0.872399  0.692980  1
  Mo  Mo10  1  0.456764  0.123782  0.200653  1
  Mo  Mo11  1  0.534861  0.627638  0.303535  1
  Mo  Mo12  1  0.372362  0.803535  0.965139  1
  Mo  Mo13  1  0.876218  0.700653  0.043236  1
  Mo  Mo14  1  0.127601  0.192980  0.457130  1
  Mo  Mo15  1  0.626392  0.303126  0.540581  1
  Pt  Pt16  1  0.566384  0.433616  0.933616  1
  Pt  Pt17  1  0.435253  0.934257  0.564335  1
  Pt  Pt18  1  0.935665  0.564747  0.434257  1
  Pt  Pt19  1  0.065743  0.064335  0.064747  1
  N  N20  1  0.874915  0.125085  0.625085  1
  N  N21  1  0.626181  0.874216  0.126767  1
  N  N22  1  0.125784  0.626767  0.873819  1
  N  N23  1  0.373233  0.373819  0.374216  1
