# generated using pymatgen
data_Dy5Ho3Tc2(B12Ru)2
_symmetry_space_group_name_H-M   'P 1'
_cell_length_a   3.67032000
_cell_length_b   9.14495182
_cell_length_c   11.53382400
_cell_angle_alpha   89.85756455
_cell_angle_beta   90.00000000
_cell_angle_gamma   90.00000000
_symmetry_Int_Tables_number   1
_chemical_formula_structural   Dy5Ho3Tc2(B12Ru)2
_chemical_formula_sum   'Dy5 Ho3 Tc2 B24 Ru2'
_cell_volume   387.13044813
_cell_formula_units_Z   1
loop_
 _symmetry_equiv_pos_site_id
 _symmetry_equiv_pos_as_xyz
  1  'x, y, z'
loop_
 _atom_site_type_symbol
 _atom_site_label
 _atom_site_symmetry_multiplicity
 _atom_site_fract_x
 _atom_site_fract_y
 _atom_site_fract_z
 _atom_site_occupancy
  Dy  Dy0  1  0.000000  0.325121  0.415552  1
  Dy  Dy1  1  0.000000  0.674872  0.584556  1
  Dy  Dy2  1  0.000000  0.821367  0.087293  1
  Dy  Dy3  1  0.000000  0.178600  0.912594  1
  Dy  Dy4  1  0.000000  0.942107  0.370585  1
  Ho  Ho5  1  0.000000  0.058059  0.629707  1
  Ho  Ho6  1  0.000000  0.443025  0.130072  1
  Ho  Ho7  1  0.000000  0.556969  0.869863  1
  Tc  Tc8  1  0.000000  0.638373  0.320024  1
  Tc  Tc9  1  0.000000  0.361295  0.679995  1
  B  B10  1  0.500000  0.553063  0.432883  1
  B  B11  1  0.500000  0.446789  0.567159  1
  B  B12  1  0.500000  0.053940  0.067107  1
  B  B13  1  0.500000  0.946084  0.932796  1
  B  B14  1  0.500000  0.748150  0.418822  1
  B  B15  1  0.500000  0.251493  0.581219  1
  B  B16  1  0.500000  0.248624  0.081244  1
  B  B17  1  0.500000  0.751429  0.918715  1
  B  B18  1  0.500000  0.791125  0.265272  1
  B  B19  1  0.500000  0.208557  0.734637  1
  B  B20  1  0.500000  0.290702  0.234047  1
  B  B21  1  0.500000  0.709435  0.765905  1
  B  B22  1  0.500000  0.631115  0.185152  1
  B  B23  1  0.500000  0.368780  0.814784  1
  B  B24  1  0.500000  0.131220  0.313810  1
  B  B25  1  0.500000  0.869078  0.686075  1
  B  B26  1  0.500000  0.983483  0.211723  1
  B  B27  1  0.500000  0.016679  0.788045  1
  B  B28  1  0.500000  0.482692  0.287515  1
  B  B29  1  0.500000  0.517249  0.712458  1
  B  B30  1  0.500000  0.603457  0.028465  1
  B  B31  1  0.500000  0.396521  0.971491  1
  B  B32  1  0.500000  0.104026  0.471404  1
  B  B33  1  0.500000  0.896300  0.529226  1
  Ru  Ru34  1  0.000000  0.138104  0.178366  1
  Ru  Ru35  1  0.000000  0.862115  0.821440  1
