# generated using pymatgen
data_Y2ZrSc(Al3Ir)6
_symmetry_space_group_name_H-M   'P 1'
_cell_length_a   7.52531374
_cell_length_b   7.52342244
_cell_length_c   9.39419000
_cell_angle_alpha   90.00000000
_cell_angle_beta   90.00000000
_cell_angle_gamma   119.64812041
_symmetry_Int_Tables_number   1
_chemical_formula_structural   Y2ZrSc(Al3Ir)6
_chemical_formula_sum   'Y2 Zr1 Sc1 Al18 Ir6'
_cell_volume   462.23097482
_cell_formula_units_Z   1
loop_
 _symmetry_equiv_pos_site_id
 _symmetry_equiv_pos_as_xyz
  1  'x, y, z'
loop_
 _atom_site_type_symbol
 _atom_site_label
 _atom_site_symmetry_multiplicity
 _atom_site_fract_x
 _atom_site_fract_y
 _atom_site_fract_z
 _atom_site_occupancy
  Y  Y0  1  0.005804  0.327523  0.750000  1
  Y  Y1  1  0.329291  0.006964  0.750000  1
  Zr  Zr2  1  0.996385  0.672025  0.250000  1
  Sc  Sc3  1  0.671954  0.995889  0.250000  1
  Al  Al4  1  0.122261  0.121278  0.250000  1
  Al  Al5  1  0.869309  0.868900  0.750000  1
  Al  Al6  1  0.996995  0.334649  0.081780  1
  Al  Al7  1  0.998837  0.664948  0.930773  1
  Al  Al8  1  0.998837  0.664948  0.569227  1
  Al  Al9  1  0.335567  0.997960  0.418094  1
  Al  Al10  1  0.996995  0.334649  0.418220  1
  Al  Al11  1  0.664789  0.998139  0.569798  1
  Al  Al12  1  0.664789  0.998139  0.930202  1
  Al  Al13  1  0.335567  0.997960  0.081906  1
  Al  Al14  1  0.334093  0.334323  0.548224  1
  Al  Al15  1  0.669163  0.669540  0.439765  1
  Al  Al16  1  0.669163  0.669540  0.060235  1
  Al  Al17  1  0.334093  0.334323  0.951776  1
  Al  Al18  1  0.338537  0.554042  0.250000  1
  Al  Al19  1  0.660415  0.452680  0.750000  1
  Al  Al20  1  0.556175  0.342368  0.250000  1
  Al  Al21  1  0.451855  0.660021  0.750000  1
  Ir  Ir22  1  0.672485  0.328285  0.001420  1
  Ir  Ir23  1  0.327726  0.672244  0.002051  1
  Ir  Ir24  1  0.327726  0.672244  0.497949  1
  Ir  Ir25  1  0.672485  0.328285  0.498580  1
  Ir  Ir26  1  0.999351  0.999065  0.001400  1
  Ir  Ir27  1  0.999351  0.999065  0.498600  1
