# generated using pymatgen
data_Nb9(FeS3)2
_symmetry_space_group_name_H-M   'P 1'
_cell_length_a   10.50048609
_cell_length_b   10.50048703
_cell_length_c   6.63071800
_cell_angle_alpha   90.00000000
_cell_angle_beta   90.00000000
_cell_angle_gamma   119.98509772
_symmetry_Int_Tables_number   1
_chemical_formula_structural   Nb9(FeS3)2
_chemical_formula_sum   'Nb18 Fe4 S12'
_cell_volume   633.25005020
_cell_formula_units_Z   2
loop_
 _symmetry_equiv_pos_site_id
 _symmetry_equiv_pos_as_xyz
  1  'x, y, z'
loop_
 _atom_site_type_symbol
 _atom_site_label
 _atom_site_symmetry_multiplicity
 _atom_site_fract_x
 _atom_site_fract_y
 _atom_site_fract_z
 _atom_site_occupancy
  Nb  Nb0  1  0.743539  0.214383  0.000000  1
  Nb  Nb1  1  0.470825  0.256462  0.000000  1
  Nb  Nb2  1  0.256462  0.470824  0.000000  1
  Nb  Nb3  1  0.785630  0.529171  0.000000  1
  Nb  Nb4  1  0.214383  0.743538  0.000000  1
  Nb  Nb5  1  0.529171  0.785630  0.000000  1
  Nb  Nb6  1  0.458863  0.000017  0.246906  1
  Nb  Nb7  1  0.000017  0.458863  0.246906  1
  Nb  Nb8  1  0.541138  0.541138  0.246894  1
  Nb  Nb9  1  0.735928  0.191162  0.500000  1
  Nb  Nb10  1  0.455232  0.264074  0.500000  1
  Nb  Nb11  1  0.264073  0.455231  0.500000  1
  Nb  Nb12  1  0.808857  0.544782  0.500000  1
  Nb  Nb13  1  0.191161  0.735928  0.500000  1
  Nb  Nb14  1  0.544782  0.808857  0.500000  1
  Nb  Nb15  1  0.541138  0.541138  0.753107  1
  Nb  Nb16  1  0.458863  0.000017  0.753094  1
  Nb  Nb17  1  0.000017  0.458863  0.753094  1
  Fe  Fe18  1  0.666663  0.333349  0.281503  1
  Fe  Fe19  1  0.333349  0.666663  0.281503  1
  Fe  Fe20  1  0.666663  0.333349  0.718496  1
  Fe  Fe21  1  0.333349  0.666663  0.718496  1
  S  S22  1  0.278964  0.000013  0.000000  1
  S  S23  1  0.000013  0.278964  0.000000  1
  S  S24  1  0.721042  0.721042  0.000000  1
  S  S25  1  0.697459  0.999999  0.235327  1
  S  S26  1  0.999999  0.697459  0.235327  1
  S  S27  1  0.302545  0.302545  0.235324  1
  S  S28  1  0.280411  0.000017  0.500000  1
  S  S29  1  0.000017  0.280410  0.500000  1
  S  S30  1  0.719606  0.719606  0.500000  1
  S  S31  1  0.302545  0.302545  0.764677  1
  S  S32  1  0.697459  0.999999  0.764672  1
  S  S33  1  0.999999  0.697459  0.764672  1
