# generated using pymatgen
data_Dy4YNi16(MoAs4)3
_symmetry_space_group_name_H-M   'P 1'
_cell_length_a   12.63532300
_cell_length_b   12.63532314
_cell_length_c   3.85875700
_cell_angle_alpha   90.00000000
_cell_angle_beta   90.00000000
_cell_angle_gamma   120.00000748
_symmetry_Int_Tables_number   1
_chemical_formula_structural   Dy4YNi16(MoAs4)3
_chemical_formula_sum   'Dy4 Y1 Ni16 Mo3 As12'
_cell_volume   533.52003251
_cell_formula_units_Z   1
loop_
 _symmetry_equiv_pos_site_id
 _symmetry_equiv_pos_as_xyz
  1  'x, y, z'
loop_
 _atom_site_type_symbol
 _atom_site_label
 _atom_site_symmetry_multiplicity
 _atom_site_fract_x
 _atom_site_fract_y
 _atom_site_fract_z
 _atom_site_occupancy
  Dy  Dy0  1  0.185705  0.185704  0.500000  1
  Dy  Dy1  1  0.814296  0.000001  0.500000  1
  Dy  Dy2  1  0.999999  0.814295  0.500000  1
  Dy  Dy3  1  0.333333  0.666667  0.000000  1
  Y  Y4  1  0.666667  0.333333  0.000000  1
  Ni  Ni5  1  0.717985  0.717990  0.500000  1
  Ni  Ni6  1  0.282010  0.999996  0.500000  1
  Ni  Ni7  1  0.000004  0.282015  0.500000  1
  Ni  Ni8  1  0.182882  0.376447  0.000000  1
  Ni  Ni9  1  0.623553  0.806435  0.000000  1
  Ni  Ni10  1  0.193565  0.817118  0.000000  1
  Ni  Ni11  1  0.806451  0.623592  0.000000  1
  Ni  Ni12  1  0.817140  0.193549  0.000000  1
  Ni  Ni13  1  0.376408  0.182860  0.000000  1
  Ni  Ni14  1  0.359162  0.482610  0.500000  1
  Ni  Ni15  1  0.517390  0.876553  0.500000  1
  Ni  Ni16  1  0.123447  0.640838  0.500000  1
  Ni  Ni17  1  0.876610  0.517430  0.500000  1
  Ni  Ni18  1  0.640821  0.123390  0.500000  1
  Ni  Ni19  1  0.482570  0.359179  0.500000  1
  Ni  Ni20  1  0.000000  0.000000  0.000000  1
  Mo  Mo21  1  0.561736  0.561737  0.000000  1
  Mo  Mo22  1  0.438263  0.999998  0.000000  1
  Mo  Mo23  1  0.000002  0.438264  0.000000  1
  As  As24  1  0.821496  0.821498  0.000000  1
  As  As25  1  0.178502  0.999998  0.000000  1
  As  As26  1  0.000002  0.178504  0.000000  1
  As  As27  1  0.167448  0.481315  0.500000  1
  As  As28  1  0.518685  0.686132  0.500000  1
  As  As29  1  0.313868  0.832552  0.500000  1
  As  As30  1  0.686138  0.518749  0.500000  1
  As  As31  1  0.832610  0.313862  0.500000  1
  As  As32  1  0.481251  0.167390  0.500000  1
  As  As33  1  0.364729  0.364731  0.000000  1
  As  As34  1  0.635269  0.999998  0.000000  1
  As  As35  1  0.000002  0.635271  0.000000  1
