# generated using pymatgen
data_Sc2BeB2Ir4Rh
_symmetry_space_group_name_H-M   'P 1'
_cell_length_a   9.28613800
_cell_length_b   2.98451500
_cell_length_c   9.28613800
_cell_angle_alpha   90.00000000
_cell_angle_beta   90.00000000
_cell_angle_gamma   90.00000000
_symmetry_Int_Tables_number   1
_chemical_formula_structural   Sc2BeB2Ir4Rh
_chemical_formula_sum   'Sc4 Be2 B4 Ir8 Rh2'
_cell_volume   257.36176879
_cell_formula_units_Z   2
loop_
 _symmetry_equiv_pos_site_id
 _symmetry_equiv_pos_as_xyz
  1  'x, y, z'
loop_
 _atom_site_type_symbol
 _atom_site_label
 _atom_site_symmetry_multiplicity
 _atom_site_fract_x
 _atom_site_fract_y
 _atom_site_fract_z
 _atom_site_occupancy
  Sc  Sc0  1  0.675263  0.000000  0.175262  1
  Sc  Sc1  1  0.175262  0.000000  0.324737  1
  Sc  Sc2  1  0.824738  0.000000  0.675263  1
  Sc  Sc3  1  0.324737  0.000000  0.824738  1
  Be  Be4  1  0.000000  0.000000  0.000000  1
  Be  Be5  1  0.500000  0.000000  0.500000  1
  B  B6  1  0.371216  0.000000  0.128783  1
  B  B7  1  0.871217  0.000000  0.371216  1
  B  B8  1  0.128783  0.000000  0.628782  1
  B  B9  1  0.628782  0.000000  0.871217  1
  Ir  Ir10  1  0.209475  0.500000  0.067715  1
  Ir  Ir11  1  0.932285  0.500000  0.209475  1
  Ir  Ir12  1  0.432285  0.500000  0.290524  1
  Ir  Ir13  1  0.709476  0.500000  0.432285  1
  Ir  Ir14  1  0.290524  0.500000  0.567715  1
  Ir  Ir15  1  0.567715  0.500000  0.709476  1
  Ir  Ir16  1  0.067715  0.500000  0.790524  1
  Ir  Ir17  1  0.790524  0.500000  0.932285  1
  Rh  Rh18  1  0.500000  0.500000  0.000000  1
  Rh  Rh19  1  0.000000  0.500000  0.500000  1
