# generated using pymatgen
data_NdEr4Th3(ReB6)4
_symmetry_space_group_name_H-M   'P 1'
_cell_length_a   3.75135200
_cell_length_b   9.24292176
_cell_length_c   11.68297849
_cell_angle_alpha   89.91144127
_cell_angle_beta   90.00000000
_cell_angle_gamma   90.00000000
_symmetry_Int_Tables_number   1
_chemical_formula_structural   NdEr4Th3(ReB6)4
_chemical_formula_sum   'Nd1 Er4 Th3 Re4 B24'
_cell_volume   405.08872201
_cell_formula_units_Z   1
loop_
 _symmetry_equiv_pos_site_id
 _symmetry_equiv_pos_as_xyz
  1  'x, y, z'
loop_
 _atom_site_type_symbol
 _atom_site_label
 _atom_site_symmetry_multiplicity
 _atom_site_fract_x
 _atom_site_fract_y
 _atom_site_fract_z
 _atom_site_occupancy
  Nd  Nd0  1  0.000000  0.322509  0.413798  1
  Er  Er1  1  0.000000  0.944572  0.371389  1
  Er  Er2  1  0.000000  0.057074  0.627962  1
  Er  Er3  1  0.000000  0.443896  0.128704  1
  Er  Er4  1  0.000000  0.555118  0.872749  1
  Th  Th5  1  0.000000  0.676310  0.585391  1
  Th  Th6  1  0.000000  0.821419  0.085728  1
  Th  Th7  1  0.000000  0.178422  0.914728  1
  Re  Re8  1  0.000000  0.640897  0.319358  1
  Re  Re9  1  0.000000  0.360593  0.681324  1
  Re  Re10  1  0.000000  0.137977  0.179672  1
  Re  Re11  1  0.000000  0.860753  0.819257  1
  B  B12  1  0.500000  0.556103  0.430079  1
  B  B13  1  0.500000  0.444083  0.569950  1
  B  B14  1  0.500000  0.055975  0.070463  1
  B  B15  1  0.500000  0.943656  0.929158  1
  B  B16  1  0.500000  0.749844  0.416271  1
  B  B17  1  0.500000  0.250325  0.583580  1
  B  B18  1  0.500000  0.250461  0.083859  1
  B  B19  1  0.500000  0.749502  0.916301  1
  B  B20  1  0.500000  0.791314  0.266392  1
  B  B21  1  0.500000  0.209011  0.733592  1
  B  B22  1  0.500000  0.291540  0.233722  1
  B  B23  1  0.500000  0.708653  0.766217  1
  B  B24  1  0.500000  0.630081  0.186232  1
  B  B25  1  0.500000  0.369693  0.814211  1
  B  B26  1  0.500000  0.130243  0.314158  1
  B  B27  1  0.500000  0.869909  0.685713  1
  B  B28  1  0.500000  0.984840  0.214062  1
  B  B29  1  0.500000  0.015163  0.785756  1
  B  B30  1  0.500000  0.484536  0.285967  1
  B  B31  1  0.500000  0.514895  0.713935  1
  B  B32  1  0.500000  0.601876  0.028035  1
  B  B33  1  0.500000  0.398015  0.972653  1
  B  B34  1  0.500000  0.099737  0.472323  1
  B  B35  1  0.500000  0.901005  0.527312  1
