# generated using pymatgen
data_Ho15ErCd4Ir3Ru
_symmetry_space_group_name_H-M   'P 1'
_cell_length_a   9.61129717
_cell_length_b   9.61129653
_cell_length_c   9.61129747
_cell_angle_alpha   59.71822769
_cell_angle_beta   59.71823096
_cell_angle_gamma   59.71823214
_symmetry_Int_Tables_number   1
_chemical_formula_structural   Ho15ErCd4Ir3Ru
_chemical_formula_sum   'Ho15 Er1 Cd4 Ir3 Ru1'
_cell_volume   623.79621933
_cell_formula_units_Z   1
loop_
 _symmetry_equiv_pos_site_id
 _symmetry_equiv_pos_as_xyz
  1  'x, y, z'
loop_
 _atom_site_type_symbol
 _atom_site_label
 _atom_site_symmetry_multiplicity
 _atom_site_fract_x
 _atom_site_fract_y
 _atom_site_fract_z
 _atom_site_occupancy
  Ho  Ho0  1  0.598599  0.598599  0.205847  1
  Ho  Ho1  1  0.598599  0.205847  0.598599  1
  Ho  Ho2  1  0.205847  0.598599  0.598599  1
  Ho  Ho3  1  0.061379  0.438938  0.438938  1
  Ho  Ho4  1  0.438103  0.060021  0.060021  1
  Ho  Ho5  1  0.438938  0.061379  0.438938  1
  Ho  Ho6  1  0.060021  0.438103  0.060021  1
  Ho  Ho7  1  0.438938  0.438938  0.061379  1
  Ho  Ho8  1  0.060021  0.060021  0.438103  1
  Ho  Ho9  1  0.188980  0.811596  0.811596  1
  Ho  Ho10  1  0.809897  0.188131  0.188131  1
  Ho  Ho11  1  0.811596  0.188980  0.811596  1
  Ho  Ho12  1  0.188131  0.809897  0.188131  1
  Ho  Ho13  1  0.811596  0.811596  0.188980  1
  Ho  Ho14  1  0.188131  0.188131  0.809897  1
  Er  Er15  1  0.598823  0.598823  0.598823  1
  Cd  Cd16  1  0.830115  0.830115  0.830115  1
  Cd  Cd17  1  0.830767  0.830767  0.506473  1
  Cd  Cd18  1  0.830767  0.506473  0.830767  1
  Cd  Cd19  1  0.506473  0.830767  0.830767  1
  Ir  Ir20  1  0.393607  0.393607  0.825957  1
  Ir  Ir21  1  0.393607  0.825957  0.393607  1
  Ir  Ir22  1  0.825957  0.393607  0.393607  1
  Ru  Ru23  1  0.391111  0.391111  0.391111  1
