# generated using pymatgen
data_Er2Cr2Co10As7
_symmetry_space_group_name_H-M   'P 1'
_cell_length_a   3.72637300
_cell_length_b   9.35984860
_cell_length_c   9.39759040
_cell_angle_alpha   119.87407403
_cell_angle_beta   90.00000000
_cell_angle_gamma   90.00000000
_symmetry_Int_Tables_number   1
_chemical_formula_structural   Er2Cr2Co10As7
_chemical_formula_sum   'Er2 Cr2 Co10 As7'
_cell_volume   284.21826023
_cell_formula_units_Z   1
loop_
 _symmetry_equiv_pos_site_id
 _symmetry_equiv_pos_as_xyz
  1  'x, y, z'
loop_
 _atom_site_type_symbol
 _atom_site_label
 _atom_site_symmetry_multiplicity
 _atom_site_fract_x
 _atom_site_fract_y
 _atom_site_fract_z
 _atom_site_occupancy
  Er  Er0  1  0.000000  0.671936  0.337602  1
  Er  Er1  1  0.500000  0.331783  0.666779  1
  Cr  Cr2  1  0.500000  0.774201  0.892742  1
  Cr  Cr3  1  0.500000  0.121636  0.223845  1
  Co  Co4  1  0.000000  0.568323  0.940781  1
  Co  Co5  1  0.000000  0.370808  0.431277  1
  Co  Co6  1  0.000000  0.059073  0.628367  1
  Co  Co7  1  0.500000  0.095348  0.877933  1
  Co  Co8  1  0.000000  0.879537  0.156482  1
  Co  Co9  1  0.000000  0.281965  0.123153  1
  Co  Co10  1  0.000000  0.841280  0.721195  1
  Co  Co11  1  0.500000  0.947740  0.381888  1
  Co  Co12  1  0.500000  0.433362  0.049121  1
  Co  Co13  1  0.500000  0.618213  0.565188  1
  As  As14  1  0.000000  0.002611  0.998698  1
  As  As15  1  0.500000  0.707917  0.117888  1
  As  As16  1  0.500000  0.413579  0.291774  1
  As  As17  1  0.500000  0.886662  0.595317  1
  As  As18  1  0.000000  0.584921  0.701353  1
  As  As19  1  0.000000  0.114804  0.413765  1
  As  As20  1  0.000000  0.294299  0.884851  1
