# generated using pymatgen
data_Pa4Tc3Sn2Ge
_symmetry_space_group_name_H-M   'P 1'
_cell_length_a   7.62455300
_cell_length_b   7.62455272
_cell_length_c   3.64206700
_cell_angle_alpha   90.00000000
_cell_angle_beta   90.00000000
_cell_angle_gamma   90.52141059
_symmetry_Int_Tables_number   1
_chemical_formula_structural   Pa4Tc3Sn2Ge
_chemical_formula_sum   'Pa4 Tc3 Sn2 Ge1'
_cell_volume   211.71845029
_cell_formula_units_Z   1
loop_
 _symmetry_equiv_pos_site_id
 _symmetry_equiv_pos_as_xyz
  1  'x, y, z'
loop_
 _atom_site_type_symbol
 _atom_site_label
 _atom_site_symmetry_multiplicity
 _atom_site_fract_x
 _atom_site_fract_y
 _atom_site_fract_z
 _atom_site_occupancy
  Pa  Pa0  1  0.341521  0.158479  0.500000  1
  Pa  Pa1  1  0.670504  0.829496  0.500000  1
  Pa  Pa2  1  0.163568  0.689791  0.500000  1
  Pa  Pa3  1  0.810209  0.336432  0.500000  1
  Tc  Tc4  1  0.639198  0.139465  0.000000  1
  Tc  Tc5  1  0.892161  0.607839  0.000000  1
  Tc  Tc6  1  0.360535  0.860802  0.000000  1
  Sn  Sn7  1  0.992054  0.000646  0.000000  1
  Sn  Sn8  1  0.499354  0.507946  0.000000  1
  Ge  Ge9  1  0.130895  0.369105  0.000000  1
