# generated using pymatgen
data_Sn4B3Ir5Rh2
_symmetry_space_group_name_H-M   'P 1'
_cell_length_a   9.35973068
_cell_length_b   9.35963393
_cell_length_c   5.69061314
_cell_angle_alpha   90.00164081
_cell_angle_beta   89.97758748
_cell_angle_gamma   120.12471908
_symmetry_Int_Tables_number   1
_chemical_formula_structural   Sn4B3Ir5Rh2
_chemical_formula_sum   'Sn8 B6 Ir10 Rh4'
_cell_volume   431.18604275
_cell_formula_units_Z   2
loop_
 _symmetry_equiv_pos_site_id
 _symmetry_equiv_pos_as_xyz
  1  'x, y, z'
loop_
 _atom_site_type_symbol
 _atom_site_label
 _atom_site_symmetry_multiplicity
 _atom_site_fract_x
 _atom_site_fract_y
 _atom_site_fract_z
 _atom_site_occupancy
  Sn  Sn0  1  0.666206  0.332764  0.255276  1
  Sn  Sn1  1  0.411380  0.501207  0.249342  1
  Sn  Sn2  1  0.089399  0.587904  0.248932  1
  Sn  Sn3  1  0.499657  0.911400  0.249910  1
  Sn  Sn4  1  0.503943  0.092668  0.751227  1
  Sn  Sn5  1  0.907339  0.410003  0.748957  1
  Sn  Sn6  1  0.588795  0.496885  0.749868  1
  Sn  Sn7  1  0.333590  0.667078  0.748757  1
  B  B8  1  0.208655  0.035984  0.249340  1
  B  B9  1  0.964636  0.172434  0.249632  1
  B  B10  1  0.827414  0.791445  0.249973  1
  B  B11  1  0.171521  0.208781  0.749121  1
  B  B12  1  0.037143  0.828183  0.750634  1
  B  B13  1  0.791563  0.962540  0.750551  1
  Ir  Ir14  1  0.000021  0.999913  0.000441  1
  Ir  Ir15  1  0.353445  0.228870  0.498251  1
  Ir  Ir16  1  0.876110  0.647082  0.499026  1
  Ir  Ir17  1  0.999482  0.000030  0.500736  1
  Ir  Ir18  1  0.124173  0.354605  0.500035  1
  Ir  Ir19  1  0.645395  0.770381  0.501941  1
  Ir  Ir20  1  0.230717  0.875657  0.501413  1
  Ir  Ir21  1  0.124274  0.354033  0.997586  1
  Ir  Ir22  1  0.645730  0.770005  0.999720  1
  Ir  Ir23  1  0.229909  0.875779  0.999041  1
  Rh  Rh24  1  0.769939  0.125090  0.000640  1
  Rh  Rh25  1  0.355933  0.231278  0.999709  1
  Rh  Rh26  1  0.874321  0.643102  0.001022  1
  Rh  Rh27  1  0.769310  0.124902  0.498919  1
