# generated using pymatgen
data_Sc6As5Se
_symmetry_space_group_name_H-M   'P 1'
_cell_length_a   3.86917828
_cell_length_b   9.52419572
_cell_length_c   7.73494601
_cell_angle_alpha   90.04557320
_cell_angle_beta   60.00260645
_cell_angle_gamma   89.99085733
_symmetry_Int_Tables_number   1
_chemical_formula_structural   Sc6As5Se
_chemical_formula_sum   'Sc6 As5 Se1'
_cell_volume   246.85739929
_cell_formula_units_Z   1
loop_
 _symmetry_equiv_pos_site_id
 _symmetry_equiv_pos_as_xyz
  1  'x, y, z'
loop_
 _atom_site_type_symbol
 _atom_site_label
 _atom_site_symmetry_multiplicity
 _atom_site_fract_x
 _atom_site_fract_y
 _atom_site_fract_z
 _atom_site_occupancy
  Sc  Sc0  1  0.938981  0.895470  0.653160  1
  Sc  Sc1  1  0.270808  0.234431  0.325374  1
  Sc  Sc2  1  0.606512  0.564965  0.988697  1
  Sc  Sc3  1  0.279357  0.238383  0.816614  1
  Sc  Sc4  1  0.606313  0.565007  0.488654  1
  Sc  Sc5  1  0.930038  0.891711  0.161887  1
  As  As6  1  0.270414  0.731267  0.322763  1
  As  As7  1  0.940685  0.398701  0.655144  1
  As  As8  1  0.604610  0.064938  0.489413  1
  As  As9  1  0.941578  0.396898  0.154428  1
  As  As10  1  0.269906  0.732994  0.823596  1
  Se  Se11  1  0.604307  0.064966  0.989362  1
