# generated using pymatgen
data_Tm7Zn(Sn11Os3)2
_symmetry_space_group_name_H-M   'P 1'
_cell_length_a   9.82537900
_cell_length_b   9.82537891
_cell_length_c   10.13697100
_cell_angle_alpha   90.00000000
_cell_angle_beta   90.00000000
_cell_angle_gamma   119.99999694
_symmetry_Int_Tables_number   1
_chemical_formula_structural   Tm7Zn(Sn11Os3)2
_chemical_formula_sum   'Tm7 Zn1 Sn22 Os6'
_cell_volume   847.49563192
_cell_formula_units_Z   1
loop_
 _symmetry_equiv_pos_site_id
 _symmetry_equiv_pos_as_xyz
  1  'x, y, z'
loop_
 _atom_site_type_symbol
 _atom_site_label
 _atom_site_symmetry_multiplicity
 _atom_site_fract_x
 _atom_site_fract_y
 _atom_site_fract_z
 _atom_site_occupancy
  Tm  Tm0  1  0.000000  0.000000  0.000000  1
  Tm  Tm1  1  0.484941  0.515059  0.305511  1
  Tm  Tm2  1  0.515059  0.484941  0.694489  1
  Tm  Tm3  1  0.484941  0.969882  0.305511  1
  Tm  Tm4  1  0.515059  0.030118  0.694489  1
  Tm  Tm5  1  0.030118  0.515059  0.305511  1
  Tm  Tm6  1  0.969882  0.484941  0.694489  1
  Zn  Zn7  1  0.000000  0.000000  0.500000  1
  Sn  Sn8  1  0.349555  0.000000  0.000000  1
  Sn  Sn9  1  0.650445  0.000000  0.000000  1
  Sn  Sn10  1  0.000000  0.349555  0.000000  1
  Sn  Sn11  1  0.000000  0.650445  0.000000  1
  Sn  Sn12  1  0.650445  0.650445  0.000000  1
  Sn  Sn13  1  0.349555  0.349555  0.000000  1
  Sn  Sn14  1  0.333333  0.666667  0.826146  1
  Sn  Sn15  1  0.666667  0.333333  0.173854  1
  Sn  Sn16  1  0.778763  0.221237  0.462930  1
  Sn  Sn17  1  0.221237  0.778763  0.537070  1
  Sn  Sn18  1  0.778763  0.557528  0.462930  1
  Sn  Sn19  1  0.221237  0.442472  0.537070  1
  Sn  Sn20  1  0.442472  0.221237  0.462930  1
  Sn  Sn21  1  0.557528  0.778763  0.537070  1
  Sn  Sn22  1  0.333333  0.666667  0.132439  1
  Sn  Sn23  1  0.666667  0.333333  0.867561  1
  Sn  Sn24  1  0.121049  0.878951  0.272318  1
  Sn  Sn25  1  0.878951  0.121049  0.727682  1
  Sn  Sn26  1  0.121049  0.242098  0.272318  1
  Sn  Sn27  1  0.878951  0.757902  0.727682  1
  Sn  Sn28  1  0.757902  0.878951  0.272318  1
  Sn  Sn29  1  0.242098  0.121049  0.727682  1
  Os  Os30  1  0.830794  0.169206  0.204471  1
  Os  Os31  1  0.169206  0.830794  0.795529  1
  Os  Os32  1  0.830794  0.661586  0.204471  1
  Os  Os33  1  0.169206  0.338414  0.795529  1
  Os  Os34  1  0.338414  0.169206  0.204471  1
  Os  Os35  1  0.661586  0.830794  0.795529  1
