# generated using pymatgen
data_Eu2Ag7
_symmetry_space_group_name_H-M   'P 1'
_cell_length_a   5.66602508
_cell_length_b   5.66602141
_cell_length_c   14.37828000
_cell_angle_alpha   90.00000000
_cell_angle_beta   90.00000000
_cell_angle_gamma   119.28961733
_symmetry_Int_Tables_number   1
_chemical_formula_structural   Eu2Ag7
_chemical_formula_sum   'Eu4 Ag14'
_cell_volume   402.58610321
_cell_formula_units_Z   2
loop_
 _symmetry_equiv_pos_site_id
 _symmetry_equiv_pos_as_xyz
  1  'x, y, z'
loop_
 _atom_site_type_symbol
 _atom_site_label
 _atom_site_symmetry_multiplicity
 _atom_site_fract_x
 _atom_site_fract_y
 _atom_site_fract_z
 _atom_site_occupancy
  Eu  Eu0  1  0.320238  0.320238  0.113720  1
  Eu  Eu1  1  0.679762  0.679762  0.613720  1
  Eu  Eu2  1  0.320238  0.320238  0.386280  1
  Eu  Eu3  1  0.679762  0.679762  0.886280  1
  Ag  Ag4  1  0.829606  0.829606  0.250000  1
  Ag  Ag5  1  0.170394  0.170394  0.750000  1
  Ag  Ag6  1  0.827743  0.329317  0.250000  1
  Ag  Ag7  1  0.172257  0.670683  0.750000  1
  Ag  Ag8  1  0.329317  0.827743  0.250000  1
  Ag  Ag9  1  0.670683  0.172257  0.750000  1
  Ag  Ag10  1  0.994509  0.663420  0.076488  1
  Ag  Ag11  1  0.005491  0.336580  0.576488  1
  Ag  Ag12  1  0.663420  0.994509  0.423512  1
  Ag  Ag13  1  0.336580  0.005491  0.923512  1
  Ag  Ag14  1  0.005491  0.336580  0.923512  1
  Ag  Ag15  1  0.994509  0.663420  0.423512  1
  Ag  Ag16  1  0.336580  0.005491  0.576488  1
  Ag  Ag17  1  0.663420  0.994509  0.076488  1
