# generated using pymatgen
data_LiY3P6N13
_symmetry_space_group_name_H-M   'P 1'
_cell_length_a   7.22457408
_cell_length_b   7.22457442
_cell_length_c   7.35314000
_cell_angle_alpha   109.83211507
_cell_angle_beta   109.83211603
_cell_angle_gamma   109.10792571
_symmetry_Int_Tables_number   1
_chemical_formula_structural   LiY3P6N13
_chemical_formula_sum   'Li1 Y3 P6 N13'
_cell_volume   294.11809211
_cell_formula_units_Z   1
loop_
 _symmetry_equiv_pos_site_id
 _symmetry_equiv_pos_as_xyz
  1  'x, y, z'
loop_
 _atom_site_type_symbol
 _atom_site_label
 _atom_site_symmetry_multiplicity
 _atom_site_fract_x
 _atom_site_fract_y
 _atom_site_fract_z
 _atom_site_occupancy
  Li  Li0  1  0.000000  0.000000  0.685960  1
  Y  Y1  1  0.306096  0.306096  0.290688  1
  Y  Y2  1  0.000000  0.693904  0.984592  1
  Y  Y3  1  0.693904  0.000000  0.984592  1
  P  P4  1  0.503625  0.256326  0.757316  1
  P  P5  1  0.496375  0.752701  0.253693  1
  P  P6  1  0.743674  0.247299  0.500990  1
  P  P7  1  0.256326  0.503625  0.757316  1
  P  P8  1  0.752701  0.496375  0.253693  1
  P  P9  1  0.247299  0.743674  0.500990  1
  N  N10  1  0.000000  0.000000  0.988879  1
  N  N11  1  0.000000  0.714395  0.444471  1
  N  N12  1  0.265077  0.676715  0.273485  1
  N  N13  1  0.323285  0.588359  0.596769  1
  N  N14  1  0.563019  0.563019  0.263662  1
  N  N15  1  0.588359  0.323285  0.596769  1
  N  N16  1  0.714395  0.000000  0.444471  1
  N  N17  1  0.436981  0.000000  0.700642  1
  N  N18  1  0.734923  0.411641  0.008411  1
  N  N19  1  0.285605  0.285605  0.730076  1
  N  N20  1  0.676715  0.265077  0.273485  1
  N  N21  1  0.000000  0.436981  0.700642  1
  N  N22  1  0.411641  0.734923  0.008411  1
