# generated using pymatgen
data_Hf10CuPPb6
_symmetry_space_group_name_H-M   'P 1'
_cell_length_a   8.70252100
_cell_length_b   8.70252002
_cell_length_c   5.88652400
_cell_angle_alpha   90.00000000
_cell_angle_beta   90.00000000
_cell_angle_gamma   119.99999231
_symmetry_Int_Tables_number   1
_chemical_formula_structural   Hf10CuPPb6
_chemical_formula_sum   'Hf10 Cu1 P1 Pb6'
_cell_volume   386.08212548
_cell_formula_units_Z   1
loop_
 _symmetry_equiv_pos_site_id
 _symmetry_equiv_pos_as_xyz
  1  'x, y, z'
loop_
 _atom_site_type_symbol
 _atom_site_label
 _atom_site_symmetry_multiplicity
 _atom_site_fract_x
 _atom_site_fract_y
 _atom_site_fract_z
 _atom_site_occupancy
  Hf  Hf0  1  0.666667  0.333333  0.000000  1
  Hf  Hf1  1  0.000000  0.254390  0.245612  1
  Hf  Hf2  1  0.745610  0.000000  0.754388  1
  Hf  Hf3  1  0.254390  0.254390  0.754388  1
  Hf  Hf4  1  0.333333  0.666667  0.500000  1
  Hf  Hf5  1  0.333333  0.666667  0.000000  1
  Hf  Hf6  1  0.000000  0.745610  0.754388  1
  Hf  Hf7  1  0.666667  0.333333  0.500000  1
  Hf  Hf8  1  0.745610  0.745610  0.245612  1
  Hf  Hf9  1  0.254390  0.000000  0.245612  1
  Cu  Cu10  1  0.000000  0.000000  0.500000  1
  P  P11  1  0.000000  0.000000  0.000000  1
  Pb  Pb12  1  0.608554  0.608554  0.747420  1
  Pb  Pb13  1  0.391446  0.000000  0.747420  1
  Pb  Pb14  1  0.000000  0.608554  0.252580  1
  Pb  Pb15  1  0.391446  0.391446  0.252580  1
  Pb  Pb16  1  0.000000  0.391446  0.747420  1
  Pb  Pb17  1  0.608554  0.000000  0.252580  1
