# generated using pymatgen
data_Tm5GaBiIr
_symmetry_space_group_name_H-M   'P 1'
_cell_length_a   8.63008830
_cell_length_b   8.63008772
_cell_length_c   8.73674082
_cell_angle_alpha   126.04786915
_cell_angle_beta   126.04787544
_cell_angle_gamma   78.96161671
_symmetry_Int_Tables_number   1
_chemical_formula_structural   Tm5GaBiIr
_chemical_formula_sum   'Tm10 Ga2 Bi2 Ir2'
_cell_volume   413.26913527
_cell_formula_units_Z   2
loop_
 _symmetry_equiv_pos_site_id
 _symmetry_equiv_pos_as_xyz
  1  'x, y, z'
loop_
 _atom_site_type_symbol
 _atom_site_label
 _atom_site_symmetry_multiplicity
 _atom_site_fract_x
 _atom_site_fract_y
 _atom_site_fract_z
 _atom_site_occupancy
  Tm  Tm0  1  0.000000  0.000000  0.000000  1
  Tm  Tm1  1  0.500000  0.500000  0.000000  1
  Tm  Tm2  1  0.782228  0.282228  0.794078  1
  Tm  Tm3  1  0.217772  0.717772  0.205922  1
  Tm  Tm4  1  0.488151  0.988151  0.205922  1
  Tm  Tm5  1  0.306313  0.462669  0.500000  1
  Tm  Tm6  1  0.037331  0.193687  0.500000  1
  Tm  Tm7  1  0.511849  0.011849  0.794078  1
  Tm  Tm8  1  0.693687  0.537331  0.500000  1
  Tm  Tm9  1  0.962669  0.806313  0.500000  1
  Ga  Ga10  1  0.136950  0.636950  0.773901  1
  Ga  Ga11  1  0.863050  0.363050  0.226099  1
  Bi  Bi12  1  0.250000  0.250000  0.000000  1
  Bi  Bi13  1  0.750000  0.750000  0.000000  1
  Ir  Ir14  1  0.636847  0.863153  0.500000  1
  Ir  Ir15  1  0.363153  0.136847  0.500000  1
