# generated using pymatgen
data_Pr5Nd9Th2(MgIr)4
_symmetry_space_group_name_H-M   'P 1'
_cell_length_a   10.06229306
_cell_length_b   10.06130558
_cell_length_c   10.09827308
_cell_angle_alpha   59.89219305
_cell_angle_beta   59.88382344
_cell_angle_gamma   59.94452164
_symmetry_Int_Tables_number   1
_chemical_formula_structural   Pr5Nd9Th2(MgIr)4
_chemical_formula_sum   'Pr5 Nd9 Th2 Mg4 Ir4'
_cell_volume   721.38046147
_cell_formula_units_Z   1
loop_
 _symmetry_equiv_pos_site_id
 _symmetry_equiv_pos_as_xyz
  1  'x, y, z'
loop_
 _atom_site_type_symbol
 _atom_site_label
 _atom_site_symmetry_multiplicity
 _atom_site_fract_x
 _atom_site_fract_y
 _atom_site_fract_z
 _atom_site_occupancy
  Pr  Pr0  1  0.560986  0.940551  0.935847  1
  Pr  Pr1  1  0.561192  0.940378  0.562631  1
  Pr  Pr2  1  0.940534  0.560955  0.935653  1
  Pr  Pr3  1  0.562194  0.561935  0.937856  1
  Pr  Pr4  1  0.938198  0.938042  0.561781  1
  Nd  Nd5  1  0.346920  0.957683  0.347717  1
  Nd  Nd6  1  0.957660  0.347039  0.347781  1
  Nd  Nd7  1  0.811491  0.188586  0.188811  1
  Nd  Nd8  1  0.188528  0.811524  0.811106  1
  Nd  Nd9  1  0.188446  0.811392  0.189039  1
  Nd  Nd10  1  0.811523  0.188685  0.811019  1
  Nd  Nd11  1  0.188727  0.189011  0.811072  1
  Nd  Nd12  1  0.810925  0.810796  0.189253  1
  Nd  Nd13  1  0.940655  0.560811  0.562518  1
  Th  Th14  1  0.343179  0.343371  0.345373  1
  Th  Th15  1  0.343285  0.343303  0.968120  1
  Mg  Mg16  1  0.578023  0.577855  0.580649  1
  Mg  Mg17  1  0.577855  0.577868  0.263615  1
  Mg  Mg18  1  0.577203  0.262771  0.580008  1
  Mg  Mg19  1  0.262617  0.577197  0.579996  1
  Ir  Ir20  1  0.146132  0.146103  0.137040  1
  Ir  Ir21  1  0.145993  0.146364  0.570712  1
  Ir  Ir22  1  0.150539  0.567165  0.141290  1
  Ir  Ir23  1  0.567196  0.150616  0.141113  1
