# generated using pymatgen
data_Dy3ZnIn3CuIr
_symmetry_space_group_name_H-M   'P 1'
_cell_length_a   7.62768200
_cell_length_b   7.62768077
_cell_length_c   3.88817800
_cell_angle_alpha   90.00000000
_cell_angle_beta   90.00000000
_cell_angle_gamma   120.00001224
_symmetry_Int_Tables_number   1
_chemical_formula_structural   Dy3ZnIn3CuIr
_chemical_formula_sum   'Dy3 Zn1 In3 Cu1 Ir1'
_cell_volume   195.91234557
_cell_formula_units_Z   1
loop_
 _symmetry_equiv_pos_site_id
 _symmetry_equiv_pos_as_xyz
  1  'x, y, z'
loop_
 _atom_site_type_symbol
 _atom_site_label
 _atom_site_symmetry_multiplicity
 _atom_site_fract_x
 _atom_site_fract_y
 _atom_site_fract_z
 _atom_site_occupancy
  Dy  Dy0  1  0.398692  0.977553  0.500000  1
  Dy  Dy1  1  0.022447  0.421139  0.500000  1
  Dy  Dy2  1  0.578861  0.601308  0.500000  1
  Zn  Zn3  1  0.666667  0.333333  0.000000  1
  In  In4  1  0.748770  0.002454  0.000000  1
  In  In5  1  0.997546  0.746316  0.000000  1
  In  In6  1  0.253684  0.251230  0.000000  1
  Cu  Cu7  1  0.000000  0.000000  0.500000  1
  Ir  Ir8  1  0.333333  0.666667  0.000000  1
