# generated using pymatgen
data_Y5AgB4Rh13Au
_symmetry_space_group_name_H-M   'P 1'
_cell_length_a   4.22075000
_cell_length_b   4.21920600
_cell_length_c   21.01370400
_cell_angle_alpha   90.00000000
_cell_angle_beta   90.00000000
_cell_angle_gamma   90.00000000
_symmetry_Int_Tables_number   1
_chemical_formula_structural   Y5AgB4Rh13Au
_chemical_formula_sum   'Y5 Ag1 B4 Rh13 Au1'
_cell_volume   374.21653198
_cell_formula_units_Z   1
loop_
 _symmetry_equiv_pos_site_id
 _symmetry_equiv_pos_as_xyz
  1  'x, y, z'
loop_
 _atom_site_type_symbol
 _atom_site_label
 _atom_site_symmetry_multiplicity
 _atom_site_fract_x
 _atom_site_fract_y
 _atom_site_fract_z
 _atom_site_occupancy
  Y  Y0  1  0.000000  0.000000  0.893586  1
  Y  Y1  1  0.000000  0.000000  0.106414  1
  Y  Y2  1  0.000000  0.000000  0.300672  1
  Y  Y3  1  0.000000  0.000000  0.500000  1
  Y  Y4  1  0.000000  0.000000  0.699328  1
  Ag  Ag5  1  0.500000  0.000000  0.000000  1
  B  B6  1  0.500000  0.500000  0.193817  1
  B  B7  1  0.500000  0.500000  0.398797  1
  B  B8  1  0.500000  0.500000  0.601203  1
  B  B9  1  0.500000  0.500000  0.806183  1
  Rh  Rh10  1  0.500000  0.500000  0.903491  1
  Rh  Rh11  1  0.500000  0.500000  0.096509  1
  Rh  Rh12  1  0.500000  0.500000  0.298761  1
  Rh  Rh13  1  0.500000  0.500000  0.500000  1
  Rh  Rh14  1  0.500000  0.500000  0.701239  1
  Rh  Rh15  1  0.500000  0.000000  0.201858  1
  Rh  Rh16  1  0.500000  0.000000  0.400207  1
  Rh  Rh17  1  0.500000  0.000000  0.599793  1
  Rh  Rh18  1  0.500000  0.000000  0.798142  1
  Rh  Rh19  1  0.000000  0.500000  0.201474  1
  Rh  Rh20  1  0.000000  0.500000  0.400277  1
  Rh  Rh21  1  0.000000  0.500000  0.599723  1
  Rh  Rh22  1  0.000000  0.500000  0.798526  1
  Au  Au23  1  0.000000  0.500000  0.000000  1
