# generated using pymatgen
data_Hf2Co4As3
_symmetry_space_group_name_H-M   'P 1'
_cell_length_a   12.49154100
_cell_length_b   12.49154052
_cell_length_c   3.74764300
_cell_angle_alpha   90.00000000
_cell_angle_beta   90.00000000
_cell_angle_gamma   120.00000391
_symmetry_Int_Tables_number   1
_chemical_formula_structural   Hf2Co4As3
_chemical_formula_sum   'Hf8 Co16 As12'
_cell_volume   506.43165856
_cell_formula_units_Z   4
loop_
 _symmetry_equiv_pos_site_id
 _symmetry_equiv_pos_as_xyz
  1  'x, y, z'
loop_
 _atom_site_type_symbol
 _atom_site_label
 _atom_site_symmetry_multiplicity
 _atom_site_fract_x
 _atom_site_fract_y
 _atom_site_fract_z
 _atom_site_occupancy
  Hf  Hf0  1  0.825684  0.825684  0.500000  1
  Hf  Hf1  1  0.442675  0.442675  0.000000  1
  Hf  Hf2  1  0.000000  0.174316  0.500000  1
  Hf  Hf3  1  0.557325  0.000000  0.000000  1
  Hf  Hf4  1  0.333333  0.666667  0.000000  1
  Hf  Hf5  1  0.666667  0.333333  0.000000  1
  Hf  Hf6  1  0.000000  0.557325  0.000000  1
  Hf  Hf7  1  0.174316  0.000000  0.500000  1
  Co  Co8  1  0.626844  0.822108  0.000000  1
  Co  Co9  1  0.373156  0.195266  0.000000  1
  Co  Co10  1  0.000000  0.718938  0.500000  1
  Co  Co11  1  0.281062  0.281062  0.500000  1
  Co  Co12  1  0.876050  0.356446  0.500000  1
  Co  Co13  1  0.718938  0.000000  0.500000  1
  Co  Co14  1  0.822108  0.626844  0.000000  1
  Co  Co15  1  0.177892  0.804734  0.000000  1
  Co  Co16  1  0.356446  0.876050  0.500000  1
  Co  Co17  1  0.123950  0.480396  0.500000  1
  Co  Co18  1  0.643554  0.519604  0.500000  1
  Co  Co19  1  0.000000  0.000000  0.000000  1
  Co  Co20  1  0.519604  0.643554  0.500000  1
  Co  Co21  1  0.480396  0.123950  0.500000  1
  Co  Co22  1  0.195266  0.373156  0.000000  1
  Co  Co23  1  0.804734  0.177892  0.000000  1
  As  As24  1  0.000000  0.345042  0.000000  1
  As  As25  1  0.825114  0.514159  0.500000  1
  As  As26  1  0.689044  0.174886  0.500000  1
  As  As27  1  0.175493  0.175493  0.000000  1
  As  As28  1  0.654958  0.654958  0.000000  1
  As  As29  1  0.824507  0.000000  0.000000  1
  As  As30  1  0.514159  0.825114  0.500000  1
  As  As31  1  0.174886  0.689044  0.500000  1
  As  As32  1  0.345042  0.000000  0.000000  1
  As  As33  1  0.485841  0.310956  0.500000  1
  As  As34  1  0.000000  0.824507  0.000000  1
  As  As35  1  0.310956  0.485841  0.500000  1
