# generated using pymatgen
data_Yb6Pr8Er6Si15P
_symmetry_space_group_name_H-M   'P 1'
_cell_length_a   7.54278637
_cell_length_b   7.88081239
_cell_length_c   14.90147100
_cell_angle_alpha   90.01385717
_cell_angle_beta   90.18275494
_cell_angle_gamma   90.51560535
_symmetry_Int_Tables_number   1
_chemical_formula_structural   Yb6Pr8Er6Si15P
_chemical_formula_sum   'Yb6 Pr8 Er6 Si15 P1'
_cell_volume   885.75197202
_cell_formula_units_Z   1
loop_
 _symmetry_equiv_pos_site_id
 _symmetry_equiv_pos_as_xyz
  1  'x, y, z'
loop_
 _atom_site_type_symbol
 _atom_site_label
 _atom_site_symmetry_multiplicity
 _atom_site_fract_x
 _atom_site_fract_y
 _atom_site_fract_z
 _atom_site_occupancy
  Yb  Yb0  1  0.654946  0.990566  0.749512  1
  Yb  Yb1  1  0.846169  0.497266  0.247496  1
  Yb  Yb2  1  0.347479  0.005483  0.247595  1
  Yb  Yb3  1  0.176803  0.681153  0.121878  1
  Yb  Yb4  1  0.678156  0.820723  0.121251  1
  Yb  Yb5  1  0.156585  0.509887  0.749726  1
  Pr  Pr6  1  0.025324  0.183762  0.403613  1
  Pr  Pr7  1  0.524698  0.317156  0.403713  1
  Pr  Pr8  1  0.478042  0.680751  0.898737  1
  Pr  Pr9  1  0.476068  0.680274  0.601318  1
  Pr  Pr10  1  0.977166  0.819567  0.604299  1
  Pr  Pr11  1  0.978882  0.819470  0.895403  1
  Pr  Pr12  1  0.523814  0.318381  0.099010  1
  Pr  Pr13  1  0.023145  0.181944  0.098368  1
  Er  Er14  1  0.317366  0.173138  0.626434  1
  Er  Er15  1  0.675545  0.818376  0.378660  1
  Er  Er16  1  0.174982  0.683660  0.378326  1
  Er  Er17  1  0.819122  0.321477  0.874529  1
  Er  Er18  1  0.819376  0.321645  0.623431  1
  Er  Er19  1  0.319002  0.174139  0.871124  1
  Si  Si20  1  0.464672  0.602721  0.256076  1
  Si  Si21  1  0.020889  0.124353  0.749180  1
  Si  Si22  1  0.529521  0.388362  0.749256  1
  Si  Si23  1  0.148662  0.467652  0.537062  1
  Si  Si24  1  0.964750  0.896765  0.256006  1
  Si  Si25  1  0.737105  0.118689  0.253422  1
  Si  Si26  1  0.854766  0.527119  0.032717  1
  Si  Si27  1  0.352933  0.974059  0.031987  1
  Si  Si28  1  0.146173  0.463047  0.959799  1
  Si  Si29  1  0.646515  0.030138  0.537349  1
  Si  Si30  1  0.353216  0.966290  0.465324  1
  Si  Si31  1  0.853978  0.535237  0.464641  1
  Si  Si32  1  0.769942  0.613180  0.749533  1
  Si  Si33  1  0.234128  0.384181  0.253647  1
  Si  Si34  1  0.643181  0.035390  0.959638  1
  P  P35  1  0.286899  0.874002  0.749943  1
