# generated using pymatgen
data_ErTm9CuIrPb6
_symmetry_space_group_name_H-M   'P 1'
_cell_length_a   9.10113200
_cell_length_b   9.10113342
_cell_length_c   6.67904800
_cell_angle_alpha   90.00000000
_cell_angle_beta   90.00000000
_cell_angle_gamma   120.00000938
_symmetry_Int_Tables_number   1
_chemical_formula_structural   ErTm9CuIrPb6
_chemical_formula_sum   'Er1 Tm9 Cu1 Ir1 Pb6'
_cell_volume   479.11089802
_cell_formula_units_Z   1
loop_
 _symmetry_equiv_pos_site_id
 _symmetry_equiv_pos_as_xyz
  1  'x, y, z'
loop_
 _atom_site_type_symbol
 _atom_site_label
 _atom_site_symmetry_multiplicity
 _atom_site_fract_x
 _atom_site_fract_y
 _atom_site_fract_z
 _atom_site_occupancy
  Er  Er0  1  0.333333  0.666667  0.500000  1
  Tm  Tm1  1  0.243764  0.000020  0.238196  1
  Tm  Tm2  1  0.756256  0.000020  0.761804  1
  Tm  Tm3  1  0.999980  0.243744  0.238196  1
  Tm  Tm4  1  0.999980  0.756236  0.761804  1
  Tm  Tm5  1  0.756256  0.756236  0.238196  1
  Tm  Tm6  1  0.243764  0.243744  0.761804  1
  Tm  Tm7  1  0.333333  0.666667  0.000000  1
  Tm  Tm8  1  0.666667  0.333333  0.000000  1
  Tm  Tm9  1  0.666667  0.333333  0.500000  1
  Cu  Cu10  1  0.000000  0.000000  0.500000  1
  Ir  Ir11  1  0.000000  0.000000  0.000000  1
  Pb  Pb12  1  0.602401  0.000072  0.253522  1
  Pb  Pb13  1  0.397671  0.000072  0.746478  1
  Pb  Pb14  1  0.999928  0.602329  0.253522  1
  Pb  Pb15  1  0.999928  0.397599  0.746478  1
  Pb  Pb16  1  0.397671  0.397599  0.253522  1
  Pb  Pb17  1  0.602401  0.602329  0.746478  1
