# generated using pymatgen
data_Mn3Bi4SbF28
_symmetry_space_group_name_H-M   'P 1'
_cell_length_a   5.61628908
_cell_length_b   9.01330917
_cell_length_c   12.05787500
_cell_angle_alpha   62.25688551
_cell_angle_beta   90.62119458
_cell_angle_gamma   89.90372462
_symmetry_Int_Tables_number   1
_chemical_formula_structural   Mn3Bi4SbF28
_chemical_formula_sum   'Mn3 Bi4 Sb1 F28'
_cell_volume   540.17077751
_cell_formula_units_Z   1
loop_
 _symmetry_equiv_pos_site_id
 _symmetry_equiv_pos_as_xyz
  1  'x, y, z'
loop_
 _atom_site_type_symbol
 _atom_site_label
 _atom_site_symmetry_multiplicity
 _atom_site_fract_x
 _atom_site_fract_y
 _atom_site_fract_z
 _atom_site_occupancy
  Mn  Mn0  1  0.740180  0.277338  0.953502  1
  Mn  Mn1  1  0.760845  0.270828  0.459085  1
  Mn  Mn2  1  0.257460  0.728933  0.040452  1
  Bi  Bi3  1  0.760913  0.816953  0.245489  1
  Bi  Bi4  1  0.264625  0.203175  0.227104  1
  Bi  Bi5  1  0.236199  0.171479  0.745100  1
  Bi  Bi6  1  0.746491  0.807615  0.780991  1
  Sb  Sb7  1  0.245582  0.723615  0.543257  1
  F  F8  1  0.945022  0.716661  0.468386  1
  F  F9  1  0.463410  0.287341  0.034949  1
  F  F10  1  0.032461  0.276767  0.547903  1
  F  F11  1  0.579434  0.722362  0.957955  1
  F  F12  1  0.075487  0.712283  0.911962  1
  F  F13  1  0.565815  0.287215  0.575145  1
  F  F14  1  0.927851  0.296472  0.072190  1
  F  F15  1  0.413140  0.698640  0.416508  1
  F  F16  1  0.728444  0.505956  0.858559  1
  F  F17  1  0.234853  0.485094  0.640990  1
  F  F18  1  0.270327  0.495087  0.134003  1
  F  F19  1  0.771080  0.501841  0.368131  1
  F  F20  1  0.740767  0.044167  0.044838  1
  F  F21  1  0.244183  0.963620  0.456514  1
  F  F22  1  0.265091  0.967712  0.946821  1
  F  F23  1  0.764504  0.040238  0.550847  1
  F  F24  1  0.080613  0.734461  0.677576  1
  F  F25  1  0.552632  0.259587  0.832611  1
  F  F26  1  0.954349  0.253572  0.340138  1
  F  F27  1  0.432327  0.751038  0.168707  1
  F  F28  1  0.008965  0.271727  0.868597  1
  F  F29  1  0.541628  0.723990  0.623496  1
  F  F30  1  0.950019  0.737369  0.128084  1
  F  F31  1  0.494908  0.267377  0.366800  1
  F  F32  1  0.092099  0.972166  0.233034  1
  F  F33  1  0.580167  0.033716  0.268814  1
  F  F34  1  0.885643  0.034918  0.783946  1
  F  F35  1  0.392491  0.958687  0.727514  1
