# generated using pymatgen
data_YbTm(Al5Os)4
_symmetry_space_group_name_H-M   'P 1'
_cell_length_a   6.87450418
_cell_length_b   6.87450350
_cell_length_c   9.15039200
_cell_angle_alpha   90.00000000
_cell_angle_beta   90.00000000
_cell_angle_gamma   96.41202975
_symmetry_Int_Tables_number   1
_chemical_formula_structural   YbTm(Al5Os)4
_chemical_formula_sum   'Yb1 Tm1 Al20 Os4'
_cell_volume   429.73146386
_cell_formula_units_Z   1
loop_
 _symmetry_equiv_pos_site_id
 _symmetry_equiv_pos_as_xyz
  1  'x, y, z'
loop_
 _atom_site_type_symbol
 _atom_site_label
 _atom_site_symmetry_multiplicity
 _atom_site_fract_x
 _atom_site_fract_y
 _atom_site_fract_z
 _atom_site_occupancy
  Yb  Yb0  1  0.373088  0.626912  0.250000  1
  Tm  Tm1  1  0.629381  0.370619  0.750000  1
  Al  Al2  1  0.281480  0.018946  0.750000  1
  Al  Al3  1  0.021549  0.282741  0.250000  1
  Al  Al4  1  0.717259  0.978451  0.250000  1
  Al  Al5  1  0.981054  0.718520  0.750000  1
  Al  Al6  1  0.876127  0.123873  0.950564  1
  Al  Al7  1  0.123880  0.876120  0.042673  1
  Al  Al8  1  0.876127  0.123873  0.549436  1
  Al  Al9  1  0.123880  0.876120  0.457327  1
  Al  Al10  1  0.646402  0.918888  0.750000  1
  Al  Al11  1  0.914154  0.644169  0.250000  1
  Al  Al12  1  0.355831  0.085846  0.250000  1
  Al  Al13  1  0.081112  0.353598  0.750000  1
  Al  Al14  1  0.345659  0.654341  0.898835  1
  Al  Al15  1  0.658170  0.341830  0.101163  1
  Al  Al16  1  0.345659  0.654341  0.601165  1
  Al  Al17  1  0.658170  0.341830  0.398837  1
  Al  Al18  1  0.722994  0.724854  0.998979  1
  Al  Al19  1  0.722994  0.724854  0.501021  1
  Al  Al20  1  0.275146  0.277006  0.998979  1
  Al  Al21  1  0.275146  0.277006  0.501021  1
  Os  Os22  1  0.499556  0.002188  0.999380  1
  Os  Os23  1  0.997812  0.500444  0.999380  1
  Os  Os24  1  0.499556  0.002188  0.500620  1
  Os  Os25  1  0.997812  0.500444  0.500620  1
