# generated using pymatgen
data_Tb2Ho2Al24Pd8Au
_symmetry_space_group_name_H-M   'P 1'
_cell_length_a   7.57069611
_cell_length_b   7.57359656
_cell_length_c   13.18614932
_cell_angle_alpha   84.55874722
_cell_angle_beta   100.96034968
_cell_angle_gamma   119.83341159
_symmetry_Int_Tables_number   1
_chemical_formula_structural   Tb2Ho2Al24Pd8Au
_chemical_formula_sum   'Tb2 Ho2 Al24 Pd8 Au1'
_cell_volume   643.89945691
_cell_formula_units_Z   1
loop_
 _symmetry_equiv_pos_site_id
 _symmetry_equiv_pos_as_xyz
  1  'x, y, z'
loop_
 _atom_site_type_symbol
 _atom_site_label
 _atom_site_symmetry_multiplicity
 _atom_site_fract_x
 _atom_site_fract_y
 _atom_site_fract_z
 _atom_site_occupancy
  Tb  Tb0  1  0.767673  0.502107  0.808936  1
  Tb  Tb1  1  0.231204  0.498156  0.191096  1
  Ho  Ho2  1  0.438156  0.830121  0.808861  1
  Ho  Ho3  1  0.562281  0.168637  0.191866  1
  Al  Al4  1  0.482810  0.165520  0.945476  1
  Al  Al5  1  0.518245  0.834139  0.055636  1
  Al  Al6  1  0.015323  0.160814  0.560059  1
  Al  Al7  1  0.978286  0.833707  0.436497  1
  Al  Al8  1  0.353522  0.839740  0.558189  1
  Al  Al9  1  0.645179  0.166537  0.439193  1
  Al  Al10  1  0.616097  0.834867  0.328773  1
  Al  Al11  1  0.384472  0.160216  0.673185  1
  Al  Al12  1  0.052891  0.492918  0.673129  1
  Al  Al13  1  0.942772  0.506776  0.328709  1
  Al  Al14  1  0.738069  0.846504  0.671687  1
  Al  Al15  1  0.268917  0.159912  0.329876  1
  Al  Al16  1  0.147879  0.500779  0.945233  1
  Al  Al17  1  0.851821  0.499786  0.055624  1
  Al  Al18  1  0.817355  0.832906  0.954970  1
  Al  Al19  1  0.183207  0.167121  0.046329  1
  Al  Al20  1  0.311121  0.500343  0.435749  1
  Al  Al21  1  0.693753  0.500321  0.558084  1
  Al  Al22  1  0.103107  0.836748  0.183712  1
  Al  Al23  1  0.896130  0.163704  0.816740  1
  Al  Al24  1  0.304768  0.365838  0.818205  1
  Al  Al25  1  0.693043  0.630706  0.185330  1
  Al  Al26  1  0.103843  0.957903  0.816181  1
  Al  Al27  1  0.896543  0.040997  0.184213  1
  Pd  Pd28  1  0.612949  0.492830  0.362483  1
  Pd  Pd29  1  0.171978  0.828831  0.999052  1
  Pd  Pd30  1  0.827983  0.171417  0.000257  1
  Pd  Pd31  1  0.294633  0.833854  0.362084  1
  Pd  Pd32  1  0.705679  0.166559  0.637569  1
  Pd  Pd33  1  0.047574  0.825917  0.636871  1
  Pd  Pd34  1  0.952211  0.174221  0.362737  1
  Pd  Pd35  1  0.500182  0.500225  0.000033  1
  Au  Au36  1  0.388346  0.508324  0.637377  1
