# generated using pymatgen
data_Tb2Tm10ZnCo4Bi
_symmetry_space_group_name_H-M   'P 1'
_cell_length_a   8.28162264
_cell_length_b   8.28162229
_cell_length_c   8.28625709
_cell_angle_alpha   109.77665261
_cell_angle_beta   111.31314305
_cell_angle_gamma   107.32478409
_symmetry_Int_Tables_number   1
_chemical_formula_structural   Tb2Tm10ZnCo4Bi
_chemical_formula_sum   'Tb2 Tm10 Zn1 Co4 Bi1'
_cell_volume   437.08129627
_cell_formula_units_Z   1
loop_
 _symmetry_equiv_pos_site_id
 _symmetry_equiv_pos_as_xyz
  1  'x, y, z'
loop_
 _atom_site_type_symbol
 _atom_site_label
 _atom_site_symmetry_multiplicity
 _atom_site_fract_x
 _atom_site_fract_y
 _atom_site_fract_z
 _atom_site_occupancy
  Tb  Tb0  1  0.284763  0.183410  0.468172  1
  Tb  Tb1  1  0.715237  0.816590  0.531828  1
  Tm  Tm2  1  0.285418  0.817248  0.102666  1
  Tm  Tm3  1  0.714582  0.182752  0.897334  1
  Tm  Tm4  1  0.622303  0.312930  0.307495  1
  Tm  Tm5  1  0.377697  0.687070  0.692505  1
  Tm  Tm6  1  0.005435  0.314807  0.692505  1
  Tm  Tm7  1  0.994565  0.685193  0.307495  1
  Tm  Tm8  1  0.217848  0.426119  0.205686  1
  Tm  Tm9  1  0.782152  0.573881  0.794314  1
  Tm  Tm10  1  0.220433  0.012162  0.794314  1
  Tm  Tm11  1  0.779567  0.987838  0.205686  1
  Zn  Zn12  1  0.000000  0.000000  0.000000  1
  Co  Co13  1  0.997797  0.376593  0.374390  1
  Co  Co14  1  0.002203  0.623407  0.625610  1
  Co  Co15  1  0.386825  0.886825  0.500000  1
  Co  Co16  1  0.613175  0.113175  0.500000  1
  Bi  Bi17  1  0.500000  0.500000  0.000000  1
