# generated using pymatgen
data_Li2ZnPd3O8
_symmetry_space_group_name_H-M   'P 1'
_cell_length_a   8.50267000
_cell_length_b   8.50267000
_cell_length_c   8.50267000
_cell_angle_alpha   90.00000000
_cell_angle_beta   90.00000000
_cell_angle_gamma   90.00000000
_symmetry_Int_Tables_number   1
_chemical_formula_structural   Li2ZnPd3O8
_chemical_formula_sum   'Li8 Zn4 Pd12 O32'
_cell_volume   614.70390431
_cell_formula_units_Z   4
loop_
 _symmetry_equiv_pos_site_id
 _symmetry_equiv_pos_as_xyz
  1  'x, y, z'
loop_
 _atom_site_type_symbol
 _atom_site_label
 _atom_site_symmetry_multiplicity
 _atom_site_fract_x
 _atom_site_fract_y
 _atom_site_fract_z
 _atom_site_occupancy
  Li  Li0  1  0.123375  0.876625  0.376625  1
  Li  Li1  1  0.247622  0.247622  0.247622  1
  Li  Li2  1  0.752378  0.747622  0.252378  1
  Li  Li3  1  0.876625  0.376625  0.123375  1
  Li  Li4  1  0.376625  0.123375  0.876625  1
  Li  Li5  1  0.252378  0.752378  0.747622  1
  Li  Li6  1  0.747622  0.252378  0.752378  1
  Li  Li7  1  0.623375  0.623375  0.623375  1
  Zn  Zn8  1  0.498112  0.998112  0.501888  1
  Zn  Zn9  1  0.001888  0.001888  0.001888  1
  Zn  Zn10  1  0.998112  0.501888  0.498112  1
  Zn  Zn11  1  0.501888  0.498112  0.998112  1
  Pd  Pd12  1  0.373144  0.879114  0.124070  1
  Pd  Pd13  1  0.120886  0.624070  0.126856  1
  Pd  Pd14  1  0.124070  0.373144  0.879114  1
  Pd  Pd15  1  0.126856  0.120886  0.624070  1
  Pd  Pd16  1  0.375930  0.626856  0.379114  1
  Pd  Pd17  1  0.620886  0.875930  0.873144  1
  Pd  Pd18  1  0.626856  0.379114  0.375930  1
  Pd  Pd19  1  0.379114  0.375930  0.626856  1
  Pd  Pd20  1  0.624070  0.126856  0.120886  1
  Pd  Pd21  1  0.873144  0.620886  0.875930  1
  Pd  Pd22  1  0.875930  0.873144  0.620886  1
  Pd  Pd23  1  0.879114  0.124070  0.373144  1
  O  O24  1  0.611838  0.613066  0.379937  1
  O  O25  1  0.386397  0.386397  0.386397  1
  O  O26  1  0.111838  0.886934  0.620063  1
  O  O27  1  0.620063  0.111838  0.886934  1
  O  O28  1  0.867592  0.636331  0.634900  1
  O  O29  1  0.636331  0.634900  0.867592  1
  O  O30  1  0.120063  0.388162  0.113066  1
  O  O31  1  0.613066  0.379937  0.611838  1
  O  O32  1  0.888162  0.386934  0.879937  1
  O  O33  1  0.136331  0.865100  0.132408  1
  O  O34  1  0.634900  0.867592  0.636331  1
  O  O35  1  0.379937  0.611838  0.613066  1
  O  O36  1  0.113066  0.120063  0.388162  1
  O  O37  1  0.886397  0.113603  0.613603  1
  O  O38  1  0.367592  0.863669  0.365100  1
  O  O39  1  0.386934  0.879937  0.888162  1
  O  O40  1  0.365100  0.367592  0.863669  1
  O  O41  1  0.363669  0.134900  0.632408  1
  O  O42  1  0.613603  0.886397  0.113603  1
  O  O43  1  0.864161  0.864161  0.864161  1
  O  O44  1  0.113603  0.613603  0.886397  1
  O  O45  1  0.364161  0.635839  0.135839  1
  O  O46  1  0.132408  0.136331  0.865100  1
  O  O47  1  0.886934  0.620063  0.111838  1
  O  O48  1  0.635839  0.135839  0.364161  1
  O  O49  1  0.863669  0.365100  0.367592  1
  O  O50  1  0.134900  0.632408  0.363669  1
  O  O51  1  0.388162  0.113066  0.120063  1
  O  O52  1  0.879937  0.888162  0.386934  1
  O  O53  1  0.135839  0.364161  0.635839  1
  O  O54  1  0.632408  0.363669  0.134900  1
  O  O55  1  0.865100  0.132408  0.136331  1
