# generated using pymatgen
data_LiYbTmSi3
_symmetry_space_group_name_H-M   'P 1'
_cell_length_a   4.23169500
_cell_length_b   10.43052300
_cell_length_c   10.90636700
_cell_angle_alpha   90.00000000
_cell_angle_beta   90.00000000
_cell_angle_gamma   90.00000000
_symmetry_Int_Tables_number   1
_chemical_formula_structural   LiYbTmSi3
_chemical_formula_sum   'Li4 Yb4 Tm4 Si12'
_cell_volume   481.39386478
_cell_formula_units_Z   4
loop_
 _symmetry_equiv_pos_site_id
 _symmetry_equiv_pos_as_xyz
  1  'x, y, z'
loop_
 _atom_site_type_symbol
 _atom_site_label
 _atom_site_symmetry_multiplicity
 _atom_site_fract_x
 _atom_site_fract_y
 _atom_site_fract_z
 _atom_site_occupancy
  Li  Li0  1  0.500000  0.860067  0.282645  1
  Li  Li1  1  0.500000  0.139933  0.717355  1
  Li  Li2  1  0.000000  0.360067  0.217355  1
  Li  Li3  1  0.000000  0.639933  0.782645  1
  Yb  Yb4  1  0.500000  0.822079  0.574724  1
  Yb  Yb5  1  0.500000  0.177921  0.425276  1
  Yb  Yb6  1  0.000000  0.322079  0.925276  1
  Yb  Yb7  1  0.000000  0.677921  0.074724  1
  Tm  Tm8  1  0.500000  0.553540  0.351150  1
  Tm  Tm9  1  0.500000  0.446460  0.648850  1
  Tm  Tm10  1  0.000000  0.053540  0.148850  1
  Tm  Tm11  1  0.000000  0.946460  0.851150  1
  Si  Si12  1  0.500000  0.894146  0.044389  1
  Si  Si13  1  0.500000  0.105854  0.955611  1
  Si  Si14  1  0.000000  0.394146  0.455611  1
  Si  Si15  1  0.000000  0.605854  0.544389  1
  Si  Si16  1  0.000000  0.967874  0.397973  1
  Si  Si17  1  0.000000  0.032126  0.602027  1
  Si  Si18  1  0.500000  0.467874  0.102027  1
  Si  Si19  1  0.500000  0.532126  0.897973  1
  Si  Si20  1  0.000000  0.259099  0.637048  1
  Si  Si21  1  0.000000  0.740901  0.362952  1
  Si  Si22  1  0.500000  0.759099  0.862952  1
  Si  Si23  1  0.500000  0.240901  0.137048  1
