# generated using pymatgen
data_DyLu9Si5Sn
_symmetry_space_group_name_H-M   'P 1'
_cell_length_a   8.32466300
_cell_length_b   8.35837458
_cell_length_c   6.22013900
_cell_angle_alpha   90.00000000
_cell_angle_beta   90.00000000
_cell_angle_gamma   119.86667389
_symmetry_Int_Tables_number   1
_chemical_formula_structural   DyLu9Si5Sn
_chemical_formula_sum   'Dy1 Lu9 Si5 Sn1'
_cell_volume   375.31948679
_cell_formula_units_Z   1
loop_
 _symmetry_equiv_pos_site_id
 _symmetry_equiv_pos_as_xyz
  1  'x, y, z'
loop_
 _atom_site_type_symbol
 _atom_site_label
 _atom_site_symmetry_multiplicity
 _atom_site_fract_x
 _atom_site_fract_y
 _atom_site_fract_z
 _atom_site_occupancy
  Dy  Dy0  1  0.240281  0.000000  0.250000  1
  Lu  Lu1  1  0.989025  0.748765  0.750000  1
  Lu  Lu2  1  0.998429  0.242355  0.250000  1
  Lu  Lu3  1  0.756074  0.757645  0.250000  1
  Lu  Lu4  1  0.766100  0.000000  0.750000  1
  Lu  Lu5  1  0.240260  0.251235  0.750000  1
  Lu  Lu6  1  0.673977  0.342416  0.002863  1
  Lu  Lu7  1  0.331560  0.657584  0.497137  1
  Lu  Lu8  1  0.331560  0.657584  0.002863  1
  Lu  Lu9  1  0.673977  0.342416  0.497137  1
  Si  Si10  1  0.394304  0.393921  0.250000  1
  Si  Si11  1  0.000383  0.606079  0.250000  1
  Si  Si12  1  0.998536  0.394385  0.750000  1
  Si  Si13  1  0.604152  0.605615  0.750000  1
  Si  Si14  1  0.606398  0.000000  0.250000  1
  Sn  Sn15  1  0.394980  0.000000  0.750000  1
