# generated using pymatgen
data_NdEuTh(AgSn)4
_symmetry_space_group_name_H-M   'P 1'
_cell_length_a   8.99859171
_cell_length_b   8.99859220
_cell_length_c   8.99859195
_cell_angle_alpha   149.71136731
_cell_angle_beta   130.64636723
_cell_angle_gamma   59.01029192
_symmetry_Int_Tables_number   1
_chemical_formula_structural   NdEuTh(AgSn)4
_chemical_formula_sum   'Nd1 Eu1 Th1 Ag4 Sn4'
_cell_volume   276.67666929
_cell_formula_units_Z   1
loop_
 _symmetry_equiv_pos_site_id
 _symmetry_equiv_pos_as_xyz
  1  'x, y, z'
loop_
 _atom_site_type_symbol
 _atom_site_label
 _atom_site_symmetry_multiplicity
 _atom_site_fract_x
 _atom_site_fract_y
 _atom_site_fract_z
 _atom_site_occupancy
  Nd  Nd0  1  0.129775  0.129775  0.000000  1
  Eu  Eu1  1  0.500125  0.000125  0.500000  1
  Th  Th2  1  0.870064  0.870064  0.000000  1
  Ag  Ag3  1  0.474305  0.670048  0.804258  1
  Ag  Ag4  1  0.865788  0.670048  0.195742  1
  Ag  Ag5  1  0.134485  0.330101  0.804384  1
  Ag  Ag6  1  0.525718  0.330101  0.195616  1
  Sn  Sn7  1  0.284190  0.784190  0.500000  1
  Sn  Sn8  1  0.716540  0.216540  0.500000  1
  Sn  Sn9  1  0.809074  0.499505  0.309570  1
  Sn  Sn10  1  0.189935  0.499505  0.690430  1
