# generated using pymatgen
data_ThCdCo2Si
_symmetry_space_group_name_H-M   'P 1'
_cell_length_a   3.91549100
_cell_length_b   3.91549100
_cell_length_c   11.28464900
_cell_angle_alpha   90.00000000
_cell_angle_beta   90.00000000
_cell_angle_gamma   90.00000000
_symmetry_Int_Tables_number   1
_chemical_formula_structural   ThCdCo2Si
_chemical_formula_sum   'Th2 Cd2 Co4 Si2'
_cell_volume   173.00574116
_cell_formula_units_Z   2
loop_
 _symmetry_equiv_pos_site_id
 _symmetry_equiv_pos_as_xyz
  1  'x, y, z'
loop_
 _atom_site_type_symbol
 _atom_site_label
 _atom_site_symmetry_multiplicity
 _atom_site_fract_x
 _atom_site_fract_y
 _atom_site_fract_z
 _atom_site_occupancy
  Th  Th0  1  0.000000  0.500000  0.235197  1
  Th  Th1  1  0.500000  0.000000  0.764803  1
  Cd  Cd2  1  0.000000  0.000000  0.500000  1
  Cd  Cd3  1  0.500000  0.500000  0.500000  1
  Co  Co4  1  0.000000  0.000000  0.000000  1
  Co  Co5  1  0.500000  0.500000  0.000000  1
  Co  Co6  1  0.000000  0.500000  0.689659  1
  Co  Co7  1  0.500000  0.000000  0.310341  1
  Si  Si8  1  0.000000  0.500000  0.893166  1
  Si  Si9  1  0.500000  0.000000  0.106834  1
