# generated using pymatgen
data_Dy5Ho5(Bi2Ir)2
_symmetry_space_group_name_H-M   'P 1'
_cell_length_a   7.98481914
_cell_length_b   8.99798900
_cell_length_c   12.50954622
_cell_angle_alpha   90.00000000
_cell_angle_beta   89.97831445
_cell_angle_gamma   90.00000000
_symmetry_Int_Tables_number   1
_chemical_formula_structural   Dy5Ho5(Bi2Ir)2
_chemical_formula_sum   'Dy10 Ho10 Bi8 Ir4'
_cell_volume   898.77724138
_cell_formula_units_Z   2
loop_
 _symmetry_equiv_pos_site_id
 _symmetry_equiv_pos_as_xyz
  1  'x, y, z'
loop_
 _atom_site_type_symbol
 _atom_site_label
 _atom_site_symmetry_multiplicity
 _atom_site_fract_x
 _atom_site_fract_y
 _atom_site_fract_z
 _atom_site_occupancy
  Dy  Dy0  1  0.839227  0.750000  0.794148  1
  Dy  Dy1  1  0.160773  0.250000  0.205852  1
  Dy  Dy2  1  0.339281  0.250000  0.705997  1
  Dy  Dy3  1  0.660719  0.750000  0.294003  1
  Dy  Dy4  1  0.375426  0.750000  0.691103  1
  Dy  Dy5  1  0.624574  0.250000  0.308897  1
  Dy  Dy6  1  0.875466  0.250000  0.808969  1
  Dy  Dy7  1  0.124534  0.750000  0.191031  1
  Dy  Dy8  1  0.948024  0.750000  0.501731  1
  Dy  Dy9  1  0.051976  0.250000  0.498269  1
  Ho  Ho10  1  0.447817  0.250000  0.998197  1
  Ho  Ho11  1  0.552183  0.750000  0.001803  1
  Ho  Ho12  1  0.675830  0.041778  0.566081  1
  Ho  Ho13  1  0.324170  0.958222  0.433919  1
  Ho  Ho14  1  0.175936  0.958278  0.933971  1
  Ho  Ho15  1  0.324170  0.541778  0.433919  1
  Ho  Ho16  1  0.824064  0.041722  0.066029  1
  Ho  Ho17  1  0.675830  0.458222  0.566081  1
  Ho  Ho18  1  0.824064  0.458278  0.066029  1
  Ho  Ho19  1  0.175936  0.541722  0.933971  1
  Bi  Bi20  1  0.566386  0.491668  0.826711  1
  Bi  Bi21  1  0.433614  0.508332  0.173289  1
  Bi  Bi22  1  0.066476  0.508330  0.673517  1
  Bi  Bi23  1  0.433614  0.991668  0.173289  1
  Bi  Bi24  1  0.933524  0.491670  0.326483  1
  Bi  Bi25  1  0.566386  0.008332  0.826711  1
  Bi  Bi26  1  0.933524  0.008330  0.326483  1
  Bi  Bi27  1  0.066476  0.991670  0.673517  1
  Ir  Ir28  1  0.571265  0.750000  0.508684  1
  Ir  Ir29  1  0.428735  0.250000  0.491316  1
  Ir  Ir30  1  0.071487  0.250000  0.991318  1
  Ir  Ir31  1  0.928513  0.750000  0.008682  1
