# generated using pymatgen
data_YGaCu3Pd
_symmetry_space_group_name_H-M   'P 1'
_cell_length_a   5.04757555
_cell_length_b   5.04757589
_cell_length_c   5.04757619
_cell_angle_alpha   60.37545979
_cell_angle_beta   60.37545072
_cell_angle_gamma   60.37545648
_symmetry_Int_Tables_number   1
_chemical_formula_structural   YGaCu3Pd
_chemical_formula_sum   'Y1 Ga1 Cu3 Pd1'
_cell_volume   91.70775978
_cell_formula_units_Z   1
loop_
 _symmetry_equiv_pos_site_id
 _symmetry_equiv_pos_as_xyz
  1  'x, y, z'
loop_
 _atom_site_type_symbol
 _atom_site_label
 _atom_site_symmetry_multiplicity
 _atom_site_fract_x
 _atom_site_fract_y
 _atom_site_fract_z
 _atom_site_occupancy
  Y  Y0  1  0.247295  0.247295  0.247295  1
  Ga  Ga1  1  0.629307  0.629307  0.629307  1
  Cu  Cu2  1  0.625925  0.625925  0.124273  1
  Cu  Cu3  1  0.625925  0.124273  0.625925  1
  Cu  Cu4  1  0.124273  0.625925  0.625925  1
  Pd  Pd5  1  0.997274  0.997274  0.997274  1
