# generated using pymatgen
data_Ce3Nd(Si5Os3)2
_symmetry_space_group_name_H-M   'P 1'
_cell_length_a   8.19971892
_cell_length_b   8.18947751
_cell_length_c   5.84982013
_cell_angle_alpha   70.39800767
_cell_angle_beta   70.45926162
_cell_angle_gamma   93.59952170
_symmetry_Int_Tables_number   1
_chemical_formula_structural   Ce3Nd(Si5Os3)2
_chemical_formula_sum   'Ce3 Nd1 Si10 Os6'
_cell_volume   341.90196759
_cell_formula_units_Z   1
loop_
 _symmetry_equiv_pos_site_id
 _symmetry_equiv_pos_as_xyz
  1  'x, y, z'
loop_
 _atom_site_type_symbol
 _atom_site_label
 _atom_site_symmetry_multiplicity
 _atom_site_fract_x
 _atom_site_fract_y
 _atom_site_fract_z
 _atom_site_occupancy
  Ce  Ce0  1  0.399707  0.132334  0.741597  1
  Ce  Ce1  1  0.132446  0.399049  0.241974  1
  Ce  Ce2  1  0.601179  0.866722  0.258820  1
  Nd  Nd3  1  0.866573  0.601828  0.757411  1
  Si  Si4  1  0.062816  0.261237  0.835473  1
  Si  Si5  1  0.738878  0.939100  0.664102  1
  Si  Si6  1  0.937555  0.738747  0.163809  1
  Si  Si7  1  0.260997  0.061515  0.335538  1
  Si  Si8  1  0.206776  0.792256  0.749702  1
  Si  Si9  1  0.792211  0.206935  0.251297  1
  Si  Si10  1  0.513113  0.486759  0.749482  1
  Si  Si11  1  0.487108  0.512535  0.250175  1
  Si  Si12  1  0.772737  0.225881  0.749584  1
  Si  Si13  1  0.226370  0.773902  0.250648  1
  Os  Os14  1  0.257374  0.541514  0.634222  1
  Os  Os15  1  0.456760  0.745373  0.866354  1
  Os  Os16  1  0.743586  0.456779  0.367744  1
  Os  Os17  1  0.542024  0.254033  0.135608  1
  Os  Os18  1  0.003862  0.999382  0.748207  1
  Os  Os19  1  0.997930  0.004120  0.248253  1
