# generated using pymatgen
data_CsP5Ru3O19
_symmetry_space_group_name_H-M   'P 1'
_cell_length_a   8.55974810
_cell_length_b   8.55974727
_cell_length_c   6.40102312
_cell_angle_alpha   81.31221373
_cell_angle_beta   81.31220502
_cell_angle_gamma   112.21500205
_symmetry_Int_Tables_number   1
_chemical_formula_structural   CsP5Ru3O19
_chemical_formula_sum   'Cs1 P5 Ru3 O19'
_cell_volume   417.95305783
_cell_formula_units_Z   1
loop_
 _symmetry_equiv_pos_site_id
 _symmetry_equiv_pos_as_xyz
  1  'x, y, z'
loop_
 _atom_site_type_symbol
 _atom_site_label
 _atom_site_symmetry_multiplicity
 _atom_site_fract_x
 _atom_site_fract_y
 _atom_site_fract_z
 _atom_site_occupancy
  Cs  Cs0  1  0.093583  0.093583  0.475096  1
  P  P1  1  0.815804  0.185714  0.998330  1
  P  P2  1  0.185714  0.815804  0.998330  1
  P  P3  1  0.670808  0.670808  0.699408  1
  P  P4  1  0.607196  0.315193  0.273208  1
  P  P5  1  0.315193  0.607196  0.273208  1
  Ru  Ru6  1  0.244972  0.492207  0.822748  1
  Ru  Ru7  1  0.761802  0.761802  0.156415  1
  Ru  Ru8  1  0.492207  0.244972  0.822748  1
  O  O9  1  0.676178  0.490740  0.743300  1
  O  O10  1  0.225963  0.516835  0.509153  1
  O  O11  1  0.245297  0.467582  0.143769  1
  O  O12  1  0.680663  0.162549  0.858037  1
  O  O13  1  0.322691  0.990853  0.872785  1
  O  O14  1  0.781484  0.781484  0.840024  1
  O  O15  1  0.510523  0.708591  0.226113  1
  O  O16  1  0.773313  0.773313  0.464013  1
  O  O17  1  0.330714  0.330714  0.808737  1
  O  O18  1  0.708591  0.510523  0.226113  1
  O  O19  1  0.162549  0.680663  0.858037  1
  O  O20  1  0.244746  0.753898  0.212537  1
  O  O21  1  0.019209  0.831322  0.091478  1
  O  O22  1  0.467582  0.245297  0.143769  1
  O  O23  1  0.516835  0.225963  0.509153  1
  O  O24  1  0.490740  0.676178  0.743300  1
  O  O25  1  0.990853  0.322691  0.872785  1
  O  O26  1  0.831322  0.019209  0.091478  1
  O  O27  1  0.753898  0.244746  0.212537  1
