# generated using pymatgen
data_Mg3GePRh2
_symmetry_space_group_name_H-M   'P 1'
_cell_length_a   5.20235700
_cell_length_b   7.35545300
_cell_length_c   12.47972000
_cell_angle_alpha   90.00000000
_cell_angle_beta   90.00000000
_cell_angle_gamma   90.00000000
_symmetry_Int_Tables_number   1
_chemical_formula_structural   Mg3GePRh2
_chemical_formula_sum   'Mg12 Ge4 P4 Rh8'
_cell_volume   477.54512679
_cell_formula_units_Z   4
loop_
 _symmetry_equiv_pos_site_id
 _symmetry_equiv_pos_as_xyz
  1  'x, y, z'
loop_
 _atom_site_type_symbol
 _atom_site_label
 _atom_site_symmetry_multiplicity
 _atom_site_fract_x
 _atom_site_fract_y
 _atom_site_fract_z
 _atom_site_occupancy
  Mg  Mg0  1  0.632812  0.247348  0.250000  1
  Mg  Mg1  1  0.367188  0.752652  0.750000  1
  Mg  Mg2  1  0.367188  0.747348  0.250000  1
  Mg  Mg3  1  0.632812  0.252652  0.750000  1
  Mg  Mg4  1  0.140942  0.392605  0.102393  1
  Mg  Mg5  1  0.859058  0.607395  0.897607  1
  Mg  Mg6  1  0.859058  0.607395  0.602393  1
  Mg  Mg7  1  0.859058  0.892605  0.397607  1
  Mg  Mg8  1  0.140942  0.392605  0.397607  1
  Mg  Mg9  1  0.140942  0.107395  0.602393  1
  Mg  Mg10  1  0.140942  0.107395  0.897607  1
  Mg  Mg11  1  0.859058  0.892605  0.102393  1
  Ge  Ge12  1  0.642364  0.250000  0.000000  1
  Ge  Ge13  1  0.357636  0.750000  0.000000  1
  Ge  Ge14  1  0.357636  0.750000  0.500000  1
  Ge  Ge15  1  0.642364  0.250000  0.500000  1
  P  P16  1  0.109232  0.103910  0.250000  1
  P  P17  1  0.890768  0.896090  0.750000  1
  P  P18  1  0.890768  0.603910  0.250000  1
  P  P19  1  0.109232  0.396090  0.750000  1
  Rh  Rh20  1  0.352112  0.037075  0.098717  1
  Rh  Rh21  1  0.647888  0.962925  0.901283  1
  Rh  Rh22  1  0.647888  0.962925  0.598717  1
  Rh  Rh23  1  0.647888  0.537075  0.401283  1
  Rh  Rh24  1  0.352112  0.037075  0.401283  1
  Rh  Rh25  1  0.352112  0.462925  0.598717  1
  Rh  Rh26  1  0.352112  0.462925  0.901283  1
  Rh  Rh27  1  0.647888  0.537075  0.098717  1
