# generated using pymatgen
data_Ac2Ho(InPt)3
_symmetry_space_group_name_H-M   'P 1'
_cell_length_a   7.86922178
_cell_length_b   7.79051261
_cell_length_c   4.19109900
_cell_angle_alpha   90.00000000
_cell_angle_beta   90.00000000
_cell_angle_gamma   119.66967133
_symmetry_Int_Tables_number   1
_chemical_formula_structural   Ac2Ho(InPt)3
_chemical_formula_sum   'Ac2 Ho1 In3 Pt3'
_cell_volume   223.25046191
_cell_formula_units_Z   1
loop_
 _symmetry_equiv_pos_site_id
 _symmetry_equiv_pos_as_xyz
  1  'x, y, z'
loop_
 _atom_site_type_symbol
 _atom_site_label
 _atom_site_symmetry_multiplicity
 _atom_site_fract_x
 _atom_site_fract_y
 _atom_site_fract_z
 _atom_site_occupancy
  Ac  Ac0  1  0.587415  0.000095  0.500000  1
  Ac  Ac1  1  0.412585  0.412679  0.500000  1
  Ho  Ho2  1  0.000000  0.593096  0.500000  1
  In  In3  1  0.762320  0.752796  0.000000  1
  In  In4  1  0.000000  0.252558  0.000000  1
  In  In5  1  0.237680  0.990475  0.000000  1
  Pt  Pt6  1  0.311396  0.661159  0.000000  1
  Pt  Pt7  1  0.688604  0.349762  0.000000  1
  Pt  Pt8  1  0.000000  0.987381  0.500000  1
