# generated using pymatgen
data_Zn22PdPt3
_symmetry_space_group_name_H-M   'P 1'
_cell_length_a   7.96139578
_cell_length_b   7.90104765
_cell_length_c   7.96139609
_cell_angle_alpha   109.31774860
_cell_angle_beta   109.62426271
_cell_angle_gamma   109.31773888
_symmetry_Int_Tables_number   1
_chemical_formula_structural   Zn22PdPt3
_chemical_formula_sum   'Zn22 Pd1 Pt3'
_cell_volume   386.24273347
_cell_formula_units_Z   1
loop_
 _symmetry_equiv_pos_site_id
 _symmetry_equiv_pos_as_xyz
  1  'x, y, z'
loop_
 _atom_site_type_symbol
 _atom_site_label
 _atom_site_symmetry_multiplicity
 _atom_site_fract_x
 _atom_site_fract_y
 _atom_site_fract_z
 _atom_site_occupancy
  Zn  Zn0  1  0.000000  0.780998  0.000000  1
  Zn  Zn1  1  0.782624  0.000441  0.000000  1
  Zn  Zn2  1  0.000000  0.000441  0.782624  1
  Zn  Zn3  1  0.217376  0.217817  0.217376  1
  Zn  Zn4  1  0.349777  0.625183  0.349777  1
  Zn  Zn5  1  0.274660  0.000708  0.649921  1
  Zn  Zn6  1  0.649921  0.000708  0.274660  1
  Zn  Zn7  1  0.275869  0.649663  0.000000  1
  Zn  Zn8  1  0.725340  0.726048  0.375261  1
  Zn  Zn9  1  0.375261  0.726048  0.725340  1
  Zn  Zn10  1  0.000000  0.649663  0.275869  1
  Zn  Zn11  1  0.000000  0.275406  0.650223  1
  Zn  Zn12  1  0.650223  0.275406  0.000000  1
  Zn  Zn13  1  0.350079  0.350788  0.624739  1
  Zn  Zn14  1  0.624739  0.350788  0.350079  1
  Zn  Zn15  1  0.724131  0.373795  0.724131  1
  Zn  Zn16  1  0.356540  0.358230  0.000000  1
  Zn  Zn17  1  0.000000  0.640333  0.643390  1
  Zn  Zn18  1  0.000000  0.358230  0.356540  1
  Zn  Zn19  1  0.356610  0.996943  0.356610  1
  Zn  Zn20  1  0.643460  0.001690  0.643460  1
  Zn  Zn21  1  0.643390  0.640333  0.000000  1
  Pd  Pd22  1  0.000000  0.347259  0.000000  1
  Pt  Pt23  1  0.345703  0.999594  0.000000  1
  Pt  Pt24  1  0.000000  0.999594  0.345703  1
  Pt  Pt25  1  0.654297  0.653891  0.654297  1
