# generated using pymatgen
data_CaEr3(Mo2O7)2
_symmetry_space_group_name_H-M   'P 1'
_cell_length_a   7.28855853
_cell_length_b   7.39699997
_cell_length_c   7.28855900
_cell_angle_alpha   60.48378417
_cell_angle_beta   60.00000242
_cell_angle_gamma   60.48378081
_symmetry_Int_Tables_number   1
_chemical_formula_structural   CaEr3(Mo2O7)2
_chemical_formula_sum   'Ca1 Er3 Mo4 O14'
_cell_volume   279.87316770
_cell_formula_units_Z   1
loop_
 _symmetry_equiv_pos_site_id
 _symmetry_equiv_pos_as_xyz
  1  'x, y, z'
loop_
 _atom_site_type_symbol
 _atom_site_label
 _atom_site_symmetry_multiplicity
 _atom_site_fract_x
 _atom_site_fract_y
 _atom_site_fract_z
 _atom_site_occupancy
  Ca  Ca0  1  0.125000  0.625000  0.125000  1
  Er  Er1  1  0.625000  0.125000  0.125000  1
  Er  Er2  1  0.125000  0.125000  0.625000  1
  Er  Er3  1  0.125000  0.125000  0.125000  1
  Mo  Mo4  1  0.125000  0.625000  0.625000  1
  Mo  Mo5  1  0.625000  0.125000  0.625000  1
  Mo  Mo6  1  0.625000  0.625000  0.125000  1
  Mo  Mo7  1  0.625000  0.625000  0.625000  1
  O  O8  1  0.696534  0.727855  0.287805  1
  O  O9  1  0.296096  0.285116  0.709393  1
  O  O10  1  0.709393  0.285116  0.709393  1
  O  O11  1  0.287805  0.727855  0.287805  1
  O  O12  1  0.287805  0.727855  0.696534  1
  O  O13  1  0.709393  0.285116  0.296096  1
  O  O14  1  0.553466  0.522145  0.962195  1
  O  O15  1  0.953904  0.964884  0.540607  1
  O  O16  1  0.540607  0.964884  0.540607  1
  O  O17  1  0.962195  0.522145  0.962195  1
  O  O18  1  0.962195  0.522145  0.553466  1
  O  O19  1  0.540607  0.964884  0.953904  1
  O  O20  1  0.253907  0.238279  0.253907  1
  O  O21  1  0.996093  0.011721  0.996093  1
