# generated using pymatgen
data_LaTb2P4Pd7
_symmetry_space_group_name_H-M   'P 1'
_cell_length_a   8.00739306
_cell_length_b   8.00739288
_cell_length_c   9.55258944
_cell_angle_alpha   55.79881118
_cell_angle_beta   55.79881153
_cell_angle_gamma   29.22955654
_symmetry_Int_Tables_number   1
_chemical_formula_structural   LaTb2P4Pd7
_chemical_formula_sum   'La1 Tb2 P4 Pd7'
_cell_volume   243.45096708
_cell_formula_units_Z   1
loop_
 _symmetry_equiv_pos_site_id
 _symmetry_equiv_pos_as_xyz
  1  'x, y, z'
loop_
 _atom_site_type_symbol
 _atom_site_label
 _atom_site_symmetry_multiplicity
 _atom_site_fract_x
 _atom_site_fract_y
 _atom_site_fract_z
 _atom_site_occupancy
  La  La0  1  0.000000  0.000000  0.000000  1
  Tb  Tb1  1  0.679286  0.679286  0.324057  1
  Tb  Tb2  1  0.320714  0.320714  0.675943  1
  P  P3  1  0.336370  0.336370  0.260969  1
  P  P4  1  0.663630  0.663630  0.739031  1
  P  P5  1  0.893178  0.893178  0.816060  1
  P  P6  1  0.106822  0.106822  0.183940  1
  Pd  Pd7  1  0.304196  0.304196  0.030139  1
  Pd  Pd8  1  0.695804  0.695804  0.969861  1
  Pd  Pd9  1  0.509650  0.509650  0.711984  1
  Pd  Pd10  1  0.829853  0.829853  0.425998  1
  Pd  Pd11  1  0.490350  0.490350  0.288016  1
  Pd  Pd12  1  0.170147  0.170147  0.574002  1
  Pd  Pd13  1  0.000000  0.000000  0.500000  1
