# generated using pymatgen
data_Hf4Ta2FeCo(BRu2)4
_symmetry_space_group_name_H-M   'P 1'
_cell_length_a   9.34189200
_cell_length_b   9.34189200
_cell_length_c   3.09187600
_cell_angle_alpha   90.00000000
_cell_angle_beta   90.00000000
_cell_angle_gamma   90.00000000
_symmetry_Int_Tables_number   1
_chemical_formula_structural   Hf4Ta2FeCo(BRu2)4
_chemical_formula_sum   'Hf4 Ta2 Fe1 Co1 B4 Ru8'
_cell_volume   269.83094387
_cell_formula_units_Z   1
loop_
 _symmetry_equiv_pos_site_id
 _symmetry_equiv_pos_as_xyz
  1  'x, y, z'
loop_
 _atom_site_type_symbol
 _atom_site_label
 _atom_site_symmetry_multiplicity
 _atom_site_fract_x
 _atom_site_fract_y
 _atom_site_fract_z
 _atom_site_occupancy
  Hf  Hf0  1  0.825341  0.674659  0.000000  1
  Hf  Hf1  1  0.174659  0.325341  0.000000  1
  Hf  Hf2  1  0.324452  0.824452  0.000000  1
  Hf  Hf3  1  0.675548  0.175548  0.000000  1
  Ta  Ta4  1  0.500000  0.500000  0.000000  1
  Ta  Ta5  1  0.000000  0.000000  0.000000  1
  Fe  Fe6  1  0.000000  0.500000  0.500000  1
  Co  Co7  1  0.500000  0.000000  0.500000  1
  B  B8  1  0.611904  0.888096  0.000000  1
  B  B9  1  0.388096  0.111904  0.000000  1
  B  B10  1  0.113336  0.613336  0.000000  1
  B  B11  1  0.886664  0.386664  0.000000  1
  Ru  Ru12  1  0.564390  0.725031  0.500000  1
  Ru  Ru13  1  0.435610  0.274969  0.500000  1
  Ru  Ru14  1  0.065372  0.776891  0.500000  1
  Ru  Ru15  1  0.934628  0.223109  0.500000  1
  Ru  Ru16  1  0.276891  0.565372  0.500000  1
  Ru  Ru17  1  0.723109  0.434628  0.500000  1
  Ru  Ru18  1  0.225031  0.064390  0.500000  1
  Ru  Ru19  1  0.774969  0.935610  0.500000  1
