# generated using pymatgen
data_NdThOs4
_symmetry_space_group_name_H-M   'P 1'
_cell_length_a   5.40711000
_cell_length_b   5.40711083
_cell_length_c   9.08042000
_cell_angle_alpha   90.00000000
_cell_angle_beta   90.00000000
_cell_angle_gamma   120.00000717
_symmetry_Int_Tables_number   1
_chemical_formula_structural   NdThOs4
_chemical_formula_sum   'Nd2 Th2 Os8'
_cell_volume   229.91484475
_cell_formula_units_Z   2
loop_
 _symmetry_equiv_pos_site_id
 _symmetry_equiv_pos_as_xyz
  1  'x, y, z'
loop_
 _atom_site_type_symbol
 _atom_site_label
 _atom_site_symmetry_multiplicity
 _atom_site_fract_x
 _atom_site_fract_y
 _atom_site_fract_z
 _atom_site_occupancy
  Nd  Nd0  1  0.666667  0.333333  0.937009  1
  Nd  Nd1  1  0.333333  0.666667  0.062991  1
  Th  Th2  1  0.333333  0.666667  0.429314  1
  Th  Th3  1  0.666667  0.333333  0.570686  1
  Os  Os4  1  0.170346  0.340691  0.750479  1
  Os  Os5  1  0.170346  0.829654  0.750479  1
  Os  Os6  1  0.340691  0.170346  0.249521  1
  Os  Os7  1  0.829654  0.659309  0.249521  1
  Os  Os8  1  0.659309  0.829654  0.750479  1
  Os  Os9  1  0.000000  0.000000  0.000000  1
  Os  Os10  1  0.829654  0.170346  0.249521  1
  Os  Os11  1  0.000000  0.000000  0.500000  1
