# generated using pymatgen
data_CeSmCo5P4Rh
_symmetry_space_group_name_H-M   'P 1'
_cell_length_a   3.76797400
_cell_length_b   10.60078898
_cell_length_c   12.47065625
_cell_angle_alpha   90.08428540
_cell_angle_beta   89.99795938
_cell_angle_gamma   89.99644648
_symmetry_Int_Tables_number   1
_chemical_formula_structural   CeSmCo5P4Rh
_chemical_formula_sum   'Ce3 Sm3 Co15 P12 Rh3'
_cell_volume   498.12108383
_cell_formula_units_Z   3
loop_
 _symmetry_equiv_pos_site_id
 _symmetry_equiv_pos_as_xyz
  1  'x, y, z'
loop_
 _atom_site_type_symbol
 _atom_site_label
 _atom_site_symmetry_multiplicity
 _atom_site_fract_x
 _atom_site_fract_y
 _atom_site_fract_z
 _atom_site_occupancy
  Ce  Ce0  1  0.500001  0.819862  0.208557  1
  Ce  Ce1  1  0.499971  0.180710  0.209386  1
  Ce  Ce2  1  0.999999  0.685348  0.791963  1
  Sm  Sm3  1  0.000016  0.500153  0.518880  1
  Sm  Sm4  1  0.499983  0.000090  0.477344  1
  Sm  Sm5  1  0.000018  0.312219  0.794444  1
  Co  Co6  1  0.999972  0.000238  0.290763  1
  Co  Co7  1  0.000025  0.499537  0.989120  1
  Co  Co8  1  0.499961  0.999871  0.014654  1
  Co  Co9  1  0.500020  0.330941  0.995977  1
  Co  Co10  1  0.499977  0.667583  0.996311  1
  Co  Co11  1  0.999982  0.165882  0.007794  1
  Co  Co12  1  0.000030  0.833418  0.006303  1
  Co  Co13  1  0.500027  0.298035  0.427480  1
  Co  Co14  1  0.500013  0.702258  0.425877  1
  Co  Co15  1  0.999964  0.199102  0.569571  1
  Co  Co16  1  0.999979  0.803134  0.569816  1
  Co  Co17  1  0.499998  0.880692  0.711782  1
  Co  Co18  1  0.499999  0.117093  0.710380  1
  Co  Co19  1  0.000009  0.621211  0.287764  1
  Co  Co20  1  0.000000  0.378705  0.288500  1
  P  P21  1  0.499981  0.498931  0.893139  1
  P  P22  1  0.999988  0.999846  0.112968  1
  P  P23  1  0.499981  0.500213  0.347208  1
  P  P24  1  0.000008  0.000874  0.651885  1
  P  P25  1  0.500041  0.300679  0.612032  1
  P  P26  1  0.499960  0.701512  0.608705  1
  P  P27  1  0.999971  0.191473  0.386625  1
  P  P28  1  0.000023  0.809179  0.385808  1
  P  P29  1  0.500045  0.844764  0.897935  1
  P  P30  1  0.499979  0.153113  0.897059  1
  P  P31  1  0.999976  0.656061  0.104117  1
  P  P32  1  0.000047  0.343805  0.104382  1
  Rh  Rh33  1  0.499995  0.499765  0.160138  1
  Rh  Rh34  1  0.000045  0.000146  0.840728  1
  Rh  Rh35  1  0.500018  0.503557  0.704607  1
