# generated using pymatgen
data_Ac4Os
_symmetry_space_group_name_H-M   'P 1'
_cell_length_a   7.99424012
_cell_length_b   7.99426459
_cell_length_c   7.99424100
_cell_angle_alpha   108.02593599
_cell_angle_beta   108.03239971
_cell_angle_gamma   112.39536533
_symmetry_Int_Tables_number   1
_chemical_formula_structural   Ac4Os
_chemical_formula_sum   'Ac8 Os2'
_cell_volume   392.51638936
_cell_formula_units_Z   2
loop_
 _symmetry_equiv_pos_site_id
 _symmetry_equiv_pos_as_xyz
  1  'x, y, z'
loop_
 _atom_site_type_symbol
 _atom_site_label
 _atom_site_symmetry_multiplicity
 _atom_site_fract_x
 _atom_site_fract_y
 _atom_site_fract_z
 _atom_site_occupancy
  Ac  Ac0  1  0.836118  0.042307  0.206188  1
  Ac  Ac1  1  0.413904  0.120092  0.706189  1
  Ac  Ac2  1  0.880060  0.585973  0.294081  1
  Ac  Ac3  1  0.836096  0.629908  0.793811  1
  Ac  Ac4  1  0.369940  0.164027  0.205919  1
  Ac  Ac5  1  0.413882  0.707693  0.293812  1
  Ac  Ac6  1  0.291894  0.585973  0.705915  1
  Ac  Ac7  1  0.958106  0.164027  0.794085  1
  Os  Os8  1  0.499458  0.499461  0.000003  1
  Os  Os9  1  0.750542  0.250539  0.499997  1
