# generated using pymatgen
data_Tb2TmMn2Co9B4
_symmetry_space_group_name_H-M   'P 1'
_cell_length_a   5.08072291
_cell_length_b   5.07679967
_cell_length_c   9.68821300
_cell_angle_alpha   89.99979704
_cell_angle_beta   90.00056570
_cell_angle_gamma   119.92611834
_symmetry_Int_Tables_number   1
_chemical_formula_structural   Tb2TmMn2Co9B4
_chemical_formula_sum   'Tb2 Tm1 Mn2 Co9 B4'
_cell_volume   216.57717727
_cell_formula_units_Z   1
loop_
 _symmetry_equiv_pos_site_id
 _symmetry_equiv_pos_as_xyz
  1  'x, y, z'
loop_
 _atom_site_type_symbol
 _atom_site_label
 _atom_site_symmetry_multiplicity
 _atom_site_fract_x
 _atom_site_fract_y
 _atom_site_fract_z
 _atom_site_occupancy
  Tb  Tb0  1  0.999954  0.999956  0.000979  1
  Tb  Tb1  1  0.999998  0.000000  0.658373  1
  Tm  Tm2  1  0.999995  0.000001  0.341056  1
  Mn  Mn3  1  0.333266  0.666197  0.000358  1
  Mn  Mn4  1  0.666802  0.333906  0.000424  1
  Co  Co5  1  0.499989  0.999984  0.499143  1
  Co  Co6  1  0.499991  0.500007  0.499151  1
  Co  Co7  1  0.000006  0.500005  0.499156  1
  Co  Co8  1  0.499981  0.999985  0.206440  1
  Co  Co9  1  0.499985  0.499999  0.206431  1
  Co  Co10  1  0.999991  0.499998  0.206404  1
  Co  Co11  1  0.499987  0.999980  0.794282  1
  Co  Co12  1  0.499989  0.500004  0.794350  1
  Co  Co13  1  0.000006  0.500001  0.794341  1
  B  B14  1  0.333447  0.666593  0.350350  1
  B  B15  1  0.666528  0.333395  0.350369  1
  B  B16  1  0.666589  0.333334  0.649202  1
  B  B17  1  0.333396  0.666655  0.649197  1
