# generated using pymatgen
data_Ca2Dy3Pb3Cl
_symmetry_space_group_name_H-M   'P 1'
_cell_length_a   9.18418100
_cell_length_b   9.16610144
_cell_length_c   6.95594900
_cell_angle_alpha   90.00000000
_cell_angle_beta   90.00000000
_cell_angle_gamma   120.06526558
_symmetry_Int_Tables_number   1
_chemical_formula_structural   Ca2Dy3Pb3Cl
_chemical_formula_sum   'Ca4 Dy6 Pb6 Cl2'
_cell_volume   506.78776378
_cell_formula_units_Z   2
loop_
 _symmetry_equiv_pos_site_id
 _symmetry_equiv_pos_as_xyz
  1  'x, y, z'
loop_
 _atom_site_type_symbol
 _atom_site_label
 _atom_site_symmetry_multiplicity
 _atom_site_fract_x
 _atom_site_fract_y
 _atom_site_fract_z
 _atom_site_occupancy
  Ca  Ca0  1  0.998692  0.253519  0.250000  1
  Ca  Ca1  1  0.001308  0.746481  0.750000  1
  Ca  Ca2  1  0.745173  0.746481  0.250000  1
  Ca  Ca3  1  0.254827  0.253519  0.750000  1
  Dy  Dy4  1  0.255371  0.000000  0.250000  1
  Dy  Dy5  1  0.744629  0.000000  0.750000  1
  Dy  Dy6  1  0.332755  0.665511  0.000000  1
  Dy  Dy7  1  0.667245  0.334489  0.000000  1
  Dy  Dy8  1  0.667245  0.334489  0.500000  1
  Dy  Dy9  1  0.332755  0.665511  0.500000  1
  Pb  Pb10  1  0.600778  0.000000  0.250000  1
  Pb  Pb11  1  0.399222  0.000000  0.750000  1
  Pb  Pb12  1  0.002981  0.606979  0.250000  1
  Pb  Pb13  1  0.997019  0.393021  0.750000  1
  Pb  Pb14  1  0.396002  0.393021  0.250000  1
  Pb  Pb15  1  0.603998  0.606979  0.750000  1
  Cl  Cl16  1  0.000000  0.000000  0.000000  1
  Cl  Cl17  1  0.000000  0.000000  0.500000  1
