# generated using pymatgen
data_Ho3Tm2InBi2
_symmetry_space_group_name_H-M   'P 1'
_cell_length_a   6.48506300
_cell_length_b   9.02809939
_cell_length_c   9.00750129
_cell_angle_alpha   120.07567634
_cell_angle_beta   90.00083705
_cell_angle_gamma   89.99833088
_symmetry_Int_Tables_number   1
_chemical_formula_structural   Ho3Tm2InBi2
_chemical_formula_sum   'Ho6 Tm4 In2 Bi4'
_cell_volume   456.36655784
_cell_formula_units_Z   2
loop_
 _symmetry_equiv_pos_site_id
 _symmetry_equiv_pos_as_xyz
  1  'x, y, z'
loop_
 _atom_site_type_symbol
 _atom_site_label
 _atom_site_symmetry_multiplicity
 _atom_site_fract_x
 _atom_site_fract_y
 _atom_site_fract_z
 _atom_site_occupancy
  Ho  Ho0  1  0.750011  0.236812  0.000000  1
  Ho  Ho1  1  0.749998  0.764753  0.762609  1
  Ho  Ho2  1  0.749998  0.002144  0.237391  1
  Ho  Ho3  1  0.250002  0.766589  0.000000  1
  Ho  Ho4  1  0.249995  0.233921  0.243007  1
  Ho  Ho5  1  0.249995  0.990914  0.756993  1
  Tm  Tm6  1  0.496807  0.331483  0.659943  1
  Tm  Tm7  1  0.496807  0.671541  0.340057  1
  Tm  Tm8  1  0.003189  0.671552  0.340073  1
  Tm  Tm9  1  0.003189  0.331478  0.659927  1
  In  In10  1  0.249998  0.603324  0.605221  1
  In  In11  1  0.249998  0.998102  0.394779  1
  Bi  Bi12  1  0.750003  0.605992  0.000000  1
  Bi  Bi13  1  0.750002  0.397160  0.393773  1
  Bi  Bi14  1  0.750002  0.003386  0.606227  1
  Bi  Bi15  1  0.250003  0.390849  0.000000  1
