# generated using pymatgen
data_Tm2U(CoSn)3
_symmetry_space_group_name_H-M   'P 1'
_cell_length_a   7.43227700
_cell_length_b   7.24255762
_cell_length_c   3.75305800
_cell_angle_alpha   90.00000000
_cell_angle_beta   90.00000000
_cell_angle_gamma   120.87037188
_symmetry_Int_Tables_number   1
_chemical_formula_structural   Tm2U(CoSn)3
_chemical_formula_sum   'Tm2 U1 Co3 Sn3'
_cell_volume   173.40179566
_cell_formula_units_Z   1
loop_
 _symmetry_equiv_pos_site_id
 _symmetry_equiv_pos_as_xyz
  1  'x, y, z'
loop_
 _atom_site_type_symbol
 _atom_site_label
 _atom_site_symmetry_multiplicity
 _atom_site_fract_x
 _atom_site_fract_y
 _atom_site_fract_z
 _atom_site_occupancy
  Tm  Tm0  1  0.996151  0.592110  0.500000  1
  Tm  Tm1  1  0.404042  0.407890  0.500000  1
  U  U2  1  0.583951  0.000000  0.500000  1
  Co  Co3  1  0.370984  0.709121  0.000000  1
  Co  Co4  1  0.984980  0.000000  0.500000  1
  Co  Co5  1  0.661864  0.290879  0.000000  1
  Sn  Sn6  1  0.743339  0.732053  0.000000  1
  Sn  Sn7  1  0.011287  0.267947  0.000000  1
  Sn  Sn8  1  0.243402  0.000000  0.000000  1
