# generated using pymatgen
data_Y10In2NiPd
_symmetry_space_group_name_H-M   'P 1'
_cell_length_a   9.80749971
_cell_length_b   9.65229218
_cell_length_c   9.46941200
_cell_angle_alpha   90.00000000
_cell_angle_beta   90.00000000
_cell_angle_gamma   119.77667091
_symmetry_Int_Tables_number   1
_chemical_formula_structural   Y10In2NiPd
_chemical_formula_sum   'Y20 In4 Ni2 Pd2'
_cell_volume   778.06406395
_cell_formula_units_Z   2
loop_
 _symmetry_equiv_pos_site_id
 _symmetry_equiv_pos_as_xyz
  1  'x, y, z'
loop_
 _atom_site_type_symbol
 _atom_site_label
 _atom_site_symmetry_multiplicity
 _atom_site_fract_x
 _atom_site_fract_y
 _atom_site_fract_z
 _atom_site_occupancy
  Y  Y0  1  0.976066  0.987441  0.455508  1
  Y  Y1  1  0.976066  0.987441  0.044492  1
  Y  Y2  1  0.562821  0.472371  0.250000  1
  Y  Y3  1  0.563193  0.091319  0.250000  1
  Y  Y4  1  0.920977  0.460110  0.250000  1
  Y  Y5  1  0.456437  0.543311  0.750000  1
  Y  Y6  1  0.457357  0.918184  0.750000  1
  Y  Y7  1  0.089306  0.547179  0.750000  1
  Y  Y8  1  0.208372  0.793743  0.433756  1
  Y  Y9  1  0.207239  0.413705  0.433148  1
  Y  Y10  1  0.571509  0.785723  0.438592  1
  Y  Y11  1  0.794603  0.211173  0.560647  1
  Y  Y12  1  0.794440  0.583052  0.561681  1
  Y  Y13  1  0.418175  0.209802  0.558985  1
  Y  Y14  1  0.794603  0.211173  0.939353  1
  Y  Y15  1  0.794440  0.583052  0.938319  1
  Y  Y16  1  0.418175  0.209802  0.941015  1
  Y  Y17  1  0.208372  0.793743  0.066244  1
  Y  Y18  1  0.207239  0.413705  0.066852  1
  Y  Y19  1  0.571509  0.785723  0.061408  1
  In  In20  1  0.260342  0.127785  0.250000  1
  In  In21  1  0.111724  0.892296  0.750000  1
  In  In22  1  0.110507  0.216947  0.750000  1
  In  In23  1  0.772540  0.886615  0.750000  1
  Ni  Ni24  1  0.332871  0.666831  0.250000  1
  Ni  Ni25  1  0.664485  0.330319  0.750000  1
  Pd  Pd26  1  0.878110  0.142282  0.250000  1
  Pd  Pd27  1  0.878520  0.735177  0.250000  1
