# generated using pymatgen
data_Y31LuB8(C8I19)2
_symmetry_space_group_name_H-M   'P 1'
_cell_length_a   12.61890412
_cell_length_b   14.56609998
_cell_length_c   19.82034719
_cell_angle_alpha   104.65849644
_cell_angle_beta   89.61570513
_cell_angle_gamma   112.70802102
_symmetry_Int_Tables_number   1
_chemical_formula_structural   Y31LuB8(C8I19)2
_chemical_formula_sum   'Y31 Lu1 B8 C16 I38'
_cell_volume   3234.41387648
_cell_formula_units_Z   1
loop_
 _symmetry_equiv_pos_site_id
 _symmetry_equiv_pos_as_xyz
  1  'x, y, z'
loop_
 _atom_site_type_symbol
 _atom_site_label
 _atom_site_symmetry_multiplicity
 _atom_site_fract_x
 _atom_site_fract_y
 _atom_site_fract_z
 _atom_site_occupancy
  Y  Y0  1  0.571276  0.348592  0.221906  1
  Y  Y1  1  0.684667  0.657828  0.779088  1
  Y  Y2  1  0.398125  0.266391  0.043579  1
  Y  Y3  1  0.321221  0.709773  0.543692  1
  Y  Y4  1  0.858616  0.726275  0.541618  1
  Y  Y5  1  0.638615  0.504502  0.408273  1
  Y  Y6  1  0.443661  0.650694  0.279128  1
  Y  Y7  1  0.398322  0.265526  0.372740  1
  Y  Y8  1  0.139428  0.278444  0.956606  1
  Y  Y9  1  0.325210  0.713158  0.041728  1
  Y  Y10  1  0.405286  0.264650  0.872930  1
  Y  Y11  1  0.860177  0.721138  0.043848  1
  Y  Y12  1  0.678497  0.290163  0.456217  1
  Y  Y13  1  0.601453  0.733434  0.956798  1
  Y  Y14  1  0.594323  0.735230  0.127185  1
  Y  Y15  1  0.636964  0.501967  0.091909  1
  Y  Y16  1  0.362415  0.497782  0.908474  1
  Y  Y17  1  0.141153  0.273573  0.457840  1
  Y  Y18  1  0.699513  0.658714  0.277899  1
  Y  Y19  1  0.405237  0.266216  0.543134  1
  Y  Y20  1  0.365970  0.496229  0.407466  1
  Y  Y21  1  0.365842  0.496979  0.092278  1
  Y  Y22  1  0.633316  0.502442  0.908198  1
  Y  Y23  1  0.429424  0.651314  0.778145  1
  Y  Y24  1  0.360930  0.495386  0.591336  1
  Y  Y25  1  0.674483  0.286786  0.958357  1
  Y  Y26  1  0.594331  0.733711  0.456788  1
  Y  Y27  1  0.633340  0.503243  0.591942  1
  Y  Y28  1  0.556558  0.349610  0.720953  1
  Y  Y29  1  0.300603  0.341377  0.722108  1
  Y  Y30  1  0.601477  0.734339  0.626882  1
  Lu  Lu31  1  0.321374  0.343741  0.221247  1
  B  B32  1  0.507605  0.501324  0.205540  1
  B  B33  1  0.470664  0.430389  0.486802  1
  B  B34  1  0.492123  0.498800  0.794697  1
  B  B35  1  0.470477  0.430384  0.987253  1
  B  B36  1  0.528890  0.569318  0.013197  1
  B  B37  1  0.492425  0.500709  0.705308  1
  B  B38  1  0.507363  0.499435  0.294538  1
  B  B39  1  0.528858  0.569406  0.512735  1
  C  C40  1  0.665405  0.634885  0.524964  1
  C  C41  1  0.460054  0.391964  0.314814  1
  C  C42  1  0.449957  0.392405  0.816028  1
  C  C43  1  0.444863  0.629248  0.025034  1
  C  C44  1  0.553622  0.369361  0.475613  1
  C  C45  1  0.538929  0.607493  0.684232  1
  C  C46  1  0.334142  0.364110  0.975845  1
  C  C47  1  0.450999  0.395717  0.644459  1
  C  C48  1  0.554574  0.370468  0.975363  1
  C  C49  1  0.665330  0.635489  0.024534  1
  C  C50  1  0.549833  0.607547  0.184126  1
  C  C51  1  0.460398  0.395523  0.145425  1
  C  C52  1  0.445869  0.630363  0.523965  1
  C  C53  1  0.334226  0.364875  0.474592  1
  C  C54  1  0.548837  0.604268  0.355421  1
  C  C55  1  0.538530  0.603956  0.855329  1
  I  I56  1  0.457188  0.088550  0.948888  1
  I  I57  1  0.616395  0.865289  0.833858  1
  I  I58  1  0.503217  0.903365  0.640126  1
  I  I59  1  0.112429  0.354170  0.825168  1
  I  I60  1  0.615055  0.206540  0.584371  1
  I  I61  1  0.870005  0.195728  0.437563  1
  I  I62  1  0.844142  0.908952  0.143080  1
  I  I63  1  0.872720  0.505708  0.949684  1
  I  I64  1  0.861660  0.810113  0.702256  1
  I  I65  1  0.382729  0.135172  0.166690  1
  I  I66  1  0.141559  0.194841  0.296278  1
  I  I67  1  0.770809  0.367316  0.325004  1
  I  I68  1  0.866018  0.805298  0.916063  1
  I  I69  1  0.750644  0.339762  0.114666  1
  I  I70  1  0.542446  0.911537  0.051398  1
  I  I71  1  0.109024  0.326530  0.614912  1
  I  I72  1  0.891014  0.673202  0.384737  1
  I  I73  1  0.817034  0.918927  0.538699  1
  I  I74  1  0.134678  0.807832  0.057453  1
  I  I75  1  0.805467  0.509493  0.748800  1
  I  I76  1  0.865315  0.192155  0.942823  1
  I  I77  1  0.127480  0.491696  0.450371  1
  I  I78  1  0.249080  0.660242  0.885389  1
  I  I79  1  0.130056  0.804272  0.562145  1
  I  I80  1  0.623191  0.212881  0.797920  1
  I  I81  1  0.197388  0.485187  0.249900  1
  I  I82  1  0.182583  0.081007  0.460379  1
  I  I83  1  0.496506  0.096610  0.359739  1
  I  I84  1  0.384497  0.793409  0.415395  1
  I  I85  1  0.155593  0.090851  0.857277  1
  I  I86  1  0.872255  0.508353  0.549336  1
  I  I87  1  0.683578  0.866039  0.328278  1
  I  I88  1  0.136413  0.199163  0.086999  1
  I  I89  1  0.126964  0.494291  0.050391  1
  I  I90  1  0.229050  0.632750  0.674980  1
  I  I91  1  0.376216  0.786937  0.202279  1
  I  I92  1  0.316379  0.133847  0.671608  1
  I  I93  1  0.887444  0.645342  0.174993  1
