# generated using pymatgen
data_BaMn4(PtO6)2
_symmetry_space_group_name_H-M   'P 1'
_cell_length_a   8.43617181
_cell_length_b   8.43617140
_cell_length_c   9.97975000
_cell_angle_alpha   54.56559181
_cell_angle_beta   54.56560211
_cell_angle_gamma   65.35000268
_symmetry_Int_Tables_number   1
_chemical_formula_structural   BaMn4(PtO6)2
_chemical_formula_sum   'Ba2 Mn8 Pt4 O24'
_cell_volume   467.99246116
_cell_formula_units_Z   2
loop_
 _symmetry_equiv_pos_site_id
 _symmetry_equiv_pos_as_xyz
  1  'x, y, z'
loop_
 _atom_site_type_symbol
 _atom_site_label
 _atom_site_symmetry_multiplicity
 _atom_site_fract_x
 _atom_site_fract_y
 _atom_site_fract_z
 _atom_site_occupancy
  Ba  Ba0  1  0.282217  0.717783  0.000000  1
  Ba  Ba1  1  0.717783  0.282217  0.000000  1
  Mn  Mn2  1  0.669038  0.000617  0.815599  1
  Mn  Mn3  1  0.188226  0.518425  0.476273  1
  Mn  Mn4  1  0.811774  0.481575  0.523727  1
  Mn  Mn5  1  0.330962  0.999383  0.184401  1
  Mn  Mn6  1  0.999383  0.330962  0.184401  1
  Mn  Mn7  1  0.000617  0.669038  0.815599  1
  Mn  Mn8  1  0.518425  0.188226  0.476273  1
  Mn  Mn9  1  0.481575  0.811774  0.523727  1
  Pt  Pt10  1  0.855664  0.855664  0.470349  1
  Pt  Pt11  1  0.341573  0.341573  0.813398  1
  Pt  Pt12  1  0.144336  0.144336  0.529651  1
  Pt  Pt13  1  0.658427  0.658427  0.186602  1
  O  O14  1  0.690529  0.690529  0.954594  1
  O  O15  1  0.014492  0.668266  0.352603  1
  O  O16  1  0.668266  0.014492  0.352603  1
  O  O17  1  0.674958  0.022755  0.602295  1
  O  O18  1  0.022755  0.674958  0.602295  1
  O  O19  1  0.051872  0.051872  0.269212  1
  O  O20  1  0.707353  0.365015  0.274010  1
  O  O21  1  0.365015  0.707353  0.274010  1
  O  O22  1  0.977245  0.325042  0.397705  1
  O  O23  1  0.985508  0.331734  0.647397  1
  O  O24  1  0.042270  0.382345  0.930140  1
  O  O25  1  0.382345  0.042270  0.930140  1
  O  O26  1  0.309471  0.309471  0.045406  1
  O  O27  1  0.957730  0.617655  0.069860  1
  O  O28  1  0.341821  0.341821  0.351323  1
  O  O29  1  0.355151  0.355151  0.595665  1
  O  O30  1  0.292647  0.634985  0.725990  1
  O  O31  1  0.634985  0.292647  0.725990  1
  O  O32  1  0.948128  0.948128  0.730788  1
  O  O33  1  0.644849  0.644849  0.404335  1
  O  O34  1  0.325042  0.977245  0.397705  1
  O  O35  1  0.658179  0.658179  0.648677  1
  O  O36  1  0.331734  0.985508  0.647397  1
  O  O37  1  0.617655  0.957730  0.069860  1
