# generated using pymatgen
data_AcS27
_symmetry_space_group_name_H-M   'P 1'
_cell_length_a   14.38805474
_cell_length_b   14.38805468
_cell_length_c   14.38805493
_cell_angle_alpha   118.66914835
_cell_angle_beta   118.66914503
_cell_angle_gamma   118.66915266
_symmetry_Int_Tables_number   1
_chemical_formula_structural   AcS27
_chemical_formula_sum   'Ac1 S27'
_cell_volume   886.97300671
_cell_formula_units_Z   1
loop_
 _symmetry_equiv_pos_site_id
 _symmetry_equiv_pos_as_xyz
  1  'x, y, z'
loop_
 _atom_site_type_symbol
 _atom_site_label
 _atom_site_symmetry_multiplicity
 _atom_site_fract_x
 _atom_site_fract_y
 _atom_site_fract_z
 _atom_site_occupancy
  Ac  Ac0  1  0.529072  0.529072  0.529072  1
  S  S1  1  0.794374  0.536139  0.536139  1
  S  S2  1  0.536139  0.536139  0.794374  1
  S  S3  1  0.536139  0.794374  0.536139  1
  S  S4  1  0.251416  0.387694  0.624907  1
  S  S5  1  0.354189  0.950329  0.354189  1
  S  S6  1  0.354189  0.354189  0.950329  1
  S  S7  1  0.950329  0.354189  0.354189  1
  S  S8  1  0.128186  0.734656  0.262743  1
  S  S9  1  0.262743  0.128186  0.734656  1
  S  S10  1  0.734656  0.262743  0.128186  1
  S  S11  1  0.734656  0.128186  0.262743  1
  S  S12  1  0.262743  0.734656  0.128186  1
  S  S13  1  0.128186  0.262743  0.734656  1
  S  S14  1  0.364609  0.885575  0.551951  1
  S  S15  1  0.551951  0.364609  0.885575  1
  S  S16  1  0.885575  0.551951  0.364609  1
  S  S17  1  0.885575  0.364609  0.551951  1
  S  S18  1  0.551951  0.885575  0.364609  1
  S  S19  1  0.364609  0.551951  0.885575  1
  S  S20  1  0.251416  0.624907  0.387694  1
  S  S21  1  0.387694  0.251416  0.624907  1
  S  S22  1  0.624907  0.387694  0.251416  1
  S  S23  1  0.624907  0.251416  0.387694  1
  S  S24  1  0.387694  0.624907  0.251416  1
  S  S25  1  0.952585  0.067402  0.067402  1
  S  S26  1  0.067402  0.067402  0.952585  1
  S  S27  1  0.067402  0.952585  0.067402  1
