# generated using pymatgen
data_Zr2U(AlIr)3
_symmetry_space_group_name_H-M   'P 1'
_cell_length_a   6.91373242
_cell_length_b   7.06373665
_cell_length_c   3.86111300
_cell_angle_alpha   90.00000000
_cell_angle_beta   90.00000000
_cell_angle_gamma   120.72036071
_symmetry_Int_Tables_number   1
_chemical_formula_structural   Zr2U(AlIr)3
_chemical_formula_sum   'Zr2 U1 Al3 Ir3'
_cell_volume   162.10326012
_cell_formula_units_Z   1
loop_
 _symmetry_equiv_pos_site_id
 _symmetry_equiv_pos_as_xyz
  1  'x, y, z'
loop_
 _atom_site_type_symbol
 _atom_site_label
 _atom_site_symmetry_multiplicity
 _atom_site_fract_x
 _atom_site_fract_y
 _atom_site_fract_z
 _atom_site_occupancy
  Zr  Zr0  1  0.412330  0.408031  0.500000  1
  Zr  Zr1  1  0.587670  0.995701  0.500000  1
  U  U2  1  0.000000  0.579008  0.500000  1
  Al  Al3  1  0.741627  0.755203  0.000000  1
  Al  Al4  1  0.258373  0.013577  0.000000  1
  Al  Al5  1  0.000000  0.231896  0.000000  1
  Ir  Ir6  1  0.685915  0.353329  0.000000  1
  Ir  Ir7  1  0.314085  0.667415  0.000000  1
  Ir  Ir8  1  0.000000  0.995842  0.500000  1
