# generated using pymatgen
data_Tb2SmHo(Mo2O7)2
_symmetry_space_group_name_H-M   'P 1'
_cell_length_a   7.39577781
_cell_length_b   7.40631737
_cell_length_c   7.40631752
_cell_angle_alpha   59.84154745
_cell_angle_beta   59.78966755
_cell_angle_gamma   59.78966460
_symmetry_Int_Tables_number   1
_chemical_formula_structural   Tb2SmHo(Mo2O7)2
_chemical_formula_sum   'Tb2 Sm1 Ho1 Mo4 O14'
_cell_volume   285.60513331
_cell_formula_units_Z   1
loop_
 _symmetry_equiv_pos_site_id
 _symmetry_equiv_pos_as_xyz
  1  'x, y, z'
loop_
 _atom_site_type_symbol
 _atom_site_label
 _atom_site_symmetry_multiplicity
 _atom_site_fract_x
 _atom_site_fract_y
 _atom_site_fract_z
 _atom_site_occupancy
  Tb  Tb0  1  0.125000  0.125000  0.625000  1
  Tb  Tb1  1  0.125000  0.625000  0.125000  1
  Sm  Sm2  1  0.625000  0.125000  0.125000  1
  Ho  Ho3  1  0.125000  0.125000  0.125000  1
  Mo  Mo4  1  0.625000  0.625000  0.625000  1
  Mo  Mo5  1  0.125000  0.625000  0.625000  1
  Mo  Mo6  1  0.625000  0.625000  0.125000  1
  Mo  Mo7  1  0.625000  0.125000  0.625000  1
  O  O8  1  0.008054  0.999147  0.999147  1
  O  O9  1  0.241946  0.250853  0.250853  1
  O  O10  1  0.290385  0.284471  0.719193  1
  O  O11  1  0.529117  0.543668  0.960637  1
  O  O12  1  0.720883  0.289363  0.706332  1
  O  O13  1  0.702202  0.286973  0.286973  1
  O  O14  1  0.279266  0.714262  0.714262  1
  O  O15  1  0.290385  0.719193  0.284471  1
  O  O16  1  0.720883  0.706332  0.289363  1
  O  O17  1  0.970734  0.535738  0.535738  1
  O  O18  1  0.547798  0.963027  0.963027  1
  O  O19  1  0.959615  0.965529  0.530807  1
  O  O20  1  0.959615  0.530807  0.965529  1
  O  O21  1  0.529117  0.960637  0.543668  1
