# generated using pymatgen
data_LiDy3Al2Si2Ni
_symmetry_space_group_name_H-M   'P 1'
_cell_length_a   6.92384900
_cell_length_b   6.79885447
_cell_length_c   4.22478000
_cell_angle_alpha   90.00000000
_cell_angle_beta   90.00000000
_cell_angle_gamma   120.61006041
_symmetry_Int_Tables_number   1
_chemical_formula_structural   LiDy3Al2Si2Ni
_chemical_formula_sum   'Li1 Dy3 Al2 Si2 Ni1'
_cell_volume   171.16514538
_cell_formula_units_Z   1
loop_
 _symmetry_equiv_pos_site_id
 _symmetry_equiv_pos_as_xyz
  1  'x, y, z'
loop_
 _atom_site_type_symbol
 _atom_site_label
 _atom_site_symmetry_multiplicity
 _atom_site_fract_x
 _atom_site_fract_y
 _atom_site_fract_z
 _atom_site_occupancy
  Li  Li0  1  0.760595  0.000000  0.500001  1
  Dy  Dy1  1  0.411828  0.000000  0.000000  1
  Dy  Dy2  1  0.994313  0.404290  0.000000  1
  Dy  Dy3  1  0.590023  0.595710  0.000000  1
  Al  Al4  1  0.229823  0.230270  0.500001  1
  Al  Al5  1  0.999554  0.769731  0.500001  1
  Si  Si6  1  0.664572  0.340491  0.500001  1
  Si  Si7  1  0.324081  0.659509  0.500001  1
  Ni  Ni8  1  0.025212  0.000000  0.000000  1
