# generated using pymatgen
data_Dy18YTmSn16
_symmetry_space_group_name_H-M   'P 1'
_cell_length_a   8.04118114
_cell_length_b   8.17369814
_cell_length_c   15.46687500
_cell_angle_alpha   90.00000000
_cell_angle_beta   90.00000000
_cell_angle_gamma   90.02132855
_symmetry_Int_Tables_number   1
_chemical_formula_structural   Dy18YTmSn16
_chemical_formula_sum   'Dy18 Y1 Tm1 Sn16'
_cell_volume   1016.57865329
_cell_formula_units_Z   1
loop_
 _symmetry_equiv_pos_site_id
 _symmetry_equiv_pos_as_xyz
  1  'x, y, z'
loop_
 _atom_site_type_symbol
 _atom_site_label
 _atom_site_symmetry_multiplicity
 _atom_site_fract_x
 _atom_site_fract_y
 _atom_site_fract_z
 _atom_site_occupancy
  Dy  Dy0  1  0.367807  0.837530  0.877608  1
  Dy  Dy1  1  0.867351  0.662839  0.622375  1
  Dy  Dy2  1  0.632430  0.162776  0.378083  1
  Dy  Dy3  1  0.132419  0.337220  0.121959  1
  Dy  Dy4  1  0.632430  0.162776  0.121917  1
  Dy  Dy5  1  0.132419  0.337220  0.378041  1
  Dy  Dy6  1  0.367807  0.837530  0.622392  1
  Dy  Dy7  1  0.867351  0.662839  0.877625  1
  Dy  Dy8  1  0.520853  0.320662  0.902452  1
  Dy  Dy9  1  0.020618  0.179124  0.597561  1
  Dy  Dy10  1  0.479406  0.679235  0.402757  1
  Dy  Dy11  1  0.979427  0.820756  0.097222  1
  Dy  Dy12  1  0.479406  0.679235  0.097243  1
  Dy  Dy13  1  0.979427  0.820756  0.402778  1
  Dy  Dy14  1  0.520853  0.320662  0.597548  1
  Dy  Dy15  1  0.020618  0.179124  0.902439  1
  Dy  Dy16  1  0.801061  0.497096  0.250000  1
  Dy  Dy17  1  0.301054  0.002871  0.250000  1
  Y  Y18  1  0.198622  0.502873  0.750000  1
  Tm  Tm19  1  0.698888  0.996941  0.750000  1
  Sn  Sn20  1  0.292899  0.036774  0.041461  1
  Sn  Sn21  1  0.792916  0.463258  0.458539  1
  Sn  Sn22  1  0.707325  0.963647  0.542475  1
  Sn  Sn23  1  0.207314  0.536401  0.957795  1
  Sn  Sn24  1  0.707325  0.963647  0.957525  1
  Sn  Sn25  1  0.207314  0.536401  0.542205  1
  Sn  Sn26  1  0.292899  0.036774  0.458539  1
  Sn  Sn27  1  0.792916  0.463258  0.041461  1
  Sn  Sn28  1  0.565076  0.618499  0.750000  1
  Sn  Sn29  1  0.064217  0.882088  0.750000  1
  Sn  Sn30  1  0.434707  0.381205  0.250000  1
  Sn  Sn31  1  0.934649  0.118722  0.250000  1
  Sn  Sn32  1  0.330235  0.148242  0.750000  1
  Sn  Sn33  1  0.829769  0.350888  0.750000  1
  Sn  Sn34  1  0.670129  0.852409  0.250000  1
  Sn  Sn35  1  0.170062  0.647722  0.250000  1
