# generated using pymatgen
data_Sm2Y14Cd4Co3Ni
_symmetry_space_group_name_H-M   'P 1'
_cell_length_a   9.58530594
_cell_length_b   9.58849039
_cell_length_c   9.60026200
_cell_angle_alpha   59.95938031
_cell_angle_beta   59.94837189
_cell_angle_gamma   59.94136361
_symmetry_Int_Tables_number   1
_chemical_formula_structural   Sm2Y14Cd4Co3Ni
_chemical_formula_sum   'Sm2 Y14 Cd4 Co3 Ni1'
_cell_volume   623.20167763
_cell_formula_units_Z   1
loop_
 _symmetry_equiv_pos_site_id
 _symmetry_equiv_pos_as_xyz
  1  'x, y, z'
loop_
 _atom_site_type_symbol
 _atom_site_label
 _atom_site_symmetry_multiplicity
 _atom_site_fract_x
 _atom_site_fract_y
 _atom_site_fract_z
 _atom_site_occupancy
  Sm  Sm0  1  0.594942  0.598725  0.598706  1
  Sm  Sm1  1  0.594942  0.598725  0.207626  1
  Y  Y2  1  0.595978  0.205566  0.599227  1
  Y  Y3  1  0.208439  0.597288  0.597136  1
  Y  Y4  1  0.065086  0.437743  0.438939  1
  Y  Y5  1  0.437167  0.062080  0.061863  1
  Y  Y6  1  0.437167  0.062080  0.438889  1
  Y  Y7  1  0.065086  0.437743  0.058231  1
  Y  Y8  1  0.437697  0.438108  0.062097  1
  Y  Y9  1  0.065264  0.057823  0.438456  1
  Y  Y10  1  0.187192  0.812951  0.812794  1
  Y  Y11  1  0.811280  0.188111  0.186793  1
  Y  Y12  1  0.811280  0.188111  0.813815  1
  Y  Y13  1  0.187192  0.812951  0.187063  1
  Y  Y14  1  0.811529  0.814000  0.187236  1
  Y  Y15  1  0.187202  0.188212  0.812293  1
  Cd  Cd16  1  0.830836  0.830654  0.829649  1
  Cd  Cd17  1  0.830836  0.830654  0.508860  1
  Cd  Cd18  1  0.831367  0.507840  0.830396  1
  Cd  Cd19  1  0.506880  0.831570  0.830775  1
  Co  Co20  1  0.392090  0.391213  0.391478  1
  Co  Co21  1  0.392090  0.391213  0.825219  1
  Co  Co22  1  0.391848  0.825919  0.391116  1
  Ni  Ni23  1  0.826608  0.390718  0.391337  1
