# generated using pymatgen
data_Sn16RuPt3
_symmetry_space_group_name_H-M   'P 1'
_cell_length_a   12.73731027
_cell_length_b   12.73731056
_cell_length_c   12.74192566
_cell_angle_alpha   150.82673560
_cell_angle_beta   150.82674126
_cell_angle_gamma   41.67468818
_symmetry_Int_Tables_number   1
_chemical_formula_structural   Sn16RuPt3
_chemical_formula_sum   'Sn16 Ru1 Pt3'
_cell_volume   490.15523096
_cell_formula_units_Z   1
loop_
 _symmetry_equiv_pos_site_id
 _symmetry_equiv_pos_as_xyz
  1  'x, y, z'
loop_
 _atom_site_type_symbol
 _atom_site_label
 _atom_site_symmetry_multiplicity
 _atom_site_fract_x
 _atom_site_fract_y
 _atom_site_fract_z
 _atom_site_occupancy
  Sn  Sn0  1  0.986687  0.486146  0.844661  1
  Sn  Sn1  1  0.357974  0.858516  0.844661  1
  Sn  Sn2  1  0.013854  0.513313  0.155339  1
  Sn  Sn3  1  0.259584  0.606295  0.991003  1
  Sn  Sn4  1  0.105712  0.115277  0.346467  1
  Sn  Sn5  1  0.857500  0.012933  0.499699  1
  Sn  Sn6  1  0.513234  0.357801  0.500301  1
  Sn  Sn7  1  0.142199  0.986766  0.499699  1
  Sn  Sn8  1  0.487067  0.642500  0.500301  1
  Sn  Sn9  1  0.740755  0.731191  0.346467  1
  Sn  Sn10  1  0.384723  0.394288  0.653533  1
  Sn  Sn11  1  0.768809  0.759245  0.653533  1
  Sn  Sn12  1  0.641484  0.142026  0.155339  1
  Sn  Sn13  1  0.893705  0.240416  0.008997  1
  Sn  Sn14  1  0.231420  0.884708  0.991003  1
  Sn  Sn15  1  0.615292  0.268580  0.008997  1
  Ru  Ru16  1  0.000000  0.500000  0.500000  1
  Pt  Pt17  1  0.500000  0.000000  0.500000  1
  Pt  Pt18  1  0.750000  0.750000  0.000000  1
  Pt  Pt19  1  0.250000  0.250000  0.000000  1
