# generated using pymatgen
data_Er3CdIn3AgRh
_symmetry_space_group_name_H-M   'P 1'
_cell_length_a   7.83819400
_cell_length_b   7.83819426
_cell_length_c   3.89233300
_cell_angle_alpha   90.00000000
_cell_angle_beta   90.00000000
_cell_angle_gamma   119.99999047
_symmetry_Int_Tables_number   1
_chemical_formula_structural   Er3CdIn3AgRh
_chemical_formula_sum   'Er3 Cd1 In3 Ag1 Rh1'
_cell_volume   207.09646827
_cell_formula_units_Z   1
loop_
 _symmetry_equiv_pos_site_id
 _symmetry_equiv_pos_as_xyz
  1  'x, y, z'
loop_
 _atom_site_type_symbol
 _atom_site_label
 _atom_site_symmetry_multiplicity
 _atom_site_fract_x
 _atom_site_fract_y
 _atom_site_fract_z
 _atom_site_occupancy
  Er  Er0  1  0.033708  0.607524  0.500000  1
  Er  Er1  1  0.392476  0.426185  0.500000  1
  Er  Er2  1  0.573815  0.966292  0.500000  1
  Cd  Cd3  1  0.666667  0.333333  0.000000  1
  In  In4  1  0.737469  0.737851  0.000000  1
  In  In5  1  0.000381  0.262531  0.000000  1
  In  In6  1  0.262149  0.999619  0.000000  1
  Ag  Ag7  1  0.000000  0.000000  0.500000  1
  Rh  Rh8  1  0.333333  0.666667  0.000000  1
