# generated using pymatgen
data_Gd5Zn2Ru3
_symmetry_space_group_name_H-M   'P 1'
_cell_length_a   8.33476929
_cell_length_b   8.33476949
_cell_length_c   8.33476900
_cell_angle_alpha   109.47121702
_cell_angle_beta   109.47121749
_cell_angle_gamma   109.47122330
_symmetry_Int_Tables_number   1
_chemical_formula_structural   Gd5Zn2Ru3
_chemical_formula_sum   'Gd10 Zn4 Ru6'
_cell_volume   445.71666774
_cell_formula_units_Z   2
loop_
 _symmetry_equiv_pos_site_id
 _symmetry_equiv_pos_as_xyz
  1  'x, y, z'
loop_
 _atom_site_type_symbol
 _atom_site_label
 _atom_site_symmetry_multiplicity
 _atom_site_fract_x
 _atom_site_fract_y
 _atom_site_fract_z
 _atom_site_occupancy
  Gd  Gd0  1  0.250000  0.685200  0.435200  1
  Gd  Gd1  1  0.750000  0.814800  0.064800  1
  Gd  Gd2  1  0.435200  0.250000  0.685200  1
  Gd  Gd3  1  0.685200  0.435200  0.250000  1
  Gd  Gd4  1  0.064800  0.750000  0.814800  1
  Gd  Gd5  1  0.814800  0.064800  0.750000  1
  Gd  Gd6  1  0.221267  0.221267  0.221267  1
  Gd  Gd7  1  0.500000  0.000000  0.278733  1
  Gd  Gd8  1  0.278733  0.500000  0.000000  1
  Gd  Gd9  1  0.000000  0.278733  0.500000  1
  Zn  Zn10  1  0.589245  0.589245  0.589245  1
  Zn  Zn11  1  0.500000  0.000000  0.910755  1
  Zn  Zn12  1  0.910755  0.500000  0.000000  1
  Zn  Zn13  1  0.000000  0.910755  0.500000  1
  Ru  Ru14  1  0.250000  0.129417  0.879417  1
  Ru  Ru15  1  0.750000  0.370583  0.620583  1
  Ru  Ru16  1  0.879416  0.250000  0.129417  1
  Ru  Ru17  1  0.129417  0.879416  0.250000  1
  Ru  Ru18  1  0.620583  0.750000  0.370583  1
  Ru  Ru19  1  0.370583  0.620583  0.750000  1
