# generated using pymatgen
data_Nd(NbS2)5
_symmetry_space_group_name_H-M   'P 1'
_cell_length_a   5.84445500
_cell_length_b   8.06599642
_cell_length_c   8.77396700
_cell_angle_alpha   116.03033572
_cell_angle_beta   96.59073320
_cell_angle_gamma   103.90143440
_symmetry_Int_Tables_number   1
_chemical_formula_structural   Nd(NbS2)5
_chemical_formula_sum   'Nd1 Nb5 S10'
_cell_volume   349.08753168
_cell_formula_units_Z   1
loop_
 _symmetry_equiv_pos_site_id
 _symmetry_equiv_pos_as_xyz
  1  'x, y, z'
loop_
 _atom_site_type_symbol
 _atom_site_label
 _atom_site_symmetry_multiplicity
 _atom_site_fract_x
 _atom_site_fract_y
 _atom_site_fract_z
 _atom_site_occupancy
  Nd  Nd0  1  0.668617  0.507605  0.995700  1
  Nb  Nb1  1  0.002542  0.997284  0.999988  1
  Nb  Nb2  1  0.599309  0.202769  0.202580  1
  Nb  Nb3  1  0.198527  0.398974  0.399553  1
  Nb  Nb4  1  0.798964  0.600152  0.601859  1
  Nb  Nb5  1  0.399996  0.797144  0.797666  1
  S  S6  1  0.237392  0.068615  0.287969  1
  S  S7  1  0.047469  0.664677  0.889029  1
  S  S8  1  0.836673  0.267502  0.486513  1
  S  S9  1  0.636348  0.873848  0.094515  1
  S  S10  1  0.429333  0.457800  0.681717  1
  S  S11  1  0.898709  0.537289  0.315243  1
  S  S12  1  0.696816  0.129758  0.910707  1
  S  S13  1  0.495137  0.730633  0.513509  1
  S  S14  1  0.291474  0.333299  0.111116  1
  S  S15  1  0.095495  0.930253  0.713938  1
