# generated using pymatgen
data_TbEr3(MnAl3)2
_symmetry_space_group_name_H-M   'P 1'
_cell_length_a   9.37760832
_cell_length_b   9.37760782
_cell_length_c   9.37760776
_cell_angle_alpha   34.36434510
_cell_angle_beta   34.36435099
_cell_angle_gamma   34.36434512
_symmetry_Int_Tables_number   1
_chemical_formula_structural   TbEr3(MnAl3)2
_chemical_formula_sum   'Tb1 Er3 Mn2 Al6'
_cell_volume   234.34631160
_cell_formula_units_Z   1
loop_
 _symmetry_equiv_pos_site_id
 _symmetry_equiv_pos_as_xyz
  1  'x, y, z'
loop_
 _atom_site_type_symbol
 _atom_site_label
 _atom_site_symmetry_multiplicity
 _atom_site_fract_x
 _atom_site_fract_y
 _atom_site_fract_z
 _atom_site_occupancy
  Tb  Tb0  1  0.813246  0.813246  0.813246  1
  Er  Er1  1  0.313514  0.313514  0.313514  1
  Er  Er2  1  0.686388  0.686388  0.686388  1
  Er  Er3  1  0.186757  0.186757  0.186757  1
  Mn  Mn4  1  0.500057  0.500057  0.500057  1
  Mn  Mn5  1  0.999988  0.999988  0.999988  1
  Al  Al6  1  0.249847  0.249847  0.749676  1
  Al  Al7  1  0.750105  0.750105  0.250470  1
  Al  Al8  1  0.249847  0.749676  0.249847  1
  Al  Al9  1  0.750105  0.250470  0.750105  1
  Al  Al10  1  0.749676  0.249847  0.249847  1
  Al  Al11  1  0.250470  0.750105  0.750105  1
