# generated using pymatgen
data_TbHo9Cd6(InPd2)2
_symmetry_space_group_name_H-M   'P 1'
_cell_length_a   7.98214600
_cell_length_b   18.43985845
_cell_length_c   3.61189000
_cell_angle_alpha   90.00000000
_cell_angle_beta   90.00000000
_cell_angle_gamma   89.60678054
_symmetry_Int_Tables_number   1
_chemical_formula_structural   TbHo9Cd6(InPd2)2
_chemical_formula_sum   'Tb1 Ho9 Cd6 In2 Pd4'
_cell_volume   531.62027739
_cell_formula_units_Z   1
loop_
 _symmetry_equiv_pos_site_id
 _symmetry_equiv_pos_as_xyz
  1  'x, y, z'
loop_
 _atom_site_type_symbol
 _atom_site_label
 _atom_site_symmetry_multiplicity
 _atom_site_fract_x
 _atom_site_fract_y
 _atom_site_fract_z
 _atom_site_occupancy
  Tb  Tb0  1  0.000000  0.000000  0.000000  1
  Ho  Ho1  1  0.500000  0.500000  0.000000  1
  Ho  Ho2  1  0.742671  0.280470  0.000000  1
  Ho  Ho3  1  0.257329  0.719530  0.000000  1
  Ho  Ho4  1  0.754317  0.779945  0.000000  1
  Ho  Ho5  1  0.245683  0.220055  0.000000  1
  Ho  Ho6  1  0.614387  0.083604  0.000000  1
  Ho  Ho7  1  0.385613  0.916396  0.000000  1
  Ho  Ho8  1  0.884958  0.583325  0.000000  1
  Ho  Ho9  1  0.115042  0.416675  0.000000  1
  Cd  Cd10  1  0.712643  0.930621  0.500000  1
  Cd  Cd11  1  0.287357  0.069379  0.500000  1
  Cd  Cd12  1  0.785978  0.430533  0.500000  1
  Cd  Cd13  1  0.214022  0.569467  0.500000  1
  Cd  Cd14  1  0.573681  0.648068  0.500000  1
  Cd  Cd15  1  0.426319  0.351932  0.500000  1
  In  In16  1  0.927165  0.148642  0.500000  1
  In  In17  1  0.072835  0.851358  0.500000  1
  Pd  Pd18  1  0.528917  0.195656  0.500000  1
  Pd  Pd19  1  0.471083  0.804344  0.500000  1
  Pd  Pd20  1  0.971791  0.695983  0.500000  1
  Pd  Pd21  1  0.028209  0.304017  0.500000  1
