# generated using pymatgen
data_Tb5Dy3Sc12(SiGe)8
_symmetry_space_group_name_H-M   'P 1'
_cell_length_a   7.17411419
_cell_length_b   7.43153214
_cell_length_c   14.10565122
_cell_angle_alpha   90.00959231
_cell_angle_beta   89.98205495
_cell_angle_gamma   89.98031599
_symmetry_Int_Tables_number   1
_chemical_formula_structural   Tb5Dy3Sc12(SiGe)8
_chemical_formula_sum   'Tb5 Dy3 Sc12 Si8 Ge8'
_cell_volume   752.03790967
_cell_formula_units_Z   1
loop_
 _symmetry_equiv_pos_site_id
 _symmetry_equiv_pos_as_xyz
  1  'x, y, z'
loop_
 _atom_site_type_symbol
 _atom_site_label
 _atom_site_symmetry_multiplicity
 _atom_site_fract_x
 _atom_site_fract_y
 _atom_site_fract_z
 _atom_site_occupancy
  Tb  Tb0  1  0.007289  0.176376  0.098913  1
  Tb  Tb1  1  0.992769  0.823600  0.900951  1
  Tb  Tb2  1  0.492726  0.676351  0.901185  1
  Tb  Tb3  1  0.992698  0.823446  0.598564  1
  Tb  Tb4  1  0.507344  0.323599  0.098904  1
  Dy  Dy5  1  0.007386  0.176824  0.401097  1
  Dy  Dy6  1  0.507185  0.323228  0.401102  1
  Dy  Dy7  1  0.492726  0.676568  0.598770  1
  Sc  Sc8  1  0.165430  0.500985  0.749821  1
  Sc  Sc9  1  0.834484  0.498916  0.250228  1
  Sc  Sc10  1  0.334464  0.001074  0.250239  1
  Sc  Sc11  1  0.665385  0.999116  0.749831  1
  Sc  Sc12  1  0.336199  0.173052  0.626486  1
  Sc  Sc13  1  0.663791  0.827016  0.373503  1
  Sc  Sc14  1  0.163945  0.672738  0.373556  1
  Sc  Sc15  1  0.664015  0.827136  0.126835  1
  Sc  Sc16  1  0.836004  0.327180  0.626371  1
  Sc  Sc17  1  0.336024  0.172841  0.873258  1
  Sc  Sc18  1  0.835989  0.327173  0.873278  1
  Sc  Sc19  1  0.163942  0.672941  0.126833  1
  Si  Si20  1  0.037589  0.118711  0.749791  1
  Si  Si21  1  0.962165  0.882011  0.250273  1
  Si  Si22  1  0.462116  0.617924  0.250202  1
  Si  Si23  1  0.537569  0.381699  0.749787  1
  Si  Si24  1  0.290987  0.872603  0.749695  1
  Si  Si25  1  0.709751  0.127259  0.250465  1
  Si  Si26  1  0.209720  0.372727  0.250454  1
  Si  Si27  1  0.790373  0.627193  0.749663  1
  Ge  Ge28  1  0.170475  0.460552  0.540662  1
  Ge  Ge29  1  0.829555  0.538732  0.459142  1
  Ge  Ge30  1  0.330103  0.961105  0.459164  1
  Ge  Ge31  1  0.830673  0.539374  0.040835  1
  Ge  Ge32  1  0.669501  0.039282  0.540662  1
  Ge  Ge33  1  0.169398  0.460562  0.959319  1
  Ge  Ge34  1  0.669585  0.039449  0.959340  1
  Ge  Ge35  1  0.330647  0.960655  0.040821  1
