# generated using pymatgen
data_CaDy6Sn23Ru6
_symmetry_space_group_name_H-M   'P 1'
_cell_length_a   9.85862700
_cell_length_b   9.85862861
_cell_length_c   10.13118300
_cell_angle_alpha   90.00000000
_cell_angle_beta   90.00000000
_cell_angle_gamma   119.99999795
_symmetry_Int_Tables_number   1
_chemical_formula_structural   CaDy6Sn23Ru6
_chemical_formula_sum   'Ca1 Dy6 Sn23 Ru6'
_cell_volume   852.75395564
_cell_formula_units_Z   1
loop_
 _symmetry_equiv_pos_site_id
 _symmetry_equiv_pos_as_xyz
  1  'x, y, z'
loop_
 _atom_site_type_symbol
 _atom_site_label
 _atom_site_symmetry_multiplicity
 _atom_site_fract_x
 _atom_site_fract_y
 _atom_site_fract_z
 _atom_site_occupancy
  Ca  Ca0  1  0.000000  0.000000  0.000000  1
  Dy  Dy1  1  0.485832  0.514168  0.301088  1
  Dy  Dy2  1  0.514168  0.485832  0.698912  1
  Dy  Dy3  1  0.485832  0.971663  0.301088  1
  Dy  Dy4  1  0.514168  0.028337  0.698912  1
  Dy  Dy5  1  0.028337  0.514168  0.301088  1
  Dy  Dy6  1  0.971663  0.485832  0.698912  1
  Sn  Sn7  1  0.348127  0.000000  0.000000  1
  Sn  Sn8  1  0.651873  0.000000  0.000000  1
  Sn  Sn9  1  0.000000  0.348127  0.000000  1
  Sn  Sn10  1  0.000000  0.651873  0.000000  1
  Sn  Sn11  1  0.651873  0.651873  0.000000  1
  Sn  Sn12  1  0.348127  0.348127  0.000000  1
  Sn  Sn13  1  0.333333  0.666667  0.824114  1
  Sn  Sn14  1  0.666667  0.333333  0.175886  1
  Sn  Sn15  1  0.000000  0.000000  0.500000  1
  Sn  Sn16  1  0.780179  0.219821  0.465563  1
  Sn  Sn17  1  0.219821  0.780179  0.534437  1
  Sn  Sn18  1  0.780179  0.560359  0.465563  1
  Sn  Sn19  1  0.219821  0.439641  0.534437  1
  Sn  Sn20  1  0.439641  0.219821  0.465563  1
  Sn  Sn21  1  0.560359  0.780179  0.534437  1
  Sn  Sn22  1  0.333333  0.666667  0.128010  1
  Sn  Sn23  1  0.666667  0.333333  0.871990  1
  Sn  Sn24  1  0.118893  0.881107  0.272337  1
  Sn  Sn25  1  0.881107  0.118893  0.727663  1
  Sn  Sn26  1  0.118893  0.237786  0.272337  1
  Sn  Sn27  1  0.881107  0.762214  0.727663  1
  Sn  Sn28  1  0.762214  0.881107  0.272337  1
  Sn  Sn29  1  0.237786  0.118893  0.727663  1
  Ru  Ru30  1  0.828719  0.171281  0.204903  1
  Ru  Ru31  1  0.171281  0.828719  0.795097  1
  Ru  Ru32  1  0.828719  0.657436  0.204903  1
  Ru  Ru33  1  0.171281  0.342564  0.795097  1
  Ru  Ru34  1  0.342564  0.171281  0.204903  1
  Ru  Ru35  1  0.657436  0.828719  0.795097  1
