# generated using pymatgen
data_La7Tb4(Nd3Ir4)3
_symmetry_space_group_name_H-M   'P 1'
_cell_length_a   11.27424529
_cell_length_b   11.28289120
_cell_length_c   6.55931293
_cell_angle_alpha   89.89238302
_cell_angle_beta   89.98690089
_cell_angle_gamma   90.08656309
_symmetry_Int_Tables_number   1
_chemical_formula_structural   La7Tb4(Nd3Ir4)3
_chemical_formula_sum   'La7 Tb4 Nd9 Ir12'
_cell_volume   834.38205891
_cell_formula_units_Z   1
loop_
 _symmetry_equiv_pos_site_id
 _symmetry_equiv_pos_as_xyz
  1  'x, y, z'
loop_
 _atom_site_type_symbol
 _atom_site_label
 _atom_site_symmetry_multiplicity
 _atom_site_fract_x
 _atom_site_fract_y
 _atom_site_fract_z
 _atom_site_occupancy
  La  La0  1  0.288355  0.091242  0.383335  1
  La  La1  1  0.288268  0.911257  0.883709  1
  La  La2  1  0.711094  0.090510  0.883563  1
  La  La3  1  0.712416  0.909541  0.383450  1
  La  La4  1  0.590255  0.787665  0.883224  1
  La  La5  1  0.589166  0.212280  0.383207  1
  La  La6  1  0.409686  0.787435  0.383212  1
  Tb  Tb7  1  0.000050  0.000098  0.500841  1
  Tb  Tb8  1  0.999901  0.000383  0.000852  1
  Tb  Tb9  1  0.499303  0.498881  0.000690  1
  Tb  Tb10  1  0.500161  0.499778  0.501580  1
  Nd  Nd11  1  0.410295  0.212001  0.882377  1
  Nd  Nd12  1  0.209921  0.412721  0.617411  1
  Nd  Nd13  1  0.209241  0.586392  0.116835  1
  Nd  Nd14  1  0.790685  0.413331  0.115906  1
  Nd  Nd15  1  0.790640  0.586666  0.616020  1
  Nd  Nd16  1  0.913176  0.709281  0.116281  1
  Nd  Nd17  1  0.913291  0.290762  0.616199  1
  Nd  Nd18  1  0.086909  0.709277  0.616451  1
  Nd  Nd19  1  0.087376  0.290531  0.115621  1
  Ir  Ir20  1  0.850535  0.149547  0.248932  1
  Ir  Ir21  1  0.850704  0.850335  0.749212  1
  Ir  Ir22  1  0.149904  0.149633  0.748727  1
  Ir  Ir23  1  0.149657  0.850657  0.248919  1
  Ir  Ir24  1  0.648823  0.350009  0.749785  1
  Ir  Ir25  1  0.649597  0.649255  0.248624  1
  Ir  Ir26  1  0.350283  0.351231  0.249708  1
  Ir  Ir27  1  0.350430  0.649364  0.749185  1
  Ir  Ir28  1  0.499669  0.000533  0.120682  1
  Ir  Ir29  1  0.500150  0.999515  0.620092  1
  Ir  Ir30  1  0.000225  0.499832  0.882757  1
  Ir  Ir31  1  0.999833  0.500058  0.382612  1
