# generated using pymatgen
data_ScPa3(SiPt)4
_symmetry_space_group_name_H-M   'P 1'
_cell_length_a   4.26970700
_cell_length_b   7.03557678
_cell_length_c   7.43151457
_cell_angle_alpha   90.28615761
_cell_angle_beta   90.00000000
_cell_angle_gamma   90.00000000
_symmetry_Int_Tables_number   1
_chemical_formula_structural   ScPa3(SiPt)4
_chemical_formula_sum   'Sc1 Pa3 Si4 Pt4'
_cell_volume   223.23880923
_cell_formula_units_Z   1
loop_
 _symmetry_equiv_pos_site_id
 _symmetry_equiv_pos_as_xyz
  1  'x, y, z'
loop_
 _atom_site_type_symbol
 _atom_site_label
 _atom_site_symmetry_multiplicity
 _atom_site_fract_x
 _atom_site_fract_y
 _atom_site_fract_z
 _atom_site_occupancy
  Sc  Sc0  1  0.250000  0.497071  0.206399  1
  Pa  Pa1  1  0.750000  0.501357  0.799364  1
  Pa  Pa2  1  0.250000  0.995851  0.296525  1
  Pa  Pa3  1  0.750000  0.006492  0.699320  1
  Si  Si4  1  0.250000  0.806613  0.912539  1
  Si  Si5  1  0.250000  0.299934  0.584167  1
  Si  Si6  1  0.750000  0.201094  0.096120  1
  Si  Si7  1  0.750000  0.693707  0.406070  1
  Pt  Pt8  1  0.250000  0.700195  0.584841  1
  Pt  Pt9  1  0.250000  0.207539  0.920022  1
  Pt  Pt10  1  0.750000  0.777435  0.081379  1
  Pt  Pt11  1  0.750000  0.312712  0.413256  1
