# generated using pymatgen
data_NdSmLu(Ga2Ni3)3
_symmetry_space_group_name_H-M   'P 1'
_cell_length_a   8.79473100
_cell_length_b   8.79473208
_cell_length_c   4.12270900
_cell_angle_alpha   90.00000000
_cell_angle_beta   90.00000000
_cell_angle_gamma   119.99999218
_symmetry_Int_Tables_number   1
_chemical_formula_structural   NdSmLu(Ga2Ni3)3
_chemical_formula_sum   'Nd1 Sm1 Lu1 Ga6 Ni9'
_cell_volume   276.15856763
_cell_formula_units_Z   1
loop_
 _symmetry_equiv_pos_site_id
 _symmetry_equiv_pos_as_xyz
  1  'x, y, z'
loop_
 _atom_site_type_symbol
 _atom_site_label
 _atom_site_symmetry_multiplicity
 _atom_site_fract_x
 _atom_site_fract_y
 _atom_site_fract_z
 _atom_site_occupancy
  Nd  Nd0  1  0.333333  0.666667  0.500000  1
  Sm  Sm1  1  0.666667  0.333333  0.500000  1
  Lu  Lu2  1  0.000000  0.000000  0.000000  1
  Ga  Ga3  1  0.482367  0.482020  0.000000  1
  Ga  Ga4  1  0.517980  0.000347  0.000000  1
  Ga  Ga5  1  0.999653  0.517633  0.000000  1
  Ga  Ga6  1  0.733563  0.733383  0.500000  1
  Ga  Ga7  1  0.266617  0.000180  0.500000  1
  Ga  Ga8  1  0.999820  0.266437  0.500000  1
  Ni  Ni9  1  0.828271  0.193335  0.000000  1
  Ni  Ni10  1  0.806665  0.634937  0.000000  1
  Ni  Ni11  1  0.365063  0.171729  0.000000  1
  Ni  Ni12  1  0.193087  0.828497  0.000000  1
  Ni  Ni13  1  0.635410  0.806913  0.000000  1
  Ni  Ni14  1  0.171503  0.364590  0.000000  1
  Ni  Ni15  1  0.290335  0.290169  0.500000  1
  Ni  Ni16  1  0.709831  0.000166  0.500000  1
  Ni  Ni17  1  0.999834  0.709665  0.500000  1
