# generated using pymatgen
data_Sc3PO
_symmetry_space_group_name_H-M   'P 1'
_cell_length_a   3.50003000
_cell_length_b   10.82741400
_cell_length_c   8.23732500
_cell_angle_alpha   90.00000000
_cell_angle_beta   90.00000000
_cell_angle_gamma   90.00000000
_symmetry_Int_Tables_number   1
_chemical_formula_structural   Sc3PO
_chemical_formula_sum   'Sc12 P4 O4'
_cell_volume   312.16392376
_cell_formula_units_Z   4
loop_
 _symmetry_equiv_pos_site_id
 _symmetry_equiv_pos_as_xyz
  1  'x, y, z'
loop_
 _atom_site_type_symbol
 _atom_site_label
 _atom_site_symmetry_multiplicity
 _atom_site_fract_x
 _atom_site_fract_y
 _atom_site_fract_z
 _atom_site_occupancy
  Sc  Sc0  1  0.250000  0.813133  0.253292  1
  Sc  Sc1  1  0.750000  0.186867  0.746708  1
  Sc  Sc2  1  0.250000  0.686867  0.753292  1
  Sc  Sc3  1  0.750000  0.313133  0.246708  1
  Sc  Sc4  1  0.750000  0.617934  0.053658  1
  Sc  Sc5  1  0.250000  0.382066  0.946342  1
  Sc  Sc6  1  0.750000  0.882066  0.553658  1
  Sc  Sc7  1  0.250000  0.117934  0.446342  1
  Sc  Sc8  1  0.750000  0.618780  0.450244  1
  Sc  Sc9  1  0.250000  0.381220  0.549756  1
  Sc  Sc10  1  0.750000  0.881220  0.950244  1
  Sc  Sc11  1  0.250000  0.118780  0.049756  1
  P  P12  1  0.750000  0.999327  0.249397  1
  P  P13  1  0.250000  0.000673  0.750603  1
  P  P14  1  0.750000  0.500673  0.749397  1
  P  P15  1  0.250000  0.499327  0.250603  1
  O  O16  1  0.750000  0.249248  0.996565  1
  O  O17  1  0.250000  0.750752  0.003435  1
  O  O18  1  0.750000  0.250752  0.496565  1
  O  O19  1  0.250000  0.749248  0.503435  1
