# generated using pymatgen
data_Pr8Nd11YSn16
_symmetry_space_group_name_H-M   'P 1'
_cell_length_a   8.31896500
_cell_length_b   8.47302809
_cell_length_c   16.02962500
_cell_angle_alpha   90.00000000
_cell_angle_beta   90.00000000
_cell_angle_gamma   89.99158790
_symmetry_Int_Tables_number   1
_chemical_formula_structural   Pr8Nd11YSn16
_chemical_formula_sum   'Pr8 Nd11 Y1 Sn16'
_cell_volume   1129.87734616
_cell_formula_units_Z   1
loop_
 _symmetry_equiv_pos_site_id
 _symmetry_equiv_pos_as_xyz
  1  'x, y, z'
loop_
 _atom_site_type_symbol
 _atom_site_label
 _atom_site_symmetry_multiplicity
 _atom_site_fract_x
 _atom_site_fract_y
 _atom_site_fract_z
 _atom_site_occupancy
  Pr  Pr0  1  0.517933  0.319372  0.900495  1
  Pr  Pr1  1  0.018609  0.182052  0.599453  1
  Pr  Pr2  1  0.481763  0.681309  0.401180  1
  Pr  Pr3  1  0.981518  0.819046  0.099312  1
  Pr  Pr4  1  0.481763  0.681309  0.098820  1
  Pr  Pr5  1  0.981518  0.819046  0.400688  1
  Pr  Pr6  1  0.517933  0.319372  0.599505  1
  Pr  Pr7  1  0.018609  0.182052  0.900547  1
  Nd  Nd8  1  0.367551  0.835808  0.879021  1
  Nd  Nd9  1  0.869177  0.663283  0.620533  1
  Nd  Nd10  1  0.631624  0.164292  0.379365  1
  Nd  Nd11  1  0.131518  0.336258  0.119323  1
  Nd  Nd12  1  0.631624  0.164292  0.120635  1
  Nd  Nd13  1  0.131518  0.336258  0.380677  1
  Nd  Nd14  1  0.367551  0.835808  0.620979  1
  Nd  Nd15  1  0.869177  0.663283  0.879467  1
  Nd  Nd16  1  0.698086  0.998409  0.750000  1
  Nd  Nd17  1  0.802313  0.497655  0.250000  1
  Nd  Nd18  1  0.302795  0.002489  0.250000  1
  Y  Y19  1  0.199903  0.502382  0.750000  1
  Sn  Sn20  1  0.292047  0.035539  0.041829  1
  Sn  Sn21  1  0.791355  0.463900  0.457999  1
  Sn  Sn22  1  0.707959  0.964013  0.542354  1
  Sn  Sn23  1  0.208115  0.533574  0.955033  1
  Sn  Sn24  1  0.707959  0.964013  0.957646  1
  Sn  Sn25  1  0.208115  0.533574  0.544967  1
  Sn  Sn26  1  0.292047  0.035539  0.458171  1
  Sn  Sn27  1  0.791355  0.463900  0.042001  1
  Sn  Sn28  1  0.564480  0.616025  0.750000  1
  Sn  Sn29  1  0.068481  0.881198  0.750000  1
  Sn  Sn30  1  0.431487  0.383301  0.250000  1
  Sn  Sn31  1  0.932817  0.117006  0.250000  1
  Sn  Sn32  1  0.321579  0.145827  0.750000  1
  Sn  Sn33  1  0.824605  0.359923  0.750000  1
  Sn  Sn34  1  0.677315  0.857442  0.250000  1
  Sn  Sn35  1  0.177798  0.641450  0.250000  1
