# generated using pymatgen
data_Ce18Pa2Ir7Rh9
_symmetry_space_group_name_H-M   'P 1'
_cell_length_a   7.39618420
_cell_length_b   7.47349279
_cell_length_c   14.62564500
_cell_angle_alpha   90.24922444
_cell_angle_beta   89.90483989
_cell_angle_gamma   90.07934080
_symmetry_Int_Tables_number   1
_chemical_formula_structural   Ce18Pa2Ir7Rh9
_chemical_formula_sum   'Ce18 Pa2 Ir7 Rh9'
_cell_volume   808.42781374
_cell_formula_units_Z   1
loop_
 _symmetry_equiv_pos_site_id
 _symmetry_equiv_pos_as_xyz
  1  'x, y, z'
loop_
 _atom_site_type_symbol
 _atom_site_label
 _atom_site_symmetry_multiplicity
 _atom_site_fract_x
 _atom_site_fract_y
 _atom_site_fract_z
 _atom_site_occupancy
  Ce  Ce0  1  0.335764  0.840658  0.122629  1
  Ce  Ce1  1  0.835034  0.660210  0.378042  1
  Ce  Ce2  1  0.338094  0.836951  0.379172  1
  Ce  Ce3  1  0.837117  0.661689  0.121165  1
  Ce  Ce4  1  0.661705  0.161387  0.879349  1
  Ce  Ce5  1  0.161849  0.338883  0.619515  1
  Ce  Ce6  1  0.512197  0.678440  0.590340  1
  Ce  Ce7  1  0.010116  0.822843  0.910590  1
  Ce  Ce8  1  0.491111  0.321274  0.090246  1
  Ce  Ce9  1  0.990675  0.175429  0.410061  1
  Ce  Ce10  1  0.490763  0.320861  0.408920  1
  Ce  Ce11  1  0.990034  0.179114  0.090172  1
  Ce  Ce12  1  0.510892  0.679597  0.910350  1
  Ce  Ce13  1  0.009727  0.823046  0.590663  1
  Ce  Ce14  1  0.816213  0.530136  0.749843  1
  Ce  Ce15  1  0.313967  0.971368  0.749680  1
  Ce  Ce16  1  0.178079  0.477399  0.249321  1
  Ce  Ce17  1  0.681091  0.021270  0.250121  1
  Pa  Pa18  1  0.660705  0.159668  0.622394  1
  Pa  Pa19  1  0.161560  0.342486  0.877314  1
  Ir  Ir20  1  0.692062  0.963359  0.466030  1
  Ir  Ir21  1  0.193036  0.537980  0.034201  1
  Ir  Ir22  1  0.304375  0.049704  0.960778  1
  Ir  Ir23  1  0.806366  0.451720  0.539342  1
  Ir  Ir24  1  0.323838  0.035942  0.542191  1
  Ir  Ir25  1  0.824880  0.463891  0.956872  1
  Ir  Ir26  1  0.682726  0.962982  0.040160  1
  Rh  Rh27  1  0.179275  0.534243  0.459666  1
  Rh  Rh28  1  0.464885  0.366363  0.747361  1
  Rh  Rh29  1  0.964967  0.134365  0.751550  1
  Rh  Rh30  1  0.531287  0.616453  0.251802  1
  Rh  Rh31  1  0.033625  0.880910  0.250325  1
  Rh  Rh32  1  0.691523  0.869664  0.745148  1
  Rh  Rh33  1  0.192165  0.630812  0.753784  1
  Rh  Rh34  1  0.314317  0.143148  0.252022  1
  Rh  Rh35  1  0.813979  0.355757  0.248880  1
