# generated using pymatgen
data_TmTh3(Ga3Rh)6
_symmetry_space_group_name_H-M   'P 1'
_cell_length_a   7.67908238
_cell_length_b   7.68590681
_cell_length_c   9.53423700
_cell_angle_alpha   90.00000000
_cell_angle_beta   90.00000000
_cell_angle_gamma   119.80861148
_symmetry_Int_Tables_number   1
_chemical_formula_structural   TmTh3(Ga3Rh)6
_chemical_formula_sum   'Tm1 Th3 Ga18 Rh6'
_cell_volume   488.26472724
_cell_formula_units_Z   1
loop_
 _symmetry_equiv_pos_site_id
 _symmetry_equiv_pos_as_xyz
  1  'x, y, z'
loop_
 _atom_site_type_symbol
 _atom_site_label
 _atom_site_symmetry_multiplicity
 _atom_site_fract_x
 _atom_site_fract_y
 _atom_site_fract_z
 _atom_site_occupancy
  Tm  Tm0  1  0.330977  0.003681  0.750000  1
  Th  Th1  1  0.996875  0.668769  0.250000  1
  Th  Th2  1  0.002678  0.331465  0.750000  1
  Th  Th3  1  0.668163  0.996507  0.250000  1
  Ga  Ga4  1  0.132561  0.131395  0.250000  1
  Ga  Ga5  1  0.873470  0.871307  0.750000  1
  Ga  Ga6  1  0.004431  0.334259  0.077591  1
  Ga  Ga7  1  0.002577  0.672139  0.918486  1
  Ga  Ga8  1  0.002577  0.672139  0.581514  1
  Ga  Ga9  1  0.334114  0.003519  0.427575  1
  Ga  Ga10  1  0.004431  0.334259  0.422409  1
  Ga  Ga11  1  0.659602  0.996134  0.581482  1
  Ga  Ga12  1  0.659602  0.996134  0.918518  1
  Ga  Ga13  1  0.334114  0.003519  0.072425  1
  Ga  Ga14  1  0.336645  0.331156  0.565105  1
  Ga  Ga15  1  0.662941  0.662985  0.440346  1
  Ga  Ga16  1  0.662941  0.662985  0.059654  1
  Ga  Ga17  1  0.336645  0.331156  0.934895  1
  Ga  Ga18  1  0.338396  0.541323  0.250000  1
  Ga  Ga19  1  0.658517  0.452903  0.750000  1
  Ga  Ga20  1  0.540487  0.337181  0.250000  1
  Ga  Ga21  1  0.456750  0.663948  0.750000  1
  Rh  Rh22  1  0.674238  0.329770  0.000481  1
  Rh  Rh23  1  0.327820  0.670657  0.000365  1
  Rh  Rh24  1  0.327820  0.670657  0.499635  1
  Rh  Rh25  1  0.674238  0.329770  0.499519  1
  Rh  Rh26  1  0.998196  0.000142  0.000509  1
  Rh  Rh27  1  0.998196  0.000142  0.499491  1
