# generated using pymatgen
data_Na2LiAlSb2
_symmetry_space_group_name_H-M   'P 1'
_cell_length_a   9.92049805
_cell_length_b   9.92049843
_cell_length_c   6.32662500
_cell_angle_alpha   90.00000000
_cell_angle_beta   90.00000000
_cell_angle_gamma   98.65818320
_symmetry_Int_Tables_number   1
_chemical_formula_structural   Na2LiAlSb2
_chemical_formula_sum   'Na8 Li4 Al4 Sb8'
_cell_volume   615.54730489
_cell_formula_units_Z   4
loop_
 _symmetry_equiv_pos_site_id
 _symmetry_equiv_pos_as_xyz
  1  'x, y, z'
loop_
 _atom_site_type_symbol
 _atom_site_label
 _atom_site_symmetry_multiplicity
 _atom_site_fract_x
 _atom_site_fract_y
 _atom_site_fract_z
 _atom_site_occupancy
  Na  Na0  1  0.427335  0.072665  0.250000  1
  Na  Na1  1  0.072665  0.427335  0.750000  1
  Na  Na2  1  0.572665  0.927335  0.750000  1
  Na  Na3  1  0.324578  0.675422  0.279496  1
  Na  Na4  1  0.824578  0.175422  0.220504  1
  Na  Na5  1  0.675422  0.324578  0.720504  1
  Na  Na6  1  0.175422  0.824578  0.779496  1
  Na  Na7  1  0.927335  0.572665  0.250000  1
  Li  Li8  1  0.380893  0.380893  0.500000  1
  Li  Li9  1  0.119107  0.119107  0.000000  1
  Li  Li10  1  0.619107  0.619107  0.500000  1
  Li  Li11  1  0.880893  0.880893  0.000000  1
  Al  Al12  1  0.870127  0.870127  0.500000  1
  Al  Al13  1  0.129873  0.129873  0.500000  1
  Al  Al14  1  0.629873  0.629873  0.000000  1
  Al  Al15  1  0.370127  0.370127  0.000000  1
  Sb  Sb16  1  0.109773  0.890227  0.279530  1
  Sb  Sb17  1  0.609773  0.390227  0.220470  1
  Sb  Sb18  1  0.890227  0.109773  0.720470  1
  Sb  Sb19  1  0.390227  0.609773  0.779530  1
  Sb  Sb20  1  0.140461  0.359539  0.250000  1
  Sb  Sb21  1  0.359539  0.140461  0.750000  1
  Sb  Sb22  1  0.859539  0.640461  0.750000  1
  Sb  Sb23  1  0.640461  0.859539  0.250000  1
