# generated using pymatgen
data_Y5Er2Sn23Ru6
_symmetry_space_group_name_H-M   'P 1'
_cell_length_a   9.87285558
_cell_length_b   9.85866856
_cell_length_c   10.06943807
_cell_angle_alpha   89.99999833
_cell_angle_beta   90.11753032
_cell_angle_gamma   119.95248115
_symmetry_Int_Tables_number   1
_chemical_formula_structural   Y5Er2Sn23Ru6
_chemical_formula_sum   'Y5 Er2 Sn23 Ru6'
_cell_volume   849.18723000
_cell_formula_units_Z   1
loop_
 _symmetry_equiv_pos_site_id
 _symmetry_equiv_pos_as_xyz
  1  'x, y, z'
loop_
 _atom_site_type_symbol
 _atom_site_label
 _atom_site_symmetry_multiplicity
 _atom_site_fract_x
 _atom_site_fract_y
 _atom_site_fract_z
 _atom_site_occupancy
  Y  Y0  1  0.484316  0.515580  0.303074  1
  Y  Y1  1  0.515684  0.484420  0.696926  1
  Y  Y2  1  0.484316  0.968737  0.303074  1
  Y  Y3  1  0.515684  0.031263  0.696926  1
  Y  Y4  1  0.000000  0.000000  0.000000  1
  Er  Er5  1  0.029627  0.514814  0.302510  1
  Er  Er6  1  0.970373  0.485186  0.697490  1
  Sn  Sn7  1  0.118317  0.881231  0.273962  1
  Sn  Sn8  1  0.881683  0.118769  0.726038  1
  Sn  Sn9  1  0.118317  0.237086  0.273962  1
  Sn  Sn10  1  0.881683  0.762914  0.726038  1
  Sn  Sn11  1  0.763519  0.881760  0.273775  1
  Sn  Sn12  1  0.236481  0.118240  0.726225  1
  Sn  Sn13  1  0.780783  0.220908  0.462522  1
  Sn  Sn14  1  0.219217  0.779092  0.537478  1
  Sn  Sn15  1  0.780783  0.559876  0.462522  1
  Sn  Sn16  1  0.219217  0.440124  0.537478  1
  Sn  Sn17  1  0.439902  0.219951  0.462412  1
  Sn  Sn18  1  0.560098  0.780049  0.537588  1
  Sn  Sn19  1  0.348631  0.999922  0.999888  1
  Sn  Sn20  1  0.651369  0.000078  0.000112  1
  Sn  Sn21  1  0.000000  0.349114  0.000000  1
  Sn  Sn22  1  0.000000  0.650886  0.000000  1
  Sn  Sn23  1  0.651369  0.651292  0.000112  1
  Sn  Sn24  1  0.348631  0.348708  0.999888  1
  Sn  Sn25  1  0.332280  0.666140  0.128256  1
  Sn  Sn26  1  0.667720  0.333860  0.871744  1
  Sn  Sn27  1  0.333118  0.666559  0.822773  1
  Sn  Sn28  1  0.666882  0.333441  0.177227  1
  Sn  Sn29  1  0.000000  0.000000  0.500000  1
  Ru  Ru30  1  0.831012  0.171104  0.202505  1
  Ru  Ru31  1  0.168988  0.828896  0.797495  1
  Ru  Ru32  1  0.831012  0.659909  0.202505  1
  Ru  Ru33  1  0.168988  0.340091  0.797495  1
  Ru  Ru34  1  0.339611  0.169806  0.202189  1
  Ru  Ru35  1  0.660389  0.830194  0.797811  1
