# generated using pymatgen
data_MgCu2(PdO2)4
_symmetry_space_group_name_H-M   'P 1'
_cell_length_a   6.66889242
_cell_length_b   6.66889201
_cell_length_c   6.53117800
_cell_angle_alpha   60.68078433
_cell_angle_beta   60.68078631
_cell_angle_gamma   58.63842983
_symmetry_Int_Tables_number   1
_chemical_formula_structural   MgCu2(PdO2)4
_chemical_formula_sum   'Mg1 Cu2 Pd4 O8'
_cell_volume   205.22054271
_cell_formula_units_Z   1
loop_
 _symmetry_equiv_pos_site_id
 _symmetry_equiv_pos_as_xyz
  1  'x, y, z'
loop_
 _atom_site_type_symbol
 _atom_site_label
 _atom_site_symmetry_multiplicity
 _atom_site_fract_x
 _atom_site_fract_y
 _atom_site_fract_z
 _atom_site_occupancy
  Mg  Mg0  1  0.000000  0.000000  0.000000  1
  Cu  Cu1  1  0.500000  0.500000  0.000000  1
  Cu  Cu2  1  0.000000  0.000000  0.500000  1
  Pd  Pd3  1  0.500000  0.000000  0.000000  1
  Pd  Pd4  1  0.500000  0.000000  0.500000  1
  Pd  Pd5  1  0.000000  0.500000  0.000000  1
  Pd  Pd6  1  0.000000  0.500000  0.500000  1
  O  O7  1  0.584111  0.154680  0.130603  1
  O  O8  1  0.130603  0.130603  0.154680  1
  O  O9  1  0.154680  0.584111  0.130603  1
  O  O10  1  0.130603  0.130603  0.584111  1
  O  O11  1  0.845320  0.415889  0.869397  1
  O  O12  1  0.869397  0.869397  0.415889  1
  O  O13  1  0.869397  0.869397  0.845320  1
  O  O14  1  0.415889  0.845320  0.869397  1
