# generated using pymatgen
data_Y2HoU5(ReB6)4
_symmetry_space_group_name_H-M   'P 1'
_cell_length_a   3.63843700
_cell_length_b   9.30569438
_cell_length_c   11.41407957
_cell_angle_alpha   89.98685636
_cell_angle_beta   90.00000000
_cell_angle_gamma   90.00000000
_symmetry_Int_Tables_number   1
_chemical_formula_structural   Y2HoU5(ReB6)4
_chemical_formula_sum   'Y2 Ho1 U5 Re4 B24'
_cell_volume   386.45998184
_cell_formula_units_Z   1
loop_
 _symmetry_equiv_pos_site_id
 _symmetry_equiv_pos_as_xyz
  1  'x, y, z'
loop_
 _atom_site_type_symbol
 _atom_site_label
 _atom_site_symmetry_multiplicity
 _atom_site_fract_x
 _atom_site_fract_y
 _atom_site_fract_z
 _atom_site_occupancy
  Y  Y0  1  0.000000  0.336939  0.407672  1
  Y  Y1  1  0.000000  0.663276  0.591950  1
  Ho  Ho2  1  0.000000  0.835604  0.092981  1
  U  U3  1  0.000000  0.163319  0.907383  1
  U  U4  1  0.000000  0.956269  0.396893  1
  U  U5  1  0.000000  0.042702  0.603322  1
  U  U6  1  0.000000  0.457860  0.103763  1
  U  U7  1  0.000000  0.543690  0.897196  1
  Re  Re8  1  0.000000  0.646124  0.318515  1
  Re  Re9  1  0.000000  0.351997  0.683882  1
  Re  Re10  1  0.000000  0.145850  0.177835  1
  Re  Re11  1  0.000000  0.857284  0.819728  1
  B  B12  1  0.500000  0.551805  0.431047  1
  B  B13  1  0.500000  0.447557  0.569816  1
  B  B14  1  0.500000  0.052197  0.067541  1
  B  B15  1  0.500000  0.950108  0.930619  1
  B  B16  1  0.500000  0.743264  0.422923  1
  B  B17  1  0.500000  0.256751  0.577004  1
  B  B18  1  0.500000  0.242718  0.075829  1
  B  B19  1  0.500000  0.756705  0.922969  1
  B  B20  1  0.500000  0.802477  0.274823  1
  B  B21  1  0.500000  0.196402  0.726525  1
  B  B22  1  0.500000  0.302229  0.224691  1
  B  B23  1  0.500000  0.698048  0.775144  1
  B  B24  1  0.500000  0.644179  0.188506  1
  B  B25  1  0.500000  0.354739  0.812281  1
  B  B26  1  0.500000  0.144015  0.310838  1
  B  B27  1  0.500000  0.855380  0.688494  1
  B  B28  1  0.500000  0.988971  0.219239  1
  B  B29  1  0.500000  0.013026  0.781210  1
  B  B30  1  0.500000  0.488902  0.280564  1
  B  B31  1  0.500000  0.511043  0.719846  1
  B  B32  1  0.500000  0.641249  0.038864  1
  B  B33  1  0.500000  0.357275  0.960527  1
  B  B34  1  0.500000  0.139986  0.460791  1
  B  B35  1  0.500000  0.860058  0.538790  1
