# generated using pymatgen
data_Li4UNi9P7
_symmetry_space_group_name_H-M   'P 1'
_cell_length_a   9.04715600
_cell_length_b   9.04715606
_cell_length_c   3.63123500
_cell_angle_alpha   90.00000000
_cell_angle_beta   90.00000000
_cell_angle_gamma   119.99999977
_symmetry_Int_Tables_number   1
_chemical_formula_structural   Li4UNi9P7
_chemical_formula_sum   'Li4 U1 Ni9 P7'
_cell_volume   257.40035958
_cell_formula_units_Z   1
loop_
 _symmetry_equiv_pos_site_id
 _symmetry_equiv_pos_as_xyz
  1  'x, y, z'
loop_
 _atom_site_type_symbol
 _atom_site_label
 _atom_site_symmetry_multiplicity
 _atom_site_fract_x
 _atom_site_fract_y
 _atom_site_fract_z
 _atom_site_occupancy
  Li  Li0  1  0.885568  0.783912  0.500000  1
  Li  Li1  1  0.898344  0.114432  0.500000  1
  Li  Li2  1  0.216088  0.101656  0.500000  1
  Li  Li3  1  0.666667  0.333333  0.500000  1
  U  U4  1  0.333333  0.666667  0.000000  1
  Ni  Ni5  1  0.715300  0.881726  0.000000  1
  Ni  Ni6  1  0.166425  0.284700  0.000000  1
  Ni  Ni7  1  0.118274  0.833575  0.000000  1
  Ni  Ni8  1  0.626910  0.571266  0.000000  1
  Ni  Ni9  1  0.944356  0.373090  0.000000  1
  Ni  Ni10  1  0.428734  0.055644  0.000000  1
  Ni  Ni11  1  0.570471  0.965145  0.500000  1
  Ni  Ni12  1  0.394674  0.429529  0.500000  1
  Ni  Ni13  1  0.034855  0.605326  0.500000  1
  P  P14  1  0.586539  0.712905  0.500000  1
  P  P15  1  0.126367  0.413461  0.500000  1
  P  P16  1  0.287095  0.873633  0.500000  1
  P  P17  1  0.000000  0.000000  0.000000  1
  P  P18  1  0.875989  0.577024  0.000000  1
  P  P19  1  0.701035  0.124011  0.000000  1
  P  P20  1  0.422976  0.298965  0.000000  1
