# generated using pymatgen
data_Ti3ICl7
_symmetry_space_group_name_H-M   'P 1'
_cell_length_a   6.94301017
_cell_length_b   6.94196124
_cell_length_c   7.15920011
_cell_angle_alpha   90.01899607
_cell_angle_beta   89.99723682
_cell_angle_gamma   120.03059229
_symmetry_Int_Tables_number   1
_chemical_formula_structural   Ti3ICl7
_chemical_formula_sum   'Ti3 I1 Cl7'
_cell_volume   298.73845472
_cell_formula_units_Z   1
loop_
 _symmetry_equiv_pos_site_id
 _symmetry_equiv_pos_as_xyz
  1  'x, y, z'
loop_
 _atom_site_type_symbol
 _atom_site_label
 _atom_site_symmetry_multiplicity
 _atom_site_fract_x
 _atom_site_fract_y
 _atom_site_fract_z
 _atom_site_occupancy
  Ti  Ti0  1  0.147459  0.294942  0.783636  1
  Ti  Ti1  1  0.147386  0.852566  0.783473  1
  Ti  Ti2  1  0.705030  0.852523  0.783706  1
  I  I3  1  0.000050  0.000054  0.486100  1
  Cl  Cl4  1  0.322870  0.161494  0.992235  1
  Cl  Cl5  1  0.838376  0.161150  0.992523  1
  Cl  Cl6  1  0.838299  0.677188  0.992435  1
  Cl  Cl7  1  0.497902  0.502501  0.608636  1
  Cl  Cl8  1  0.004677  0.502242  0.608830  1
  Cl  Cl9  1  0.497989  0.995372  0.608699  1
  Cl  Cl10  1  0.333296  0.666634  0.974816  1
