# generated using pymatgen
data_Ho4LuBiAu2
_symmetry_space_group_name_H-M   'P 1'
_cell_length_a   8.66253515
_cell_length_b   8.66253531
_cell_length_c   8.66253563
_cell_angle_alpha   124.19872663
_cell_angle_beta   124.19872894
_cell_angle_gamma   82.86948054
_symmetry_Int_Tables_number   1
_chemical_formula_structural   Ho4LuBiAu2
_chemical_formula_sum   'Ho8 Lu2 Bi2 Au4'
_cell_volume   426.84281878
_cell_formula_units_Z   2
loop_
 _symmetry_equiv_pos_site_id
 _symmetry_equiv_pos_as_xyz
  1  'x, y, z'
loop_
 _atom_site_type_symbol
 _atom_site_label
 _atom_site_symmetry_multiplicity
 _atom_site_fract_x
 _atom_site_fract_y
 _atom_site_fract_z
 _atom_site_occupancy
  Ho  Ho0  1  0.014977  0.514977  0.809918  1
  Ho  Ho1  1  0.705059  0.205059  0.190082  1
  Ho  Ho2  1  0.514977  0.705059  0.500000  1
  Ho  Ho3  1  0.205059  0.014977  0.500000  1
  Ho  Ho4  1  0.985023  0.485023  0.190082  1
  Ho  Ho5  1  0.294941  0.794941  0.809918  1
  Ho  Ho6  1  0.485023  0.294941  0.500000  1
  Ho  Ho7  1  0.794941  0.985023  0.500000  1
  Lu  Lu8  1  0.000000  0.000000  0.000000  1
  Lu  Lu9  1  0.500000  0.500000  0.000000  1
  Bi  Bi10  1  0.750000  0.750000  0.000000  1
  Bi  Bi11  1  0.250000  0.250000  0.000000  1
  Au  Au12  1  0.638306  0.138306  0.776612  1
  Au  Au13  1  0.361694  0.861694  0.223388  1
  Au  Au14  1  0.138306  0.361694  0.500000  1
  Au  Au15  1  0.861694  0.638306  0.500000  1
