# generated using pymatgen
data_LaTbHo5CoI12
_symmetry_space_group_name_H-M   'P 1'
_cell_length_a   9.76315179
_cell_length_b   9.76592664
_cell_length_c   9.76688752
_cell_angle_alpha   106.31433482
_cell_angle_beta   106.30119311
_cell_angle_gamma   106.27863602
_symmetry_Int_Tables_number   1
_chemical_formula_structural   LaTbHo5CoI12
_chemical_formula_sum   'La1 Tb1 Ho5 Co1 I12'
_cell_volume   789.92208667
_cell_formula_units_Z   1
loop_
 _symmetry_equiv_pos_site_id
 _symmetry_equiv_pos_as_xyz
  1  'x, y, z'
loop_
 _atom_site_type_symbol
 _atom_site_label
 _atom_site_symmetry_multiplicity
 _atom_site_fract_x
 _atom_site_fract_y
 _atom_site_fract_z
 _atom_site_occupancy
  La  La0  1  0.995208  0.995177  0.995076  1
  Tb  Tb1  1  0.517048  0.588983  0.784985  1
  Ho  Ho2  1  0.782567  0.516667  0.587537  1
  Ho  Ho3  1  0.587979  0.782425  0.516415  1
  Ho  Ho4  1  0.481818  0.410703  0.216906  1
  Ho  Ho5  1  0.216543  0.481621  0.410065  1
  Ho  Ho6  1  0.410667  0.216541  0.481333  1
  Co  Co7  1  0.499775  0.499747  0.499609  1
  I  I8  1  0.276447  0.822953  0.426558  1
  I  I9  1  0.426211  0.275141  0.822787  1
  I  I10  1  0.823149  0.426593  0.276425  1
  I  I11  1  0.722482  0.175733  0.571832  1
  I  I12  1  0.572022  0.722714  0.176249  1
  I  I13  1  0.174714  0.571668  0.721905  1
  I  I14  1  0.045472  0.123490  0.350966  1
  I  I15  1  0.350931  0.045404  0.123446  1
  I  I16  1  0.123383  0.350880  0.045401  1
  I  I17  1  0.952602  0.873935  0.641249  1
  I  I18  1  0.641635  0.953700  0.873918  1
  I  I19  1  0.874716  0.641295  0.952707  1
