# generated using pymatgen
data_Sc6Zn22SiRh
_symmetry_space_group_name_H-M   'P 1'
_cell_length_a   8.80135783
_cell_length_b   8.80135796
_cell_length_c   8.80135800
_cell_angle_alpha   60.00000738
_cell_angle_beta   60.00000689
_cell_angle_gamma   60.00000074
_symmetry_Int_Tables_number   1
_chemical_formula_structural   Sc6Zn22SiRh
_chemical_formula_sum   'Sc6 Zn22 Si1 Rh1'
_cell_volume   482.09663578
_cell_formula_units_Z   1
loop_
 _symmetry_equiv_pos_site_id
 _symmetry_equiv_pos_as_xyz
  1  'x, y, z'
loop_
 _atom_site_type_symbol
 _atom_site_label
 _atom_site_symmetry_multiplicity
 _atom_site_fract_x
 _atom_site_fract_y
 _atom_site_fract_z
 _atom_site_occupancy
  Sc  Sc0  1  0.713014  0.286986  0.286986  1
  Sc  Sc1  1  0.286986  0.713014  0.713014  1
  Sc  Sc2  1  0.286986  0.713014  0.286986  1
  Sc  Sc3  1  0.713014  0.286986  0.713014  1
  Sc  Sc4  1  0.286986  0.286986  0.713014  1
  Sc  Sc5  1  0.713014  0.713014  0.286986  1
  Zn  Zn6  1  0.120657  0.120657  0.120657  1
  Zn  Zn7  1  0.879343  0.879343  0.879343  1
  Zn  Zn8  1  0.120657  0.120657  0.638028  1
  Zn  Zn9  1  0.120657  0.638028  0.120657  1
  Zn  Zn10  1  0.879343  0.879343  0.361972  1
  Zn  Zn11  1  0.879343  0.361972  0.879343  1
  Zn  Zn12  1  0.638028  0.120657  0.120657  1
  Zn  Zn13  1  0.361972  0.879343  0.879343  1
  Zn  Zn14  1  0.500000  0.000000  0.000000  1
  Zn  Zn15  1  0.000000  0.500000  0.500000  1
  Zn  Zn16  1  0.000000  0.500000  0.000000  1
  Zn  Zn17  1  0.500000  0.000000  0.500000  1
  Zn  Zn18  1  0.000000  0.000000  0.500000  1
  Zn  Zn19  1  0.500000  0.500000  0.000000  1
  Zn  Zn20  1  0.335362  0.335362  0.335362  1
  Zn  Zn21  1  0.664638  0.664638  0.664638  1
  Zn  Zn22  1  0.335362  0.335362  0.993914  1
  Zn  Zn23  1  0.335362  0.993914  0.335362  1
  Zn  Zn24  1  0.664638  0.664638  0.006086  1
  Zn  Zn25  1  0.664638  0.006086  0.664638  1
  Zn  Zn26  1  0.993914  0.335362  0.335362  1
  Zn  Zn27  1  0.006086  0.664638  0.664638  1
  Si  Si28  1  0.500000  0.500000  0.500000  1
  Rh  Rh29  1  0.000000  0.000000  0.000000  1
