# generated using pymatgen
data_Zr4Al2(ReW)3
_symmetry_space_group_name_H-M   'P 1'
_cell_length_a   5.30281900
_cell_length_b   5.28445273
_cell_length_c   8.84494600
_cell_angle_alpha   90.00000000
_cell_angle_beta   90.00000000
_cell_angle_gamma   120.11501750
_symmetry_Int_Tables_number   1
_chemical_formula_structural   Zr4Al2(ReW)3
_chemical_formula_sum   'Zr4 Al2 Re3 W3'
_cell_volume   214.40165194
_cell_formula_units_Z   1
loop_
 _symmetry_equiv_pos_site_id
 _symmetry_equiv_pos_as_xyz
  1  'x, y, z'
loop_
 _atom_site_type_symbol
 _atom_site_label
 _atom_site_symmetry_multiplicity
 _atom_site_fract_x
 _atom_site_fract_y
 _atom_site_fract_z
 _atom_site_occupancy
  Zr  Zr0  1  0.334219  0.668439  0.436842  1
  Zr  Zr1  1  0.666543  0.333085  0.932798  1
  Zr  Zr2  1  0.666543  0.333085  0.567202  1
  Zr  Zr3  1  0.334219  0.668439  0.063158  1
  Al  Al4  1  0.997923  0.995846  0.998695  1
  Al  Al5  1  0.997923  0.995846  0.501305  1
  Re  Re6  1  0.662168  0.831806  0.750000  1
  Re  Re7  1  0.831806  0.663614  0.250000  1
  Re  Re8  1  0.169639  0.831806  0.750000  1
  W  W9  1  0.170340  0.340680  0.750000  1
  W  W10  1  0.830571  0.168677  0.250000  1
  W  W11  1  0.338105  0.168677  0.250000  1
