# generated using pymatgen
data_Tb3Co9CuGeB4
_symmetry_space_group_name_H-M   'P 1'
_cell_length_a   5.11909902
_cell_length_b   5.11936789
_cell_length_c   9.59363601
_cell_angle_alpha   90.00067569
_cell_angle_beta   89.99997989
_cell_angle_gamma   120.00151411
_symmetry_Int_Tables_number   1
_chemical_formula_structural   Tb3Co9CuGeB4
_chemical_formula_sum   'Tb3 Co9 Cu1 Ge1 B4'
_cell_volume   217.72941861
_cell_formula_units_Z   1
loop_
 _symmetry_equiv_pos_site_id
 _symmetry_equiv_pos_as_xyz
  1  'x, y, z'
loop_
 _atom_site_type_symbol
 _atom_site_label
 _atom_site_symmetry_multiplicity
 _atom_site_fract_x
 _atom_site_fract_y
 _atom_site_fract_z
 _atom_site_occupancy
  Tb  Tb0  1  0.999948  0.000003  0.999999  1
  Tb  Tb1  1  0.000020  0.000006  0.340508  1
  Tb  Tb2  1  0.000015  0.000010  0.659527  1
  Co  Co3  1  0.499878  0.999778  0.500001  1
  Co  Co4  1  0.499889  0.500110  0.500010  1
  Co  Co5  1  0.000206  0.500108  0.500015  1
  Co  Co6  1  0.500556  0.001098  0.206431  1
  Co  Co7  1  0.500515  0.499461  0.206458  1
  Co  Co8  1  0.998879  0.499433  0.206416  1
  Co  Co9  1  0.500533  0.001084  0.793566  1
  Co  Co10  1  0.500498  0.499497  0.793523  1
  Co  Co11  1  0.998892  0.499458  0.793565  1
  Cu  Cu12  1  0.333279  0.666650  0.999987  1
  Ge  Ge13  1  0.666861  0.333330  0.999984  1
  B  B14  1  0.333259  0.666682  0.348677  1
  B  B15  1  0.666712  0.333299  0.349379  1
  B  B16  1  0.666673  0.333267  0.650620  1
  B  B17  1  0.333286  0.666726  0.651334  1
