# generated using pymatgen
data_LiTa3(TiOs3)2
_symmetry_space_group_name_H-M   'P 1'
_cell_length_a   4.42685500
_cell_length_b   6.25567900
_cell_length_c   13.28045800
_cell_angle_alpha   90.00000000
_cell_angle_beta   90.00031063
_cell_angle_gamma   90.00000000
_symmetry_Int_Tables_number   1
_chemical_formula_structural   LiTa3(TiOs3)2
_chemical_formula_sum   'Li2 Ta6 Ti4 Os12'
_cell_volume   367.77550904
_cell_formula_units_Z   2
loop_
 _symmetry_equiv_pos_site_id
 _symmetry_equiv_pos_as_xyz
  1  'x, y, z'
loop_
 _atom_site_type_symbol
 _atom_site_label
 _atom_site_symmetry_multiplicity
 _atom_site_fract_x
 _atom_site_fract_y
 _atom_site_fract_z
 _atom_site_occupancy
  Li  Li0  1  0.000002  0.000000  0.000629  1
  Li  Li1  1  0.499979  0.500000  0.166037  1
  Ta  Ta2  1  0.000002  0.500000  0.007324  1
  Ta  Ta3  1  0.499984  0.000000  0.159350  1
  Ta  Ta4  1  0.999989  0.500000  0.324599  1
  Ta  Ta5  1  0.499998  0.000000  0.497734  1
  Ta  Ta6  1  0.000012  0.500000  0.668942  1
  Ta  Ta7  1  0.500013  0.000000  0.842058  1
  Ti  Ti8  1  0.999989  0.000000  0.327329  1
  Ti  Ti9  1  0.500002  0.500000  0.498107  1
  Ti  Ti10  1  0.000011  0.000000  0.668560  1
  Ti  Ti11  1  0.500015  0.500000  0.839338  1
  Os  Os12  1  0.499998  0.252829  0.998393  1
  Os  Os13  1  0.499998  0.747171  0.998393  1
  Os  Os14  1  0.999987  0.247157  0.168278  1
  Os  Os15  1  0.999987  0.752843  0.168278  1
  Os  Os16  1  0.499989  0.247695  0.335210  1
  Os  Os17  1  0.499989  0.752305  0.335210  1
  Os  Os18  1  0.000000  0.250775  0.499854  1
  Os  Os19  1  0.000000  0.749225  0.499854  1
  Os  Os20  1  0.500011  0.249211  0.666810  1
  Os  Os21  1  0.500011  0.750789  0.666810  1
  Os  Os22  1  0.000014  0.252288  0.831451  1
  Os  Os23  1  0.000014  0.747712  0.831451  1
