# generated using pymatgen
data_Er2Lu10Tc3Ru
_symmetry_space_group_name_H-M   'P 1'
_cell_length_a   6.13959493
_cell_length_b   7.33277393
_cell_length_c   8.87621400
_cell_angle_alpha   90.00000000
_cell_angle_beta   90.00000000
_cell_angle_gamma   89.93947357
_symmetry_Int_Tables_number   1
_chemical_formula_structural   Er2Lu10Tc3Ru
_chemical_formula_sum   'Er2 Lu10 Tc3 Ru1'
_cell_volume   399.60925420
_cell_formula_units_Z   1
loop_
 _symmetry_equiv_pos_site_id
 _symmetry_equiv_pos_as_xyz
  1  'x, y, z'
loop_
 _atom_site_type_symbol
 _atom_site_label
 _atom_site_symmetry_multiplicity
 _atom_site_fract_x
 _atom_site_fract_y
 _atom_site_fract_z
 _atom_site_occupancy
  Er  Er0  1  0.875770  0.539813  0.250000  1
  Er  Er1  1  0.128312  0.458583  0.750000  1
  Lu  Lu2  1  0.340644  0.676042  0.062673  1
  Lu  Lu3  1  0.157187  0.174809  0.437654  1
  Lu  Lu4  1  0.657769  0.324941  0.562603  1
  Lu  Lu5  1  0.841809  0.824970  0.937619  1
  Lu  Lu6  1  0.657769  0.324941  0.937397  1
  Lu  Lu7  1  0.841809  0.824970  0.562381  1
  Lu  Lu8  1  0.340644  0.676042  0.437327  1
  Lu  Lu9  1  0.157187  0.174809  0.062346  1
  Lu  Lu10  1  0.624834  0.038772  0.250000  1
  Lu  Lu11  1  0.375445  0.959033  0.750000  1
  Tc  Tc12  1  0.042134  0.883410  0.250000  1
  Tc  Tc13  1  0.458747  0.383918  0.250000  1
  Tc  Tc14  1  0.959139  0.116409  0.750000  1
  Ru  Ru15  1  0.540797  0.618534  0.750000  1
