# generated using pymatgen
data_Er(TaC)5
_symmetry_space_group_name_H-M   'P 1'
_cell_length_a   5.52025765
_cell_length_b   5.58300480
_cell_length_c   5.60132454
_cell_angle_alpha   99.18854679
_cell_angle_beta   101.01503777
_cell_angle_gamma   119.51368399
_symmetry_Int_Tables_number   1
_chemical_formula_structural   Er(TaC)5
_chemical_formula_sum   'Er1 Ta5 C5'
_cell_volume   140.80237001
_cell_formula_units_Z   1
loop_
 _symmetry_equiv_pos_site_id
 _symmetry_equiv_pos_as_xyz
  1  'x, y, z'
loop_
 _atom_site_type_symbol
 _atom_site_label
 _atom_site_symmetry_multiplicity
 _atom_site_fract_x
 _atom_site_fract_y
 _atom_site_fract_z
 _atom_site_occupancy
  Er  Er0  1  0.404013  0.078110  0.235281  1
  Ta  Ta1  1  0.081592  0.441159  0.254022  1
  Ta  Ta2  1  0.734200  0.739642  0.274930  1
  Ta  Ta3  1  0.278676  0.269898  0.733648  1
  Ta  Ta4  1  0.917961  0.548109  0.739294  1
  Ta  Ta5  1  0.567046  0.917424  0.749997  1
  C  C6  1  0.676791  0.343917  0.995400  1
  C  C7  1  0.333584  0.653435  0.993470  1
  C  C8  1  0.839401  0.166583  0.504296  1
  C  C9  1  0.506042  0.514210  0.511154  1
  C  C10  1  0.160699  0.827519  0.508507  1
