# generated using pymatgen
data_Ca2La4OsO12
_symmetry_space_group_name_H-M   'P 1'
_cell_length_a   6.76811548
_cell_length_b   6.80823036
_cell_length_c   6.90568112
_cell_angle_alpha   98.24656104
_cell_angle_beta   99.55470104
_cell_angle_gamma   97.88344261
_symmetry_Int_Tables_number   1
_chemical_formula_structural   Ca2La4OsO12
_chemical_formula_sum   'Ca2 La4 Os1 O12'
_cell_volume   306.29402098
_cell_formula_units_Z   1
loop_
 _symmetry_equiv_pos_site_id
 _symmetry_equiv_pos_as_xyz
  1  'x, y, z'
loop_
 _atom_site_type_symbol
 _atom_site_label
 _atom_site_symmetry_multiplicity
 _atom_site_fract_x
 _atom_site_fract_y
 _atom_site_fract_z
 _atom_site_occupancy
  Ca  Ca0  1  0.162040  0.334348  0.590365  1
  Ca  Ca1  1  0.403725  0.845498  0.663158  1
  La  La2  1  0.678679  0.389170  0.848903  1
  La  La3  1  0.311552  0.615793  0.133887  1
  La  La4  1  0.606632  0.149527  0.325291  1
  La  La5  1  0.861515  0.684310  0.395756  1
  Os  Os6  1  0.993012  0.999983  0.006221  1
  O  O7  1  0.060539  0.270798  0.984203  1
  O  O8  1  0.011306  0.915708  0.742791  1
  O  O9  1  0.409758  0.570558  0.820368  1
  O  O10  1  0.181506  0.598917  0.421473  1
  O  O11  1  0.715803  0.019201  0.934527  1
  O  O12  1  0.436606  0.172434  0.596604  1
  O  O13  1  0.567747  0.823170  0.392208  1
  O  O14  1  0.270540  0.982333  0.086114  1
  O  O15  1  0.831820  0.403573  0.567976  1
  O  O16  1  0.597045  0.436930  0.174653  1
  O  O17  1  0.969098  0.066250  0.278626  1
  O  O18  1  0.931077  0.721499  0.036878  1
