# generated using pymatgen
data_AcHo(GeAu)2
_symmetry_space_group_name_H-M   'P 1'
_cell_length_a   4.53831300
_cell_length_b   4.53831418
_cell_length_c   7.91614000
_cell_angle_alpha   90.00000000
_cell_angle_beta   90.00000000
_cell_angle_gamma   119.99998411
_symmetry_Int_Tables_number   1
_chemical_formula_structural   AcHo(GeAu)2
_chemical_formula_sum   'Ac1 Ho1 Ge2 Au2'
_cell_volume   141.19950388
_cell_formula_units_Z   1
loop_
 _symmetry_equiv_pos_site_id
 _symmetry_equiv_pos_as_xyz
  1  'x, y, z'
loop_
 _atom_site_type_symbol
 _atom_site_label
 _atom_site_symmetry_multiplicity
 _atom_site_fract_x
 _atom_site_fract_y
 _atom_site_fract_z
 _atom_site_occupancy
  Ac  Ac0  1  0.000000  0.000000  0.455238  1
  Ho  Ho1  1  0.000000  0.000000  0.960117  1
  Ge  Ge2  1  0.333333  0.666667  0.759975  1
  Ge  Ge3  1  0.666667  0.333333  0.217225  1
  Au  Au4  1  0.666667  0.333333  0.726738  1
  Au  Au5  1  0.333333  0.666667  0.147307  1
