# generated using pymatgen
data_Tb2YLu2Si3H
_symmetry_space_group_name_H-M   'P 1'
_cell_length_a   8.41208404
_cell_length_b   8.41208316
_cell_length_c   6.15100000
_cell_angle_alpha   90.00009695
_cell_angle_beta   90.00009421
_cell_angle_gamma   120.05691130
_symmetry_Int_Tables_number   1
_chemical_formula_structural   Tb2YLu2Si3H
_chemical_formula_sum   'Tb4 Y2 Lu4 Si6 H2'
_cell_volume   376.73344378
_cell_formula_units_Z   2
loop_
 _symmetry_equiv_pos_site_id
 _symmetry_equiv_pos_as_xyz
  1  'x, y, z'
loop_
 _atom_site_type_symbol
 _atom_site_label
 _atom_site_symmetry_multiplicity
 _atom_site_fract_x
 _atom_site_fract_y
 _atom_site_fract_z
 _atom_site_occupancy
  Tb  Tb0  1  0.749147  0.749147  0.749998  1
  Tb  Tb1  1  0.250992  0.000002  0.750000  1
  Tb  Tb2  1  0.000002  0.250992  0.750000  1
  Tb  Tb3  1  0.250972  0.250972  0.249996  1
  Y  Y4  1  0.748748  0.000067  0.250000  1
  Y  Y5  1  0.000067  0.748748  0.250000  1
  Lu  Lu6  1  0.666712  0.333365  0.999962  1
  Lu  Lu7  1  0.333365  0.666712  0.999962  1
  Lu  Lu8  1  0.333354  0.666710  0.500044  1
  Lu  Lu9  1  0.666710  0.333354  0.500044  1
  Si  Si10  1  0.391379  0.391379  0.749999  1
  Si  Si11  1  0.608618  0.999950  0.749999  1
  Si  Si12  1  0.999950  0.608618  0.749999  1
  Si  Si13  1  0.609133  0.609133  0.249998  1
  Si  Si14  1  0.391140  0.999710  0.250001  1
  Si  Si15  1  0.999710  0.391140  0.250001  1
  H  H16  1  0.000002  0.000002  0.499767  1
  H  H17  1  0.000001  0.000001  0.000230  1
