# generated using pymatgen
data_Nd5Dy2Sn23Ir6
_symmetry_space_group_name_H-M   'P 1'
_cell_length_a   9.96412507
_cell_length_b   9.97106374
_cell_length_c   10.18848043
_cell_angle_alpha   89.99999863
_cell_angle_beta   90.09264728
_cell_angle_gamma   120.02303597
_symmetry_Int_Tables_number   1
_chemical_formula_structural   Nd5Dy2Sn23Ir6
_chemical_formula_sum   'Nd5 Dy2 Sn23 Ir6'
_cell_volume   876.43375326
_cell_formula_units_Z   1
loop_
 _symmetry_equiv_pos_site_id
 _symmetry_equiv_pos_as_xyz
  1  'x, y, z'
loop_
 _atom_site_type_symbol
 _atom_site_label
 _atom_site_symmetry_multiplicity
 _atom_site_fract_x
 _atom_site_fract_y
 _atom_site_fract_z
 _atom_site_occupancy
  Nd  Nd0  1  0.000000  0.000000  0.000000  1
  Nd  Nd1  1  0.478994  0.521819  0.308328  1
  Nd  Nd2  1  0.521006  0.478181  0.691672  1
  Nd  Nd3  1  0.478994  0.957174  0.308328  1
  Nd  Nd4  1  0.521006  0.042826  0.691672  1
  Dy  Dy5  1  0.039649  0.519824  0.307104  1
  Dy  Dy6  1  0.960351  0.480176  0.692896  1
  Sn  Sn7  1  0.352379  0.999467  0.999684  1
  Sn  Sn8  1  0.647621  0.000533  0.000316  1
  Sn  Sn9  1  0.000000  0.353045  0.000000  1
  Sn  Sn10  1  0.000000  0.646955  0.000000  1
  Sn  Sn11  1  0.647621  0.647088  0.000316  1
  Sn  Sn12  1  0.352379  0.352912  0.999684  1
  Sn  Sn13  1  0.333020  0.666511  0.826712  1
  Sn  Sn14  1  0.666980  0.333489  0.173288  1
  Sn  Sn15  1  0.000000  0.000000  0.500000  1
  Sn  Sn16  1  0.783661  0.224397  0.455658  1
  Sn  Sn17  1  0.216339  0.775603  0.544342  1
  Sn  Sn18  1  0.783661  0.559265  0.455658  1
  Sn  Sn19  1  0.216339  0.440735  0.544342  1
  Sn  Sn20  1  0.440042  0.220022  0.454821  1
  Sn  Sn21  1  0.559958  0.779978  0.545179  1
  Sn  Sn22  1  0.329509  0.664755  0.114084  1
  Sn  Sn23  1  0.670491  0.335245  0.885916  1
  Sn  Sn24  1  0.117034  0.881468  0.284419  1
  Sn  Sn25  1  0.882966  0.118532  0.715581  1
  Sn  Sn26  1  0.117034  0.235566  0.284419  1
  Sn  Sn27  1  0.882966  0.764434  0.715581  1
  Sn  Sn28  1  0.767416  0.883708  0.283956  1
  Sn  Sn29  1  0.232584  0.116292  0.716044  1
  Ir  Ir30  1  0.832852  0.171045  0.199170  1
  Ir  Ir31  1  0.167148  0.828955  0.800830  1
  Ir  Ir32  1  0.832852  0.661806  0.199170  1
  Ir  Ir33  1  0.167148  0.338194  0.800830  1
  Ir  Ir34  1  0.335455  0.167727  0.197594  1
  Ir  Ir35  1  0.664545  0.832273  0.802406  1
