# generated using pymatgen
data_Lu4Th4B24MoRu3
_symmetry_space_group_name_H-M   'P 1'
_cell_length_a   3.74034000
_cell_length_b   9.19563653
_cell_length_c   11.61332669
_cell_angle_alpha   89.88638896
_cell_angle_beta   90.00000000
_cell_angle_gamma   90.00000000
_symmetry_Int_Tables_number   1
_chemical_formula_structural   Lu4Th4B24MoRu3
_chemical_formula_sum   'Lu4 Th4 B24 Mo1 Ru3'
_cell_volume   399.43734663
_cell_formula_units_Z   1
loop_
 _symmetry_equiv_pos_site_id
 _symmetry_equiv_pos_as_xyz
  1  'x, y, z'
loop_
 _atom_site_type_symbol
 _atom_site_label
 _atom_site_symmetry_multiplicity
 _atom_site_fract_x
 _atom_site_fract_y
 _atom_site_fract_z
 _atom_site_occupancy
  Lu  Lu0  1  0.000000  0.944287  0.374371  1
  Lu  Lu1  1  0.000000  0.055592  0.626161  1
  Lu  Lu2  1  0.000000  0.446859  0.125771  1
  Lu  Lu3  1  0.000000  0.555338  0.873225  1
  Th  Th4  1  0.000000  0.323029  0.412860  1
  Th  Th5  1  0.000000  0.678826  0.584267  1
  Th  Th6  1  0.000000  0.819637  0.088211  1
  Th  Th7  1  0.000000  0.177983  0.914685  1
  B  B8  1  0.500000  0.555337  0.431111  1
  B  B9  1  0.500000  0.443202  0.570418  1
  B  B10  1  0.500000  0.056192  0.070137  1
  B  B11  1  0.500000  0.943060  0.930239  1
  B  B12  1  0.500000  0.751756  0.418130  1
  B  B13  1  0.500000  0.248479  0.582647  1
  B  B14  1  0.500000  0.252119  0.082360  1
  B  B15  1  0.500000  0.747622  0.917146  1
  B  B16  1  0.500000  0.793876  0.266271  1
  B  B17  1  0.500000  0.207369  0.733644  1
  B  B18  1  0.500000  0.292170  0.232696  1
  B  B19  1  0.500000  0.708021  0.766405  1
  B  B20  1  0.500000  0.630669  0.184245  1
  B  B21  1  0.500000  0.369081  0.815877  1
  B  B22  1  0.500000  0.130098  0.315151  1
  B  B23  1  0.500000  0.870314  0.684300  1
  B  B24  1  0.500000  0.985410  0.215325  1
  B  B25  1  0.500000  0.014687  0.784876  1
  B  B26  1  0.500000  0.483476  0.284146  1
  B  B27  1  0.500000  0.514371  0.715335  1
  B  B28  1  0.500000  0.602124  0.026076  1
  B  B29  1  0.500000  0.397727  0.971644  1
  B  B30  1  0.500000  0.102685  0.472702  1
  B  B31  1  0.500000  0.899014  0.529176  1
  Mo  Mo32  1  0.000000  0.639926  0.319289  1
  Ru  Ru33  1  0.000000  0.358853  0.681528  1
  Ru  Ru34  1  0.000000  0.140752  0.180345  1
  Ru  Ru35  1  0.000000  0.860058  0.819229  1
