# generated using pymatgen
data_Cs8CaEuI12
_symmetry_space_group_name_H-M   'P 1'
_cell_length_a   10.62771938
_cell_length_b   10.62771990
_cell_length_c   10.62772088
_cell_angle_alpha   89.26703381
_cell_angle_beta   89.26703012
_cell_angle_gamma   89.26703623
_symmetry_Int_Tables_number   1
_chemical_formula_structural   Cs8CaEuI12
_chemical_formula_sum   'Cs8 Ca1 Eu1 I12'
_cell_volume   1200.09215608
_cell_formula_units_Z   1
loop_
 _symmetry_equiv_pos_site_id
 _symmetry_equiv_pos_as_xyz
  1  'x, y, z'
loop_
 _atom_site_type_symbol
 _atom_site_label
 _atom_site_symmetry_multiplicity
 _atom_site_fract_x
 _atom_site_fract_y
 _atom_site_fract_z
 _atom_site_occupancy
  Cs  Cs0  1  0.249652  0.249652  0.249652  1
  Cs  Cs1  1  0.750348  0.750348  0.750348  1
  Cs  Cs2  1  0.870426  0.630123  0.249702  1
  Cs  Cs3  1  0.630123  0.249702  0.870426  1
  Cs  Cs4  1  0.249702  0.870426  0.630123  1
  Cs  Cs5  1  0.129574  0.369877  0.750298  1
  Cs  Cs6  1  0.369877  0.750298  0.129574  1
  Cs  Cs7  1  0.750298  0.129574  0.369877  1
  Ca  Ca8  1  0.000000  0.000000  0.000000  1
  Eu  Eu9  1  0.500000  0.500000  0.500000  1
  I  I10  1  0.205605  0.558384  0.430562  1
  I  I11  1  0.057090  0.712514  0.932350  1
  I  I12  1  0.932350  0.057090  0.712514  1
  I  I13  1  0.794395  0.441616  0.569438  1
  I  I14  1  0.712514  0.932350  0.057090  1
  I  I15  1  0.441616  0.569438  0.794395  1
  I  I16  1  0.569438  0.794395  0.441616  1
  I  I17  1  0.558384  0.430562  0.205605  1
  I  I18  1  0.067650  0.942910  0.287486  1
  I  I19  1  0.942910  0.287486  0.067650  1
  I  I20  1  0.287486  0.067650  0.942910  1
  I  I21  1  0.430562  0.205605  0.558384  1
