# generated using pymatgen
data_MgMn5(MoO4)6
_symmetry_space_group_name_H-M   'P 1'
_cell_length_a   7.16682099
_cell_length_b   8.70814784
_cell_length_c   10.06105634
_cell_angle_alpha   96.94828899
_cell_angle_beta   106.50884070
_cell_angle_gamma   101.71686974
_symmetry_Int_Tables_number   1
_chemical_formula_structural   MgMn5(MoO4)6
_chemical_formula_sum   'Mg1 Mn5 Mo6 O24'
_cell_volume   578.70321246
_cell_formula_units_Z   1
loop_
 _symmetry_equiv_pos_site_id
 _symmetry_equiv_pos_as_xyz
  1  'x, y, z'
loop_
 _atom_site_type_symbol
 _atom_site_label
 _atom_site_symmetry_multiplicity
 _atom_site_fract_x
 _atom_site_fract_y
 _atom_site_fract_z
 _atom_site_occupancy
  Mg  Mg0  1  0.033250  0.114955  0.288049  1
  Mn  Mn1  1  0.254143  0.689993  0.912174  1
  Mn  Mn2  1  0.748157  0.307742  0.091001  1
  Mn  Mn3  1  0.531468  0.696442  0.486352  1
  Mn  Mn4  1  0.465846  0.302223  0.512954  1
  Mn  Mn5  1  0.969406  0.889316  0.714272  1
  Mo  Mo6  1  0.506301  0.990260  0.757563  1
  Mo  Mo7  1  0.495195  0.011399  0.243406  1
  Mo  Mo8  1  0.700053  0.601726  0.838640  1
  Mo  Mo9  1  0.298540  0.393043  0.163014  1
  Mo  Mo10  1  0.977377  0.710639  0.372538  1
  Mo  Mo11  1  0.022509  0.294753  0.623056  1
  O  O12  1  0.270433  0.870003  0.766884  1
  O  O13  1  0.735148  0.128262  0.236711  1
  O  O14  1  0.560460  0.706717  0.920550  1
  O  O15  1  0.440044  0.289542  0.081590  1
  O  O16  1  0.559874  0.526733  0.651501  1
  O  O17  1  0.440299  0.472294  0.348906  1
  O  O18  1  0.549652  0.871428  0.352822  1
  O  O19  1  0.448672  0.129659  0.647784  1
  O  O20  1  0.658909  0.097161  0.926421  1
  O  O21  1  0.345020  0.902299  0.074630  1
  O  O22  1  0.649576  0.867890  0.684117  1
  O  O23  1  0.346301  0.131433  0.313912  1
  O  O24  1  0.024166  0.130043  0.714117  1
  O  O25  1  0.979461  0.880998  0.288379  1
  O  O26  1  0.052223  0.265745  0.148427  1
  O  O27  1  0.948284  0.728263  0.856985  1
  O  O28  1  0.148956  0.476759  0.746375  1
  O  O29  1  0.852627  0.530212  0.246415  1
  O  O30  1  0.137961  0.263137  0.482617  1
  O  O31  1  0.857299  0.733945  0.510987  1
  O  O32  1  0.253625  0.552789  0.075736  1
  O  O33  1  0.740242  0.439522  0.923330  1
  O  O34  1  0.230408  0.707436  0.457688  1
  O  O35  1  0.768118  0.295243  0.540097  1
