# generated using pymatgen
data_Ho6ErTh(ReB6)4
_symmetry_space_group_name_H-M   'P 1'
_cell_length_a   3.69879200
_cell_length_b   9.18117384
_cell_length_c   11.57451109
_cell_angle_alpha   90.04328805
_cell_angle_beta   90.00000000
_cell_angle_gamma   90.00000000
_symmetry_Int_Tables_number   1
_chemical_formula_structural   Ho6ErTh(ReB6)4
_chemical_formula_sum   'Ho6 Er1 Th1 Re4 B24'
_cell_volume   393.06163052
_cell_formula_units_Z   1
loop_
 _symmetry_equiv_pos_site_id
 _symmetry_equiv_pos_as_xyz
  1  'x, y, z'
loop_
 _atom_site_type_symbol
 _atom_site_label
 _atom_site_symmetry_multiplicity
 _atom_site_fract_x
 _atom_site_fract_y
 _atom_site_fract_z
 _atom_site_occupancy
  Ho  Ho0  1  0.000000  0.677815  0.587420  1
  Ho  Ho1  1  0.000000  0.823229  0.084997  1
  Ho  Ho2  1  0.000000  0.175963  0.913954  1
  Ho  Ho3  1  0.000000  0.941914  0.369450  1
  Ho  Ho4  1  0.000000  0.055983  0.631448  1
  Ho  Ho5  1  0.000000  0.443569  0.128035  1
  Er  Er6  1  0.000000  0.557530  0.870628  1
  Th  Th7  1  0.000000  0.322429  0.414175  1
  Re  Re8  1  0.000000  0.639312  0.320393  1
  Re  Re9  1  0.000000  0.361979  0.680705  1
  Re  Re10  1  0.000000  0.138191  0.177975  1
  Re  Re11  1  0.000000  0.861157  0.821051  1
  B  B12  1  0.500000  0.555967  0.432367  1
  B  B13  1  0.500000  0.447168  0.569810  1
  B  B14  1  0.500000  0.052903  0.066104  1
  B  B15  1  0.500000  0.946416  0.932939  1
  B  B16  1  0.500000  0.750288  0.418287  1
  B  B17  1  0.500000  0.250727  0.585286  1
  B  B18  1  0.500000  0.248807  0.079928  1
  B  B19  1  0.500000  0.750538  0.918472  1
  B  B20  1  0.500000  0.792199  0.264866  1
  B  B21  1  0.500000  0.208122  0.736405  1
  B  B22  1  0.500000  0.290435  0.231920  1
  B  B23  1  0.500000  0.707836  0.765793  1
  B  B24  1  0.500000  0.632136  0.184204  1
  B  B25  1  0.500000  0.369889  0.815661  1
  B  B26  1  0.500000  0.129080  0.312132  1
  B  B27  1  0.500000  0.868804  0.686054  1
  B  B28  1  0.500000  0.981789  0.210745  1
  B  B29  1  0.500000  0.017097  0.788724  1
  B  B30  1  0.500000  0.485582  0.286068  1
  B  B31  1  0.500000  0.518402  0.713834  1
  B  B32  1  0.500000  0.601181  0.027331  1
  B  B33  1  0.500000  0.399857  0.971337  1
  B  B34  1  0.500000  0.096809  0.473073  1
  B  B35  1  0.500000  0.898895  0.528427  1
