# generated using pymatgen
data_Ho4B16IrRu2Rh
_symmetry_space_group_name_H-M   'P 1'
_cell_length_a   3.55806400
_cell_length_b   5.95376201
_cell_length_c   11.53956765
_cell_angle_alpha   90.10722853
_cell_angle_beta   90.00000000
_cell_angle_gamma   90.00000000
_symmetry_Int_Tables_number   1
_chemical_formula_structural   Ho4B16IrRu2Rh
_chemical_formula_sum   'Ho4 B16 Ir1 Ru2 Rh1'
_cell_volume   244.45223008
_cell_formula_units_Z   1
loop_
 _symmetry_equiv_pos_site_id
 _symmetry_equiv_pos_as_xyz
  1  'x, y, z'
loop_
 _atom_site_type_symbol
 _atom_site_label
 _atom_site_symmetry_multiplicity
 _atom_site_fract_x
 _atom_site_fract_y
 _atom_site_fract_z
 _atom_site_occupancy
  Ho  Ho0  1  0.000000  0.630187  0.647751  1
  Ho  Ho1  1  0.000000  0.370502  0.351871  1
  Ho  Ho2  1  0.000000  0.130913  0.849401  1
  Ho  Ho3  1  0.000000  0.868826  0.150867  1
  B  B4  1  0.500000  0.975560  0.691460  1
  B  B5  1  0.500000  0.024632  0.308266  1
  B  B6  1  0.500000  0.477886  0.805951  1
  B  B7  1  0.500000  0.521638  0.194053  1
  B  B8  1  0.500000  0.788996  0.811755  1
  B  B9  1  0.500000  0.211648  0.188671  1
  B  B10  1  0.500000  0.289753  0.685884  1
  B  B11  1  0.500000  0.710325  0.314069  1
  B  B12  1  0.500000  0.863028  0.971416  1
  B  B13  1  0.500000  0.137159  0.028656  1
  B  B14  1  0.500000  0.364283  0.530152  1
  B  B15  1  0.500000  0.636023  0.469397  1
  B  B16  1  0.500000  0.888070  0.546414  1
  B  B17  1  0.500000  0.112241  0.453440  1
  B  B18  1  0.500000  0.387536  0.951760  1
  B  B19  1  0.500000  0.611883  0.047516  1
  Ir  Ir20  1  0.000000  0.642948  0.904742  1
  Ru  Ru21  1  0.000000  0.141579  0.593054  1
  Ru  Ru22  1  0.000000  0.859377  0.407530  1
  Rh  Rh23  1  0.000000  0.355007  0.095921  1
