# generated using pymatgen
data_LiYb2Os3
_symmetry_space_group_name_H-M   'P 1'
_cell_length_a   5.17845500
_cell_length_b   5.17845511
_cell_length_c   9.12781500
_cell_angle_alpha   90.00000000
_cell_angle_beta   90.00000000
_cell_angle_gamma   119.99999290
_symmetry_Int_Tables_number   1
_chemical_formula_structural   LiYb2Os3
_chemical_formula_sum   'Li2 Yb4 Os6'
_cell_volume   211.98147747
_cell_formula_units_Z   2
loop_
 _symmetry_equiv_pos_site_id
 _symmetry_equiv_pos_as_xyz
  1  'x, y, z'
loop_
 _atom_site_type_symbol
 _atom_site_label
 _atom_site_symmetry_multiplicity
 _atom_site_fract_x
 _atom_site_fract_y
 _atom_site_fract_z
 _atom_site_occupancy
  Li  Li0  1  0.000000  0.000000  0.500000  1
  Li  Li1  1  0.000000  0.000000  0.000000  1
  Yb  Yb2  1  0.333333  0.666667  0.429845  1
  Yb  Yb3  1  0.666667  0.333333  0.570155  1
  Yb  Yb4  1  0.666667  0.333333  0.929845  1
  Yb  Yb5  1  0.333333  0.666667  0.070155  1
  Os  Os6  1  0.832523  0.167477  0.250000  1
  Os  Os7  1  0.832523  0.665046  0.250000  1
  Os  Os8  1  0.334954  0.167477  0.250000  1
  Os  Os9  1  0.167477  0.832523  0.750000  1
  Os  Os10  1  0.167477  0.334954  0.750000  1
  Os  Os11  1  0.665046  0.832523  0.750000  1
