# generated using pymatgen
data_YHoCu2(PdO4)2
_symmetry_space_group_name_H-M   'P 1'
_cell_length_a   6.37922902
_cell_length_b   6.37922892
_cell_length_c   6.40068055
_cell_angle_alpha   125.44973478
_cell_angle_beta   127.33014500
_cell_angle_gamma   79.02475459
_symmetry_Int_Tables_number   1
_chemical_formula_structural   YHoCu2(PdO4)2
_chemical_formula_sum   'Y1 Ho1 Cu2 Pd2 O8'
_cell_volume   163.40555041
_cell_formula_units_Z   1
loop_
 _symmetry_equiv_pos_site_id
 _symmetry_equiv_pos_as_xyz
  1  'x, y, z'
loop_
 _atom_site_type_symbol
 _atom_site_label
 _atom_site_symmetry_multiplicity
 _atom_site_fract_x
 _atom_site_fract_y
 _atom_site_fract_z
 _atom_site_occupancy
  Y  Y0  1  0.000446  0.000446  0.000000  1
  Ho  Ho1  1  0.749415  0.249415  0.500000  1
  Cu  Cu2  1  0.374562  0.624200  0.248629  1
  Cu  Cu3  1  0.375571  0.125933  0.751371  1
  Pd  Pd4  1  0.874625  0.626031  0.250595  1
  Pd  Pd5  1  0.375437  0.624030  0.749405  1
  O  O6  1  0.012359  0.968452  0.368463  1
  O  O7  1  0.693908  0.855713  0.453614  1
  O  O8  1  0.402100  0.240295  0.546386  1
  O  O9  1  0.599990  0.643896  0.631537  1
  O  O10  1  0.737422  0.284963  0.135752  1
  O  O11  1  0.053373  0.395268  0.043682  1
  O  O12  1  0.149210  0.601669  0.864248  1
  O  O13  1  0.351585  0.009690  0.956318  1
