# generated using pymatgen
data_Ce5Sn3Hg
_symmetry_space_group_name_H-M   'P 1'
_cell_length_a   6.60579400
_cell_length_b   9.59712470
_cell_length_c   9.59712500
_cell_angle_alpha   119.99999757
_cell_angle_beta   90.00000000
_cell_angle_gamma   90.00000000
_symmetry_Int_Tables_number   1
_chemical_formula_structural   Ce5Sn3Hg
_chemical_formula_sum   'Ce10 Sn6 Hg2'
_cell_volume   526.91184051
_cell_formula_units_Z   2
loop_
 _symmetry_equiv_pos_site_id
 _symmetry_equiv_pos_as_xyz
  1  'x, y, z'
loop_
 _atom_site_type_symbol
 _atom_site_label
 _atom_site_symmetry_multiplicity
 _atom_site_fract_x
 _atom_site_fract_y
 _atom_site_fract_z
 _atom_site_occupancy
  Ce  Ce0  1  0.750055  0.706123  0.706123  1
  Ce  Ce1  1  0.249945  0.293877  0.293877  1
  Ce  Ce2  1  0.750055  0.000000  0.293877  1
  Ce  Ce3  1  0.249945  0.000000  0.706123  1
  Ce  Ce4  1  0.750055  0.293877  0.000000  1
  Ce  Ce5  1  0.249945  0.706123  0.000000  1
  Ce  Ce6  1  0.000000  0.666667  0.333333  1
  Ce  Ce7  1  0.000000  0.333333  0.666667  1
  Ce  Ce8  1  0.500000  0.333333  0.666667  1
  Ce  Ce9  1  0.500000  0.666667  0.333333  1
  Sn  Sn10  1  0.750393  0.366737  0.366737  1
  Sn  Sn11  1  0.249607  0.633263  0.633263  1
  Sn  Sn12  1  0.750393  0.000000  0.633263  1
  Sn  Sn13  1  0.249607  0.000000  0.366737  1
  Sn  Sn14  1  0.750393  0.633263  0.000000  1
  Sn  Sn15  1  0.249607  0.366737  0.000000  1
  Hg  Hg16  1  0.500000  0.000000  0.000000  1
  Hg  Hg17  1  0.000000  0.000000  0.000000  1
