# generated using pymatgen
data_Y2MnOs3
_symmetry_space_group_name_H-M   'P 1'
_cell_length_a   5.35319400
_cell_length_b   5.35319400
_cell_length_c   8.68794000
_cell_angle_alpha   90.00000000
_cell_angle_beta   90.00000000
_cell_angle_gamma   119.99999998
_symmetry_Int_Tables_number   1
_chemical_formula_structural   Y2MnOs3
_chemical_formula_sum   'Y4 Mn2 Os6'
_cell_volume   215.61223932
_cell_formula_units_Z   2
loop_
 _symmetry_equiv_pos_site_id
 _symmetry_equiv_pos_as_xyz
  1  'x, y, z'
loop_
 _atom_site_type_symbol
 _atom_site_label
 _atom_site_symmetry_multiplicity
 _atom_site_fract_x
 _atom_site_fract_y
 _atom_site_fract_z
 _atom_site_occupancy
  Y  Y0  1  0.333333  0.666667  0.433261  1
  Y  Y1  1  0.666667  0.333333  0.566739  1
  Y  Y2  1  0.666667  0.333333  0.933261  1
  Y  Y3  1  0.333333  0.666667  0.066739  1
  Mn  Mn4  1  0.000000  0.000000  0.500000  1
  Mn  Mn5  1  0.000000  0.000000  0.000000  1
  Os  Os6  1  0.830760  0.169240  0.250000  1
  Os  Os7  1  0.830760  0.661520  0.250000  1
  Os  Os8  1  0.338480  0.169240  0.250000  1
  Os  Os9  1  0.169240  0.830760  0.750000  1
  Os  Os10  1  0.169240  0.338480  0.750000  1
  Os  Os11  1  0.661520  0.830760  0.750000  1
