# generated using pymatgen
data_Tb5TcP12(Ru7Pt2)2
_symmetry_space_group_name_H-M   'P 1'
_cell_length_a   3.98052000
_cell_length_b   12.50601280
_cell_length_c   12.81321170
_cell_angle_alpha   120.32718662
_cell_angle_beta   90.00000000
_cell_angle_gamma   90.00000000
_symmetry_Int_Tables_number   1
_chemical_formula_structural   Tb5TcP12(Ru7Pt2)2
_chemical_formula_sum   'Tb5 Tc1 P12 Ru14 Pt4'
_cell_volume   550.56170864
_cell_formula_units_Z   1
loop_
 _symmetry_equiv_pos_site_id
 _symmetry_equiv_pos_as_xyz
  1  'x, y, z'
loop_
 _atom_site_type_symbol
 _atom_site_label
 _atom_site_symmetry_multiplicity
 _atom_site_fract_x
 _atom_site_fract_y
 _atom_site_fract_z
 _atom_site_occupancy
  Tb  Tb0  1  0.500000  0.992792  0.177949  1
  Tb  Tb1  1  0.500000  0.180955  0.001677  1
  Tb  Tb2  1  0.500000  0.814996  0.816684  1
  Tb  Tb3  1  0.000000  0.329226  0.663365  1
  Tb  Tb4  1  0.000000  0.674966  0.339936  1
  Tc  Tc5  1  0.000000  0.011779  0.562328  1
  P  P6  1  0.000000  0.992968  0.819383  1
  P  P7  1  0.000000  0.810336  0.000178  1
  P  P8  1  0.000000  0.185593  0.179728  1
  P  P9  1  0.500000  0.314778  0.483917  1
  P  P10  1  0.500000  0.162907  0.675136  1
  P  P11  1  0.500000  0.515406  0.816040  1
  P  P12  1  0.500000  0.835202  0.524190  1
  P  P13  1  0.500000  0.485898  0.301444  1
  P  P14  1  0.500000  0.697766  0.178585  1
  P  P15  1  0.000000  0.990371  0.371694  1
  P  P16  1  0.000000  0.370305  0.012894  1
  P  P17  1  0.000000  0.639626  0.639728  1
  Ru  Ru18  1  0.500000  0.005891  0.721100  1
  Ru  Ru19  1  0.500000  0.706156  0.998337  1
  Ru  Ru20  1  0.500000  0.289763  0.291032  1
  Ru  Ru21  1  0.000000  0.618709  0.816012  1
  Ru  Ru22  1  0.000000  0.819671  0.624839  1
  Ru  Ru23  1  0.000000  0.383853  0.202841  1
  Ru  Ru24  1  0.000000  0.800430  0.181473  1
  Ru  Ru25  1  0.500000  0.129317  0.483130  1
  Ru  Ru26  1  0.500000  0.357472  0.859488  1
  Ru  Ru27  1  0.500000  0.515908  0.634729  1
  Ru  Ru28  1  0.500000  0.637311  0.503571  1
  Ru  Ru29  1  0.500000  0.487531  0.117981  1
  Ru  Ru30  1  0.500000  0.878174  0.367206  1
  Ru  Ru31  1  0.000000  0.997650  0.002509  1
  Pt  Pt32  1  0.000000  0.542634  0.991123  1
  Pt  Pt33  1  0.000000  0.452702  0.453831  1
  Pt  Pt34  1  0.000000  0.182903  0.365970  1
  Pt  Pt35  1  0.000000  0.187957  0.819969  1
