# generated using pymatgen
data_Tb6Co15Ni(P6Ru)2
_symmetry_space_group_name_H-M   'P 1'
_cell_length_a   3.72094200
_cell_length_b   10.51239800
_cell_length_c   12.26110400
_cell_angle_alpha   90.00000000
_cell_angle_beta   90.00000000
_cell_angle_gamma   90.00000000
_symmetry_Int_Tables_number   1
_chemical_formula_structural   Tb6Co15Ni(P6Ru)2
_chemical_formula_sum   'Tb6 Co15 Ni1 P12 Ru2'
_cell_volume   479.60562900
_cell_formula_units_Z   1
loop_
 _symmetry_equiv_pos_site_id
 _symmetry_equiv_pos_as_xyz
  1  'x, y, z'
loop_
 _atom_site_type_symbol
 _atom_site_label
 _atom_site_symmetry_multiplicity
 _atom_site_fract_x
 _atom_site_fract_y
 _atom_site_fract_z
 _atom_site_occupancy
  Tb  Tb0  1  0.000000  0.500000  0.523346  1
  Tb  Tb1  1  0.500000  0.000000  0.475593  1
  Tb  Tb2  1  0.500000  0.816826  0.207148  1
  Tb  Tb3  1  0.500000  0.183174  0.207148  1
  Tb  Tb4  1  0.000000  0.684372  0.793615  1
  Tb  Tb5  1  0.000000  0.315628  0.793615  1
  Co  Co6  1  0.000000  0.000000  0.295860  1
  Co  Co7  1  0.000000  0.500000  0.986697  1
  Co  Co8  1  0.500000  0.000000  0.014147  1
  Co  Co9  1  0.500000  0.332208  0.990601  1
  Co  Co10  1  0.500000  0.667792  0.990601  1
  Co  Co11  1  0.000000  0.167378  0.009240  1
  Co  Co12  1  0.000000  0.832622  0.009240  1
  Co  Co13  1  0.500000  0.298220  0.430696  1
  Co  Co14  1  0.500000  0.701780  0.430696  1
  Co  Co15  1  0.000000  0.201602  0.569006  1
  Co  Co16  1  0.000000  0.798398  0.569006  1
  Co  Co17  1  0.500000  0.879394  0.708318  1
  Co  Co18  1  0.500000  0.120606  0.708318  1
  Co  Co19  1  0.000000  0.620251  0.291682  1
  Co  Co20  1  0.000000  0.379749  0.291682  1
  Ni  Ni21  1  0.500000  0.500000  0.703862  1
  P  P22  1  0.500000  0.500000  0.883369  1
  P  P23  1  0.000000  0.000000  0.118044  1
  P  P24  1  0.500000  0.500000  0.349368  1
  P  P25  1  0.000000  0.000000  0.650242  1
  P  P26  1  0.500000  0.310029  0.615169  1
  P  P27  1  0.500000  0.689971  0.615169  1
  P  P28  1  0.000000  0.189260  0.384078  1
  P  P29  1  0.000000  0.810740  0.384078  1
  P  P30  1  0.500000  0.847219  0.893912  1
  P  P31  1  0.500000  0.152781  0.893912  1
  P  P32  1  0.000000  0.653599  0.106376  1
  P  P33  1  0.000000  0.346401  0.106376  1
  Ru  Ru34  1  0.500000  0.500000  0.158854  1
  Ru  Ru35  1  0.000000  0.000000  0.840934  1
