# generated using pymatgen
data_Tm4GaAs5Rh7
_symmetry_space_group_name_H-M   'P 1'
_cell_length_a   7.23520325
_cell_length_b   7.23520360
_cell_length_c   7.23520196
_cell_angle_alpha   109.53236745
_cell_angle_beta   109.34900008
_cell_angle_gamma   109.53236747
_symmetry_Int_Tables_number   1
_chemical_formula_structural   Tm4GaAs5Rh7
_chemical_formula_sum   'Tm4 Ga1 As5 Rh7'
_cell_volume   291.56054719
_cell_formula_units_Z   1
loop_
 _symmetry_equiv_pos_site_id
 _symmetry_equiv_pos_as_xyz
  1  'x, y, z'
loop_
 _atom_site_type_symbol
 _atom_site_label
 _atom_site_symmetry_multiplicity
 _atom_site_fract_x
 _atom_site_fract_y
 _atom_site_fract_z
 _atom_site_occupancy
  Tm  Tm0  1  0.494364  0.494531  0.494364  1
  Tm  Tm1  1  0.999831  0.505469  0.999831  1
  Tm  Tm2  1  0.494364  0.000000  0.999831  1
  Tm  Tm3  1  0.999831  0.000000  0.494364  1
  Ga  Ga4  1  0.688633  0.000000  0.688633  1
  As  As5  1  0.680195  0.684320  0.995873  1
  As  As6  1  0.311553  0.315680  0.995873  1
  As  As7  1  0.995873  0.684320  0.680195  1
  As  As8  1  0.995873  0.315680  0.311553  1
  As  As9  1  0.329819  0.000000  0.329819  1
  Rh  Rh10  1  0.502024  0.748093  0.250117  1
  Rh  Rh11  1  0.753932  0.251907  0.502024  1
  Rh  Rh12  1  0.250117  0.748093  0.502024  1
  Rh  Rh13  1  0.247840  0.500000  0.747840  1
  Rh  Rh14  1  0.005885  0.000000  0.005885  1
  Rh  Rh15  1  0.502024  0.251907  0.753932  1
  Rh  Rh16  1  0.747840  0.500000  0.247840  1
