# generated using pymatgen
data_Li3Ho4AlPt4
_symmetry_space_group_name_H-M   'P 1'
_cell_length_a   4.02920700
_cell_length_b   6.99533412
_cell_length_c   8.38402701
_cell_angle_alpha   90.79713047
_cell_angle_beta   90.00000000
_cell_angle_gamma   90.00000000
_symmetry_Int_Tables_number   1
_chemical_formula_structural   Li3Ho4AlPt4
_chemical_formula_sum   'Li3 Ho4 Al1 Pt4'
_cell_volume   236.28637458
_cell_formula_units_Z   1
loop_
 _symmetry_equiv_pos_site_id
 _symmetry_equiv_pos_as_xyz
  1  'x, y, z'
loop_
 _atom_site_type_symbol
 _atom_site_label
 _atom_site_symmetry_multiplicity
 _atom_site_fract_x
 _atom_site_fract_y
 _atom_site_fract_z
 _atom_site_occupancy
  Li  Li0  1  0.250000  0.130352  0.061192  1
  Li  Li1  1  0.250000  0.629506  0.438328  1
  Li  Li2  1  0.750000  0.874068  0.942311  1
  Ho  Ho3  1  0.250000  0.042562  0.682840  1
  Ho  Ho4  1  0.250000  0.545099  0.818307  1
  Ho  Ho5  1  0.750000  0.954726  0.320407  1
  Ho  Ho6  1  0.750000  0.454662  0.179675  1
  Al  Al7  1  0.750000  0.372250  0.557999  1
  Pt  Pt8  1  0.250000  0.254280  0.389704  1
  Pt  Pt9  1  0.250000  0.743933  0.125490  1
  Pt  Pt10  1  0.750000  0.742123  0.619226  1
  Pt  Pt11  1  0.750000  0.256438  0.864522  1
