# generated using pymatgen
data_Er8TiPt24
_symmetry_space_group_name_H-M   'P 1'
_cell_length_a   8.33363800
_cell_length_b   8.33363800
_cell_length_c   8.33363800
_cell_angle_alpha   90.00000000
_cell_angle_beta   90.00000000
_cell_angle_gamma   90.00000000
_symmetry_Int_Tables_number   1
_chemical_formula_structural   Er8TiPt24
_chemical_formula_sum   'Er8 Ti1 Pt24'
_cell_volume   578.76717825
_cell_formula_units_Z   1
loop_
 _symmetry_equiv_pos_site_id
 _symmetry_equiv_pos_as_xyz
  1  'x, y, z'
loop_
 _atom_site_type_symbol
 _atom_site_label
 _atom_site_symmetry_multiplicity
 _atom_site_fract_x
 _atom_site_fract_y
 _atom_site_fract_z
 _atom_site_occupancy
  Er  Er0  1  0.251486  0.251486  0.748514  1
  Er  Er1  1  0.251486  0.748514  0.251486  1
  Er  Er2  1  0.748514  0.251486  0.251486  1
  Er  Er3  1  0.748514  0.748514  0.748514  1
  Er  Er4  1  0.748514  0.748514  0.251486  1
  Er  Er5  1  0.748514  0.251486  0.748514  1
  Er  Er6  1  0.251486  0.748514  0.748514  1
  Er  Er7  1  0.251486  0.251486  0.251486  1
  Ti  Ti8  1  0.000000  0.000000  0.000000  1
  Pt  Pt9  1  0.500000  0.500000  0.745901  1
  Pt  Pt10  1  0.500000  0.254099  0.500000  1
  Pt  Pt11  1  0.254099  0.500000  0.500000  1
  Pt  Pt12  1  0.500000  0.500000  0.254099  1
  Pt  Pt13  1  0.500000  0.745901  0.500000  1
  Pt  Pt14  1  0.745901  0.500000  0.500000  1
  Pt  Pt15  1  0.000000  0.000000  0.700888  1
  Pt  Pt16  1  0.000000  0.299112  0.000000  1
  Pt  Pt17  1  0.299112  0.000000  0.000000  1
  Pt  Pt18  1  0.000000  0.000000  0.299112  1
  Pt  Pt19  1  0.000000  0.700888  0.000000  1
  Pt  Pt20  1  0.700888  0.000000  0.000000  1
  Pt  Pt21  1  0.000000  0.500000  0.736929  1
  Pt  Pt22  1  0.500000  0.263071  0.000000  1
  Pt  Pt23  1  0.263071  0.000000  0.500000  1
  Pt  Pt24  1  0.000000  0.263071  0.500000  1
  Pt  Pt25  1  0.500000  0.000000  0.736929  1
  Pt  Pt26  1  0.263071  0.500000  0.000000  1
  Pt  Pt27  1  0.000000  0.500000  0.263071  1
  Pt  Pt28  1  0.500000  0.736929  0.000000  1
  Pt  Pt29  1  0.000000  0.736929  0.500000  1
  Pt  Pt30  1  0.500000  0.000000  0.263071  1
  Pt  Pt31  1  0.736929  0.000000  0.500000  1
  Pt  Pt32  1  0.736929  0.500000  0.000000  1
