# generated using pymatgen
data_Nd3Al4Cl
_symmetry_space_group_name_H-M   'P 1'
_cell_length_a   8.09084863
_cell_length_b   8.09084886
_cell_length_c   8.09085009
_cell_angle_alpha   91.51593743
_cell_angle_beta   119.12867112
_cell_angle_gamma   119.12866269
_symmetry_Int_Tables_number   1
_chemical_formula_structural   Nd3Al4Cl
_chemical_formula_sum   'Nd6 Al8 Cl2'
_cell_volume   379.30210399
_cell_formula_units_Z   2
loop_
 _symmetry_equiv_pos_site_id
 _symmetry_equiv_pos_as_xyz
  1  'x, y, z'
loop_
 _atom_site_type_symbol
 _atom_site_label
 _atom_site_symmetry_multiplicity
 _atom_site_fract_x
 _atom_site_fract_y
 _atom_site_fract_z
 _atom_site_occupancy
  Nd  Nd0  1  0.819003  0.659501  0.159502  1
  Nd  Nd1  1  0.000000  0.250000  0.250000  1
  Nd  Nd2  1  0.500001  0.159502  0.340499  1
  Nd  Nd3  1  0.500001  0.840499  0.659502  1
  Nd  Nd4  1  0.000000  0.750000  0.750000  1
  Nd  Nd5  1  0.180997  0.340498  0.840499  1
  Al  Al6  1  0.499999  0.841218  0.053952  1
  Al  Al7  1  0.212734  0.658782  0.158782  1
  Al  Al8  1  0.500001  0.553952  0.341218  1
  Al  Al9  1  0.787266  0.946048  0.446048  1
  Al  Al10  1  0.212734  0.053952  0.553952  1
  Al  Al11  1  0.500001  0.446048  0.658782  1
  Al  Al12  1  0.787266  0.341218  0.841218  1
  Al  Al13  1  0.499999  0.158782  0.946048  1
  Cl  Cl14  1  0.000000  0.000000  0.000000  1
  Cl  Cl15  1  0.000000  0.500000  0.500000  1
