# generated using pymatgen
data_U3Pa3(TiSb5)2
_symmetry_space_group_name_H-M   'P 1'
_cell_length_a   9.18751300
_cell_length_b   9.19026628
_cell_length_c   6.11859600
_cell_angle_alpha   90.00000000
_cell_angle_beta   90.00000000
_cell_angle_gamma   119.99008665
_symmetry_Int_Tables_number   1
_chemical_formula_structural   U3Pa3(TiSb5)2
_chemical_formula_sum   'U3 Pa3 Ti2 Sb10'
_cell_volume   447.45755597
_cell_formula_units_Z   1
loop_
 _symmetry_equiv_pos_site_id
 _symmetry_equiv_pos_as_xyz
  1  'x, y, z'
loop_
 _atom_site_type_symbol
 _atom_site_label
 _atom_site_symmetry_multiplicity
 _atom_site_fract_x
 _atom_site_fract_y
 _atom_site_fract_z
 _atom_site_occupancy
  U  U0  1  0.999973  0.386177  0.750000  1
  U  U1  1  0.613796  0.613823  0.750000  1
  U  U2  1  0.615016  0.000000  0.250000  1
  Pa  Pa3  1  0.389173  0.000000  0.750000  1
  Pa  Pa4  1  0.387330  0.387630  0.250000  1
  Pa  Pa5  1  0.999701  0.612370  0.250000  1
  Ti  Ti6  1  0.997671  0.000000  0.998779  1
  Ti  Ti7  1  0.997671  0.000000  0.501221  1
  Sb  Sb8  1  0.667264  0.333114  0.500017  1
  Sb  Sb9  1  0.334149  0.666886  0.999983  1
  Sb  Sb10  1  0.736991  0.000000  0.750000  1
  Sb  Sb11  1  0.737108  0.737571  0.250000  1
  Sb  Sb12  1  0.334149  0.666886  0.500017  1
  Sb  Sb13  1  0.667264  0.333114  0.999983  1
  Sb  Sb14  1  0.261373  0.000000  0.250000  1
  Sb  Sb15  1  0.262193  0.262552  0.750000  1
  Sb  Sb16  1  0.999641  0.737448  0.750000  1
  Sb  Sb17  1  0.999537  0.262429  0.250000  1
