# generated using pymatgen
data_Er3PaZn2Ir3
_symmetry_space_group_name_H-M   'P 1'
_cell_length_a   7.44618818
_cell_length_b   7.33626520
_cell_length_c   3.88040500
_cell_angle_alpha   90.00000000
_cell_angle_beta   90.00000000
_cell_angle_gamma   119.51285013
_symmetry_Int_Tables_number   1
_chemical_formula_structural   Er3PaZn2Ir3
_chemical_formula_sum   'Er3 Pa1 Zn2 Ir3'
_cell_volume   184.47084585
_cell_formula_units_Z   1
loop_
 _symmetry_equiv_pos_site_id
 _symmetry_equiv_pos_as_xyz
  1  'x, y, z'
loop_
 _atom_site_type_symbol
 _atom_site_label
 _atom_site_symmetry_multiplicity
 _atom_site_fract_x
 _atom_site_fract_y
 _atom_site_fract_z
 _atom_site_occupancy
  Er  Er0  1  0.553662  0.587618  0.000000  1
  Er  Er1  1  0.446338  0.033956  0.000000  1
  Er  Er2  1  0.000000  0.368582  0.000000  1
  Pa  Pa3  1  0.000000  0.741604  0.500000  1
  Zn  Zn4  1  0.261692  0.254896  0.500000  1
  Zn  Zn5  1  0.738308  0.993205  0.500000  1
  Ir  Ir6  1  0.000000  0.992967  0.000000  1
  Ir  Ir7  1  0.682380  0.354774  0.500000  1
  Ir  Ir8  1  0.317620  0.672396  0.500000  1
