# generated using pymatgen
data_La10CoSn4Ru
_symmetry_space_group_name_H-M   'P 1'
_cell_length_a   8.41704500
_cell_length_b   9.18356100
_cell_length_c   12.83139200
_cell_angle_alpha   90.00000000
_cell_angle_beta   90.00000000
_cell_angle_gamma   90.00000000
_symmetry_Int_Tables_number   1
_chemical_formula_structural   La10CoSn4Ru
_chemical_formula_sum   'La20 Co2 Sn8 Ru2'
_cell_volume   991.84666415
_cell_formula_units_Z   2
loop_
 _symmetry_equiv_pos_site_id
 _symmetry_equiv_pos_as_xyz
  1  'x, y, z'
loop_
 _atom_site_type_symbol
 _atom_site_label
 _atom_site_symmetry_multiplicity
 _atom_site_fract_x
 _atom_site_fract_y
 _atom_site_fract_z
 _atom_site_occupancy
  La  La0  1  0.319535  0.527602  0.433428  1
  La  La1  1  0.872554  0.250000  0.803287  1
  La  La2  1  0.180465  0.527602  0.933428  1
  La  La3  1  0.319535  0.972398  0.433428  1
  La  La4  1  0.123905  0.750000  0.195810  1
  La  La5  1  0.843957  0.750000  0.793458  1
  La  La6  1  0.376095  0.750000  0.695810  1
  La  La7  1  0.951112  0.750000  0.501884  1
  La  La8  1  0.443384  0.250000  0.997967  1
  La  La9  1  0.678180  0.465707  0.567349  1
  La  La10  1  0.821820  0.034293  0.067349  1
  La  La11  1  0.656043  0.750000  0.293458  1
  La  La12  1  0.548888  0.750000  0.001884  1
  La  La13  1  0.056616  0.250000  0.497967  1
  La  La14  1  0.678180  0.034293  0.567349  1
  La  La15  1  0.180465  0.972398  0.933428  1
  La  La16  1  0.627446  0.250000  0.303287  1
  La  La17  1  0.344852  0.250000  0.702491  1
  La  La18  1  0.821820  0.465707  0.067349  1
  La  La19  1  0.155148  0.250000  0.202491  1
  Co  Co20  1  0.082732  0.250000  0.985218  1
  Co  Co21  1  0.417268  0.250000  0.485218  1
  Sn  Sn22  1  0.930266  0.492202  0.328426  1
  Sn  Sn23  1  0.430875  0.506163  0.172485  1
  Sn  Sn24  1  0.430875  0.993837  0.172485  1
  Sn  Sn25  1  0.569734  0.492202  0.828426  1
  Sn  Sn26  1  0.069125  0.506163  0.672485  1
  Sn  Sn27  1  0.569734  0.007798  0.828426  1
  Sn  Sn28  1  0.930266  0.007798  0.328426  1
  Sn  Sn29  1  0.069125  0.993837  0.672485  1
  Ru  Ru30  1  0.916659  0.750000  0.016513  1
  Ru  Ru31  1  0.583341  0.750000  0.516513  1
