# generated using pymatgen
data_Li4Nd2SmSn4
_symmetry_space_group_name_H-M   'P 1'
_cell_length_a   8.83187752
_cell_length_b   8.83187668
_cell_length_c   8.83187669
_cell_angle_alpha   148.94989188
_cell_angle_beta   132.47744828
_cell_angle_gamma   57.85819973
_symmetry_Int_Tables_number   1
_chemical_formula_structural   Li4Nd2SmSn4
_chemical_formula_sum   'Li4 Nd2 Sm1 Sn4'
_cell_volume   260.10274523
_cell_formula_units_Z   1
loop_
 _symmetry_equiv_pos_site_id
 _symmetry_equiv_pos_as_xyz
  1  'x, y, z'
loop_
 _atom_site_type_symbol
 _atom_site_label
 _atom_site_symmetry_multiplicity
 _atom_site_fract_x
 _atom_site_fract_y
 _atom_site_fract_z
 _atom_site_occupancy
  Li  Li0  1  0.480933  0.671828  0.809106  1
  Li  Li1  1  0.862722  0.671828  0.190894  1
  Li  Li2  1  0.137278  0.328172  0.809106  1
  Li  Li3  1  0.519067  0.328172  0.190894  1
  Nd  Nd4  1  0.869705  0.869705  0.000000  1
  Nd  Nd5  1  0.130295  0.130295  0.000000  1
  Sm  Sm6  1  0.500000  0.000000  0.500000  1
  Sn  Sn7  1  0.287914  0.787914  0.500000  1
  Sn  Sn8  1  0.712086  0.212086  0.500000  1
  Sn  Sn9  1  0.798970  0.500000  0.298970  1
  Sn  Sn10  1  0.201030  0.500000  0.701030  1
