# generated using pymatgen
data_Tb7Th(Sc3Sn4)4
_symmetry_space_group_name_H-M   'P 1'
_cell_length_a   7.77255531
_cell_length_b   7.93051894
_cell_length_c   14.92130686
_cell_angle_alpha   90.01224235
_cell_angle_beta   89.96268798
_cell_angle_gamma   89.94525493
_symmetry_Int_Tables_number   1
_chemical_formula_structural   Tb7Th(Sc3Sn4)4
_chemical_formula_sum   'Tb7 Th1 Sc12 Sn16'
_cell_volume   919.75464503
_cell_formula_units_Z   1
loop_
 _symmetry_equiv_pos_site_id
 _symmetry_equiv_pos_as_xyz
  1  'x, y, z'
loop_
 _atom_site_type_symbol
 _atom_site_label
 _atom_site_symmetry_multiplicity
 _atom_site_fract_x
 _atom_site_fract_y
 _atom_site_fract_z
 _atom_site_occupancy
  Tb  Tb0  1  0.515192  0.324612  0.905439  1
  Tb  Tb1  1  0.015137  0.175947  0.595298  1
  Tb  Tb2  1  0.485816  0.675628  0.405020  1
  Tb  Tb3  1  0.985936  0.824682  0.095241  1
  Tb  Tb4  1  0.485718  0.675759  0.095368  1
  Tb  Tb5  1  0.985494  0.824031  0.404948  1
  Tb  Tb6  1  0.514155  0.325107  0.593937  1
  Th  Th7  1  0.012936  0.174847  0.905761  1
  Sc  Sc8  1  0.351800  0.838824  0.873943  1
  Sc  Sc9  1  0.852529  0.661258  0.625540  1
  Sc  Sc10  1  0.647563  0.161063  0.373988  1
  Sc  Sc11  1  0.147582  0.339292  0.126013  1
  Sc  Sc12  1  0.648053  0.161026  0.126133  1
  Sc  Sc13  1  0.147572  0.339076  0.374048  1
  Sc  Sc14  1  0.352490  0.838952  0.625773  1
  Sc  Sc15  1  0.852548  0.660640  0.874091  1
  Sc  Sc16  1  0.183841  0.502706  0.749802  1
  Sc  Sc17  1  0.683713  0.995871  0.749622  1
  Sc  Sc18  1  0.816027  0.496667  0.250422  1
  Sc  Sc19  1  0.316529  0.003021  0.249956  1
  Sn  Sn20  1  0.312907  0.043233  0.043741  1
  Sn  Sn21  1  0.810821  0.456031  0.457119  1
  Sn  Sn22  1  0.689442  0.956825  0.542813  1
  Sn  Sn23  1  0.190713  0.545019  0.957185  1
  Sn  Sn24  1  0.686081  0.953591  0.957808  1
  Sn  Sn25  1  0.188948  0.543908  0.543003  1
  Sn  Sn26  1  0.311001  0.043707  0.457219  1
  Sn  Sn27  1  0.810020  0.457057  0.043241  1
  Sn  Sn28  1  0.546399  0.629461  0.749998  1
  Sn  Sn29  1  0.046866  0.869430  0.749957  1
  Sn  Sn30  1  0.453214  0.370978  0.250172  1
  Sn  Sn31  1  0.952888  0.129052  0.250293  1
  Sn  Sn32  1  0.324847  0.146716  0.749182  1
  Sn  Sn33  1  0.819723  0.356027  0.747989  1
  Sn  Sn34  1  0.677808  0.853635  0.250014  1
  Sn  Sn35  1  0.177692  0.646319  0.249924  1
