# generated using pymatgen
data_Dy3HoAl17SiIr6
_symmetry_space_group_name_H-M   'P 1'
_cell_length_a   7.54268104
_cell_length_b   7.54338679
_cell_length_c   9.40371600
_cell_angle_alpha   90.00000000
_cell_angle_beta   90.00000000
_cell_angle_gamma   119.68637191
_symmetry_Int_Tables_number   1
_chemical_formula_structural   Dy3HoAl17SiIr6
_chemical_formula_sum   'Dy3 Ho1 Al17 Si1 Ir6'
_cell_volume   464.82139616
_cell_formula_units_Z   1
loop_
 _symmetry_equiv_pos_site_id
 _symmetry_equiv_pos_as_xyz
  1  'x, y, z'
loop_
 _atom_site_type_symbol
 _atom_site_label
 _atom_site_symmetry_multiplicity
 _atom_site_fract_x
 _atom_site_fract_y
 _atom_site_fract_z
 _atom_site_occupancy
  Dy  Dy0  1  0.994453  0.675734  0.250000  1
  Dy  Dy1  1  0.003972  0.330532  0.750000  1
  Dy  Dy2  1  0.675761  0.994431  0.250000  1
  Ho  Ho3  1  0.330581  0.003939  0.750000  1
  Al  Al4  1  0.874913  0.874766  0.750000  1
  Al  Al5  1  0.000830  0.336962  0.077084  1
  Al  Al6  1  0.998877  0.665875  0.925045  1
  Al  Al7  1  0.998877  0.665875  0.574955  1
  Al  Al8  1  0.336950  0.000809  0.423084  1
  Al  Al9  1  0.000830  0.336962  0.422916  1
  Al  Al10  1  0.665553  0.998739  0.574970  1
  Al  Al11  1  0.665553  0.998739  0.925030  1
  Al  Al12  1  0.336950  0.000809  0.076916  1
  Al  Al13  1  0.332394  0.332260  0.556964  1
  Al  Al14  1  0.663408  0.663396  0.447938  1
  Al  Al15  1  0.663408  0.663396  0.052062  1
  Al  Al16  1  0.332394  0.332260  0.943036  1
  Al  Al17  1  0.336418  0.549207  0.250000  1
  Al  Al18  1  0.661003  0.451959  0.750000  1
  Al  Al19  1  0.549183  0.336401  0.250000  1
  Al  Al20  1  0.452093  0.661225  0.750000  1
  Si  Si21  1  0.130967  0.130914  0.250000  1
  Ir  Ir22  1  0.670196  0.326651  0.000129  1
  Ir  Ir23  1  0.326697  0.670320  0.000128  1
  Ir  Ir24  1  0.326697  0.670320  0.499872  1
  Ir  Ir25  1  0.670196  0.326651  0.499871  1
  Ir  Ir26  1  0.000423  0.000432  0.007128  1
  Ir  Ir27  1  0.000423  0.000432  0.492872  1
