# generated using pymatgen
data_Pr7Nd5Al2I17
_symmetry_space_group_name_H-M   'P 1'
_cell_length_a   10.06248831
_cell_length_b   12.00707594
_cell_length_c   11.84205129
_cell_angle_alpha   94.16919882
_cell_angle_beta   104.56303676
_cell_angle_gamma   115.14235258
_symmetry_Int_Tables_number   1
_chemical_formula_structural   Pr7Nd5Al2I17
_chemical_formula_sum   'Pr7 Nd5 Al2 I17'
_cell_volume   1226.99844854
_cell_formula_units_Z   1
loop_
 _symmetry_equiv_pos_site_id
 _symmetry_equiv_pos_as_xyz
  1  'x, y, z'
loop_
 _atom_site_type_symbol
 _atom_site_label
 _atom_site_symmetry_multiplicity
 _atom_site_fract_x
 _atom_site_fract_y
 _atom_site_fract_z
 _atom_site_occupancy
  Pr  Pr0  1  0.280094  0.002605  0.909071  1
  Pr  Pr1  1  0.373121  0.761145  0.715681  1
  Pr  Pr2  1  0.933527  0.470706  0.666737  1
  Pr  Pr3  1  0.720018  0.997725  0.091298  1
  Pr  Pr4  1  0.162816  0.290205  0.144262  1
  Pr  Pr5  1  0.774826  0.337527  0.993100  1
  Pr  Pr6  1  0.836870  0.709701  0.856429  1
  Nd  Nd7  1  0.065792  0.528391  0.333043  1
  Nd  Nd8  1  0.988726  0.812446  0.572713  1
  Nd  Nd9  1  0.627801  0.238689  0.284301  1
  Nd  Nd10  1  0.011312  0.187279  0.427398  1
  Nd  Nd11  1  0.225214  0.663304  0.006463  1
  Al  Al12  1  0.106409  0.736639  0.787782  1
  Al  Al13  1  0.893552  0.263759  0.213180  1
  I  I14  1  0.778061  0.528647  0.415323  1
  I  I15  1  0.628289  0.415698  0.742234  1
  I  I16  1  0.841543  0.894121  0.321076  1
  I  I17  1  0.321870  0.211180  0.371002  1
  I  I18  1  0.158456  0.105784  0.678962  1
  I  I19  1  0.587875  0.056030  0.831882  1
  I  I20  1  0.739951  0.166656  0.533742  1
  I  I21  1  0.536046  0.687916  0.954681  1
  I  I22  1  0.369195  0.584904  0.257000  1
  I  I23  1  0.222056  0.470856  0.582407  1
  I  I24  1  0.059399  0.364902  0.891037  1
  I  I25  1  0.463431  0.311585  0.047600  1
  I  I26  1  0.999896  0.000041  0.000002  1
  I  I27  1  0.257660  0.831638  0.464021  1
  I  I28  1  0.412293  0.944185  0.168240  1
  I  I29  1  0.679484  0.788896  0.628716  1
  I  I30  1  0.944419  0.636841  0.110617  1
