# generated using pymatgen
data_Hf4Ti6GaGe7
_symmetry_space_group_name_H-M   'P 1'
_cell_length_a   6.79563400
_cell_length_b   6.89198677
_cell_length_c   13.08237136
_cell_angle_alpha   90.08216211
_cell_angle_beta   90.00000000
_cell_angle_gamma   90.00000000
_symmetry_Int_Tables_number   1
_chemical_formula_structural   Hf4Ti6GaGe7
_chemical_formula_sum   'Hf8 Ti12 Ga2 Ge14'
_cell_volume   612.71772258
_cell_formula_units_Z   2
loop_
 _symmetry_equiv_pos_site_id
 _symmetry_equiv_pos_as_xyz
  1  'x, y, z'
loop_
 _atom_site_type_symbol
 _atom_site_label
 _atom_site_symmetry_multiplicity
 _atom_site_fract_x
 _atom_site_fract_y
 _atom_site_fract_z
 _atom_site_occupancy
  Hf  Hf0  1  0.489234  0.673935  0.594682  1
  Hf  Hf1  1  0.989234  0.826065  0.905318  1
  Hf  Hf2  1  0.509023  0.323541  0.093450  1
  Hf  Hf3  1  0.009023  0.176459  0.406550  1
  Hf  Hf4  1  0.509445  0.326512  0.405992  1
  Hf  Hf5  1  0.009445  0.173488  0.094008  1
  Hf  Hf6  1  0.492526  0.676053  0.905545  1
  Hf  Hf7  1  0.992526  0.823947  0.594455  1
  Ti  Ti8  1  0.656579  0.167971  0.627144  1
  Ti  Ti9  1  0.156579  0.332029  0.872856  1
  Ti  Ti10  1  0.344709  0.833738  0.126671  1
  Ti  Ti11  1  0.844709  0.666262  0.373329  1
  Ti  Ti12  1  0.342454  0.832960  0.373147  1
  Ti  Ti13  1  0.842454  0.667040  0.126853  1
  Ti  Ti14  1  0.656224  0.167170  0.873641  1
  Ti  Ti15  1  0.156224  0.332830  0.626359  1
  Ti  Ti16  1  0.830320  0.495120  0.749495  1
  Ti  Ti17  1  0.330320  0.004880  0.750505  1
  Ti  Ti18  1  0.168956  0.504179  0.251581  1
  Ti  Ti19  1  0.668956  0.995821  0.248419  1
  Ga  Ga20  1  0.681574  0.959848  0.458413  1
  Ga  Ga21  1  0.181574  0.540152  0.041587  1
  Ge  Ge22  1  0.315616  0.040017  0.959273  1
  Ge  Ge23  1  0.815616  0.459983  0.540727  1
  Ge  Ge24  1  0.320580  0.039725  0.540647  1
  Ge  Ge25  1  0.820580  0.460275  0.959353  1
  Ge  Ge26  1  0.683690  0.959736  0.040877  1
  Ge  Ge27  1  0.183690  0.540264  0.459123  1
  Ge  Ge28  1  0.459513  0.380131  0.750190  1
  Ge  Ge29  1  0.959513  0.119869  0.749810  1
  Ge  Ge30  1  0.539963  0.620095  0.250072  1
  Ge  Ge31  1  0.039963  0.879905  0.249928  1
  Ge  Ge32  1  0.689071  0.854114  0.749412  1
  Ge  Ge33  1  0.189071  0.645886  0.750588  1
  Ge  Ge34  1  0.310523  0.146367  0.250266  1
  Ge  Ge35  1  0.810523  0.353633  0.249734  1
