# generated using pymatgen
data_SmDy3(WN3)4
_symmetry_space_group_name_H-M   'P 1'
_cell_length_a   7.37066345
_cell_length_b   7.37066412
_cell_length_c   6.31028841
_cell_angle_alpha   73.82083079
_cell_angle_beta   73.82082717
_cell_angle_gamma   82.02642553
_symmetry_Int_Tables_number   1
_chemical_formula_structural   SmDy3(WN3)4
_chemical_formula_sum   'Sm1 Dy3 W4 N12'
_cell_volume   315.50630397
_cell_formula_units_Z   1
loop_
 _symmetry_equiv_pos_site_id
 _symmetry_equiv_pos_as_xyz
  1  'x, y, z'
loop_
 _atom_site_type_symbol
 _atom_site_label
 _atom_site_symmetry_multiplicity
 _atom_site_fract_x
 _atom_site_fract_y
 _atom_site_fract_z
 _atom_site_occupancy
  Sm  Sm0  1  0.707998  0.292002  0.750000  1
  Dy  Dy1  1  0.091334  0.908666  0.750000  1
  Dy  Dy2  1  0.289371  0.710629  0.250000  1
  Dy  Dy3  1  0.911101  0.088899  0.250000  1
  W  W4  1  0.378768  0.200833  0.231368  1
  W  W5  1  0.619744  0.798844  0.770937  1
  W  W6  1  0.799167  0.621232  0.268632  1
  W  W7  1  0.201156  0.380256  0.729063  1
  N  N8  1  0.623003  0.112374  0.165122  1
  N  N9  1  0.346959  0.365314  0.434363  1
  N  N10  1  0.004836  0.215892  0.847998  1
  N  N11  1  0.375752  0.888342  0.840536  1
  N  N12  1  0.784108  0.995164  0.652002  1
  N  N13  1  0.111658  0.624248  0.659464  1
  N  N14  1  0.887626  0.376997  0.334878  1
  N  N15  1  0.653134  0.638943  0.562281  1
  N  N16  1  0.634686  0.653041  0.065637  1
  N  N17  1  0.361057  0.346866  0.937719  1
  N  N18  1  0.999816  0.781277  0.152511  1
  N  N19  1  0.218723  0.000184  0.347489  1
