# generated using pymatgen
data_PrHo3ErBi3
_symmetry_space_group_name_H-M   'P 1'
_cell_length_a   8.34834200
_cell_length_b   9.52315800
_cell_length_c   12.18842400
_cell_angle_alpha   90.00000000
_cell_angle_beta   90.00000000
_cell_angle_gamma   90.00000000
_symmetry_Int_Tables_number   1
_chemical_formula_structural   PrHo3ErBi3
_chemical_formula_sum   'Pr4 Ho12 Er4 Bi12'
_cell_volume   969.01115296
_cell_formula_units_Z   4
loop_
 _symmetry_equiv_pos_site_id
 _symmetry_equiv_pos_as_xyz
  1  'x, y, z'
loop_
 _atom_site_type_symbol
 _atom_site_label
 _atom_site_symmetry_multiplicity
 _atom_site_fract_x
 _atom_site_fract_y
 _atom_site_fract_z
 _atom_site_occupancy
  Pr  Pr0  1  0.170241  0.750000  0.225110  1
  Pr  Pr1  1  0.329759  0.750000  0.725110  1
  Pr  Pr2  1  0.829759  0.250000  0.774890  1
  Pr  Pr3  1  0.670241  0.250000  0.274890  1
  Ho  Ho4  1  0.810809  0.562599  0.063806  1
  Ho  Ho5  1  0.689191  0.937401  0.563806  1
  Ho  Ho6  1  0.189191  0.062599  0.936194  1
  Ho  Ho7  1  0.310809  0.437401  0.436194  1
  Ho  Ho8  1  0.189191  0.437401  0.936194  1
  Ho  Ho9  1  0.310809  0.062599  0.436194  1
  Ho  Ho10  1  0.810809  0.937401  0.063806  1
  Ho  Ho11  1  0.689191  0.562599  0.563806  1
  Ho  Ho12  1  0.664343  0.750000  0.288406  1
  Ho  Ho13  1  0.835657  0.750000  0.788406  1
  Ho  Ho14  1  0.335657  0.250000  0.711594  1
  Ho  Ho15  1  0.164343  0.250000  0.211594  1
  Er  Er16  1  0.479461  0.750000  0.002649  1
  Er  Er17  1  0.020539  0.750000  0.502649  1
  Er  Er18  1  0.520539  0.250000  0.997351  1
  Er  Er19  1  0.979461  0.250000  0.497351  1
  Bi  Bi20  1  0.402642  0.750000  0.466059  1
  Bi  Bi21  1  0.097358  0.750000  0.966059  1
  Bi  Bi22  1  0.597358  0.250000  0.533941  1
  Bi  Bi23  1  0.902642  0.250000  0.033941  1
  Bi  Bi24  1  0.934693  0.506217  0.329081  1
  Bi  Bi25  1  0.565307  0.993783  0.829081  1
  Bi  Bi26  1  0.065307  0.006217  0.670919  1
  Bi  Bi27  1  0.434693  0.493783  0.170919  1
  Bi  Bi28  1  0.065307  0.493783  0.670919  1
  Bi  Bi29  1  0.434693  0.006217  0.170919  1
  Bi  Bi30  1  0.934693  0.993783  0.329081  1
  Bi  Bi31  1  0.565307  0.506217  0.829081  1
