# generated using pymatgen
data_Nb4Al4V2CuRe
_symmetry_space_group_name_H-M   'P 1'
_cell_length_a   5.01792230
_cell_length_b   5.10744159
_cell_length_c   8.45251100
_cell_angle_alpha   90.00000000
_cell_angle_beta   90.00000000
_cell_angle_gamma   120.53031975
_symmetry_Int_Tables_number   1
_chemical_formula_structural   Nb4Al4V2CuRe
_chemical_formula_sum   'Nb4 Al4 V2 Cu1 Re1'
_cell_volume   186.59414721
_cell_formula_units_Z   1
loop_
 _symmetry_equiv_pos_site_id
 _symmetry_equiv_pos_as_xyz
  1  'x, y, z'
loop_
 _atom_site_type_symbol
 _atom_site_label
 _atom_site_symmetry_multiplicity
 _atom_site_fract_x
 _atom_site_fract_y
 _atom_site_fract_z
 _atom_site_occupancy
  Nb  Nb0  1  0.668537  0.334153  0.556880  1
  Nb  Nb1  1  0.327475  0.664946  0.435948  1
  Nb  Nb2  1  0.327475  0.664946  0.064052  1
  Nb  Nb3  1  0.668537  0.334153  0.943120  1
  Al  Al4  1  0.988689  0.998202  0.503337  1
  Al  Al5  1  0.988689  0.998202  0.996663  1
  Al  Al6  1  0.190759  0.354385  0.750000  1
  Al  Al7  1  0.189243  0.837675  0.750000  1
  V  V8  1  0.817643  0.161185  0.250000  1
  V  V9  1  0.334091  0.160335  0.250000  1
  Cu  Cu10  1  0.676323  0.838100  0.750000  1
  Re  Re11  1  0.822540  0.653719  0.250000  1
