# generated using pymatgen
data_Sm2DyTm3(SbO7)2
_symmetry_space_group_name_H-M   'P 1'
_cell_length_a   6.45259806
_cell_length_b   6.45972699
_cell_length_c   7.54079100
_cell_angle_alpha   90.00000000
_cell_angle_beta   90.00000000
_cell_angle_gamma   109.20255723
_symmetry_Int_Tables_number   1
_chemical_formula_structural   Sm2DyTm3(SbO7)2
_chemical_formula_sum   'Sm2 Dy1 Tm3 Sb2 O14'
_cell_volume   296.82743720
_cell_formula_units_Z   1
loop_
 _symmetry_equiv_pos_site_id
 _symmetry_equiv_pos_as_xyz
  1  'x, y, z'
loop_
 _atom_site_type_symbol
 _atom_site_label
 _atom_site_symmetry_multiplicity
 _atom_site_fract_x
 _atom_site_fract_y
 _atom_site_fract_z
 _atom_site_occupancy
  Sm  Sm0  1  0.501504  0.501185  0.499358  1
  Sm  Sm1  1  0.501504  0.501185  0.000642  1
  Dy  Dy2  1  0.999744  0.468128  0.750000  1
  Tm  Tm3  1  0.530713  0.001394  0.750000  1
  Tm  Tm4  1  0.001388  0.531303  0.250000  1
  Tm  Tm5  1  0.468697  0.999060  0.250000  1
  Sb  Sb6  1  0.999773  0.999886  0.499073  1
  Sb  Sb7  1  0.999773  0.999886  0.000927  1
  O  O8  1  0.676865  0.931651  0.469061  1
  O  O9  1  0.927114  0.676375  0.527394  1
  O  O10  1  0.676865  0.931651  0.030939  1
  O  O11  1  0.927114  0.676375  0.972606  1
  O  O12  1  0.322370  0.068254  0.530845  1
  O  O13  1  0.071047  0.322499  0.467454  1
  O  O14  1  0.322370  0.068254  0.969155  1
  O  O15  1  0.071047  0.322499  0.032546  1
  O  O16  1  0.927988  0.068722  0.750000  1
  O  O17  1  0.072858  0.929181  0.250000  1
  O  O18  1  0.368659  0.638792  0.750000  1
  O  O19  1  0.636255  0.363315  0.250000  1
  O  O20  1  0.639268  0.356429  0.750000  1
  O  O21  1  0.357088  0.643972  0.250000  1
