# generated using pymatgen
data_Er4Re6TcW
_symmetry_space_group_name_H-M   'P 1'
_cell_length_a   5.42029000
_cell_length_b   5.42029064
_cell_length_c   8.85301700
_cell_angle_alpha   90.00000000
_cell_angle_beta   90.00000000
_cell_angle_gamma   120.00000829
_symmetry_Int_Tables_number   1
_chemical_formula_structural   Er4Re6TcW
_chemical_formula_sum   'Er4 Re6 Tc1 W1'
_cell_volume   225.25113667
_cell_formula_units_Z   1
loop_
 _symmetry_equiv_pos_site_id
 _symmetry_equiv_pos_as_xyz
  1  'x, y, z'
loop_
 _atom_site_type_symbol
 _atom_site_label
 _atom_site_symmetry_multiplicity
 _atom_site_fract_x
 _atom_site_fract_y
 _atom_site_fract_z
 _atom_site_occupancy
  Er  Er0  1  0.333333  0.666667  0.435721  1
  Er  Er1  1  0.666667  0.333333  0.564279  1
  Er  Er2  1  0.666667  0.333333  0.937794  1
  Er  Er3  1  0.333333  0.666667  0.062206  1
  Re  Re4  1  0.828416  0.171584  0.250189  1
  Re  Re5  1  0.828416  0.656834  0.250189  1
  Re  Re6  1  0.343166  0.171584  0.250189  1
  Re  Re7  1  0.171584  0.828416  0.749811  1
  Re  Re8  1  0.171584  0.343166  0.749811  1
  Re  Re9  1  0.656834  0.828416  0.749811  1
  Tc  Tc10  1  0.000000  0.000000  0.000000  1
  W  W11  1  0.000000  0.000000  0.500000  1
