# generated using pymatgen
data_PrNi2As2Pd
_symmetry_space_group_name_H-M   'P 1'
_cell_length_a   3.93765500
_cell_length_b   8.19319216
_cell_length_c   9.97753782
_cell_angle_alpha   105.16945604
_cell_angle_beta   90.00000000
_cell_angle_gamma   103.90427555
_symmetry_Int_Tables_number   1
_chemical_formula_structural   PrNi2As2Pd
_chemical_formula_sum   'Pr3 Ni6 As6 Pd3'
_cell_volume   300.89553320
_cell_formula_units_Z   3
loop_
 _symmetry_equiv_pos_site_id
 _symmetry_equiv_pos_as_xyz
  1  'x, y, z'
loop_
 _atom_site_type_symbol
 _atom_site_label
 _atom_site_symmetry_multiplicity
 _atom_site_fract_x
 _atom_site_fract_y
 _atom_site_fract_z
 _atom_site_occupancy
  Pr  Pr0  1  0.848160  0.696320  0.308214  1
  Pr  Pr1  1  0.151840  0.303680  0.691786  1
  Pr  Pr2  1  0.000000  0.000000  0.000000  1
  Ni  Ni3  1  0.948667  0.897334  0.668629  1
  Ni  Ni4  1  0.051333  0.102666  0.331371  1
  Ni  Ni5  1  0.784466  0.568934  0.609148  1
  Ni  Ni6  1  0.215534  0.431066  0.390852  1
  Ni  Ni7  1  0.370951  0.741900  0.789751  1
  Ni  Ni8  1  0.629049  0.258100  0.210249  1
  As  As9  1  0.801497  0.602994  0.853341  1
  As  As10  1  0.198503  0.397006  0.146659  1
  As  As11  1  0.524944  0.049889  0.778738  1
  As  As12  1  0.475056  0.950111  0.221262  1
  As  As13  1  0.647214  0.294429  0.449667  1
  As  As14  1  0.352786  0.705571  0.550333  1
  Pd  Pd15  1  0.500000  0.000000  0.500000  1
  Pd  Pd16  1  0.672420  0.344840  0.964779  1
  Pd  Pd17  1  0.327580  0.655160  0.035221  1
