# generated using pymatgen
data_LiPr16Hg3Ir4
_symmetry_space_group_name_H-M   'P 1'
_cell_length_a   10.04221144
_cell_length_b   10.02433080
_cell_length_c   10.02433000
_cell_angle_alpha   60.00000264
_cell_angle_beta   60.05888522
_cell_angle_gamma   60.05889389
_symmetry_Int_Tables_number   1
_chemical_formula_structural   LiPr16Hg3Ir4
_chemical_formula_sum   'Li1 Pr16 Hg3 Ir4'
_cell_volume   714.18564408
_cell_formula_units_Z   1
loop_
 _symmetry_equiv_pos_site_id
 _symmetry_equiv_pos_as_xyz
  1  'x, y, z'
loop_
 _atom_site_type_symbol
 _atom_site_label
 _atom_site_symmetry_multiplicity
 _atom_site_fract_x
 _atom_site_fract_y
 _atom_site_fract_z
 _atom_site_occupancy
  Li  Li0  1  0.302746  0.565752  0.565752  1
  Pr  Pr1  1  0.346846  0.347772  0.347772  1
  Pr  Pr2  1  0.346846  0.347772  0.957613  1
  Pr  Pr3  1  0.346846  0.957613  0.347772  1
  Pr  Pr4  1  0.951627  0.349458  0.349458  1
  Pr  Pr5  1  0.806693  0.191762  0.191762  1
  Pr  Pr6  1  0.186477  0.812641  0.812641  1
  Pr  Pr7  1  0.186477  0.812641  0.188242  1
  Pr  Pr8  1  0.806693  0.191762  0.809784  1
  Pr  Pr9  1  0.186477  0.188242  0.812641  1
  Pr  Pr10  1  0.806693  0.809784  0.191762  1
  Pr  Pr11  1  0.937022  0.562308  0.562308  1
  Pr  Pr12  1  0.561116  0.938573  0.938573  1
  Pr  Pr13  1  0.561116  0.938573  0.561738  1
  Pr  Pr14  1  0.937022  0.562308  0.938363  1
  Pr  Pr15  1  0.561116  0.561738  0.938573  1
  Pr  Pr16  1  0.937022  0.938363  0.562308  1
  Hg  Hg17  1  0.579789  0.586086  0.586086  1
  Hg  Hg18  1  0.579789  0.586086  0.248037  1
  Hg  Hg19  1  0.579789  0.248037  0.586086  1
  Ir  Ir20  1  0.139484  0.142353  0.142353  1
  Ir  Ir21  1  0.139484  0.142353  0.575810  1
  Ir  Ir22  1  0.139484  0.575810  0.142353  1
  Ir  Ir23  1  0.573346  0.142218  0.142218  1
