# generated using pymatgen
data_TbHo15Tl5InIr2
_symmetry_space_group_name_H-M   'P 1'
_cell_length_a   10.34383803
_cell_length_b   10.34967321
_cell_length_c   7.16471903
_cell_angle_alpha   90.01802436
_cell_angle_beta   89.99632351
_cell_angle_gamma   119.94802531
_symmetry_Int_Tables_number   1
_chemical_formula_structural   TbHo15Tl5InIr2
_chemical_formula_sum   'Tb1 Ho15 Tl5 In1 Ir2'
_cell_volume   664.60764926
_cell_formula_units_Z   1
loop_
 _symmetry_equiv_pos_site_id
 _symmetry_equiv_pos_as_xyz
  1  'x, y, z'
loop_
 _atom_site_type_symbol
 _atom_site_label
 _atom_site_symmetry_multiplicity
 _atom_site_fract_x
 _atom_site_fract_y
 _atom_site_fract_z
 _atom_site_occupancy
  Tb  Tb0  1  0.534102  0.070294  0.506461  1
  Ho  Ho1  1  0.929038  0.465612  0.506744  1
  Ho  Ho2  1  0.536004  0.464060  0.508228  1
  Ho  Ho3  1  0.463914  0.927474  0.008390  1
  Ho  Ho4  1  0.072120  0.535901  0.008666  1
  Ho  Ho5  1  0.463769  0.536268  0.008063  1
  Ho  Ho6  1  0.175603  0.352023  0.708403  1
  Ho  Ho7  1  0.648166  0.823993  0.708660  1
  Ho  Ho8  1  0.175422  0.823605  0.711109  1
  Ho  Ho9  1  0.823276  0.647690  0.208007  1
  Ho  Ho10  1  0.352571  0.177155  0.207459  1
  Ho  Ho11  1  0.824297  0.176266  0.208065  1
  Ho  Ho12  1  0.667118  0.333574  0.889441  1
  Ho  Ho13  1  0.332852  0.666406  0.389978  1
  Ho  Ho14  1  0.000960  0.998985  0.488257  1
  Ho  Ho15  1  0.000813  0.999245  0.989899  1
  Tl  Tl16  1  0.836390  0.673165  0.757452  1
  Tl  Tl17  1  0.326209  0.163368  0.757814  1
  Tl  Tl18  1  0.836908  0.163224  0.757547  1
  Tl  Tl19  1  0.163109  0.326456  0.258376  1
  Tl  Tl20  1  0.673476  0.837025  0.257912  1
  In  In21  1  0.163255  0.837260  0.256764  1
  Ir  Ir22  1  0.667298  0.334434  0.277842  1
  Ir  Ir23  1  0.333330  0.666511  0.778507  1
