# generated using pymatgen
data_Ce3Er(SnRu)4
_symmetry_space_group_name_H-M   'P 1'
_cell_length_a   6.30202902
_cell_length_b   6.30202915
_cell_length_c   10.06690550
_cell_angle_alpha   77.48966936
_cell_angle_beta   77.48967060
_cell_angle_gamma   44.66028756
_symmetry_Int_Tables_number   1
_chemical_formula_structural   Ce3Er(SnRu)4
_chemical_formula_sum   'Ce3 Er1 Sn4 Ru4'
_cell_volume   273.21495861
_cell_formula_units_Z   1
loop_
 _symmetry_equiv_pos_site_id
 _symmetry_equiv_pos_as_xyz
  1  'x, y, z'
loop_
 _atom_site_type_symbol
 _atom_site_label
 _atom_site_symmetry_multiplicity
 _atom_site_fract_x
 _atom_site_fract_y
 _atom_site_fract_z
 _atom_site_occupancy
  Ce  Ce0  1  0.861420  0.861420  0.416789  1
  Ce  Ce1  1  0.865548  0.865548  0.915017  1
  Ce  Ce2  1  0.140677  0.140677  0.088943  1
  Er  Er3  1  0.119114  0.119114  0.595282  1
  Sn  Sn4  1  0.425938  0.425938  0.158199  1
  Sn  Sn5  1  0.408734  0.408734  0.657110  1
  Sn  Sn6  1  0.583287  0.583287  0.839521  1
  Sn  Sn7  1  0.588121  0.588121  0.359057  1
  Ru  Ru8  1  0.816947  0.816947  0.155046  1
  Ru  Ru9  1  0.194939  0.194939  0.308535  1
  Ru  Ru10  1  0.188770  0.188770  0.845619  1
  Ru  Ru11  1  0.806507  0.806507  0.660880  1
