# generated using pymatgen
data_Ti4Mn24Al
_symmetry_space_group_name_H-M   'P 1'
_cell_length_a   7.58658517
_cell_length_b   7.58658431
_cell_length_c   7.58658400
_cell_angle_alpha   109.47122515
_cell_angle_beta   109.47122284
_cell_angle_gamma   109.47121697
_symmetry_Int_Tables_number   1
_chemical_formula_structural   Ti4Mn24Al
_chemical_formula_sum   'Ti4 Mn24 Al1'
_cell_volume   336.13751889
_cell_formula_units_Z   1
loop_
 _symmetry_equiv_pos_site_id
 _symmetry_equiv_pos_as_xyz
  1  'x, y, z'
loop_
 _atom_site_type_symbol
 _atom_site_label
 _atom_site_symmetry_multiplicity
 _atom_site_fract_x
 _atom_site_fract_y
 _atom_site_fract_z
 _atom_site_occupancy
  Ti  Ti0  1  0.626533  0.000000  0.000000  1
  Ti  Ti1  1  0.000000  0.626533  0.000000  1
  Ti  Ti2  1  0.000000  0.000000  0.626533  1
  Ti  Ti3  1  0.373467  0.373467  0.373467  1
  Mn  Mn4  1  0.389273  0.670669  0.000000  1
  Mn  Mn5  1  0.718604  0.329331  0.329331  1
  Mn  Mn6  1  0.389273  0.000000  0.670669  1
  Mn  Mn7  1  0.670669  0.389273  0.000000  1
  Mn  Mn8  1  0.000000  0.389273  0.670669  1
  Mn  Mn9  1  0.329331  0.718604  0.329331  1
  Mn  Mn10  1  0.329331  0.329331  0.718604  1
  Mn  Mn11  1  0.000000  0.670669  0.389273  1
  Mn  Mn12  1  0.670669  0.000000  0.389273  1
  Mn  Mn13  1  0.610727  0.610727  0.281396  1
  Mn  Mn14  1  0.281396  0.610727  0.610727  1
  Mn  Mn15  1  0.610727  0.281396  0.610727  1
  Mn  Mn16  1  0.372304  0.193849  0.000000  1
  Mn  Mn17  1  0.178455  0.806151  0.806151  1
  Mn  Mn18  1  0.372304  0.000000  0.193849  1
  Mn  Mn19  1  0.193849  0.372304  0.000000  1
  Mn  Mn20  1  0.000000  0.372304  0.193849  1
  Mn  Mn21  1  0.806151  0.178455  0.806151  1
  Mn  Mn22  1  0.806151  0.806151  0.178455  1
  Mn  Mn23  1  0.000000  0.193849  0.372304  1
  Mn  Mn24  1  0.193849  0.000000  0.372304  1
  Mn  Mn25  1  0.627696  0.627696  0.821545  1
  Mn  Mn26  1  0.821545  0.627696  0.627696  1
  Mn  Mn27  1  0.627696  0.821545  0.627696  1
  Al  Al28  1  0.000000  0.000000  0.000000  1
