# generated using pymatgen
data_LiLa6Zn3Pd12Rh
_symmetry_space_group_name_H-M   'P 1'
_cell_length_a   8.44852097
_cell_length_b   8.44852193
_cell_length_c   8.44852211
_cell_angle_alpha   109.46201981
_cell_angle_beta   109.46202016
_cell_angle_gamma   109.46203230
_symmetry_Int_Tables_number   1
_chemical_formula_structural   LiLa6Zn3Pd12Rh
_chemical_formula_sum   'Li1 La6 Zn3 Pd12 Rh1'
_cell_volume   464.37417820
_cell_formula_units_Z   1
loop_
 _symmetry_equiv_pos_site_id
 _symmetry_equiv_pos_as_xyz
  1  'x, y, z'
loop_
 _atom_site_type_symbol
 _atom_site_label
 _atom_site_symmetry_multiplicity
 _atom_site_fract_x
 _atom_site_fract_y
 _atom_site_fract_z
 _atom_site_occupancy
  Li  Li0  1  0.500000  0.500000  0.500000  1
  La  La1  1  0.700613  0.700613  0.001219  1
  La  La2  1  0.299387  0.998781  0.299387  1
  La  La3  1  0.998781  0.299387  0.299387  1
  La  La4  1  0.299387  0.299387  0.998781  1
  La  La5  1  0.700613  0.001219  0.700613  1
  La  La6  1  0.001219  0.700613  0.700613  1
  Zn  Zn7  1  0.000000  0.000000  0.500000  1
  Zn  Zn8  1  0.000000  0.500000  0.000000  1
  Zn  Zn9  1  0.500000  0.000000  0.000000  1
  Pd  Pd10  1  0.331983  0.331983  0.664141  1
  Pd  Pd11  1  0.668472  0.000000  0.331528  1
  Pd  Pd12  1  0.000000  0.668472  0.331528  1
  Pd  Pd13  1  0.668472  0.331528  0.000000  1
  Pd  Pd14  1  0.331983  0.664141  0.331983  1
  Pd  Pd15  1  0.000000  0.331528  0.668472  1
  Pd  Pd16  1  0.331528  0.668472  0.000000  1
  Pd  Pd17  1  0.331528  0.000000  0.668472  1
  Pd  Pd18  1  0.664141  0.331983  0.331983  1
  Pd  Pd19  1  0.668017  0.668017  0.335859  1
  Pd  Pd20  1  0.668017  0.335859  0.668017  1
  Pd  Pd21  1  0.335859  0.668017  0.668017  1
  Rh  Rh22  1  0.000000  0.000000  0.000000  1
