# generated using pymatgen
data_YSc(SnPd)2
_symmetry_space_group_name_H-M   'P 1'
_cell_length_a   7.62503100
_cell_length_b   7.62503064
_cell_length_c   7.50258400
_cell_angle_alpha   90.00000000
_cell_angle_beta   90.00000000
_cell_angle_gamma   119.99998855
_symmetry_Int_Tables_number   1
_chemical_formula_structural   YSc(SnPd)2
_chemical_formula_sum   'Y3 Sc3 Sn6 Pd6'
_cell_volume   377.76764184
_cell_formula_units_Z   3
loop_
 _symmetry_equiv_pos_site_id
 _symmetry_equiv_pos_as_xyz
  1  'x, y, z'
loop_
 _atom_site_type_symbol
 _atom_site_label
 _atom_site_symmetry_multiplicity
 _atom_site_fract_x
 _atom_site_fract_y
 _atom_site_fract_z
 _atom_site_occupancy
  Y  Y0  1  0.402285  0.002122  0.250000  1
  Y  Y1  1  0.599837  0.597715  0.250000  1
  Y  Y2  1  0.997878  0.400163  0.250000  1
  Sc  Sc3  1  0.388147  0.995778  0.750000  1
  Sc  Sc4  1  0.607631  0.611853  0.750000  1
  Sc  Sc5  1  0.004222  0.392369  0.750000  1
  Sn  Sn6  1  0.730537  0.001109  0.990196  1
  Sn  Sn7  1  0.270572  0.269463  0.509804  1
  Sn  Sn8  1  0.998891  0.729428  0.509804  1
  Sn  Sn9  1  0.998891  0.729428  0.990196  1
  Sn  Sn10  1  0.270572  0.269463  0.990196  1
  Sn  Sn11  1  0.730537  0.001109  0.509804  1
  Pd  Pd12  1  0.333333  0.666667  0.971344  1
  Pd  Pd13  1  0.333333  0.666667  0.528656  1
  Pd  Pd14  1  0.666667  0.333333  0.959968  1
  Pd  Pd15  1  0.666667  0.333333  0.540032  1
  Pd  Pd16  1  0.000000  0.000000  0.250000  1
  Pd  Pd17  1  0.000000  0.000000  0.750000  1
