# generated using pymatgen
data_Zn11Cu(Mo3N)4
_symmetry_space_group_name_H-M   'P 1'
_cell_length_a   8.02040726
_cell_length_b   8.02266449
_cell_length_c   8.02013300
_cell_angle_alpha   60.00997101
_cell_angle_beta   60.00062954
_cell_angle_gamma   60.00879621
_symmetry_Int_Tables_number   1
_chemical_formula_structural   Zn11Cu(Mo3N)4
_chemical_formula_sum   'Zn11 Cu1 Mo12 N4'
_cell_volume   364.96000507
_cell_formula_units_Z   1
loop_
 _symmetry_equiv_pos_site_id
 _symmetry_equiv_pos_as_xyz
  1  'x, y, z'
loop_
 _atom_site_type_symbol
 _atom_site_label
 _atom_site_symmetry_multiplicity
 _atom_site_fract_x
 _atom_site_fract_y
 _atom_site_fract_z
 _atom_site_occupancy
  Zn  Zn0  1  0.624851  0.125415  0.624868  1
  Zn  Zn1  1  0.622152  0.627997  0.127698  1
  Zn  Zn2  1  0.127722  0.627979  0.622149  1
  Zn  Zn3  1  0.622154  0.627992  0.622155  1
  Zn  Zn4  1  0.834136  0.497639  0.834111  1
  Zn  Zn5  1  0.415433  0.416567  0.752549  1
  Zn  Zn6  1  0.752549  0.416570  0.415441  1
  Zn  Zn7  1  0.415429  0.416567  0.415449  1
  Zn  Zn8  1  0.496508  0.834040  0.834722  1
  Zn  Zn9  1  0.834750  0.834000  0.834703  1
  Zn  Zn10  1  0.834747  0.833998  0.496549  1
  Cu  Cu11  1  0.416011  0.752020  0.415992  1
  Mo  Mo12  1  0.189947  0.190702  0.809674  1
  Mo  Mo13  1  0.438820  0.058788  0.063521  1
  Mo  Mo14  1  0.059957  0.439022  0.441036  1
  Mo  Mo15  1  0.441141  0.439207  0.059826  1
  Mo  Mo16  1  0.438820  0.058790  0.438871  1
  Mo  Mo17  1  0.059962  0.439021  0.059984  1
  Mo  Mo18  1  0.809742  0.190539  0.809856  1
  Mo  Mo19  1  0.809740  0.190542  0.189866  1
  Mo  Mo20  1  0.189475  0.809788  0.811261  1
  Mo  Mo21  1  0.189478  0.809789  0.189474  1
  Mo  Mo22  1  0.063569  0.058813  0.438808  1
  Mo  Mo23  1  0.811249  0.809834  0.189458  1
  N  N24  1  0.125703  0.622868  0.125714  1
  N  N25  1  0.125032  0.123823  0.626076  1
  N  N26  1  0.625892  0.123868  0.125119  1
  N  N27  1  0.125031  0.123824  0.125070  1
