# generated using pymatgen
data_Yb9TmPb6F2
_symmetry_space_group_name_H-M   'P 1'
_cell_length_a   9.38953578
_cell_length_b   9.38953543
_cell_length_c   9.38953520
_cell_angle_alpha   128.09574202
_cell_angle_beta   128.09574920
_cell_angle_gamma   76.46997972
_symmetry_Int_Tables_number   1
_chemical_formula_structural   Yb9TmPb6F2
_chemical_formula_sum   'Yb9 Tm1 Pb6 F2'
_cell_volume   498.10545641
_cell_formula_units_Z   1
loop_
 _symmetry_equiv_pos_site_id
 _symmetry_equiv_pos_as_xyz
  1  'x, y, z'
loop_
 _atom_site_type_symbol
 _atom_site_label
 _atom_site_symmetry_multiplicity
 _atom_site_fract_x
 _atom_site_fract_y
 _atom_site_fract_z
 _atom_site_occupancy
  Yb  Yb0  1  0.000000  0.000000  0.000000  1
  Yb  Yb1  1  0.502790  0.003065  0.813109  1
  Yb  Yb2  1  0.189956  0.689681  0.186891  1
  Yb  Yb3  1  0.003065  0.189956  0.500275  1
  Yb  Yb4  1  0.689681  0.502790  0.499725  1
  Yb  Yb5  1  0.497210  0.996935  0.186891  1
  Yb  Yb6  1  0.810044  0.310319  0.813109  1
  Yb  Yb7  1  0.996935  0.810044  0.499725  1
  Yb  Yb8  1  0.310319  0.497210  0.500275  1
  Tm  Tm9  1  0.500000  0.500000  0.000000  1
  Pb  Pb10  1  0.251260  0.251260  0.000000  1
  Pb  Pb11  1  0.748740  0.748740  0.000000  1
  Pb  Pb12  1  0.861796  0.366506  0.228304  1
  Pb  Pb13  1  0.138204  0.633494  0.771697  1
  Pb  Pb14  1  0.366506  0.138204  0.504710  1
  Pb  Pb15  1  0.633494  0.861796  0.495290  1
  F  F16  1  0.250000  0.750000  0.500000  1
  F  F17  1  0.750000  0.250000  0.500000  1
