# generated using pymatgen
data_Yb2SmSc(Pt2O7)2
_symmetry_space_group_name_H-M   'P 1'
_cell_length_a   7.19361713
_cell_length_b   7.26148698
_cell_length_c   7.26148518
_cell_angle_alpha   59.94343841
_cell_angle_beta   59.79889839
_cell_angle_gamma   59.79890464
_symmetry_Int_Tables_number   1
_chemical_formula_structural   Yb2SmSc(Pt2O7)2
_chemical_formula_sum   'Yb2 Sm1 Sc1 Pt4 O14'
_cell_volume   267.28322029
_cell_formula_units_Z   1
loop_
 _symmetry_equiv_pos_site_id
 _symmetry_equiv_pos_as_xyz
  1  'x, y, z'
loop_
 _atom_site_type_symbol
 _atom_site_label
 _atom_site_symmetry_multiplicity
 _atom_site_fract_x
 _atom_site_fract_y
 _atom_site_fract_z
 _atom_site_occupancy
  Yb  Yb0  1  0.625000  0.625000  0.125000  1
  Yb  Yb1  1  0.625000  0.125000  0.625000  1
  Sm  Sm2  1  0.625000  0.625000  0.625000  1
  Sc  Sc3  1  0.125000  0.625000  0.625000  1
  Pt  Pt4  1  0.625000  0.125000  0.125000  1
  Pt  Pt5  1  0.125000  0.125000  0.125000  1
  Pt  Pt6  1  0.125000  0.625000  0.125000  1
  Pt  Pt7  1  0.125000  0.125000  0.625000  1
  O  O8  1  0.049862  0.461570  0.461570  1
  O  O9  1  0.788054  0.787482  0.212152  1
  O  O10  1  0.789371  0.211157  0.211157  1
  O  O11  1  0.052463  0.460655  0.026494  1
  O  O12  1  0.461946  0.037848  0.462518  1
  O  O13  1  0.777686  0.740422  0.740422  1
  O  O14  1  0.052463  0.026494  0.460655  1
  O  O15  1  0.788054  0.212152  0.787482  1
  O  O16  1  0.472314  0.509578  0.509578  1
  O  O17  1  0.197537  0.223506  0.789345  1
  O  O18  1  0.197537  0.789345  0.223506  1
  O  O19  1  0.460629  0.038843  0.038843  1
  O  O20  1  0.461946  0.462518  0.037848  1
  O  O21  1  0.200138  0.788430  0.788430  1
