# generated using pymatgen
data_SmHg4S2Cl5
_symmetry_space_group_name_H-M   'P 1'
_cell_length_a   8.32611986
_cell_length_b   10.66669800
_cell_length_c   9.09103800
_cell_angle_alpha   90.00000000
_cell_angle_beta   113.24918806
_cell_angle_gamma   90.00000000
_symmetry_Int_Tables_number   1
_chemical_formula_structural   SmHg4S2Cl5
_chemical_formula_sum   'Sm2 Hg8 S4 Cl10'
_cell_volume   741.83207407
_cell_formula_units_Z   2
loop_
 _symmetry_equiv_pos_site_id
 _symmetry_equiv_pos_as_xyz
  1  'x, y, z'
loop_
 _atom_site_type_symbol
 _atom_site_label
 _atom_site_symmetry_multiplicity
 _atom_site_fract_x
 _atom_site_fract_y
 _atom_site_fract_z
 _atom_site_occupancy
  Sm  Sm0  1  0.502217  0.432590  0.507179  1
  Sm  Sm1  1  0.497783  0.932590  0.492821  1
  Hg  Hg2  1  0.925220  0.184514  0.329665  1
  Hg  Hg3  1  0.074780  0.684514  0.670335  1
  Hg  Hg4  1  0.948936  0.665688  0.356852  1
  Hg  Hg5  1  0.051064  0.165688  0.643148  1
  Hg  Hg6  1  0.497467  0.181521  0.986792  1
  Hg  Hg7  1  0.502533  0.681521  0.013208  1
  Hg  Hg8  1  0.805470  0.431856  0.021077  1
  Hg  Hg9  1  0.194530  0.931856  0.978923  1
  S  S10  1  0.800496  0.203132  0.029264  1
  S  S11  1  0.199504  0.703132  0.970736  1
  S  S12  1  0.194739  0.158695  0.943138  1
  S  S13  1  0.805261  0.658695  0.056862  1
  Cl  Cl14  1  0.839874  0.924788  0.685457  1
  Cl  Cl15  1  0.160126  0.424788  0.314543  1
  Cl  Cl16  1  0.844579  0.438731  0.709442  1
  Cl  Cl17  1  0.155421  0.938731  0.290558  1
  Cl  Cl18  1  0.408826  0.457055  0.761763  1
  Cl  Cl19  1  0.591174  0.957055  0.238237  1
  Cl  Cl20  1  0.594476  0.394052  0.259685  1
  Cl  Cl21  1  0.405524  0.894052  0.740315  1
  Cl  Cl22  1  0.496991  0.180978  0.559658  1
  Cl  Cl23  1  0.503009  0.680978  0.440342  1
