# generated using pymatgen
data_Tm3TaB4(SbRu5)2
_symmetry_space_group_name_H-M   'P 1'
_cell_length_a   9.61671686
_cell_length_b   9.61671628
_cell_length_c   3.11220000
_cell_angle_alpha   90.00000000
_cell_angle_beta   90.00000000
_cell_angle_gamma   90.55245415
_symmetry_Int_Tables_number   1
_chemical_formula_structural   Tm3TaB4(SbRu5)2
_chemical_formula_sum   'Tm3 Ta1 B4 Sb2 Ru10'
_cell_volume   287.80672825
_cell_formula_units_Z   1
loop_
 _symmetry_equiv_pos_site_id
 _symmetry_equiv_pos_as_xyz
  1  'x, y, z'
loop_
 _atom_site_type_symbol
 _atom_site_label
 _atom_site_symmetry_multiplicity
 _atom_site_fract_x
 _atom_site_fract_y
 _atom_site_fract_z
 _atom_site_occupancy
  Tm  Tm0  1  0.824608  0.674892  0.000000  1
  Tm  Tm1  1  0.174892  0.324608  0.000000  1
  Tm  Tm2  1  0.324904  0.824904  0.000000  1
  Ta  Ta3  1  0.673878  0.173878  0.000000  1
  B  B4  1  0.623671  0.882178  0.000000  1
  B  B5  1  0.382178  0.123671  0.000000  1
  B  B6  1  0.118187  0.618187  0.000000  1
  B  B7  1  0.876408  0.376408  0.000000  1
  Sb  Sb8  1  0.498367  0.505346  0.000000  1
  Sb  Sb9  1  0.005346  0.998367  0.000000  1
  Ru  Ru10  1  0.571790  0.725137  0.500000  1
  Ru  Ru11  1  0.443949  0.278319  0.500000  1
  Ru  Ru12  1  0.069386  0.777663  0.500000  1
  Ru  Ru13  1  0.913984  0.213650  0.500000  1
  Ru  Ru14  1  0.277663  0.569386  0.500000  1
  Ru  Ru15  1  0.713650  0.413984  0.500000  1
  Ru  Ru16  1  0.225137  0.071790  0.500000  1
  Ru  Ru17  1  0.778319  0.943949  0.500000  1
  Ru  Ru18  1  0.507945  0.007945  0.500000  1
  Ru  Ru19  1  0.995737  0.495737  0.500000  1
