# generated using pymatgen
data_Tb7Dy3(Bi2Te)2
_symmetry_space_group_name_H-M   'P 1'
_cell_length_a   8.20525800
_cell_length_b   9.48450000
_cell_length_c   11.97938000
_cell_angle_alpha   89.99846754
_cell_angle_beta   90.00020997
_cell_angle_gamma   89.99998698
_symmetry_Int_Tables_number   1
_chemical_formula_structural   Tb7Dy3(Bi2Te)2
_chemical_formula_sum   'Tb14 Dy6 Bi8 Te4'
_cell_volume   932.26852834
_cell_formula_units_Z   2
loop_
 _symmetry_equiv_pos_site_id
 _symmetry_equiv_pos_as_xyz
  1  'x, y, z'
loop_
 _atom_site_type_symbol
 _atom_site_label
 _atom_site_symmetry_multiplicity
 _atom_site_fract_x
 _atom_site_fract_y
 _atom_site_fract_z
 _atom_site_occupancy
  Tb  Tb0  1  0.353573  0.749963  0.213091  1
  Tb  Tb1  1  0.853576  0.750037  0.286914  1
  Tb  Tb2  1  0.646445  0.249984  0.786880  1
  Tb  Tb3  1  0.146443  0.250016  0.713115  1
  Tb  Tb4  1  0.689646  0.561919  0.057302  1
  Tb  Tb5  1  0.189646  0.938081  0.442699  1
  Tb  Tb6  1  0.476288  0.250021  0.488431  1
  Tb  Tb7  1  0.976287  0.249979  0.011569  1
  Tb  Tb8  1  0.523823  0.749952  0.511618  1
  Tb  Tb9  1  0.023823  0.750048  0.988382  1
  Tb  Tb10  1  0.319197  0.250016  0.217914  1
  Tb  Tb11  1  0.819197  0.249984  0.282091  1
  Tb  Tb12  1  0.680834  0.750043  0.782019  1
  Tb  Tb13  1  0.180834  0.749957  0.717976  1
  Dy  Dy14  1  0.310346  0.062074  0.942680  1
  Dy  Dy15  1  0.810346  0.437926  0.557319  1
  Dy  Dy16  1  0.310347  0.437901  0.942687  1
  Dy  Dy17  1  0.810347  0.062099  0.557312  1
  Dy  Dy18  1  0.689628  0.938060  0.057278  1
  Dy  Dy19  1  0.189627  0.561939  0.442724  1
  Bi  Bi20  1  0.568582  0.995634  0.325161  1
  Bi  Bi21  1  0.068582  0.504366  0.174841  1
  Bi  Bi22  1  0.431495  0.495613  0.674820  1
  Bi  Bi23  1  0.931495  0.004387  0.825178  1
  Bi  Bi24  1  0.431515  0.004379  0.674877  1
  Bi  Bi25  1  0.931514  0.495621  0.825120  1
  Bi  Bi26  1  0.568480  0.504365  0.325224  1
  Bi  Bi27  1  0.068480  0.995634  0.174778  1
  Te  Te28  1  0.407050  0.750096  0.957246  1
  Te  Te29  1  0.907049  0.749904  0.542752  1
  Te  Te30  1  0.592753  0.249673  0.042652  1
  Te  Te31  1  0.092753  0.250327  0.457349  1
