# generated using pymatgen
data_Rb4Li2ScInAs4
_symmetry_space_group_name_H-M   'P 1'
_cell_length_a   10.50486200
_cell_length_b   10.50486136
_cell_length_c   6.62983700
_cell_angle_alpha   90.00000000
_cell_angle_beta   90.00000000
_cell_angle_gamma   102.58725237
_symmetry_Int_Tables_number   1
_chemical_formula_structural   Rb4Li2ScInAs4
_chemical_formula_sum   'Rb8 Li4 Sc2 In2 As8'
_cell_volume   714.03235614
_cell_formula_units_Z   2
loop_
 _symmetry_equiv_pos_site_id
 _symmetry_equiv_pos_as_xyz
  1  'x, y, z'
loop_
 _atom_site_type_symbol
 _atom_site_label
 _atom_site_symmetry_multiplicity
 _atom_site_fract_x
 _atom_site_fract_y
 _atom_site_fract_z
 _atom_site_occupancy
  Rb  Rb0  1  0.075894  0.428964  0.747215  1
  Rb  Rb1  1  0.671590  0.323552  0.784101  1
  Rb  Rb2  1  0.323552  0.671590  0.215899  1
  Rb  Rb3  1  0.575894  0.928964  0.752785  1
  Rb  Rb4  1  0.428964  0.075894  0.252785  1
  Rb  Rb5  1  0.928964  0.575894  0.247215  1
  Rb  Rb6  1  0.823552  0.171590  0.284101  1
  Rb  Rb7  1  0.171590  0.823552  0.715899  1
  Li  Li8  1  0.121952  0.121952  0.500000  1
  Li  Li9  1  0.877939  0.877939  0.500000  1
  Li  Li10  1  0.377939  0.377939  0.000000  1
  Li  Li11  1  0.621952  0.621952  0.000000  1
  Sc  Sc12  1  0.626338  0.626338  0.500000  1
  Sc  Sc13  1  0.126338  0.126338  0.000000  1
  In  In14  1  0.871115  0.871115  0.000000  1
  In  In15  1  0.371115  0.371115  0.500000  1
  As  As16  1  0.837360  0.658212  0.745541  1
  As  As17  1  0.095390  0.911693  0.228989  1
  As  As18  1  0.411693  0.595390  0.728989  1
  As  As19  1  0.595390  0.411693  0.271011  1
  As  As20  1  0.658212  0.837360  0.254459  1
  As  As21  1  0.158212  0.337360  0.245541  1
  As  As22  1  0.337360  0.158212  0.754459  1
  As  As23  1  0.911693  0.095390  0.771011  1
