# generated using pymatgen
data_Yb3CeFeOs7
_symmetry_space_group_name_H-M   'P 1'
_cell_length_a   5.30385940
_cell_length_b   5.29435462
_cell_length_c   8.72939068
_cell_angle_alpha   90.00282684
_cell_angle_beta   89.63746353
_cell_angle_gamma   119.94356991
_symmetry_Int_Tables_number   1
_chemical_formula_structural   Yb3CeFeOs7
_chemical_formula_sum   'Yb3 Ce1 Fe1 Os7'
_cell_volume   212.40012770
_cell_formula_units_Z   1
loop_
 _symmetry_equiv_pos_site_id
 _symmetry_equiv_pos_as_xyz
  1  'x, y, z'
loop_
 _atom_site_type_symbol
 _atom_site_label
 _atom_site_symmetry_multiplicity
 _atom_site_fract_x
 _atom_site_fract_y
 _atom_site_fract_z
 _atom_site_occupancy
  Yb  Yb0  1  0.336215  0.668103  0.431454  1
  Yb  Yb1  1  0.334422  0.667209  0.065223  1
  Yb  Yb2  1  0.661971  0.330987  0.938766  1
  Ce  Ce3  1  0.661892  0.330949  0.566069  1
  Fe  Fe4  1  0.340645  0.170346  0.248460  1
  Os  Os5  1  0.998588  0.999294  0.494328  1
  Os  Os6  1  0.992437  0.996221  0.003453  1
  Os  Os7  1  0.170576  0.344681  0.752415  1
  Os  Os8  1  0.170573  0.825893  0.752416  1
  Os  Os9  1  0.658684  0.829342  0.751016  1
  Os  Os10  1  0.836997  0.657557  0.248203  1
  Os  Os11  1  0.837001  0.179419  0.248199  1
