# generated using pymatgen
data_Ac5In3Br
_symmetry_space_group_name_H-M   'P 1'
_cell_length_a   10.15827100
_cell_length_b   10.15827061
_cell_length_c   7.27388200
_cell_angle_alpha   90.00000000
_cell_angle_beta   90.00000000
_cell_angle_gamma   120.00000454
_symmetry_Int_Tables_number   1
_chemical_formula_structural   Ac5In3Br
_chemical_formula_sum   'Ac10 In6 Br2'
_cell_volume   650.03454291
_cell_formula_units_Z   2
loop_
 _symmetry_equiv_pos_site_id
 _symmetry_equiv_pos_as_xyz
  1  'x, y, z'
loop_
 _atom_site_type_symbol
 _atom_site_label
 _atom_site_symmetry_multiplicity
 _atom_site_fract_x
 _atom_site_fract_y
 _atom_site_fract_z
 _atom_site_occupancy
  Ac  Ac0  1  0.732125  0.732125  0.250000  1
  Ac  Ac1  1  0.000000  0.732125  0.750000  1
  Ac  Ac2  1  0.732125  0.000000  0.750000  1
  Ac  Ac3  1  0.333333  0.666667  0.500000  1
  Ac  Ac4  1  0.267875  0.267875  0.750000  1
  Ac  Ac5  1  0.000000  0.267875  0.250000  1
  Ac  Ac6  1  0.666667  0.333333  0.500000  1
  Ac  Ac7  1  0.267875  0.000000  0.250000  1
  Ac  Ac8  1  0.333333  0.666667  0.000000  1
  Ac  Ac9  1  0.666667  0.333333  0.000000  1
  In  In10  1  0.390454  0.000000  0.750000  1
  In  In11  1  0.000000  0.609546  0.250000  1
  In  In12  1  0.609546  0.000000  0.250000  1
  In  In13  1  0.000000  0.390454  0.750000  1
  In  In14  1  0.390454  0.390454  0.250000  1
  In  In15  1  0.609546  0.609546  0.750000  1
  Br  Br16  1  0.000000  0.000000  0.500000  1
  Br  Br17  1  0.000000  0.000000  0.000000  1
