# generated using pymatgen
data_Y3Er9Os4
_symmetry_space_group_name_H-M   'P 1'
_cell_length_a   7.40383503
_cell_length_b   8.95628100
_cell_length_c   6.28580156
_cell_angle_alpha   90.00000000
_cell_angle_beta   90.10354222
_cell_angle_gamma   90.00000000
_symmetry_Int_Tables_number   1
_chemical_formula_structural   Y3Er9Os4
_chemical_formula_sum   'Y3 Er9 Os4'
_cell_volume   416.81601920
_cell_formula_units_Z   1
loop_
 _symmetry_equiv_pos_site_id
 _symmetry_equiv_pos_as_xyz
  1  'x, y, z'
loop_
 _atom_site_type_symbol
 _atom_site_label
 _atom_site_symmetry_multiplicity
 _atom_site_fract_x
 _atom_site_fract_y
 _atom_site_fract_z
 _atom_site_occupancy
  Y  Y0  1  0.461876  0.750000  0.128043  1
  Y  Y1  1  0.961837  0.750000  0.372080  1
  Y  Y2  1  0.038179  0.250000  0.628215  1
  Er  Er3  1  0.175118  0.063018  0.165468  1
  Er  Er4  1  0.175118  0.436982  0.165468  1
  Er  Er5  1  0.674620  0.063071  0.333885  1
  Er  Er6  1  0.674620  0.436929  0.333885  1
  Er  Er7  1  0.325509  0.562607  0.665988  1
  Er  Er8  1  0.325509  0.937393  0.665988  1
  Er  Er9  1  0.824831  0.562700  0.834353  1
  Er  Er10  1  0.824831  0.937300  0.834353  1
  Er  Er11  1  0.538829  0.250000  0.871163  1
  Os  Os12  1  0.880914  0.250000  0.040791  1
  Os  Os13  1  0.383167  0.250000  0.460328  1
  Os  Os14  1  0.617461  0.750000  0.541748  1
  Os  Os15  1  0.117581  0.750000  0.958244  1
