# generated using pymatgen
data_Tb3Ho3(Sc2Sn3)2
_symmetry_space_group_name_H-M   'P 1'
_cell_length_a   8.80240364
_cell_length_b   8.79086557
_cell_length_c   6.28201900
_cell_angle_alpha   90.00000000
_cell_angle_beta   90.00000000
_cell_angle_gamma   119.99964246
_symmetry_Int_Tables_number   1
_chemical_formula_structural   Tb3Ho3(Sc2Sn3)2
_chemical_formula_sum   'Tb3 Ho3 Sc4 Sn6'
_cell_volume   420.98280792
_cell_formula_units_Z   1
loop_
 _symmetry_equiv_pos_site_id
 _symmetry_equiv_pos_as_xyz
  1  'x, y, z'
loop_
 _atom_site_type_symbol
 _atom_site_label
 _atom_site_symmetry_multiplicity
 _atom_site_fract_x
 _atom_site_fract_y
 _atom_site_fract_z
 _atom_site_occupancy
  Tb  Tb0  1  0.000173  0.761102  0.750000  1
  Tb  Tb1  1  0.000100  0.239018  0.250000  1
  Tb  Tb2  1  0.760673  0.760751  0.250000  1
  Ho  Ho3  1  0.760538  0.000067  0.750000  1
  Ho  Ho4  1  0.239211  0.239160  0.750000  1
  Ho  Ho5  1  0.239559  0.000143  0.250000  1
  Sc  Sc6  1  0.333308  0.666646  0.500051  1
  Sc  Sc7  1  0.666629  0.333296  0.999948  1
  Sc  Sc8  1  0.666629  0.333296  0.500052  1
  Sc  Sc9  1  0.333308  0.666646  0.999949  1
  Sn  Sn10  1  0.400626  0.000443  0.750000  1
  Sn  Sn11  1  0.400186  0.399776  0.250000  1
  Sn  Sn12  1  0.000457  0.600234  0.250000  1
  Sn  Sn13  1  0.000048  0.399586  0.750000  1
  Sn  Sn14  1  0.599362  0.599771  0.750000  1
  Sn  Sn15  1  0.599192  0.000064  0.250000  1
