# generated using pymatgen
data_Tm4Mg3Co3(P6Rh7)2
_symmetry_space_group_name_H-M   'P 1'
_cell_length_a   3.85131400
_cell_length_b   10.81265102
_cell_length_c   12.61701615
_cell_angle_alpha   90.23215458
_cell_angle_beta   90.00000000
_cell_angle_gamma   90.00000000
_symmetry_Int_Tables_number   1
_chemical_formula_structural   Tm4Mg3Co3(P6Rh7)2
_chemical_formula_sum   'Tm4 Mg3 Co3 P12 Rh14'
_cell_volume   525.40500894
_cell_formula_units_Z   1
loop_
 _symmetry_equiv_pos_site_id
 _symmetry_equiv_pos_as_xyz
  1  'x, y, z'
loop_
 _atom_site_type_symbol
 _atom_site_label
 _atom_site_symmetry_multiplicity
 _atom_site_fract_x
 _atom_site_fract_y
 _atom_site_fract_z
 _atom_site_occupancy
  Tm  Tm0  1  0.250000  0.580958  0.705320  1
  Tm  Tm1  1  0.250000  0.919242  0.210416  1
  Tm  Tm2  1  0.750000  0.419267  0.295005  1
  Tm  Tm3  1  0.750000  0.078545  0.787917  1
  Mg  Mg4  1  0.250000  0.710364  0.990501  1
  Mg  Mg5  1  0.250000  0.794504  0.487882  1
  Mg  Mg6  1  0.750000  0.292198  0.012728  1
  Co  Co7  1  0.250000  0.037506  0.435180  1
  Co  Co8  1  0.750000  0.537002  0.066765  1
  Co  Co9  1  0.750000  0.963809  0.562090  1
  P  P10  1  0.250000  0.427242  0.119039  1
  P  P11  1  0.250000  0.073556  0.605079  1
  P  P12  1  0.750000  0.576552  0.885577  1
  P  P13  1  0.750000  0.928102  0.389187  1
  P  P14  1  0.250000  0.260175  0.856837  1
  P  P15  1  0.250000  0.230059  0.368964  1
  P  P16  1  0.750000  0.732775  0.140475  1
  P  P17  1  0.750000  0.768723  0.638166  1
  P  P18  1  0.250000  0.592489  0.386069  1
  P  P19  1  0.250000  0.909120  0.884458  1
  P  P20  1  0.750000  0.401771  0.607482  1
  P  P21  1  0.750000  0.093069  0.117099  1
  Rh  Rh22  1  0.750000  0.210091  0.514153  1
  Rh  Rh23  1  0.250000  0.405193  0.477262  1
  Rh  Rh24  1  0.250000  0.097041  0.976845  1
  Rh  Rh25  1  0.750000  0.595094  0.523112  1
  Rh  Rh26  1  0.750000  0.904233  0.025387  1
  Rh  Rh27  1  0.250000  0.225819  0.177792  1
  Rh  Rh28  1  0.250000  0.268357  0.672395  1
  Rh  Rh29  1  0.750000  0.776470  0.825896  1
  Rh  Rh30  1  0.750000  0.727286  0.327917  1
  Rh  Rh31  1  0.250000  0.885858  0.694639  1
  Rh  Rh32  1  0.250000  0.619414  0.197875  1
  Rh  Rh33  1  0.750000  0.115091  0.304286  1
  Rh  Rh34  1  0.750000  0.380154  0.795816  1
  Rh  Rh35  1  0.250000  0.462870  0.934386  1
