# generated using pymatgen
data_Pr8Ho11ScGa5Si11
_symmetry_space_group_name_H-M   'P 1'
_cell_length_a   7.52702761
_cell_length_b   7.83243629
_cell_length_c   14.97652541
_cell_angle_alpha   89.99814656
_cell_angle_beta   90.10220355
_cell_angle_gamma   90.04186329
_symmetry_Int_Tables_number   1
_chemical_formula_structural   Pr8Ho11ScGa5Si11
_chemical_formula_sum   'Pr8 Ho11 Sc1 Ga5 Si11'
_cell_volume   882.93887905
_cell_formula_units_Z   1
loop_
 _symmetry_equiv_pos_site_id
 _symmetry_equiv_pos_as_xyz
  1  'x, y, z'
loop_
 _atom_site_type_symbol
 _atom_site_label
 _atom_site_symmetry_multiplicity
 _atom_site_fract_x
 _atom_site_fract_y
 _atom_site_fract_z
 _atom_site_occupancy
  Pr  Pr0  1  0.018569  0.176340  0.401072  1
  Pr  Pr1  1  0.518444  0.323822  0.401219  1
  Pr  Pr2  1  0.482478  0.676939  0.897980  1
  Pr  Pr3  1  0.480890  0.679335  0.600807  1
  Pr  Pr4  1  0.983821  0.818558  0.600476  1
  Pr  Pr5  1  0.983432  0.824288  0.898566  1
  Pr  Pr6  1  0.517226  0.321161  0.100391  1
  Pr  Pr7  1  0.016557  0.177866  0.100665  1
  Ho  Ho8  1  0.324672  0.174195  0.624620  1
  Ho  Ho9  1  0.674977  0.821860  0.376491  1
  Ho  Ho10  1  0.661224  0.993283  0.751439  1
  Ho  Ho11  1  0.174002  0.678163  0.376639  1
  Ho  Ho12  1  0.824730  0.325498  0.875165  1
  Ho  Ho13  1  0.825947  0.327558  0.624513  1
  Ho  Ho14  1  0.839278  0.493237  0.250612  1
  Ho  Ho15  1  0.340307  0.005822  0.251616  1
  Ho  Ho16  1  0.326724  0.176932  0.873565  1
  Ho  Ho17  1  0.172969  0.673378  0.124852  1
  Ho  Ho18  1  0.673069  0.826480  0.124129  1
  Sc  Sc19  1  0.159588  0.502535  0.750486  1
  Ga  Ga20  1  0.154589  0.463650  0.539466  1
  Ga  Ga21  1  0.844245  0.537117  0.038418  1
  Ga  Ga22  1  0.344460  0.962385  0.036777  1
  Ga  Ga23  1  0.154559  0.465093  0.958245  1
  Ga  Ga24  1  0.654944  0.037659  0.538135  1
  Si  Si25  1  0.277729  0.873787  0.749487  1
  Si  Si26  1  0.467310  0.613692  0.251364  1
  Si  Si27  1  0.030975  0.115334  0.749217  1
  Si  Si28  1  0.526287  0.390931  0.749174  1
  Si  Si29  1  0.967888  0.887610  0.250748  1
  Si  Si30  1  0.721734  0.120346  0.251262  1
  Si  Si31  1  0.350719  0.965819  0.460819  1
  Si  Si32  1  0.850293  0.534010  0.460612  1
  Si  Si33  1  0.783861  0.620922  0.749379  1
  Si  Si34  1  0.221699  0.379363  0.251308  1
  Si  Si35  1  0.649803  0.035033  0.960290  1
