# generated using pymatgen
data_Dy7Lu3(In2Ir)4
_symmetry_space_group_name_H-M   'P 1'
_cell_length_a   3.64944700
_cell_length_b   7.98721182
_cell_length_c   18.15971475
_cell_angle_alpha   90.01955166
_cell_angle_beta   90.00000000
_cell_angle_gamma   90.00000000
_symmetry_Int_Tables_number   1
_chemical_formula_structural   Dy7Lu3(In2Ir)4
_chemical_formula_sum   'Dy7 Lu3 In8 Ir4'
_cell_volume   529.33579161
_cell_formula_units_Z   1
loop_
 _symmetry_equiv_pos_site_id
 _symmetry_equiv_pos_as_xyz
  1  'x, y, z'
loop_
 _atom_site_type_symbol
 _atom_site_label
 _atom_site_symmetry_multiplicity
 _atom_site_fract_x
 _atom_site_fract_y
 _atom_site_fract_z
 _atom_site_occupancy
  Dy  Dy0  1  0.000000  0.616190  0.088032  1
  Dy  Dy1  1  0.000000  0.244352  0.221080  1
  Dy  Dy2  1  0.000000  0.756384  0.779217  1
  Dy  Dy3  1  0.000000  0.256020  0.720218  1
  Dy  Dy4  1  0.000000  0.743710  0.280276  1
  Dy  Dy5  1  0.000000  0.999714  0.999572  1
  Dy  Dy6  1  0.000000  0.500126  0.500188  1
  Lu  Lu7  1  0.000000  0.115448  0.410956  1
  Lu  Lu8  1  0.000000  0.884690  0.589308  1
  Lu  Lu9  1  0.000000  0.384504  0.910196  1
  In  In10  1  0.500000  0.421846  0.350966  1
  In  In11  1  0.500000  0.577896  0.649954  1
  In  In12  1  0.500000  0.077661  0.849744  1
  In  In13  1  0.500000  0.925394  0.150476  1
  In  In14  1  0.500000  0.294299  0.065727  1
  In  In15  1  0.500000  0.703299  0.932549  1
  In  In16  1  0.500000  0.201976  0.565349  1
  In  In17  1  0.500000  0.798325  0.434918  1
  Ir  Ir18  1  0.500000  0.024017  0.306047  1
  Ir  Ir19  1  0.500000  0.976097  0.693999  1
  Ir  Ir20  1  0.500000  0.475341  0.805317  1
  Ir  Ir21  1  0.500000  0.522714  0.195910  1
