# generated using pymatgen
data_LuMgCo4Sn5
_symmetry_space_group_name_H-M   'P 1'
_cell_length_a   6.79982572
_cell_length_b   6.65413170
_cell_length_c   6.66611102
_cell_angle_alpha   120.67049662
_cell_angle_beta   121.38541354
_cell_angle_gamma   88.76433186
_symmetry_Int_Tables_number   1
_chemical_formula_structural   LuMgCo4Sn5
_chemical_formula_sum   'Lu1 Mg1 Co4 Sn5'
_cell_volume   208.87470611
_cell_formula_units_Z   1
loop_
 _symmetry_equiv_pos_site_id
 _symmetry_equiv_pos_as_xyz
  1  'x, y, z'
loop_
 _atom_site_type_symbol
 _atom_site_label
 _atom_site_symmetry_multiplicity
 _atom_site_fract_x
 _atom_site_fract_y
 _atom_site_fract_z
 _atom_site_occupancy
  Lu  Lu0  1  0.005027  0.997132  0.000000  1
  Mg  Mg1  1  0.892140  0.527686  0.000000  1
  Co  Co2  1  0.588300  0.257594  0.000000  1
  Co  Co3  1  0.269369  0.604938  0.000000  1
  Co  Co4  1  0.743676  0.749800  0.354855  1
  Co  Co5  1  0.388822  0.394945  0.645146  1
  Sn  Sn6  1  0.548720  0.879147  0.000000  1
  Sn  Sn7  1  0.459530  0.465897  0.347897  1
  Sn  Sn8  1  0.498565  0.004605  0.504350  1
  Sn  Sn9  1  0.994216  0.500255  0.495650  1
  Sn  Sn10  1  0.111634  0.118001  0.652104  1
