# generated using pymatgen
data_Tb3HoPd3RuO14
_symmetry_space_group_name_H-M   'P 1'
_cell_length_a   7.28865333
_cell_length_b   7.28865328
_cell_length_c   7.28865400
_cell_angle_alpha   59.54640123
_cell_angle_beta   59.54640271
_cell_angle_gamma   59.54639670
_symmetry_Int_Tables_number   1
_chemical_formula_structural   Tb3HoPd3RuO14
_chemical_formula_sum   'Tb3 Ho1 Pd3 Ru1 O14'
_cell_volume   270.97218594
_cell_formula_units_Z   1
loop_
 _symmetry_equiv_pos_site_id
 _symmetry_equiv_pos_as_xyz
  1  'x, y, z'
loop_
 _atom_site_type_symbol
 _atom_site_label
 _atom_site_symmetry_multiplicity
 _atom_site_fract_x
 _atom_site_fract_y
 _atom_site_fract_z
 _atom_site_occupancy
  Tb  Tb0  1  0.625000  0.625000  0.125000  1
  Tb  Tb1  1  0.625000  0.125000  0.625000  1
  Tb  Tb2  1  0.125000  0.625000  0.625000  1
  Ho  Ho3  1  0.625000  0.625000  0.625000  1
  Pd  Pd4  1  0.125000  0.125000  0.625000  1
  Pd  Pd5  1  0.125000  0.625000  0.125000  1
  Pd  Pd6  1  0.625000  0.125000  0.125000  1
  Ru  Ru7  1  0.125000  0.125000  0.125000  1
  O  O8  1  0.466840  0.034593  0.466840  1
  O  O9  1  0.215407  0.783160  0.783160  1
  O  O10  1  0.792010  0.211026  0.211026  1
  O  O11  1  0.211026  0.792010  0.211026  1
  O  O12  1  0.783160  0.783160  0.215407  1
  O  O13  1  0.211026  0.211026  0.792010  1
  O  O14  1  0.466840  0.466840  0.034593  1
  O  O15  1  0.034593  0.466840  0.466840  1
  O  O16  1  0.457990  0.038974  0.038974  1
  O  O17  1  0.038974  0.038974  0.457990  1
  O  O18  1  0.783160  0.215407  0.783160  1
  O  O19  1  0.038974  0.457990  0.038974  1
  O  O20  1  0.500872  0.500872  0.500872  1
  O  O21  1  0.749128  0.749128  0.749128  1
