# generated using pymatgen
data_Dy2PaGa6(CuNi2)3
_symmetry_space_group_name_H-M   'P 1'
_cell_length_a   4.16931200
_cell_length_b   8.73149243
_cell_length_c   8.73149200
_cell_angle_alpha   59.99090920
_cell_angle_beta   90.00000000
_cell_angle_gamma   90.00000000
_symmetry_Int_Tables_number   1
_chemical_formula_structural   Dy2PaGa6(CuNi2)3
_chemical_formula_sum   'Dy2 Pa1 Ga6 Cu3 Ni6'
_cell_volume   275.25307478
_cell_formula_units_Z   1
loop_
 _symmetry_equiv_pos_site_id
 _symmetry_equiv_pos_as_xyz
  1  'x, y, z'
loop_
 _atom_site_type_symbol
 _atom_site_label
 _atom_site_symmetry_multiplicity
 _atom_site_fract_x
 _atom_site_fract_y
 _atom_site_fract_z
 _atom_site_occupancy
  Dy  Dy0  1  0.500000  0.333373  0.333387  1
  Dy  Dy1  1  0.500000  0.666613  0.666627  1
  Pa  Pa2  1  0.000000  0.000100  0.999900  1
  Ga  Ga3  1  0.000000  0.512072  0.487928  1
  Ga  Ga4  1  0.000000  0.487838  0.000170  1
  Ga  Ga5  1  0.000000  0.999830  0.512162  1
  Ga  Ga6  1  0.500000  0.282629  0.717371  1
  Ga  Ga7  1  0.500000  0.717142  0.999959  1
  Ga  Ga8  1  0.500000  0.000041  0.282858  1
  Cu  Cu9  1  0.500000  0.703177  0.296823  1
  Cu  Cu10  1  0.500000  0.296944  0.000042  1
  Cu  Cu11  1  0.500000  0.999958  0.703056  1
  Ni  Ni12  1  0.000000  0.173165  0.188759  1
  Ni  Ni13  1  0.000000  0.188749  0.637948  1
  Ni  Ni14  1  0.000000  0.638209  0.173233  1
  Ni  Ni15  1  0.000000  0.811241  0.826835  1
  Ni  Ni16  1  0.000000  0.362052  0.811251  1
  Ni  Ni17  1  0.000000  0.826767  0.361791  1
