# generated using pymatgen
data_K4TlBiF10
_symmetry_space_group_name_H-M   'P 1'
_cell_length_a   6.85436999
_cell_length_b   7.51295600
_cell_length_c   11.22930600
_cell_angle_alpha   90.00000000
_cell_angle_beta   89.44809588
_cell_angle_gamma   90.00000000
_symmetry_Int_Tables_number   1
_chemical_formula_structural   K4TlBiF10
_chemical_formula_sum   'K8 Tl2 Bi2 F20'
_cell_volume   578.24402906
_cell_formula_units_Z   2
loop_
 _symmetry_equiv_pos_site_id
 _symmetry_equiv_pos_as_xyz
  1  'x, y, z'
loop_
 _atom_site_type_symbol
 _atom_site_label
 _atom_site_symmetry_multiplicity
 _atom_site_fract_x
 _atom_site_fract_y
 _atom_site_fract_z
 _atom_site_occupancy
  K  K0  1  0.536102  0.996162  0.825211  1
  K  K1  1  0.463959  0.496317  0.174923  1
  K  K2  1  0.967381  0.998231  0.332766  1
  K  K3  1  0.032710  0.498278  0.667550  1
  K  K4  1  0.536102  0.503838  0.825211  1
  K  K5  1  0.463959  0.003683  0.174923  1
  K  K6  1  0.967381  0.501769  0.332766  1
  K  K7  1  0.032710  0.001722  0.667550  1
  Tl  Tl8  1  0.561243  0.250000  0.500149  1
  Tl  Tl9  1  0.439069  0.750000  0.499645  1
  Bi  Bi10  1  0.934821  0.250000  0.003802  1
  Bi  Bi11  1  0.064603  0.750000  0.996304  1
  F  F12  1  0.870224  0.750000  0.827502  1
  F  F13  1  0.129429  0.250000  0.172448  1
  F  F14  1  0.619130  0.750000  0.337538  1
  F  F15  1  0.382072  0.250000  0.662536  1
  F  F16  1  0.841654  0.250000  0.807955  1
  F  F17  1  0.158003  0.750000  0.192138  1
  F  F18  1  0.661730  0.250000  0.310947  1
  F  F19  1  0.339096  0.750000  0.689012  1
  F  F20  1  0.648820  0.962753  0.574568  1
  F  F21  1  0.351493  0.462793  0.424896  1
  F  F22  1  0.845880  0.962500  0.078677  1
  F  F23  1  0.153260  0.462611  0.921210  1
  F  F24  1  0.400519  0.750000  0.986541  1
  F  F25  1  0.598874  0.250000  0.013466  1
  F  F26  1  0.112740  0.750000  0.487188  1
  F  F27  1  0.887588  0.250000  0.513230  1
  F  F28  1  0.153260  0.037389  0.921210  1
  F  F29  1  0.845880  0.537500  0.078677  1
  F  F30  1  0.351493  0.037207  0.424896  1
  F  F31  1  0.648820  0.537247  0.574568  1
