# generated using pymatgen
data_ScTa5(B2Os5)2
_symmetry_space_group_name_H-M   'P 1'
_cell_length_a   9.54137026
_cell_length_b   9.54137040
_cell_length_c   3.05226700
_cell_angle_alpha   90.00000000
_cell_angle_beta   90.00000000
_cell_angle_gamma   90.07838307
_symmetry_Int_Tables_number   1
_chemical_formula_structural   ScTa5(B2Os5)2
_chemical_formula_sum   'Sc1 Ta5 B4 Os10'
_cell_volume   277.87125320
_cell_formula_units_Z   1
loop_
 _symmetry_equiv_pos_site_id
 _symmetry_equiv_pos_as_xyz
  1  'x, y, z'
loop_
 _atom_site_type_symbol
 _atom_site_label
 _atom_site_symmetry_multiplicity
 _atom_site_fract_x
 _atom_site_fract_y
 _atom_site_fract_z
 _atom_site_occupancy
  Sc  Sc0  1  0.823517  0.676483  0.000000  1
  Ta  Ta1  1  0.177720  0.322280  0.000000  1
  Ta  Ta2  1  0.323808  0.822088  0.000000  1
  Ta  Ta3  1  0.677912  0.176192  0.000000  1
  Ta  Ta4  1  0.501971  0.501139  0.000000  1
  Ta  Ta5  1  0.998861  0.998029  0.000000  1
  B  B6  1  0.622832  0.877168  0.000000  1
  B  B7  1  0.378386  0.121614  0.000000  1
  B  B8  1  0.119295  0.621177  0.000000  1
  B  B9  1  0.878823  0.380705  0.000000  1
  Os  Os10  1  0.563791  0.721675  0.500000  1
  Os  Os11  1  0.427005  0.282910  0.500000  1
  Os  Os12  1  0.077589  0.782449  0.500000  1
  Os  Os13  1  0.929763  0.217467  0.500000  1
  Os  Os14  1  0.282533  0.570237  0.500000  1
  Os  Os15  1  0.717551  0.422411  0.500000  1
  Os  Os16  1  0.217090  0.072995  0.500000  1
  Os  Os17  1  0.778325  0.936209  0.500000  1
  Os  Os18  1  0.497959  0.002041  0.500000  1
  Os  Os19  1  0.005269  0.494731  0.500000  1
