# generated using pymatgen
data_Ca4YU5O18
_symmetry_space_group_name_H-M   'P 1'
_cell_length_a   6.87800057
_cell_length_b   7.52274738
_cell_length_c   8.48658231
_cell_angle_alpha   99.44291533
_cell_angle_beta   98.87101629
_cell_angle_gamma   107.35297355
_symmetry_Int_Tables_number   1
_chemical_formula_structural   Ca4YU5O18
_chemical_formula_sum   'Ca4 Y1 U5 O18'
_cell_volume   403.70548578
_cell_formula_units_Z   1
loop_
 _symmetry_equiv_pos_site_id
 _symmetry_equiv_pos_as_xyz
  1  'x, y, z'
loop_
 _atom_site_type_symbol
 _atom_site_label
 _atom_site_symmetry_multiplicity
 _atom_site_fract_x
 _atom_site_fract_y
 _atom_site_fract_z
 _atom_site_occupancy
  Ca  Ca0  1  0.794616  0.102973  0.582301  1
  Ca  Ca1  1  0.593082  0.697664  0.197185  1
  Ca  Ca2  1  0.406918  0.302336  0.802815  1
  Ca  Ca3  1  0.205384  0.897027  0.417699  1
  Y  Y4  1  0.000000  0.500000  0.000000  1
  U  U5  1  0.000000  0.000000  0.000000  1
  U  U6  1  0.790277  0.578766  0.588434  1
  U  U7  1  0.625377  0.201363  0.194380  1
  U  U8  1  0.374623  0.798637  0.805620  1
  U  U9  1  0.209723  0.421234  0.411566  1
  O  O10  1  0.817789  0.795023  0.471107  1
  O  O11  1  0.999131  0.253017  0.165622  1
  O  O12  1  0.681076  0.417961  0.064256  1
  O  O13  1  0.462099  0.002764  0.679295  1
  O  O14  1  0.860755  0.339210  0.425675  1
  O  O15  1  0.503997  0.402918  0.343978  1
  O  O16  1  0.244150  0.615956  0.269011  1
  O  O17  1  0.989145  0.820099  0.156361  1
  O  O18  1  0.659504  0.927849  0.002701  1
  O  O19  1  0.340496  0.072151  0.997299  1
  O  O20  1  0.010855  0.179901  0.843639  1
  O  O21  1  0.755850  0.384044  0.730989  1
  O  O22  1  0.496003  0.597082  0.656022  1
  O  O23  1  0.139245  0.660790  0.574325  1
  O  O24  1  0.537901  0.997236  0.320705  1
  O  O25  1  0.318924  0.582039  0.935744  1
  O  O26  1  0.000869  0.746983  0.834378  1
  O  O27  1  0.182211  0.204977  0.528893  1
