# generated using pymatgen
data_Li2Er2LuIn4
_symmetry_space_group_name_H-M   'P 1'
_cell_length_a   7.26312205
_cell_length_b   7.21334148
_cell_length_c   4.68913600
_cell_angle_alpha   90.00000000
_cell_angle_beta   90.00000000
_cell_angle_gamma   119.02862617
_symmetry_Int_Tables_number   1
_chemical_formula_structural   Li2Er2LuIn4
_chemical_formula_sum   'Li2 Er2 Lu1 In4'
_cell_volume   214.80855597
_cell_formula_units_Z   1
loop_
 _symmetry_equiv_pos_site_id
 _symmetry_equiv_pos_as_xyz
  1  'x, y, z'
loop_
 _atom_site_type_symbol
 _atom_site_label
 _atom_site_symmetry_multiplicity
 _atom_site_fract_x
 _atom_site_fract_y
 _atom_site_fract_z
 _atom_site_occupancy
  Li  Li0  1  0.231269  0.003233  0.500000  1
  Li  Li1  1  0.003278  0.232936  0.500000  1
  Er  Er2  1  0.994939  0.554453  0.000000  1
  Er  Er3  1  0.448504  0.447209  0.000000  1
  Lu  Lu4  1  0.553914  0.993605  0.000000  1
  In  In5  1  0.769190  0.768754  0.500000  1
  In  In6  1  0.318236  0.663441  0.500000  1
  In  In7  1  0.659850  0.311639  0.500000  1
  In  In8  1  0.020820  0.024730  0.000000  1
