# generated using pymatgen
data_Dy2YNi8Ir
_symmetry_space_group_name_H-M   'P 1'
_cell_length_a   4.97781409
_cell_length_b   4.97781299
_cell_length_c   8.75901103
_cell_angle_alpha   73.49172847
_cell_angle_beta   73.49172349
_cell_angle_gamma   60.00002559
_symmetry_Int_Tables_number   1
_chemical_formula_structural   Dy2YNi8Ir
_chemical_formula_sum   'Dy2 Y1 Ni8 Ir1'
_cell_volume   177.55330644
_cell_formula_units_Z   1
loop_
 _symmetry_equiv_pos_site_id
 _symmetry_equiv_pos_as_xyz
  1  'x, y, z'
loop_
 _atom_site_type_symbol
 _atom_site_label
 _atom_site_symmetry_multiplicity
 _atom_site_fract_x
 _atom_site_fract_y
 _atom_site_fract_z
 _atom_site_occupancy
  Dy  Dy0  1  0.138629  0.138629  0.584113  1
  Dy  Dy1  1  0.861371  0.861371  0.415887  1
  Y  Y2  1  0.000000  0.000000  0.000000  1
  Ni  Ni3  1  0.077417  0.581453  0.759677  1
  Ni  Ni4  1  0.581453  0.581453  0.759677  1
  Ni  Ni5  1  0.581453  0.077417  0.759677  1
  Ni  Ni6  1  0.922583  0.418547  0.240323  1
  Ni  Ni7  1  0.418547  0.418547  0.240323  1
  Ni  Ni8  1  0.418547  0.922583  0.240323  1
  Ni  Ni9  1  0.333134  0.333134  0.000597  1
  Ni  Ni10  1  0.666866  0.666866  0.999403  1
  Ir  Ir11  1  0.500000  0.500000  0.500000  1
