# generated using pymatgen
data_Tb4TlPd11
_symmetry_space_group_name_H-M   'P 1'
_cell_length_a   4.18451700
_cell_length_b   5.92688076
_cell_length_c   11.78898724
_cell_angle_alpha   87.46648212
_cell_angle_beta   90.00000000
_cell_angle_gamma   90.00000000
_symmetry_Int_Tables_number   1
_chemical_formula_structural   Tb4TlPd11
_chemical_formula_sum   'Tb4 Tl1 Pd11'
_cell_volume   292.09445188
_cell_formula_units_Z   1
loop_
 _symmetry_equiv_pos_site_id
 _symmetry_equiv_pos_as_xyz
  1  'x, y, z'
loop_
 _atom_site_type_symbol
 _atom_site_label
 _atom_site_symmetry_multiplicity
 _atom_site_fract_x
 _atom_site_fract_y
 _atom_site_fract_z
 _atom_site_occupancy
  Tb  Tb0  1  0.500000  0.758391  0.378046  1
  Tb  Tb1  1  0.500000  0.713698  0.858878  1
  Tb  Tb2  1  0.500000  0.286302  0.141122  1
  Tb  Tb3  1  0.500000  0.241609  0.621954  1
  Tl  Tl4  1  0.000000  0.000000  0.000000  1
  Pd  Pd5  1  0.000000  0.019725  0.253153  1
  Pd  Pd6  1  0.000000  0.980275  0.746847  1
  Pd  Pd7  1  0.000000  0.500000  0.000000  1
  Pd  Pd8  1  0.000000  0.500000  0.500000  1
  Pd  Pd9  1  0.000000  0.523266  0.250922  1
  Pd  Pd10  1  0.000000  0.476734  0.749078  1
  Pd  Pd11  1  0.500000  0.259076  0.377672  1
  Pd  Pd12  1  0.500000  0.228175  0.878539  1
  Pd  Pd13  1  0.500000  0.771825  0.121461  1
  Pd  Pd14  1  0.500000  0.740924  0.622328  1
  Pd  Pd15  1  0.000000  0.000000  0.500000  1
