# generated using pymatgen
data_Ho2BeSiBr2
_symmetry_space_group_name_H-M   'P 1'
_cell_length_a   3.87884700
_cell_length_b   3.87884485
_cell_length_c   11.28329600
_cell_angle_alpha   90.00000000
_cell_angle_beta   90.00000000
_cell_angle_gamma   119.99997570
_symmetry_Int_Tables_number   1
_chemical_formula_structural   Ho2BeSiBr2
_chemical_formula_sum   'Ho2 Be1 Si1 Br2'
_cell_volume   147.01842887
_cell_formula_units_Z   1
loop_
 _symmetry_equiv_pos_site_id
 _symmetry_equiv_pos_as_xyz
  1  'x, y, z'
loop_
 _atom_site_type_symbol
 _atom_site_label
 _atom_site_symmetry_multiplicity
 _atom_site_fract_x
 _atom_site_fract_y
 _atom_site_fract_z
 _atom_site_occupancy
  Ho  Ho0  1  0.000000  0.000000  0.171909  1
  Ho  Ho1  1  0.000000  0.000000  0.826114  1
  Be  Be2  1  0.333333  0.666667  0.011796  1
  Si  Si3  1  0.666667  0.333333  0.990814  1
  Br  Br4  1  0.333333  0.666667  0.662367  1
  Br  Br5  1  0.666667  0.333333  0.337000  1
