# generated using pymatgen
data_Sr3Tb(Sn2Pd)4
_symmetry_space_group_name_H-M   'P 1'
_cell_length_a   9.06887204
_cell_length_b   9.06887050
_cell_length_c   9.77306400
_cell_angle_alpha   90.00000000
_cell_angle_beta   90.00000000
_cell_angle_gamma   149.34740406
_symmetry_Int_Tables_number   1
_chemical_formula_structural   Sr3Tb(Sn2Pd)4
_chemical_formula_sum   'Sr3 Tb1 Sn8 Pd4'
_cell_volume   409.79225378
_cell_formula_units_Z   1
loop_
 _symmetry_equiv_pos_site_id
 _symmetry_equiv_pos_as_xyz
  1  'x, y, z'
loop_
 _atom_site_type_symbol
 _atom_site_label
 _atom_site_symmetry_multiplicity
 _atom_site_fract_x
 _atom_site_fract_y
 _atom_site_fract_z
 _atom_site_occupancy
  Sr  Sr0  1  0.500411  0.499589  0.500659  1
  Sr  Sr1  1  0.500411  0.499589  0.999341  1
  Sr  Sr2  1  0.700207  0.299793  0.750000  1
  Tb  Tb3  1  0.297670  0.702330  0.250000  1
  Sn  Sn4  1  0.908250  0.091750  0.750000  1
  Sn  Sn5  1  0.923309  0.076691  0.250000  1
  Sn  Sn6  1  0.090662  0.909338  0.250000  1
  Sn  Sn7  1  0.072077  0.927923  0.750000  1
  Sn  Sn8  1  0.697888  0.302112  0.403824  1
  Sn  Sn9  1  0.304327  0.695673  0.591416  1
  Sn  Sn10  1  0.304327  0.695673  0.908584  1
  Sn  Sn11  1  0.697888  0.302112  0.096176  1
  Pd  Pd12  1  0.151591  0.848409  0.503370  1
  Pd  Pd13  1  0.849695  0.150305  0.008171  1
  Pd  Pd14  1  0.151591  0.848409  0.996630  1
  Pd  Pd15  1  0.849695  0.150305  0.491829  1
