# generated using pymatgen
data_CeLu7(InCo)2
_symmetry_space_group_name_H-M   'P 1'
_cell_length_a   9.34298893
_cell_length_b   9.34298880
_cell_length_c   9.42274300
_cell_angle_alpha   59.71721513
_cell_angle_beta   59.71721560
_cell_angle_gamma   59.79988187
_symmetry_Int_Tables_number   1
_chemical_formula_structural   CeLu7(InCo)2
_chemical_formula_sum   'Ce2 Lu14 In4 Co4'
_cell_volume   578.24109297
_cell_formula_units_Z   2
loop_
 _symmetry_equiv_pos_site_id
 _symmetry_equiv_pos_as_xyz
  1  'x, y, z'
loop_
 _atom_site_type_symbol
 _atom_site_label
 _atom_site_symmetry_multiplicity
 _atom_site_fract_x
 _atom_site_fract_y
 _atom_site_fract_z
 _atom_site_occupancy
  Ce  Ce0  1  0.587412  0.587412  0.598124  1
  Ce  Ce1  1  0.587412  0.587412  0.227053  1
  Lu  Lu2  1  0.600950  0.200232  0.599410  1
  Lu  Lu3  1  0.200232  0.600950  0.599410  1
  Lu  Lu4  1  0.064406  0.438724  0.436430  1
  Lu  Lu5  1  0.438724  0.064406  0.060440  1
  Lu  Lu6  1  0.438724  0.064406  0.436430  1
  Lu  Lu7  1  0.064406  0.438724  0.060440  1
  Lu  Lu8  1  0.437839  0.437839  0.062161  1
  Lu  Lu9  1  0.063447  0.063447  0.436553  1
  Lu  Lu10  1  0.187458  0.811594  0.812803  1
  Lu  Lu11  1  0.811594  0.187458  0.188145  1
  Lu  Lu12  1  0.811594  0.187458  0.812803  1
  Lu  Lu13  1  0.187458  0.811594  0.188145  1
  Lu  Lu14  1  0.809192  0.809192  0.190808  1
  Lu  Lu15  1  0.188057  0.188057  0.811943  1
  In  In16  1  0.832602  0.832602  0.835160  1
  In  In17  1  0.832602  0.832602  0.499636  1
  In  In18  1  0.832625  0.500256  0.833559  1
  In  In19  1  0.500256  0.832625  0.833559  1
  Co  Co20  1  0.400206  0.400206  0.381527  1
  Co  Co21  1  0.400206  0.400206  0.818059  1
  Co  Co22  1  0.403248  0.819350  0.388700  1
  Co  Co23  1  0.819350  0.403248  0.388700  1
