# generated using pymatgen
data_Ta8V3B8Mo
_symmetry_space_group_name_H-M   'P 1'
_cell_length_a   3.26791700
_cell_length_b   6.04494429
_cell_length_c   12.07998007
_cell_angle_alpha   89.98862649
_cell_angle_beta   90.00000000
_cell_angle_gamma   90.00000000
_symmetry_Int_Tables_number   1
_chemical_formula_structural   Ta8V3B8Mo
_chemical_formula_sum   'Ta8 V3 B8 Mo1'
_cell_volume   238.63246622
_cell_formula_units_Z   1
loop_
 _symmetry_equiv_pos_site_id
 _symmetry_equiv_pos_as_xyz
  1  'x, y, z'
loop_
 _atom_site_type_symbol
 _atom_site_label
 _atom_site_symmetry_multiplicity
 _atom_site_fract_x
 _atom_site_fract_y
 _atom_site_fract_z
 _atom_site_occupancy
  Ta  Ta0  1  0.500000  0.822701  0.092014  1
  Ta  Ta1  1  0.500000  0.819953  0.589307  1
  Ta  Ta2  1  0.500000  0.177299  0.907986  1
  Ta  Ta3  1  0.500000  0.180047  0.410693  1
  Ta  Ta4  1  0.500000  0.682257  0.837674  1
  Ta  Ta5  1  0.500000  0.680195  0.341061  1
  Ta  Ta6  1  0.500000  0.317743  0.162326  1
  Ta  Ta7  1  0.500000  0.319805  0.658939  1
  V  V8  1  0.000000  0.500000  0.500000  1
  V  V9  1  0.000000  0.000045  0.748984  1
  V  V10  1  0.000000  0.999955  0.251016  1
  B  B11  1  0.000000  0.389684  0.802583  1
  B  B12  1  0.000000  0.390816  0.306284  1
  B  B13  1  0.000000  0.610316  0.197417  1
  B  B14  1  0.000000  0.609184  0.693716  1
  B  B15  1  0.000000  0.108136  0.055389  1
  B  B16  1  0.000000  0.108899  0.554605  1
  B  B17  1  0.000000  0.891864  0.944611  1
  B  B18  1  0.000000  0.891101  0.445395  1
  Mo  Mo19  1  0.000000  0.500000  0.000000  1
