# generated using pymatgen
data_NaNp11S20
_symmetry_space_group_name_H-M   'P 1'
_cell_length_a   11.50958159
_cell_length_b   7.94245006
_cell_length_c   7.32700436
_cell_angle_alpha   90.06127619
_cell_angle_beta   90.06591625
_cell_angle_gamma   90.08007481
_symmetry_Int_Tables_number   1
_chemical_formula_structural   NaNp11S20
_chemical_formula_sum   'Na1 Np11 S20'
_cell_volume   669.79132450
_cell_formula_units_Z   1
loop_
 _symmetry_equiv_pos_site_id
 _symmetry_equiv_pos_as_xyz
  1  'x, y, z'
loop_
 _atom_site_type_symbol
 _atom_site_label
 _atom_site_symmetry_multiplicity
 _atom_site_fract_x
 _atom_site_fract_y
 _atom_site_fract_z
 _atom_site_occupancy
  Na  Na0  1  0.322074  0.503701  0.026549  1
  Np  Np1  1  0.321281  0.995391  0.018128  1
  Np  Np2  1  0.013935  0.250194  0.073032  1
  Np  Np3  1  0.507059  0.252546  0.420478  1
  Np  Np4  1  0.825925  0.502598  0.475697  1
  Np  Np5  1  0.820657  0.997387  0.480378  1
  Np  Np6  1  0.176519  0.002332  0.523994  1
  Np  Np7  1  0.184960  0.497699  0.520022  1
  Np  Np8  1  0.490270  0.753499  0.576781  1
  Np  Np9  1  0.990747  0.747889  0.925233  1
  Np  Np10  1  0.680869  0.002882  0.980866  1
  Np  Np11  1  0.672891  0.495181  0.978582  1
  S  S12  1  0.506462  0.237744  0.038800  1
  S  S13  1  0.083961  0.548380  0.179526  1
  S  S14  1  0.094586  0.951226  0.169115  1
  S  S15  1  0.808916  0.751872  0.167823  1
  S  S16  1  0.785734  0.251280  0.200464  1
  S  S17  1  0.278939  0.240163  0.301028  1
  S  S18  1  0.308305  0.760943  0.341117  1
  S  S19  1  0.599572  0.547261  0.333113  1
  S  S20  1  0.597824  0.955200  0.335772  1
  S  S21  1  0.000182  0.247262  0.461656  1
  S  S22  1  0.999576  0.750838  0.540215  1
  S  S23  1  0.405021  0.048601  0.667267  1
  S  S24  1  0.404215  0.457291  0.656259  1
  S  S25  1  0.689535  0.250098  0.666156  1
  S  S26  1  0.719159  0.747845  0.699707  1
  S  S27  1  0.216801  0.756197  0.795958  1
  S  S28  1  0.184390  0.234192  0.818287  1
  S  S29  1  0.902338  0.045503  0.834628  1
  S  S30  1  0.901712  0.453817  0.832997  1
  S  S31  1  0.505585  0.762988  0.960371  1
