# generated using pymatgen
data_Sm5YRhBr10
_symmetry_space_group_name_H-M   'P 1'
_cell_length_a   7.50744631
_cell_length_b   9.34384588
_cell_length_c   9.49950717
_cell_angle_alpha   108.16624554
_cell_angle_beta   96.52916325
_cell_angle_gamma   105.14616022
_symmetry_Int_Tables_number   1
_chemical_formula_structural   Sm5YRhBr10
_chemical_formula_sum   'Sm5 Y1 Rh1 Br10'
_cell_volume   597.16769496
_cell_formula_units_Z   1
loop_
 _symmetry_equiv_pos_site_id
 _symmetry_equiv_pos_as_xyz
  1  'x, y, z'
loop_
 _atom_site_type_symbol
 _atom_site_label
 _atom_site_symmetry_multiplicity
 _atom_site_fract_x
 _atom_site_fract_y
 _atom_site_fract_z
 _atom_site_occupancy
  Sm  Sm0  1  0.466226  0.793191  0.590390  1
  Sm  Sm1  1  0.531023  0.205860  0.407884  1
  Sm  Sm2  1  0.369576  0.449833  0.747515  1
  Sm  Sm3  1  0.626324  0.547989  0.251442  1
  Sm  Sm4  1  0.865063  0.637705  0.681761  1
  Y  Y5  1  0.139315  0.365917  0.322348  1
  Rh  Rh6  1  0.499942  0.499911  0.500531  1
  Br  Br7  1  0.412618  0.128706  0.669638  1
  Br  Br8  1  0.585025  0.869508  0.327998  1
  Br  Br9  1  0.048436  0.675193  0.415219  1
  Br  Br10  1  0.952642  0.320901  0.579303  1
  Br  Br11  1  0.286528  0.755283  0.846770  1
  Br  Br12  1  0.727155  0.248551  0.159291  1
  Br  Br13  1  0.247121  0.413665  0.048982  1
  Br  Br14  1  0.746912  0.581312  0.953193  1
  Br  Br15  1  0.847516  0.953798  0.769043  1
  Br  Br16  1  0.148580  0.052677  0.228690  1
