# generated using pymatgen
data_Ca2TbY(BO4)2
_symmetry_space_group_name_H-M   'P 1'
_cell_length_a   10.53070600
_cell_length_b   9.73155100
_cell_length_c   3.62469200
_cell_angle_alpha   90.00000000
_cell_angle_beta   90.00000000
_cell_angle_gamma   90.00000000
_symmetry_Int_Tables_number   1
_chemical_formula_structural   Ca2TbY(BO4)2
_chemical_formula_sum   'Ca4 Tb2 Y2 B4 O16'
_cell_volume   371.45880771
_cell_formula_units_Z   2
loop_
 _symmetry_equiv_pos_site_id
 _symmetry_equiv_pos_as_xyz
  1  'x, y, z'
loop_
 _atom_site_type_symbol
 _atom_site_label
 _atom_site_symmetry_multiplicity
 _atom_site_fract_x
 _atom_site_fract_y
 _atom_site_fract_z
 _atom_site_occupancy
  Ca  Ca0  1  0.083145  0.672891  0.249999  1
  Ca  Ca1  1  0.583145  0.827109  0.249999  1
  Ca  Ca2  1  0.416821  0.172293  0.750000  1
  Ca  Ca3  1  0.916821  0.327708  0.750000  1
  Tb  Tb4  1  0.112921  0.087705  0.249999  1
  Tb  Tb5  1  0.612920  0.412295  0.249999  1
  Y  Y6  1  0.386395  0.587101  0.750000  1
  Y  Y7  1  0.886394  0.912899  0.750000  1
  B  B8  1  0.699010  0.132224  0.249999  1
  B  B9  1  0.199011  0.367776  0.249999  1
  B  B10  1  0.801682  0.631640  0.750000  1
  B  B11  1  0.301683  0.868360  0.750000  1
  O  O12  1  0.567443  0.152668  0.249999  1
  O  O13  1  0.276975  0.251544  0.249999  1
  O  O14  1  0.776975  0.248456  0.249999  1
  O  O15  1  0.067442  0.347332  0.249999  1
  O  O16  1  0.248207  0.500262  0.249999  1
  O  O17  1  0.504683  0.613528  0.249999  1
  O  O18  1  0.004682  0.886472  0.249999  1
  O  O19  1  0.748208  0.999738  0.249999  1
  O  O20  1  0.251147  0.000165  0.750000  1
  O  O21  1  0.993678  0.113215  0.750000  1
  O  O22  1  0.493678  0.386784  0.750000  1
  O  O23  1  0.751148  0.499835  0.750000  1
  O  O24  1  0.933397  0.650477  0.750000  1
  O  O25  1  0.224496  0.751287  0.750000  1
  O  O26  1  0.724496  0.748712  0.750000  1
  O  O27  1  0.433396  0.849523  0.750000  1
