# generated using pymatgen
data_Ho2ErCd3GaAu2
_symmetry_space_group_name_H-M   'P 1'
_cell_length_a   7.71049802
_cell_length_b   7.71049907
_cell_length_c   3.95322400
_cell_angle_alpha   90.00000000
_cell_angle_beta   90.00000000
_cell_angle_gamma   119.99108372
_symmetry_Int_Tables_number   1
_chemical_formula_structural   Ho2ErCd3GaAu2
_chemical_formula_sum   'Ho2 Er1 Cd3 Ga1 Au2'
_cell_volume   203.55697445
_cell_formula_units_Z   1
loop_
 _symmetry_equiv_pos_site_id
 _symmetry_equiv_pos_as_xyz
  1  'x, y, z'
loop_
 _atom_site_type_symbol
 _atom_site_label
 _atom_site_symmetry_multiplicity
 _atom_site_fract_x
 _atom_site_fract_y
 _atom_site_fract_z
 _atom_site_occupancy
  Ho  Ho0  1  0.591161  0.999996  0.000000  1
  Ho  Ho1  1  0.999996  0.591161  0.000000  1
  Er  Er2  1  0.408823  0.408823  0.000000  1
  Cd  Cd3  1  0.254084  0.000047  0.500000  1
  Cd  Cd4  1  0.000047  0.254084  0.500000  1
  Cd  Cd5  1  0.745891  0.745891  0.500000  1
  Ga  Ga6  1  0.000042  0.000042  0.000000  1
  Au  Au7  1  0.333377  0.666579  0.500000  1
  Au  Au8  1  0.666579  0.333377  0.500000  1
