# generated using pymatgen
data_Tb16InAg3(IrPt)2
_symmetry_space_group_name_H-M   'P 1'
_cell_length_a   9.65467766
_cell_length_b   9.65467808
_cell_length_c   9.54981199
_cell_angle_alpha   60.24201480
_cell_angle_beta   60.24201451
_cell_angle_gamma   60.44239515
_symmetry_Int_Tables_number   1
_chemical_formula_structural   Tb16InAg3(IrPt)2
_chemical_formula_sum   'Tb16 In1 Ag3 Ir2 Pt2'
_cell_volume   633.83475488
_cell_formula_units_Z   1
loop_
 _symmetry_equiv_pos_site_id
 _symmetry_equiv_pos_as_xyz
  1  'x, y, z'
loop_
 _atom_site_type_symbol
 _atom_site_label
 _atom_site_symmetry_multiplicity
 _atom_site_fract_x
 _atom_site_fract_y
 _atom_site_fract_z
 _atom_site_occupancy
  Tb  Tb0  1  0.106196  0.690226  0.103710  1
  Tb  Tb1  1  0.940745  0.940745  0.559212  1
  Tb  Tb2  1  0.943977  0.555593  0.939712  1
  Tb  Tb3  1  0.316569  0.689121  0.307872  1
  Tb  Tb4  1  0.937594  0.556756  0.563681  1
  Tb  Tb5  1  0.314918  0.314918  0.681505  1
  Tb  Tb6  1  0.100538  0.100538  0.097962  1
  Tb  Tb7  1  0.559238  0.559238  0.939490  1
  Tb  Tb8  1  0.104344  0.104344  0.693269  1
  Tb  Tb9  1  0.689679  0.314731  0.683348  1
  Tb  Tb10  1  0.687462  0.687462  0.310246  1
  Tb  Tb11  1  0.689121  0.316569  0.307872  1
  Tb  Tb12  1  0.314731  0.689679  0.683348  1
  Tb  Tb13  1  0.556756  0.937594  0.563681  1
  Tb  Tb14  1  0.690226  0.106196  0.103710  1
  Tb  Tb15  1  0.555593  0.943977  0.939712  1
  In  In16  1  0.328649  0.328649  0.012788  1
  Ag  Ag17  1  0.333019  0.333019  0.333673  1
  Ag  Ag18  1  0.999714  0.333621  0.334548  1
  Ag  Ag19  1  0.333621  0.999714  0.334548  1
  Ir  Ir20  1  0.322647  0.890396  0.894951  1
  Ir  Ir21  1  0.890396  0.322647  0.894951  1
  Pt  Pt22  1  0.892807  0.892807  0.894915  1
  Pt  Pt23  1  0.891456  0.891456  0.321296  1
