# generated using pymatgen
data_Nd16CdCo(HgPt)3
_symmetry_space_group_name_H-M   'P 1'
_cell_length_a   9.90580678
_cell_length_b   9.93358480
_cell_length_c   9.93356109
_cell_angle_alpha   60.19056257
_cell_angle_beta   60.12696867
_cell_angle_gamma   60.12420295
_symmetry_Int_Tables_number   1
_chemical_formula_structural   Nd16CdCo(HgPt)3
_chemical_formula_sum   'Nd16 Cd1 Co1 Hg3 Pt3'
_cell_volume   693.47617152
_cell_formula_units_Z   1
loop_
 _symmetry_equiv_pos_site_id
 _symmetry_equiv_pos_as_xyz
  1  'x, y, z'
loop_
 _atom_site_type_symbol
 _atom_site_label
 _atom_site_symmetry_multiplicity
 _atom_site_fract_x
 _atom_site_fract_y
 _atom_site_fract_z
 _atom_site_occupancy
  Nd  Nd0  1  0.352773  0.351706  0.351700  1
  Nd  Nd1  1  0.346933  0.346391  0.949925  1
  Nd  Nd2  1  0.346942  0.949921  0.346390  1
  Nd  Nd3  1  0.947089  0.347704  0.347696  1
  Nd  Nd4  1  0.819738  0.189724  0.189710  1
  Nd  Nd5  1  0.188966  0.809405  0.809415  1
  Nd  Nd6  1  0.188016  0.820372  0.189654  1
  Nd  Nd7  1  0.807723  0.191014  0.808477  1
  Nd  Nd8  1  0.188006  0.189662  0.820370  1
  Nd  Nd9  1  0.807722  0.808474  0.191016  1
  Nd  Nd10  1  0.938389  0.561975  0.561985  1
  Nd  Nd11  1  0.561194  0.935944  0.935950  1
  Nd  Nd12  1  0.561149  0.939145  0.562014  1
  Nd  Nd13  1  0.935864  0.562111  0.935607  1
  Nd  Nd14  1  0.561165  0.562015  0.939133  1
  Nd  Nd15  1  0.935855  0.935600  0.562133  1
  Cd  Cd16  1  0.261367  0.580237  0.580239  1
  Co  Co17  1  0.142226  0.142981  0.142975  1
  Hg  Hg18  1  0.582591  0.584714  0.584718  1
  Hg  Hg19  1  0.583825  0.586784  0.244982  1
  Hg  Hg20  1  0.583830  0.244980  0.586783  1
  Pt  Pt21  1  0.143795  0.144230  0.570795  1
  Pt  Pt22  1  0.143787  0.570795  0.144225  1
  Pt  Pt23  1  0.571052  0.144113  0.144106  1
