# generated using pymatgen
data_Sr3La(NiH6)2
_symmetry_space_group_name_H-M   'P 1'
_cell_length_a   7.39268167
_cell_length_b   7.39268039
_cell_length_c   5.29034500
_cell_angle_alpha   89.99899087
_cell_angle_beta   89.99898466
_cell_angle_gamma   138.04141737
_symmetry_Int_Tables_number   1
_chemical_formula_structural   Sr3La(NiH6)2
_chemical_formula_sum   'Sr3 La1 Ni2 H12'
_cell_volume   193.30803605
_cell_formula_units_Z   1
loop_
 _symmetry_equiv_pos_site_id
 _symmetry_equiv_pos_as_xyz
  1  'x, y, z'
loop_
 _atom_site_type_symbol
 _atom_site_label
 _atom_site_symmetry_multiplicity
 _atom_site_fract_x
 _atom_site_fract_y
 _atom_site_fract_z
 _atom_site_occupancy
  Sr  Sr0  1  0.641385  0.358615  0.000000  1
  Sr  Sr1  1  0.858046  0.141954  0.500000  1
  Sr  Sr2  1  0.360656  0.639344  0.000000  1
  La  La3  1  0.137016  0.862984  0.500000  1
  Ni  Ni4  1  0.502540  0.497460  0.500000  1
  Ni  Ni5  1  0.001653  0.998347  0.000000  1
  H  H6  1  0.005766  0.515130  0.741473  1
  H  H7  1  0.484870  0.994234  0.258527  1
  H  H8  1  0.005713  0.515075  0.258572  1
  H  H9  1  0.484925  0.994287  0.741428  1
  H  H10  1  0.388618  0.611382  0.500000  1
  H  H11  1  0.886658  0.113342  0.000000  1
  H  H12  1  0.617230  0.382770  0.500000  1
  H  H13  1  0.115514  0.884486  0.000000  1
  H  H14  1  0.251262  0.246545  0.745129  1
  H  H15  1  0.753455  0.748738  0.254871  1
  H  H16  1  0.247264  0.242570  0.250839  1
  H  H17  1  0.757430  0.752736  0.749161  1
