# generated using pymatgen
data_Tb3Y(GaPd2)4
_symmetry_space_group_name_H-M   'P 1'
_cell_length_a   5.64267938
_cell_length_b   7.16461500
_cell_length_c   7.41055050
_cell_angle_alpha   90.00000000
_cell_angle_beta   89.95806571
_cell_angle_gamma   90.00000000
_symmetry_Int_Tables_number   1
_chemical_formula_structural   Tb3Y(GaPd2)4
_chemical_formula_sum   'Tb3 Y1 Ga4 Pd8'
_cell_volume   299.59087857
_cell_formula_units_Z   1
loop_
 _symmetry_equiv_pos_site_id
 _symmetry_equiv_pos_as_xyz
  1  'x, y, z'
loop_
 _atom_site_type_symbol
 _atom_site_label
 _atom_site_symmetry_multiplicity
 _atom_site_fract_x
 _atom_site_fract_y
 _atom_site_fract_z
 _atom_site_occupancy
  Tb  Tb0  1  0.354148  0.750000  0.031011  1
  Tb  Tb1  1  0.145527  0.750000  0.531136  1
  Tb  Tb2  1  0.645938  0.250000  0.968783  1
  Y  Y3  1  0.854959  0.250000  0.469014  1
  Ga  Ga4  1  0.644142  0.750000  0.385185  1
  Ga  Ga5  1  0.856127  0.750000  0.885276  1
  Ga  Ga6  1  0.356254  0.250000  0.614813  1
  Ga  Ga7  1  0.143797  0.250000  0.115053  1
  Pd  Pd8  1  0.910670  0.551299  0.182887  1
  Pd  Pd9  1  0.589359  0.948569  0.683074  1
  Pd  Pd10  1  0.089061  0.051363  0.816857  1
  Pd  Pd11  1  0.410464  0.448766  0.317047  1
  Pd  Pd12  1  0.089061  0.448637  0.816857  1
  Pd  Pd13  1  0.410464  0.051234  0.317047  1
  Pd  Pd14  1  0.910670  0.948701  0.182887  1
  Pd  Pd15  1  0.589359  0.551431  0.683074  1
