# generated using pymatgen
data_Y2Ho3Lu5(Si5Ir2)4
_symmetry_space_group_name_H-M   'P 1'
_cell_length_a   12.58583414
_cell_length_b   12.58583479
_cell_length_c   4.23300200
_cell_angle_alpha   90.00000000
_cell_angle_beta   90.00000000
_cell_angle_gamma   89.95344713
_symmetry_Int_Tables_number   1
_chemical_formula_structural   Y2Ho3Lu5(Si5Ir2)4
_chemical_formula_sum   'Y2 Ho3 Lu5 Si20 Ir8'
_cell_volume   670.52096429
_cell_formula_units_Z   1
loop_
 _symmetry_equiv_pos_site_id
 _symmetry_equiv_pos_as_xyz
  1  'x, y, z'
loop_
 _atom_site_type_symbol
 _atom_site_label
 _atom_site_symmetry_multiplicity
 _atom_site_fract_x
 _atom_site_fract_y
 _atom_site_fract_z
 _atom_site_occupancy
  Y  Y0  1  0.383888  0.116112  0.500000  1
  Y  Y1  1  0.615683  0.884317  0.500000  1
  Ho  Ho2  1  0.823525  0.676475  0.500000  1
  Ho  Ho3  1  0.883764  0.383570  0.500000  1
  Ho  Ho4  1  0.116430  0.616236  0.500000  1
  Lu  Lu5  1  0.499890  0.500145  0.000000  1
  Lu  Lu6  1  0.999855  0.000110  0.000000  1
  Lu  Lu7  1  0.676378  0.175674  0.500000  1
  Lu  Lu8  1  0.324326  0.823622  0.500000  1
  Lu  Lu9  1  0.176109  0.323891  0.500000  1
  Si  Si10  1  0.566135  0.066584  0.000000  1
  Si  Si11  1  0.433416  0.933865  0.000000  1
  Si  Si12  1  0.066618  0.433382  0.000000  1
  Si  Si13  1  0.934330  0.565670  0.000000  1
  Si  Si14  1  0.662279  0.701200  0.000000  1
  Si  Si15  1  0.336651  0.298936  0.000000  1
  Si  Si16  1  0.163968  0.799221  0.000000  1
  Si  Si17  1  0.836678  0.201290  0.000000  1
  Si  Si18  1  0.298710  0.663322  0.000000  1
  Si  Si19  1  0.700779  0.336032  0.000000  1
  Si  Si20  1  0.201064  0.163349  0.000000  1
  Si  Si21  1  0.798800  0.837721  0.000000  1
  Si  Si22  1  0.654085  0.502043  0.500000  1
  Si  Si23  1  0.345243  0.496079  0.500000  1
  Si  Si24  1  0.154268  0.995987  0.500000  1
  Si  Si25  1  0.845156  0.003373  0.500000  1
  Si  Si26  1  0.496627  0.654844  0.500000  1
  Si  Si27  1  0.504013  0.345732  0.500000  1
  Si  Si28  1  0.003921  0.154757  0.500000  1
  Si  Si29  1  0.997957  0.845915  0.500000  1
  Ir  Ir30  1  0.744114  0.520994  0.000000  1
  Ir  Ir31  1  0.255146  0.477740  0.000000  1
  Ir  Ir32  1  0.244756  0.977992  0.000000  1
  Ir  Ir33  1  0.755212  0.023049  0.000000  1
  Ir  Ir34  1  0.476951  0.744788  0.000000  1
  Ir  Ir35  1  0.522008  0.255244  0.000000  1
  Ir  Ir36  1  0.022260  0.244854  0.000000  1
  Ir  Ir37  1  0.979006  0.755886  0.000000  1
