# generated using pymatgen
data_Er3Tm5Re2(B12Ru)2
_symmetry_space_group_name_H-M   'P 1'
_cell_length_a   3.63625000
_cell_length_b   9.09566316
_cell_length_c   11.47602402
_cell_angle_alpha   89.80059098
_cell_angle_beta   90.00000000
_cell_angle_gamma   90.00000000
_symmetry_Int_Tables_number   1
_chemical_formula_structural   Er3Tm5Re2(B12Ru)2
_chemical_formula_sum   'Er3 Tm5 Re2 B24 Ru2'
_cell_volume   379.55692670
_cell_formula_units_Z   1
loop_
 _symmetry_equiv_pos_site_id
 _symmetry_equiv_pos_as_xyz
  1  'x, y, z'
loop_
 _atom_site_type_symbol
 _atom_site_label
 _atom_site_symmetry_multiplicity
 _atom_site_fract_x
 _atom_site_fract_y
 _atom_site_fract_z
 _atom_site_occupancy
  Er  Er0  1  0.000000  0.324005  0.415562  1
  Er  Er1  1  0.000000  0.675865  0.584429  1
  Er  Er2  1  0.000000  0.820444  0.087512  1
  Tm  Tm3  1  0.000000  0.179680  0.912403  1
  Tm  Tm4  1  0.000000  0.942811  0.370841  1
  Tm  Tm5  1  0.000000  0.057156  0.629147  1
  Tm  Tm6  1  0.000000  0.442607  0.129119  1
  Tm  Tm7  1  0.000000  0.557283  0.870780  1
  Re  Re8  1  0.000000  0.638294  0.320061  1
  Re  Re9  1  0.000000  0.361498  0.680177  1
  B  B10  1  0.500000  0.552831  0.433335  1
  B  B11  1  0.500000  0.447057  0.566764  1
  B  B12  1  0.500000  0.053813  0.066462  1
  B  B13  1  0.500000  0.946583  0.933383  1
  B  B14  1  0.500000  0.749530  0.419191  1
  B  B15  1  0.500000  0.250414  0.580921  1
  B  B16  1  0.500000  0.249065  0.080559  1
  B  B17  1  0.500000  0.751006  0.919167  1
  B  B18  1  0.500000  0.792184  0.264782  1
  B  B19  1  0.500000  0.207685  0.735444  1
  B  B20  1  0.500000  0.290875  0.234270  1
  B  B21  1  0.500000  0.709188  0.765663  1
  B  B22  1  0.500000  0.630641  0.184385  1
  B  B23  1  0.500000  0.369156  0.815758  1
  B  B24  1  0.500000  0.130430  0.314486  1
  B  B25  1  0.500000  0.869688  0.685546  1
  B  B26  1  0.500000  0.982463  0.211899  1
  B  B27  1  0.500000  0.017865  0.788180  1
  B  B28  1  0.500000  0.481386  0.287268  1
  B  B29  1  0.500000  0.518487  0.712777  1
  B  B30  1  0.500000  0.602603  0.028161  1
  B  B31  1  0.500000  0.397108  0.971718  1
  B  B32  1  0.500000  0.102248  0.471539  1
  B  B33  1  0.500000  0.897759  0.528480  1
  Ru  Ru34  1  0.000000  0.137581  0.178393  1
  Ru  Ru35  1  0.000000  0.862713  0.821437  1
