# generated using pymatgen
data_Ce4AgSn3
_symmetry_space_group_name_H-M   'P 1'
_cell_length_a   8.96200054
_cell_length_b   8.96200006
_cell_length_c   8.96200132
_cell_angle_alpha   96.61490057
_cell_angle_beta   96.61489440
_cell_angle_gamma   140.31882091
_symmetry_Int_Tables_number   1
_chemical_formula_structural   Ce4AgSn3
_chemical_formula_sum   'Ce8 Ag2 Sn6'
_cell_volume   432.32435199
_cell_formula_units_Z   2
loop_
 _symmetry_equiv_pos_site_id
 _symmetry_equiv_pos_as_xyz
  1  'x, y, z'
loop_
 _atom_site_type_symbol
 _atom_site_label
 _atom_site_symmetry_multiplicity
 _atom_site_fract_x
 _atom_site_fract_y
 _atom_site_fract_z
 _atom_site_occupancy
  Ce  Ce0  1  0.096686  0.234273  0.330958  1
  Ce  Ce1  1  0.903314  0.765727  0.669042  1
  Ce  Ce2  1  0.765727  0.096686  0.862413  1
  Ce  Ce3  1  0.403314  0.734273  0.137587  1
  Ce  Ce4  1  0.234273  0.903314  0.137587  1
  Ce  Ce5  1  0.596686  0.265727  0.862413  1
  Ce  Ce6  1  0.734273  0.596686  0.330958  1
  Ce  Ce7  1  0.265727  0.403314  0.669042  1
  Ag  Ag8  1  0.250000  0.750000  0.500000  1
  Ag  Ag9  1  0.750000  0.250000  0.500000  1
  Sn  Sn10  1  0.148391  0.648391  0.796781  1
  Sn  Sn11  1  0.851609  0.351609  0.203219  1
  Sn  Sn12  1  0.351609  0.148391  0.500000  1
  Sn  Sn13  1  0.648391  0.851609  0.500000  1
  Sn  Sn14  1  0.250000  0.250000  0.000000  1
  Sn  Sn15  1  0.750000  0.750000  0.000000  1
