# generated using pymatgen
data_Tb15HoCd4Ru3Rh
_symmetry_space_group_name_H-M   'P 1'
_cell_length_a   9.60745742
_cell_length_b   9.67174375
_cell_length_c   9.67174500
_cell_angle_alpha   59.99999229
_cell_angle_beta   59.77839801
_cell_angle_gamma   59.77840217
_symmetry_Int_Tables_number   1
_chemical_formula_structural   Tb15HoCd4Ru3Rh
_chemical_formula_sum   'Tb15 Ho1 Cd4 Ru3 Rh1'
_cell_volume   633.34486403
_cell_formula_units_Z   1
loop_
 _symmetry_equiv_pos_site_id
 _symmetry_equiv_pos_as_xyz
  1  'x, y, z'
loop_
 _atom_site_type_symbol
 _atom_site_label
 _atom_site_symmetry_multiplicity
 _atom_site_fract_x
 _atom_site_fract_y
 _atom_site_fract_z
 _atom_site_occupancy
  Tb  Tb0  1  0.688981  0.312501  0.686016  1
  Tb  Tb1  1  0.313187  0.687849  0.311115  1
  Tb  Tb2  1  0.061476  0.439251  0.439251  1
  Tb  Tb3  1  0.688981  0.312501  0.312501  1
  Tb  Tb4  1  0.437959  0.060660  0.440721  1
  Tb  Tb5  1  0.437959  0.060660  0.060660  1
  Tb  Tb6  1  0.904110  0.901479  0.901479  1
  Tb  Tb7  1  0.061476  0.439251  0.060021  1
  Tb  Tb8  1  0.904110  0.292933  0.901479  1
  Tb  Tb9  1  0.313187  0.687849  0.687849  1
  Tb  Tb10  1  0.904110  0.901479  0.292933  1
  Tb  Tb11  1  0.437959  0.440721  0.060660  1
  Tb  Tb12  1  0.313187  0.311115  0.687849  1
  Tb  Tb13  1  0.688981  0.686016  0.312501  1
  Tb  Tb14  1  0.061476  0.060021  0.439251  1
  Ho  Ho15  1  0.286575  0.904475  0.904475  1
  Cd  Cd16  1  0.991700  0.669433  0.669433  1
  Cd  Cd17  1  0.669670  0.989828  0.670251  1
  Cd  Cd18  1  0.669670  0.670251  0.989828  1
  Cd  Cd19  1  0.669670  0.670251  0.670251  1
  Ru  Ru20  1  0.107671  0.111067  0.670195  1
  Ru  Ru21  1  0.107671  0.670195  0.111067  1
  Ru  Ru22  1  0.107671  0.111067  0.111067  1
  Rh  Rh23  1  0.672564  0.109146  0.109146  1
