# generated using pymatgen
data_Yb2Y2HoRu2
_symmetry_space_group_name_H-M   'P 1'
_cell_length_a   6.42589719
_cell_length_b   7.25945987
_cell_length_c   8.53781618
_cell_angle_alpha   97.13503092
_cell_angle_beta   112.10589399
_cell_angle_gamma   90.00000064
_symmetry_Int_Tables_number   1
_chemical_formula_structural   Yb2Y2HoRu2
_chemical_formula_sum   'Yb4 Y4 Ho2 Ru4'
_cell_volume   365.66829894
_cell_formula_units_Z   2
loop_
 _symmetry_equiv_pos_site_id
 _symmetry_equiv_pos_as_xyz
  1  'x, y, z'
loop_
 _atom_site_type_symbol
 _atom_site_label
 _atom_site_symmetry_multiplicity
 _atom_site_fract_x
 _atom_site_fract_y
 _atom_site_fract_z
 _atom_site_occupancy
  Yb  Yb0  1  0.978128  0.918724  0.182474  1
  Yb  Yb1  1  0.795654  0.581276  0.817526  1
  Yb  Yb2  1  0.021872  0.081276  0.817526  1
  Yb  Yb3  1  0.204346  0.418724  0.182474  1
  Y  Y4  1  0.636179  0.817208  0.433626  1
  Y  Y5  1  0.202554  0.682792  0.566374  1
  Y  Y6  1  0.363821  0.182792  0.566374  1
  Y  Y7  1  0.797446  0.317208  0.433626  1
  Ho  Ho8  1  0.430402  0.750000  0.000000  1
  Ho  Ho9  1  0.569598  0.250000  0.000000  1
  Ru  Ru10  1  0.816199  0.574160  0.228091  1
  Ru  Ru11  1  0.588109  0.925840  0.771909  1
  Ru  Ru12  1  0.183801  0.425840  0.771909  1
  Ru  Ru13  1  0.411891  0.074160  0.228091  1
