# generated using pymatgen
data_Hf6Ti4Ga5Te
_symmetry_space_group_name_H-M   'P 1'
_cell_length_a   7.96443800
_cell_length_b   7.95198552
_cell_length_c   5.43954200
_cell_angle_alpha   90.00000000
_cell_angle_beta   90.00000000
_cell_angle_gamma   120.05181501
_symmetry_Int_Tables_number   1
_chemical_formula_structural   Hf6Ti4Ga5Te
_chemical_formula_sum   'Hf6 Ti4 Ga5 Te1'
_cell_volume   298.19248276
_cell_formula_units_Z   1
loop_
 _symmetry_equiv_pos_site_id
 _symmetry_equiv_pos_as_xyz
  1  'x, y, z'
loop_
 _atom_site_type_symbol
 _atom_site_label
 _atom_site_symmetry_multiplicity
 _atom_site_fract_x
 _atom_site_fract_y
 _atom_site_fract_z
 _atom_site_occupancy
  Hf  Hf0  1  0.233404  0.000000  0.250000  1
  Hf  Hf1  1  0.759188  0.000000  0.750000  1
  Hf  Hf2  1  0.011186  0.251774  0.250000  1
  Hf  Hf3  1  0.997307  0.753326  0.750000  1
  Hf  Hf4  1  0.759411  0.748226  0.250000  1
  Hf  Hf5  1  0.243981  0.246674  0.750000  1
  Ti  Ti6  1  0.328712  0.659164  0.995762  1
  Ti  Ti7  1  0.669549  0.340836  0.995762  1
  Ti  Ti8  1  0.669549  0.340836  0.504238  1
  Ti  Ti9  1  0.328712  0.659164  0.504238  1
  Ga  Ga10  1  0.394535  0.000000  0.750000  1
  Ga  Ga11  1  0.002190  0.600376  0.250000  1
  Ga  Ga12  1  0.998888  0.398302  0.750000  1
  Ga  Ga13  1  0.401814  0.399624  0.250000  1
  Ga  Ga14  1  0.600585  0.601698  0.750000  1
  Te  Te15  1  0.600990  0.000000  0.250000  1
