# generated using pymatgen
data_Ta7Co8Si14W
_symmetry_space_group_name_H-M   'P 1'
_cell_length_a   9.19140524
_cell_length_b   9.19140603
_cell_length_c   9.19140650
_cell_angle_alpha   94.27185559
_cell_angle_beta   94.14226030
_cell_angle_gamma   148.57000512
_symmetry_Int_Tables_number   1
_chemical_formula_structural   Ta7Co8Si14W
_chemical_formula_sum   'Ta7 Co8 Si14 W1'
_cell_volume   389.77934033
_cell_formula_units_Z   1
loop_
 _symmetry_equiv_pos_site_id
 _symmetry_equiv_pos_as_xyz
  1  'x, y, z'
loop_
 _atom_site_type_symbol
 _atom_site_label
 _atom_site_symmetry_multiplicity
 _atom_site_fract_x
 _atom_site_fract_y
 _atom_site_fract_z
 _atom_site_occupancy
  Ta  Ta0  1  0.688297  0.500000  0.188297  1
  Ta  Ta1  1  0.500648  0.690420  0.191067  1
  Ta  Ta2  1  0.500648  0.309580  0.810228  1
  Ta  Ta3  1  0.133068  0.132749  0.265815  1
  Ta  Ta4  1  0.866332  0.866581  0.732914  1
  Ta  Ta5  1  0.133068  0.867251  0.000320  1
  Ta  Ta6  1  0.866332  0.133419  0.999751  1
  Co  Co7  1  0.399166  0.898047  0.798107  1
  Co  Co8  1  0.100858  0.600325  0.200940  1
  Co  Co9  1  0.900061  0.101953  0.501119  1
  Co  Co10  1  0.600614  0.399675  0.500533  1
  Co  Co11  1  0.600614  0.100080  0.200940  1
  Co  Co12  1  0.900061  0.398941  0.798107  1
  Co  Co13  1  0.100858  0.899920  0.500533  1
  Co  Co14  1  0.399166  0.601059  0.501119  1
  Si  Si15  1  0.292396  0.293891  0.586286  1
  Si  Si16  1  0.707891  0.708219  0.416110  1
  Si  Si17  1  0.292396  0.706109  0.998504  1
  Si  Si18  1  0.707891  0.291781  0.999672  1
  Si  Si19  1  0.094995  0.500000  0.594995  1
  Si  Si20  1  0.906074  0.500000  0.406074  1
  Si  Si21  1  0.500037  0.906113  0.406151  1
  Si  Si22  1  0.500037  0.093887  0.593924  1
  Si  Si23  1  0.247194  0.248628  0.998566  1
  Si  Si24  1  0.749938  0.751372  0.998566  1
  Si  Si25  1  0.297317  0.000000  0.297317  1
  Si  Si26  1  0.702545  0.000000  0.702545  1
  Si  Si27  1  0.000231  0.702584  0.702815  1
  Si  Si28  1  0.000231  0.297416  0.297647  1
  W  W29  1  0.311040  0.500000  0.811040  1
