# generated using pymatgen
data_CeEr7(WC2)4
_symmetry_space_group_name_H-M   'P 1'
_cell_length_a   5.71123349
_cell_length_b   5.71123349
_cell_length_c   9.83978830
_cell_angle_alpha   89.55605494
_cell_angle_beta   89.55605494
_cell_angle_gamma   90.01427676
_symmetry_Int_Tables_number   1
_chemical_formula_structural   CeEr7(WC2)4
_chemical_formula_sum   'Ce1 Er7 W4 C8'
_cell_volume   320.93678077
_cell_formula_units_Z   1
loop_
 _symmetry_equiv_pos_site_id
 _symmetry_equiv_pos_as_xyz
  1  'x, y, z'
loop_
 _atom_site_type_symbol
 _atom_site_label
 _atom_site_symmetry_multiplicity
 _atom_site_fract_x
 _atom_site_fract_y
 _atom_site_fract_z
 _atom_site_occupancy
  Ce  Ce0  1  0.801549  0.801549  0.659303  1
  Er  Er1  1  0.199560  0.199560  0.341273  1
  Er  Er2  1  0.302015  0.700880  0.843108  1
  Er  Er3  1  0.700880  0.302015  0.843108  1
  Er  Er4  1  0.702160  0.300628  0.158348  1
  Er  Er5  1  0.300628  0.702160  0.158348  1
  Er  Er6  1  0.198866  0.198866  0.657074  1
  Er  Er7  1  0.797780  0.797780  0.342576  1
  W  W8  1  0.317992  0.675524  0.497524  1
  W  W9  1  0.823284  0.823284  0.002742  1
  W  W10  1  0.181005  0.181005  0.001766  1
  W  W11  1  0.675524  0.317992  0.497524  1
  C  C12  1  0.000512  0.000512  0.157440  1
  C  C13  1  0.496715  0.496715  0.653283  1
  C  C14  1  0.492949  0.999209  0.495878  1
  C  C15  1  0.498566  0.498566  0.342342  1
  C  C16  1  0.005421  0.005421  0.848761  1
  C  C17  1  0.502381  0.003004  0.001863  1
  C  C18  1  0.003004  0.502381  0.001863  1
  C  C19  1  0.999209  0.492949  0.495878  1
