# generated using pymatgen
data_Dy3Ho5Re(B8Ru)3
_symmetry_space_group_name_H-M   'P 1'
_cell_length_a   3.66075200
_cell_length_b   9.12768486
_cell_length_c   11.51328900
_cell_angle_alpha   90.12965415
_cell_angle_beta   90.00000000
_cell_angle_gamma   90.00000000
_symmetry_Int_Tables_number   1
_chemical_formula_structural   Dy3Ho5Re(B8Ru)3
_chemical_formula_sum   'Dy3 Ho5 Re1 B24 Ru3'
_cell_volume   384.70624835
_cell_formula_units_Z   1
loop_
 _symmetry_equiv_pos_site_id
 _symmetry_equiv_pos_as_xyz
  1  'x, y, z'
loop_
 _atom_site_type_symbol
 _atom_site_label
 _atom_site_symmetry_multiplicity
 _atom_site_fract_x
 _atom_site_fract_y
 _atom_site_fract_z
 _atom_site_occupancy
  Dy  Dy0  1  0.000000  0.323001  0.415095  1
  Dy  Dy1  1  0.000000  0.679902  0.588049  1
  Dy  Dy2  1  0.000000  0.822833  0.083547  1
  Ho  Ho3  1  0.000000  0.176062  0.913452  1
  Ho  Ho4  1  0.000000  0.943123  0.370987  1
  Ho  Ho5  1  0.000000  0.056476  0.627764  1
  Ho  Ho6  1  0.000000  0.442533  0.128622  1
  Ho  Ho7  1  0.000000  0.555936  0.872445  1
  Re  Re8  1  0.000000  0.862476  0.821186  1
  B  B9  1  0.500000  0.554152  0.433111  1
  B  B10  1  0.500000  0.446183  0.567253  1
  B  B11  1  0.500000  0.053891  0.067451  1
  B  B12  1  0.500000  0.947214  0.933132  1
  B  B13  1  0.500000  0.748430  0.419314  1
  B  B14  1  0.500000  0.251964  0.580456  1
  B  B15  1  0.500000  0.248044  0.080684  1
  B  B16  1  0.500000  0.751368  0.919211  1
  B  B17  1  0.500000  0.790194  0.265866  1
  B  B18  1  0.500000  0.209248  0.733302  1
  B  B19  1  0.500000  0.290636  0.234148  1
  B  B20  1  0.500000  0.708467  0.765956  1
  B  B21  1  0.500000  0.630858  0.185314  1
  B  B22  1  0.500000  0.368265  0.814444  1
  B  B23  1  0.500000  0.131665  0.314813  1
  B  B24  1  0.500000  0.868922  0.685462  1
  B  B25  1  0.500000  0.983588  0.212484  1
  B  B26  1  0.500000  0.018003  0.787367  1
  B  B27  1  0.500000  0.483343  0.287960  1
  B  B28  1  0.500000  0.516583  0.712676  1
  B  B29  1  0.500000  0.605279  0.029963  1
  B  B30  1  0.500000  0.392366  0.970850  1
  B  B31  1  0.500000  0.107128  0.469888  1
  B  B32  1  0.500000  0.893794  0.528679  1
  Ru  Ru33  1  0.000000  0.637779  0.321081  1
  Ru  Ru34  1  0.000000  0.362262  0.678630  1
  Ru  Ru35  1  0.000000  0.138027  0.179361  1
