# generated using pymatgen
data_Nd5Sn3S
_symmetry_space_group_name_H-M   'P 1'
_cell_length_a   9.39873900
_cell_length_b   9.39873898
_cell_length_c   6.91793300
_cell_angle_alpha   90.00000000
_cell_angle_beta   90.00000000
_cell_angle_gamma   119.99999656
_symmetry_Int_Tables_number   1
_chemical_formula_structural   Nd5Sn3S
_chemical_formula_sum   'Nd10 Sn6 S2'
_cell_volume   529.23209804
_cell_formula_units_Z   2
loop_
 _symmetry_equiv_pos_site_id
 _symmetry_equiv_pos_as_xyz
  1  'x, y, z'
loop_
 _atom_site_type_symbol
 _atom_site_label
 _atom_site_symmetry_multiplicity
 _atom_site_fract_x
 _atom_site_fract_y
 _atom_site_fract_z
 _atom_site_occupancy
  Nd  Nd0  1  0.756060  0.756060  0.750000  1
  Nd  Nd1  1  0.243940  0.000000  0.750000  1
  Nd  Nd2  1  0.000000  0.243940  0.750000  1
  Nd  Nd3  1  0.243940  0.243940  0.250000  1
  Nd  Nd4  1  0.756060  0.000000  0.250000  1
  Nd  Nd5  1  0.000000  0.756060  0.250000  1
  Nd  Nd6  1  0.666667  0.333333  0.000000  1
  Nd  Nd7  1  0.333333  0.666667  0.000000  1
  Nd  Nd8  1  0.333333  0.666667  0.500000  1
  Nd  Nd9  1  0.666667  0.333333  0.500000  1
  Sn  Sn10  1  0.398712  0.398712  0.750000  1
  Sn  Sn11  1  0.601288  0.000000  0.750000  1
  Sn  Sn12  1  0.000000  0.601288  0.750000  1
  Sn  Sn13  1  0.601288  0.601288  0.250000  1
  Sn  Sn14  1  0.398712  0.000000  0.250000  1
  Sn  Sn15  1  0.000000  0.398712  0.250000  1
  S  S16  1  0.000000  0.000000  0.000000  1
  S  S17  1  0.000000  0.000000  0.500000  1
