# generated using pymatgen
data_Rb3Bi(AsS2)6
_symmetry_space_group_name_H-M   'P 1'
_cell_length_a   9.54331600
_cell_length_b   9.54331592
_cell_length_c   8.33224700
_cell_angle_alpha   90.00000000
_cell_angle_beta   90.00000000
_cell_angle_gamma   120.00000028
_symmetry_Int_Tables_number   1
_chemical_formula_structural   Rb3Bi(AsS2)6
_chemical_formula_sum   'Rb3 Bi1 As6 S12'
_cell_volume   657.19064316
_cell_formula_units_Z   1
loop_
 _symmetry_equiv_pos_site_id
 _symmetry_equiv_pos_as_xyz
  1  'x, y, z'
loop_
 _atom_site_type_symbol
 _atom_site_label
 _atom_site_symmetry_multiplicity
 _atom_site_fract_x
 _atom_site_fract_y
 _atom_site_fract_z
 _atom_site_occupancy
  Rb  Rb0  1  0.000000  0.000000  0.000000  1
  Rb  Rb1  1  0.333333  0.666667  0.841823  1
  Rb  Rb2  1  0.666667  0.333333  0.158177  1
  Bi  Bi3  1  0.000000  0.000000  0.500000  1
  As  As4  1  0.294396  0.838956  0.368138  1
  As  As5  1  0.161044  0.455441  0.368138  1
  As  As6  1  0.544559  0.705604  0.368138  1
  As  As7  1  0.705604  0.161044  0.631862  1
  As  As8  1  0.838956  0.544559  0.631862  1
  As  As9  1  0.455441  0.294396  0.631862  1
  S  S10  1  0.262715  0.045632  0.296255  1
  S  S11  1  0.954368  0.217084  0.296255  1
  S  S12  1  0.782916  0.737285  0.296255  1
  S  S13  1  0.737285  0.954368  0.703745  1
  S  S14  1  0.045632  0.782916  0.703745  1
  S  S15  1  0.217084  0.262715  0.703745  1
  S  S16  1  0.523841  0.900592  0.216984  1
  S  S17  1  0.099408  0.623248  0.216984  1
  S  S18  1  0.376752  0.476159  0.216984  1
  S  S19  1  0.476159  0.099408  0.783016  1
  S  S20  1  0.900592  0.376752  0.783016  1
  S  S21  1  0.623248  0.523841  0.783016  1
