# generated using pymatgen
data_LiZn20CdPd4
_symmetry_space_group_name_H-M   'P 1'
_cell_length_a   7.98632248
_cell_length_b   7.96109492
_cell_length_c   7.94613528
_cell_angle_alpha   70.83010732
_cell_angle_beta   70.67386888
_cell_angle_gamma   109.55938957
_symmetry_Int_Tables_number   1
_chemical_formula_structural   LiZn20CdPd4
_chemical_formula_sum   'Li1 Zn20 Cd1 Pd4'
_cell_volume   390.62071404
_cell_formula_units_Z   1
loop_
 _symmetry_equiv_pos_site_id
 _symmetry_equiv_pos_as_xyz
  1  'x, y, z'
loop_
 _atom_site_type_symbol
 _atom_site_label
 _atom_site_symmetry_multiplicity
 _atom_site_fract_x
 _atom_site_fract_y
 _atom_site_fract_z
 _atom_site_occupancy
  Li  Li0  1  0.352839  0.999938  0.645139  1
  Zn  Zn1  1  0.002078  0.996663  0.788459  1
  Zn  Zn2  1  0.779312  0.779301  0.221062  1
  Zn  Zn3  1  0.207547  0.001431  0.996682  1
  Zn  Zn4  1  0.000149  0.221508  0.004032  1
  Zn  Zn5  1  0.278441  0.262245  0.382255  1
  Zn  Zn6  1  0.010387  0.738696  0.646777  1
  Zn  Zn7  1  0.721514  0.992331  0.649529  1
  Zn  Zn8  1  0.656179  0.643840  0.626029  1
  Zn  Zn9  1  0.386957  0.649246  0.342683  1
  Zn  Zn10  1  0.650340  0.372583  0.355560  1
  Zn  Zn11  1  0.350316  0.737532  0.992652  1
  Zn  Zn12  1  0.599506  0.249509  0.740175  1
  Zn  Zn13  1  0.350772  0.996278  0.271162  1
  Zn  Zn14  1  0.716654  0.348340  0.005135  1
  Zn  Zn15  1  0.007565  0.354817  0.268790  1
  Zn  Zn16  1  0.283303  0.632588  0.724104  1
  Zn  Zn17  1  0.643612  0.646828  0.994775  1
  Zn  Zn18  1  0.006868  0.658668  0.342849  1
  Zn  Zn19  1  0.643218  0.002053  0.356204  1
  Zn  Zn20  1  0.356661  0.356578  0.003165  1
  Cd  Cd21  1  0.995856  0.363478  0.638165  1
  Pd  Pd22  1  0.001329  0.001511  0.346123  1
  Pd  Pd23  1  0.349621  0.349701  0.653849  1
  Pd  Pd24  1  0.653074  0.995647  0.002829  1
  Pd  Pd25  1  0.995901  0.648693  0.001819  1
