# generated using pymatgen
data_Ta6Be15Co3Cu5
_symmetry_space_group_name_H-M   'P 1'
_cell_length_a   7.61121283
_cell_length_b   7.61121151
_cell_length_c   7.61378949
_cell_angle_alpha   59.84807869
_cell_angle_beta   59.84808192
_cell_angle_gamma   59.75074998
_symmetry_Int_Tables_number   1
_chemical_formula_structural   Ta6Be15Co3Cu5
_chemical_formula_sum   'Ta6 Be15 Co3 Cu5'
_cell_volume   310.57853513
_cell_formula_units_Z   1
loop_
 _symmetry_equiv_pos_site_id
 _symmetry_equiv_pos_as_xyz
  1  'x, y, z'
loop_
 _atom_site_type_symbol
 _atom_site_label
 _atom_site_symmetry_multiplicity
 _atom_site_fract_x
 _atom_site_fract_y
 _atom_site_fract_z
 _atom_site_occupancy
  Ta  Ta0  1  0.705055  0.302950  0.301879  1
  Ta  Ta1  1  0.288838  0.711912  0.695178  1
  Ta  Ta2  1  0.302950  0.705055  0.301879  1
  Ta  Ta3  1  0.711912  0.288838  0.695178  1
  Ta  Ta4  1  0.296734  0.296734  0.703218  1
  Ta  Ta5  1  0.697487  0.697487  0.294719  1
  Be  Be6  1  0.325658  0.325658  0.331979  1
  Be  Be7  1  0.672223  0.672223  0.671660  1
  Be  Be8  1  0.324797  0.324797  0.016460  1
  Be  Be9  1  0.319849  0.023921  0.327651  1
  Be  Be10  1  0.676613  0.676613  0.976772  1
  Be  Be11  1  0.676836  0.979233  0.676390  1
  Be  Be12  1  0.023921  0.319849  0.327651  1
  Be  Be13  1  0.979233  0.676836  0.676390  1
  Be  Be14  1  0.499503  0.001403  0.999221  1
  Be  Be15  1  0.000513  0.496884  0.501375  1
  Be  Be16  1  0.001403  0.499503  0.999221  1
  Be  Be17  1  0.496884  0.000513  0.501375  1
  Be  Be18  1  0.001127  0.001127  0.501102  1
  Be  Be19  1  0.498871  0.498871  0.001410  1
  Be  Be20  1  0.001309  0.001309  0.995394  1
  Co  Co21  1  0.122265  0.122265  0.121607  1
  Co  Co22  1  0.876745  0.876746  0.879823  1
  Co  Co23  1  0.123081  0.123081  0.633921  1
  Cu  Cu24  1  0.122819  0.632133  0.123132  1
  Cu  Cu25  1  0.877448  0.877449  0.366306  1
  Cu  Cu26  1  0.875306  0.368487  0.877988  1
  Cu  Cu27  1  0.632133  0.122819  0.123133  1
  Cu  Cu28  1  0.368487  0.875306  0.877988  1
