# generated using pymatgen
data_Ce2U2Ga12Pd
_symmetry_space_group_name_H-M   'P 1'
_cell_length_a   7.54945233
_cell_length_b   7.54602436
_cell_length_c   7.50400129
_cell_angle_alpha   109.44989252
_cell_angle_beta   109.45522630
_cell_angle_gamma   109.75396239
_symmetry_Int_Tables_number   1
_chemical_formula_structural   Ce2U2Ga12Pd
_chemical_formula_sum   'Ce2 U2 Ga12 Pd1'
_cell_volume   328.07962174
_cell_formula_units_Z   1
loop_
 _symmetry_equiv_pos_site_id
 _symmetry_equiv_pos_as_xyz
  1  'x, y, z'
loop_
 _atom_site_type_symbol
 _atom_site_label
 _atom_site_symmetry_multiplicity
 _atom_site_fract_x
 _atom_site_fract_y
 _atom_site_fract_z
 _atom_site_occupancy
  Ce  Ce0  1  0.500000  0.500000  0.500000  1
  Ce  Ce1  1  0.000000  0.000000  0.500000  1
  U  U2  1  0.000000  0.500000  0.000000  1
  U  U3  1  0.500000  0.000000  0.000000  1
  Ga  Ga4  1  0.249905  0.502464  0.752528  1
  Ga  Ga5  1  0.003120  0.704168  0.707018  1
  Ga  Ga6  1  0.296247  0.296167  0.999789  1
  Ga  Ga7  1  0.497616  0.750168  0.247474  1
  Ga  Ga8  1  0.750075  0.249848  0.499918  1
  Ga  Ga9  1  0.750095  0.497536  0.247472  1
  Ga  Ga10  1  0.249925  0.750152  0.500082  1
  Ga  Ga11  1  0.704089  0.003045  0.707016  1
  Ga  Ga12  1  0.502384  0.249832  0.752526  1
  Ga  Ga13  1  0.996880  0.295832  0.292982  1
  Ga  Ga14  1  0.295911  0.996955  0.292984  1
  Ga  Ga15  1  0.703753  0.703833  0.000211  1
  Pd  Pd16  1  0.000000  0.000000  0.000000  1
