# generated using pymatgen
data_Rb3Ba(ReN3)2
_symmetry_space_group_name_H-M   'P 1'
_cell_length_a   6.88563990
_cell_length_b   6.88563941
_cell_length_c   13.58593600
_cell_angle_alpha   90.00000000
_cell_angle_beta   90.00000000
_cell_angle_gamma   127.62454387
_symmetry_Int_Tables_number   1
_chemical_formula_structural   Rb3Ba(ReN3)2
_chemical_formula_sum   'Rb6 Ba2 Re4 N12'
_cell_volume   510.17455243
_cell_formula_units_Z   2
loop_
 _symmetry_equiv_pos_site_id
 _symmetry_equiv_pos_as_xyz
  1  'x, y, z'
loop_
 _atom_site_type_symbol
 _atom_site_label
 _atom_site_symmetry_multiplicity
 _atom_site_fract_x
 _atom_site_fract_y
 _atom_site_fract_z
 _atom_site_occupancy
  Rb  Rb0  1  0.638387  0.361613  0.917542  1
  Rb  Rb1  1  0.138387  0.861613  0.582458  1
  Rb  Rb2  1  0.446591  0.553409  0.638122  1
  Rb  Rb3  1  0.553743  0.446257  0.363636  1
  Rb  Rb4  1  0.053743  0.946257  0.136364  1
  Rb  Rb5  1  0.946591  0.053409  0.861878  1
  Ba  Ba6  1  0.853558  0.146442  0.423176  1
  Ba  Ba7  1  0.353558  0.646442  0.076824  1
  Re  Re8  1  0.765076  0.234924  0.667654  1
  Re  Re9  1  0.734777  0.265223  0.167955  1
  Re  Re10  1  0.234777  0.765223  0.332045  1
  Re  Re11  1  0.265076  0.734924  0.832346  1
  N  N12  1  0.991291  0.508709  0.750000  1
  N  N13  1  0.515593  0.984407  0.250000  1
  N  N14  1  0.015593  0.484407  0.250000  1
  N  N15  1  0.491291  0.008709  0.750000  1
  N  N16  1  0.400611  0.599389  0.877919  1
  N  N17  1  0.595796  0.404204  0.130728  1
  N  N18  1  0.095796  0.904204  0.369272  1
  N  N19  1  0.677472  0.322528  0.561804  1
  N  N20  1  0.177472  0.822528  0.938196  1
  N  N21  1  0.827106  0.172894  0.064145  1
  N  N22  1  0.327106  0.672894  0.435855  1
  N  N23  1  0.900611  0.099389  0.622081  1
