# generated using pymatgen
data_NiSn16Pt3
_symmetry_space_group_name_H-M   'P 1'
_cell_length_a   12.72224341
_cell_length_b   12.72224340
_cell_length_c   12.72433804
_cell_angle_alpha   150.76691490
_cell_angle_beta   150.76691469
_cell_angle_gamma   41.79211549
_symmetry_Int_Tables_number   1
_chemical_formula_structural   NiSn16Pt3
_chemical_formula_sum   'Ni1 Sn16 Pt3'
_cell_volume   490.09236104
_cell_formula_units_Z   1
loop_
 _symmetry_equiv_pos_site_id
 _symmetry_equiv_pos_as_xyz
  1  'x, y, z'
loop_
 _atom_site_type_symbol
 _atom_site_label
 _atom_site_symmetry_multiplicity
 _atom_site_fract_x
 _atom_site_fract_y
 _atom_site_fract_z
 _atom_site_occupancy
  Ni  Ni0  1  0.250000  0.250000  0.000000  1
  Sn  Sn1  1  0.764210  0.106346  0.999312  1
  Sn  Sn2  1  0.735103  0.392967  0.999314  1
  Sn  Sn3  1  0.507317  0.019053  0.151718  1
  Sn  Sn4  1  0.144401  0.632666  0.151718  1
  Sn  Sn5  1  0.234668  0.235345  0.341858  1
  Sn  Sn6  1  0.607190  0.606514  0.341858  1
  Sn  Sn7  1  0.992537  0.144446  0.512672  1
  Sn  Sn8  1  0.020134  0.868226  0.512672  1
  Sn  Sn9  1  0.631774  0.479866  0.487328  1
  Sn  Sn10  1  0.355554  0.507463  0.487328  1
  Sn  Sn11  1  0.264654  0.265333  0.658142  1
  Sn  Sn12  1  0.893487  0.892810  0.658142  1
  Sn  Sn13  1  0.867335  0.355599  0.848283  1
  Sn  Sn14  1  0.480947  0.992683  0.848283  1
  Sn  Sn15  1  0.393654  0.735790  0.000688  1
  Sn  Sn16  1  0.107033  0.764898  0.000687  1
  Pt  Pt17  1  0.750000  0.750000  0.000000  1
  Pt  Pt18  1  0.499999  0.000000  0.499999  1
  Pt  Pt19  1  0.000000  0.499999  0.499999  1
