# generated using pymatgen
data_Tb3Y3(AuO7)2
_symmetry_space_group_name_H-M   'P 1'
_cell_length_a   6.51908325
_cell_length_b   6.51618408
_cell_length_c   7.48222700
_cell_angle_alpha   90.00000000
_cell_angle_beta   90.00000000
_cell_angle_gamma   108.98969541
_symmetry_Int_Tables_number   1
_chemical_formula_structural   Tb3Y3(AuO7)2
_chemical_formula_sum   'Tb3 Y3 Au2 O14'
_cell_volume   300.54375209
_cell_formula_units_Z   1
loop_
 _symmetry_equiv_pos_site_id
 _symmetry_equiv_pos_as_xyz
  1  'x, y, z'
loop_
 _atom_site_type_symbol
 _atom_site_label
 _atom_site_symmetry_multiplicity
 _atom_site_fract_x
 _atom_site_fract_y
 _atom_site_fract_z
 _atom_site_occupancy
  Tb  Tb0  1  0.500072  0.500007  0.499990  1
  Tb  Tb1  1  0.500072  0.500007  0.000010  1
  Tb  Tb2  1  0.002284  0.470734  0.750000  1
  Y  Y3  1  0.528628  0.997657  0.750000  1
  Y  Y4  1  0.997708  0.528650  0.250000  1
  Y  Y5  1  0.471293  0.002303  0.250000  1
  Au  Au6  1  0.999958  0.000084  0.499843  1
  Au  Au7  1  0.999958  0.000084  0.000157  1
  O  O8  1  0.670864  0.918942  0.475446  1
  O  O9  1  0.918777  0.671058  0.524340  1
  O  O10  1  0.670864  0.918942  0.024554  1
  O  O11  1  0.918777  0.671058  0.975660  1
  O  O12  1  0.329043  0.081063  0.524472  1
  O  O13  1  0.081301  0.329074  0.475035  1
  O  O14  1  0.329043  0.081063  0.975528  1
  O  O15  1  0.081301  0.329074  0.024965  1
  O  O16  1  0.921079  0.078587  0.750000  1
  O  O17  1  0.078856  0.921237  0.250000  1
  O  O18  1  0.368982  0.632574  0.750000  1
  O  O19  1  0.632127  0.367914  0.250000  1
  O  O20  1  0.638008  0.360891  0.750000  1
  O  O21  1  0.361007  0.638997  0.250000  1
