# generated using pymatgen
data_Nb7V2Si2B4W
_symmetry_space_group_name_H-M   'P 1'
_cell_length_a   7.21113136
_cell_length_b   7.21113085
_cell_length_c   7.23040517
_cell_angle_alpha   129.77147408
_cell_angle_beta   129.77147737
_cell_angle_gamma   73.79899558
_symmetry_Int_Tables_number   1
_chemical_formula_structural   Nb7V2Si2B4W
_chemical_formula_sum   'Nb7 V2 Si2 B4 W1'
_cell_volume   216.64688924
_cell_formula_units_Z   1
loop_
 _symmetry_equiv_pos_site_id
 _symmetry_equiv_pos_as_xyz
  1  'x, y, z'
loop_
 _atom_site_type_symbol
 _atom_site_label
 _atom_site_symmetry_multiplicity
 _atom_site_fract_x
 _atom_site_fract_y
 _atom_site_fract_z
 _atom_site_occupancy
  Nb  Nb0  1  0.191804  0.691804  0.158409  1
  Nb  Nb1  1  0.470072  0.970072  0.165042  1
  Nb  Nb2  1  0.306617  0.466511  0.499807  1
  Nb  Nb3  1  0.033016  0.193343  0.498805  1
  Nb  Nb4  1  0.532160  0.032160  0.838565  1
  Nb  Nb5  1  0.693343  0.533016  0.498805  1
  Nb  Nb6  1  0.966511  0.806617  0.499807  1
  V  V7  1  0.000108  0.001374  0.999288  1
  V  V8  1  0.501374  0.500108  0.999288  1
  Si  Si9  1  0.245435  0.249812  0.998430  1
  Si  Si10  1  0.749812  0.745435  0.998430  1
  B  B11  1  0.120461  0.620461  0.739882  1
  B  B12  1  0.878860  0.378860  0.255874  1
  B  B13  1  0.619886  0.885393  0.503713  1
  B  B14  1  0.385393  0.119886  0.503713  1
  W  W15  1  0.805149  0.305149  0.842139  1
