# generated using pymatgen
data_Eu3Er(Si5Pt3)2
_symmetry_space_group_name_H-M   'P 1'
_cell_length_a   8.25174905
_cell_length_b   8.24186147
_cell_length_c   8.24186189
_cell_angle_alpha   137.03618203
_cell_angle_beta   104.46982139
_cell_angle_gamma   91.03277191
_symmetry_Int_Tables_number   1
_chemical_formula_structural   Eu3Er(Si5Pt3)2
_chemical_formula_sum   'Eu3 Er1 Si10 Pt6'
_cell_volume   352.34845964
_cell_formula_units_Z   1
loop_
 _symmetry_equiv_pos_site_id
 _symmetry_equiv_pos_as_xyz
  1  'x, y, z'
loop_
 _atom_site_type_symbol
 _atom_site_label
 _atom_site_symmetry_multiplicity
 _atom_site_fract_x
 _atom_site_fract_y
 _atom_site_fract_z
 _atom_site_occupancy
  Eu  Eu0  1  0.896138  0.128738  0.767400  1
  Eu  Eu1  1  0.638123  0.371073  0.267050  1
  Eu  Eu2  1  0.362384  0.629324  0.733060  1
  Er  Er3  1  0.101784  0.871079  0.230706  1
  Si  Si4  1  0.999775  0.747034  0.746969  1
  Si  Si5  1  0.999775  0.252806  0.252741  1
  Si  Si6  1  0.271746  0.020344  0.750574  1
  Si  Si7  1  0.730211  0.478876  0.749323  1
  Si  Si8  1  0.730211  0.980888  0.251335  1
  Si  Si9  1  0.271746  0.521172  0.251402  1
  Si  Si10  1  0.762572  0.612973  0.149598  1
  Si  Si11  1  0.238626  0.388307  0.850320  1
  Si  Si12  1  0.457604  0.109207  0.348397  1
  Si  Si13  1  0.539852  0.888310  0.651541  1
  Pt  Pt14  1  0.497487  0.750030  0.249117  1
  Pt  Pt15  1  0.497487  0.248370  0.747457  1
  Pt  Pt16  1  0.025037  0.639487  0.385550  1
  Pt  Pt17  1  0.979035  0.363719  0.615316  1
  Pt  Pt18  1  0.246285  0.133733  0.112552  1
  Pt  Pt19  1  0.754122  0.864530  0.889592  1
