# generated using pymatgen
data_P4Ru7W
_symmetry_space_group_name_H-M   'P 1'
_cell_length_a   3.91527500
_cell_length_b   5.95622283
_cell_length_c   6.96586060
_cell_angle_alpha   91.78122869
_cell_angle_beta   90.00000000
_cell_angle_gamma   90.00000000
_symmetry_Int_Tables_number   1
_chemical_formula_structural   P4Ru7W
_chemical_formula_sum   'P4 Ru7 W1'
_cell_volume   162.36711902
_cell_formula_units_Z   1
loop_
 _symmetry_equiv_pos_site_id
 _symmetry_equiv_pos_as_xyz
  1  'x, y, z'
loop_
 _atom_site_type_symbol
 _atom_site_label
 _atom_site_symmetry_multiplicity
 _atom_site_fract_x
 _atom_site_fract_y
 _atom_site_fract_z
 _atom_site_occupancy
  P  P0  1  0.250000  0.740675  0.605850  1
  P  P1  1  0.750000  0.247255  0.392065  1
  P  P2  1  0.250000  0.247757  0.886834  1
  P  P3  1  0.750000  0.756645  0.118764  1
  Ru  Ru4  1  0.250000  0.964003  0.341719  1
  Ru  Ru5  1  0.750000  0.530862  0.842757  1
  Ru  Ru6  1  0.250000  0.497223  0.147994  1
  Ru  Ru7  1  0.250000  0.354724  0.577938  1
  Ru  Ru8  1  0.750000  0.637598  0.427282  1
  Ru  Ru9  1  0.250000  0.863857  0.919050  1
  Ru  Ru10  1  0.750000  0.140227  0.075474  1
  W  W11  1  0.750000  0.019174  0.664274  1
