# generated using pymatgen
data_Er5Si9P3Ir16Ru3
_symmetry_space_group_name_H-M   'P 1'
_cell_length_a   12.75175600
_cell_length_b   12.75175631
_cell_length_c   3.95864900
_cell_angle_alpha   90.00000000
_cell_angle_beta   90.00000000
_cell_angle_gamma   119.99999919
_symmetry_Int_Tables_number   1
_chemical_formula_structural   Er5Si9P3Ir16Ru3
_chemical_formula_sum   'Er5 Si9 P3 Ir16 Ru3'
_cell_volume   557.46503124
_cell_formula_units_Z   1
loop_
 _symmetry_equiv_pos_site_id
 _symmetry_equiv_pos_as_xyz
  1  'x, y, z'
loop_
 _atom_site_type_symbol
 _atom_site_label
 _atom_site_symmetry_multiplicity
 _atom_site_fract_x
 _atom_site_fract_y
 _atom_site_fract_z
 _atom_site_occupancy
  Er  Er0  1  0.666667  0.333333  0.000000  1
  Er  Er1  1  0.333333  0.666667  0.000000  1
  Er  Er2  1  0.815155  0.815155  0.500000  1
  Er  Er3  1  0.184845  0.000000  0.500000  1
  Er  Er4  1  0.000000  0.184845  0.500000  1
  Si  Si5  1  0.687095  0.165476  0.500000  1
  Si  Si6  1  0.834524  0.521619  0.500000  1
  Si  Si7  1  0.478381  0.312905  0.500000  1
  Si  Si8  1  0.165476  0.687095  0.500000  1
  Si  Si9  1  0.521619  0.834524  0.500000  1
  Si  Si10  1  0.312905  0.478381  0.500000  1
  Si  Si11  1  0.631882  0.631882  0.000000  1
  Si  Si12  1  0.368118  0.000000  0.000000  1
  Si  Si13  1  0.000000  0.368118  0.000000  1
  P  P14  1  0.180743  0.180743  0.000000  1
  P  P15  1  0.819257  0.000000  0.000000  1
  P  P16  1  0.000000  0.819257  0.000000  1
  Ir  Ir17  1  0.807798  0.180972  0.000000  1
  Ir  Ir18  1  0.819028  0.626826  0.000000  1
  Ir  Ir19  1  0.373174  0.192202  0.000000  1
  Ir  Ir20  1  0.180972  0.807798  0.000000  1
  Ir  Ir21  1  0.626826  0.819028  0.000000  1
  Ir  Ir22  1  0.192202  0.373174  0.000000  1
  Ir  Ir23  1  0.445180  0.445180  0.000000  1
  Ir  Ir24  1  0.554820  0.000000  0.000000  1
  Ir  Ir25  1  0.000000  0.554820  0.000000  1
  Ir  Ir26  1  0.872875  0.360508  0.500000  1
  Ir  Ir27  1  0.639492  0.512368  0.500000  1
  Ir  Ir28  1  0.487632  0.127125  0.500000  1
  Ir  Ir29  1  0.360508  0.872875  0.500000  1
  Ir  Ir30  1  0.512368  0.639492  0.500000  1
  Ir  Ir31  1  0.127125  0.487632  0.500000  1
  Ir  Ir32  1  0.000000  0.000000  0.000000  1
  Ru  Ru33  1  0.276864  0.276864  0.500000  1
  Ru  Ru34  1  0.723136  0.000000  0.500000  1
  Ru  Ru35  1  0.000000  0.723136  0.500000  1
