# generated using pymatgen
data_Sm2Th2Pd5Pt7
_symmetry_space_group_name_H-M   'P 1'
_cell_length_a   5.93553200
_cell_length_b   5.93545832
_cell_length_c   9.75145700
_cell_angle_alpha   90.00000000
_cell_angle_beta   90.00000000
_cell_angle_gamma   120.00039947
_symmetry_Int_Tables_number   1
_chemical_formula_structural   Sm2Th2Pd5Pt7
_chemical_formula_sum   'Sm2 Th2 Pd5 Pt7'
_cell_volume   297.51735484
_cell_formula_units_Z   1
loop_
 _symmetry_equiv_pos_site_id
 _symmetry_equiv_pos_as_xyz
  1  'x, y, z'
loop_
 _atom_site_type_symbol
 _atom_site_label
 _atom_site_symmetry_multiplicity
 _atom_site_fract_x
 _atom_site_fract_y
 _atom_site_fract_z
 _atom_site_occupancy
  Sm  Sm0  1  0.999898  0.999796  0.499713  1
  Sm  Sm1  1  0.999898  0.999796  0.000287  1
  Th  Th2  1  0.333732  0.667465  0.250000  1
  Th  Th3  1  0.666536  0.333071  0.750000  1
  Pd  Pd4  1  0.350325  0.174948  0.250000  1
  Pd  Pd5  1  0.824624  0.174948  0.250000  1
  Pd  Pd6  1  0.175918  0.351838  0.750000  1
  Pd  Pd7  1  0.649103  0.824506  0.750000  1
  Pd  Pd8  1  0.175403  0.824506  0.750000  1
  Pt  Pt9  1  0.500280  0.500094  0.500217  1
  Pt  Pt10  1  0.499989  0.999978  0.500520  1
  Pt  Pt11  1  0.999814  0.500094  0.500217  1
  Pt  Pt12  1  0.500280  0.500094  0.999783  1
  Pt  Pt13  1  0.499989  0.999978  0.999480  1
  Pt  Pt14  1  0.999814  0.500094  0.999783  1
  Pt  Pt15  1  0.824398  0.648794  0.250000  1
