# generated using pymatgen
data_Nd4DySi9P3Ir19
_symmetry_space_group_name_H-M   'P 1'
_cell_length_a   12.90241900
_cell_length_b   12.90241908
_cell_length_c   3.98301400
_cell_angle_alpha   90.00000000
_cell_angle_beta   90.00000000
_cell_angle_gamma   119.99999724
_symmetry_Int_Tables_number   1
_chemical_formula_structural   Nd4DySi9P3Ir19
_chemical_formula_sum   'Nd4 Dy1 Si9 P3 Ir19'
_cell_volume   574.22852420
_cell_formula_units_Z   1
loop_
 _symmetry_equiv_pos_site_id
 _symmetry_equiv_pos_as_xyz
  1  'x, y, z'
loop_
 _atom_site_type_symbol
 _atom_site_label
 _atom_site_symmetry_multiplicity
 _atom_site_fract_x
 _atom_site_fract_y
 _atom_site_fract_z
 _atom_site_occupancy
  Nd  Nd0  1  0.333333  0.666667  0.500000  1
  Nd  Nd1  1  0.000028  0.813802  0.000000  1
  Nd  Nd2  1  0.186198  0.186226  0.000000  1
  Nd  Nd3  1  0.813774  0.999972  0.000000  1
  Dy  Dy4  1  0.666667  0.333333  0.500000  1
  Si  Si5  1  0.999897  0.631144  0.500000  1
  Si  Si6  1  0.368856  0.368753  0.500000  1
  Si  Si7  1  0.631247  0.000103  0.500000  1
  Si  Si8  1  0.519862  0.686405  0.000000  1
  Si  Si9  1  0.313595  0.833457  0.000000  1
  Si  Si10  1  0.166543  0.480138  0.000000  1
  Si  Si11  1  0.482288  0.169185  0.000000  1
  Si  Si12  1  0.686897  0.517712  0.000000  1
  Si  Si13  1  0.830815  0.313103  0.000000  1
  P  P14  1  0.999286  0.180587  0.500000  1
  P  P15  1  0.819413  0.818699  0.500000  1
  P  P16  1  0.181301  0.000714  0.500000  1
  Ir  Ir17  1  0.514174  0.874400  0.000000  1
  Ir  Ir18  1  0.125600  0.639775  0.000000  1
  Ir  Ir19  1  0.360225  0.485826  0.000000  1
  Ir  Ir20  1  0.488425  0.360600  0.000000  1
  Ir  Ir21  1  0.872175  0.511575  0.000000  1
  Ir  Ir22  1  0.639400  0.127825  0.000000  1
  Ir  Ir23  1  0.999818  0.446878  0.500000  1
  Ir  Ir24  1  0.553122  0.552940  0.500000  1
  Ir  Ir25  1  0.447060  0.000182  0.500000  1
  Ir  Ir26  1  0.999061  0.280552  0.000000  1
  Ir  Ir27  1  0.719448  0.718509  0.000000  1
  Ir  Ir28  1  0.281491  0.000939  0.000000  1
  Ir  Ir29  1  0.625666  0.804747  0.500000  1
  Ir  Ir30  1  0.195253  0.820919  0.500000  1
  Ir  Ir31  1  0.179081  0.374334  0.500000  1
  Ir  Ir32  1  0.376302  0.180446  0.500000  1
  Ir  Ir33  1  0.804143  0.623698  0.500000  1
  Ir  Ir34  1  0.819554  0.195857  0.500000  1
  Ir  Ir35  1  0.000000  0.000000  0.500000  1
