# generated using pymatgen
data_Ce12AlFe6Si5
_symmetry_space_group_name_H-M   'P 1'
_cell_length_a   7.48166100
_cell_length_b   7.48166033
_cell_length_c   9.59643700
_cell_angle_alpha   90.00000000
_cell_angle_beta   90.00000000
_cell_angle_gamma   119.99999855
_symmetry_Int_Tables_number   1
_chemical_formula_structural   Ce12AlFe6Si5
_chemical_formula_sum   'Ce12 Al1 Fe6 Si5'
_cell_volume   465.19674538
_cell_formula_units_Z   1
loop_
 _symmetry_equiv_pos_site_id
 _symmetry_equiv_pos_as_xyz
  1  'x, y, z'
loop_
 _atom_site_type_symbol
 _atom_site_label
 _atom_site_symmetry_multiplicity
 _atom_site_fract_x
 _atom_site_fract_y
 _atom_site_fract_z
 _atom_site_occupancy
  Ce  Ce0  1  0.000000  0.577353  0.499947  1
  Ce  Ce1  1  0.577353  0.000000  0.499947  1
  Ce  Ce2  1  0.422647  0.422647  0.499947  1
  Ce  Ce3  1  0.000000  0.427574  0.999856  1
  Ce  Ce4  1  0.427574  0.000000  0.999856  1
  Ce  Ce5  1  0.572426  0.572426  0.999856  1
  Ce  Ce6  1  0.000000  0.742285  0.177601  1
  Ce  Ce7  1  0.742285  0.000000  0.177601  1
  Ce  Ce8  1  0.257715  0.257715  0.177601  1
  Ce  Ce9  1  0.000000  0.258562  0.670775  1
  Ce  Ce10  1  0.258562  0.000000  0.670775  1
  Ce  Ce11  1  0.741438  0.741438  0.670775  1
  Al  Al12  1  0.000000  0.000000  0.918947  1
  Fe  Fe13  1  0.000000  0.350550  0.343968  1
  Fe  Fe14  1  0.350550  0.000000  0.343968  1
  Fe  Fe15  1  0.649450  0.649450  0.343968  1
  Fe  Fe16  1  0.000000  0.642921  0.841432  1
  Fe  Fe17  1  0.642921  0.000000  0.841432  1
  Fe  Fe18  1  0.357079  0.357079  0.841432  1
  Si  Si19  1  0.666667  0.333333  0.274076  1
  Si  Si20  1  0.333333  0.666667  0.274076  1
  Si  Si21  1  0.333333  0.666667  0.771148  1
  Si  Si22  1  0.666667  0.333333  0.771148  1
  Si  Si23  1  0.000000  0.000000  0.419124  1
