# generated using pymatgen
data_LiHo16In2AgRh4
_symmetry_space_group_name_H-M   'P 1'
_cell_length_a   9.58690386
_cell_length_b   9.58690336
_cell_length_c   9.58617477
_cell_angle_alpha   59.66110581
_cell_angle_beta   59.66110517
_cell_angle_gamma   59.61656030
_symmetry_Int_Tables_number   1
_chemical_formula_structural   LiHo16In2AgRh4
_chemical_formula_sum   'Li1 Ho16 In2 Ag1 Rh4'
_cell_volume   617.99074927
_cell_formula_units_Z   1
loop_
 _symmetry_equiv_pos_site_id
 _symmetry_equiv_pos_as_xyz
  1  'x, y, z'
loop_
 _atom_site_type_symbol
 _atom_site_label
 _atom_site_symmetry_multiplicity
 _atom_site_fract_x
 _atom_site_fract_y
 _atom_site_fract_z
 _atom_site_occupancy
  Li  Li0  1  0.823344  0.823344  0.818015  1
  Ho  Ho1  1  0.185675  0.185675  0.815750  1
  Ho  Ho2  1  0.599452  0.599452  0.201147  1
  Ho  Ho3  1  0.439866  0.059050  0.440684  1
  Ho  Ho4  1  0.441326  0.441326  0.057870  1
  Ho  Ho5  1  0.813074  0.187287  0.815886  1
  Ho  Ho6  1  0.181376  0.812965  0.192781  1
  Ho  Ho7  1  0.437188  0.062232  0.061448  1
  Ho  Ho8  1  0.187287  0.813074  0.815886  1
  Ho  Ho9  1  0.062232  0.437188  0.061448  1
  Ho  Ho10  1  0.811313  0.811313  0.192780  1
  Ho  Ho11  1  0.202680  0.599618  0.600013  1
  Ho  Ho12  1  0.059050  0.439866  0.440684  1
  Ho  Ho13  1  0.063716  0.063716  0.434352  1
  Ho  Ho14  1  0.812965  0.181376  0.192781  1
  Ho  Ho15  1  0.599618  0.202680  0.600013  1
  Ho  Ho16  1  0.600419  0.600419  0.601430  1
  In  In17  1  0.506685  0.833856  0.828761  1
  In  In18  1  0.833856  0.506685  0.828761  1
  Ag  Ag19  1  0.835152  0.835152  0.497948  1
  Rh  Rh20  1  0.394759  0.822012  0.393372  1
  Rh  Rh21  1  0.393249  0.393249  0.392008  1
  Rh  Rh22  1  0.822012  0.394759  0.393372  1
  Rh  Rh23  1  0.393706  0.393706  0.822810  1
