# generated using pymatgen
data_TlIr3RuPb3O13
_symmetry_space_group_name_H-M   'P 1'
_cell_length_a   7.34119177
_cell_length_b   7.34551237
_cell_length_c   7.34551500
_cell_angle_alpha   59.99999265
_cell_angle_beta   59.98052193
_cell_angle_gamma   59.98051803
_symmetry_Int_Tables_number   1
_chemical_formula_structural   TlIr3RuPb3O13
_chemical_formula_sum   'Tl1 Ir3 Ru1 Pb3 O13'
_cell_volume   280.00639788
_cell_formula_units_Z   1
loop_
 _symmetry_equiv_pos_site_id
 _symmetry_equiv_pos_as_xyz
  1  'x, y, z'
loop_
 _atom_site_type_symbol
 _atom_site_label
 _atom_site_symmetry_multiplicity
 _atom_site_fract_x
 _atom_site_fract_y
 _atom_site_fract_z
 _atom_site_occupancy
  Tl  Tl0  1  0.883842  0.372053  0.372053  1
  Ir  Ir1  1  0.874061  0.374446  0.875747  1
  Ir  Ir2  1  0.874061  0.875747  0.374446  1
  Ir  Ir3  1  0.874061  0.875747  0.875747  1
  Ru  Ru4  1  0.372819  0.875726  0.875726  1
  Pb  Pb5  1  0.371939  0.374931  0.374931  1
  Pb  Pb6  1  0.371939  0.374931  0.878198  1
  Pb  Pb7  1  0.371939  0.878198  0.374931  1
  O  O8  1  0.200735  0.799325  0.799325  1
  O  O9  1  0.200735  0.799325  0.200614  1
  O  O10  1  0.552406  0.946732  0.946732  1
  O  O11  1  0.552406  0.946732  0.554131  1
  O  O12  1  0.953794  0.948321  0.548942  1
  O  O13  1  0.798523  0.798769  0.201354  1
  O  O14  1  0.552406  0.554131  0.946732  1
  O  O15  1  0.798523  0.201354  0.798769  1
  O  O16  1  0.798523  0.201354  0.201354  1
  O  O17  1  0.953794  0.548942  0.948321  1
  O  O18  1  0.953794  0.548942  0.548942  1
  O  O19  1  0.200735  0.200614  0.799325  1
  O  O20  1  0.488960  0.503680  0.503680  1
