# generated using pymatgen
data_KRb7(SiAu8)2
_symmetry_space_group_name_H-M   'P 1'
_cell_length_a   10.93315592
_cell_length_b   10.93315603
_cell_length_c   10.45571384
_cell_angle_alpha   77.65440240
_cell_angle_beta   77.65440061
_cell_angle_gamma   35.68910092
_symmetry_Int_Tables_number   1
_chemical_formula_structural   KRb7(SiAu8)2
_chemical_formula_sum   'K1 Rb7 Si2 Au16'
_cell_volume   710.49320876
_cell_formula_units_Z   1
loop_
 _symmetry_equiv_pos_site_id
 _symmetry_equiv_pos_as_xyz
  1  'x, y, z'
loop_
 _atom_site_type_symbol
 _atom_site_label
 _atom_site_symmetry_multiplicity
 _atom_site_fract_x
 _atom_site_fract_y
 _atom_site_fract_z
 _atom_site_occupancy
  K  K0  1  0.961005  0.961005  0.352121  1
  Rb  Rb1  1  0.478879  0.478879  0.842012  1
  Rb  Rb2  1  0.520665  0.520665  0.157904  1
  Rb  Rb3  1  0.282579  0.282579  0.915010  1
  Rb  Rb4  1  0.717493  0.717493  0.085170  1
  Rb  Rb5  1  0.220484  0.220484  0.600294  1
  Rb  Rb6  1  0.780704  0.780704  0.399402  1
  Rb  Rb7  1  0.040463  0.040463  0.647483  1
  Si  Si8  1  0.663515  0.663515  0.772893  1
  Si  Si9  1  0.335804  0.335804  0.227065  1
  Au  Au10  1  0.781679  0.781679  0.735285  1
  Au  Au11  1  0.217657  0.217657  0.264567  1
  Au  Au12  1  0.621038  0.621038  0.578262  1
  Au  Au13  1  0.379562  0.379562  0.419823  1
  Au  Au14  1  0.499925  0.499925  0.498869  1
  Au  Au15  1  0.000018  0.000018  0.003913  1
  Au  Au16  1  0.110404  0.110404  0.141632  1
  Au  Au17  1  0.887822  0.887822  0.860602  1
  Au  Au18  1  0.847945  0.373095  0.360018  1
  Au  Au19  1  0.629710  0.148557  0.637006  1
  Au  Au20  1  0.148557  0.629710  0.637006  1
  Au  Au21  1  0.373095  0.847945  0.360018  1
  Au  Au22  1  0.093734  0.666909  0.099625  1
  Au  Au23  1  0.333690  0.906662  0.902196  1
  Au  Au24  1  0.906662  0.333690  0.902196  1
  Au  Au25  1  0.666909  0.093734  0.099625  1
