# generated using pymatgen
data_CaTb5(Si3Ru)8
_symmetry_space_group_name_H-M   'P 1'
_cell_length_a   10.14482093
_cell_length_b   10.14482045
_cell_length_c   8.15762551
_cell_angle_alpha   89.86746488
_cell_angle_beta   90.13253511
_cell_angle_gamma   132.57439065
_symmetry_Int_Tables_number   1
_chemical_formula_structural   CaTb5(Si3Ru)8
_chemical_formula_sum   'Ca1 Tb5 Si24 Ru8'
_cell_volume   618.25074216
_cell_formula_units_Z   1
loop_
 _symmetry_equiv_pos_site_id
 _symmetry_equiv_pos_as_xyz
  1  'x, y, z'
loop_
 _atom_site_type_symbol
 _atom_site_label
 _atom_site_symmetry_multiplicity
 _atom_site_fract_x
 _atom_site_fract_y
 _atom_site_fract_z
 _atom_site_occupancy
  Ca  Ca0  1  0.502155  0.002155  0.750000  1
  Tb  Tb1  1  0.500139  0.500282  0.500484  1
  Tb  Tb2  1  0.000282  0.000139  0.999516  1
  Tb  Tb3  1  0.998066  0.498066  0.250000  1
  Tb  Tb4  1  0.496765  0.996765  0.250000  1
  Tb  Tb5  1  0.003181  0.503181  0.750000  1
  Si  Si6  1  0.793692  0.204076  0.500400  1
  Si  Si7  1  0.295315  0.705902  0.998800  1
  Si  Si8  1  0.205902  0.795315  0.501200  1
  Si  Si9  1  0.704076  0.293692  0.999600  1
  Si  Si10  1  0.332720  0.333932  0.833297  1
  Si  Si11  1  0.667066  0.668196  0.166743  1
  Si  Si12  1  0.168196  0.167066  0.333257  1
  Si  Si13  1  0.833932  0.832720  0.666703  1
  Si  Si14  1  0.120617  0.886258  0.728037  1
  Si  Si15  1  0.111558  0.877717  0.272385  1
  Si  Si16  1  0.611595  0.378177  0.228470  1
  Si  Si17  1  0.623983  0.390203  0.772004  1
  Si  Si18  1  0.878177  0.111595  0.271530  1
  Si  Si19  1  0.890203  0.123983  0.727996  1
  Si  Si20  1  0.386258  0.620617  0.771963  1
  Si  Si21  1  0.377717  0.611558  0.227615  1
  Si  Si22  1  0.344416  0.111241  0.503059  1
  Si  Si23  1  0.888435  0.655193  0.494651  1
  Si  Si24  1  0.388284  0.154864  0.006518  1
  Si  Si25  1  0.844558  0.611634  0.994433  1
  Si  Si26  1  0.654864  0.888284  0.493482  1
  Si  Si27  1  0.111634  0.344558  0.505567  1
  Si  Si28  1  0.611241  0.844416  0.996941  1
  Si  Si29  1  0.155193  0.388435  0.005349  1
  Ru  Ru30  1  0.670141  0.331055  0.499715  1
  Ru  Ru31  1  0.167814  0.829316  0.001822  1
  Ru  Ru32  1  0.329316  0.667814  0.498178  1
  Ru  Ru33  1  0.831055  0.170141  0.000285  1
  Ru  Ru34  1  0.126786  0.126360  0.626915  1
  Ru  Ru35  1  0.874071  0.874237  0.373179  1
  Ru  Ru36  1  0.374237  0.374071  0.126821  1
  Ru  Ru37  1  0.626360  0.626786  0.873085  1
