# generated using pymatgen
data_Zr6Be9(Al3Pd4)2
_symmetry_space_group_name_H-M   'P 1'
_cell_length_a   8.38504569
_cell_length_b   8.38682374
_cell_length_c   8.38504640
_cell_angle_alpha   59.99298564
_cell_angle_beta   60.02579024
_cell_angle_gamma   59.99299058
_symmetry_Int_Tables_number   1
_chemical_formula_structural   Zr6Be9(Al3Pd4)2
_chemical_formula_sum   'Zr6 Be9 Al6 Pd8'
_cell_volume   416.99605241
_cell_formula_units_Z   1
loop_
 _symmetry_equiv_pos_site_id
 _symmetry_equiv_pos_as_xyz
  1  'x, y, z'
loop_
 _atom_site_type_symbol
 _atom_site_label
 _atom_site_symmetry_multiplicity
 _atom_site_fract_x
 _atom_site_fract_y
 _atom_site_fract_z
 _atom_site_occupancy
  Zr  Zr0  1  0.700699  0.303923  0.299301  1
  Zr  Zr1  1  0.299301  0.696077  0.700699  1
  Zr  Zr2  1  0.301456  0.698544  0.301456  1
  Zr  Zr3  1  0.698544  0.301456  0.698544  1
  Zr  Zr4  1  0.299301  0.303923  0.700699  1
  Zr  Zr5  1  0.700699  0.696077  0.299301  1
  Be  Be6  1  0.325454  0.326480  0.325454  1
  Be  Be7  1  0.674546  0.673520  0.674546  1
  Be  Be8  1  0.314244  0.332342  0.021070  1
  Be  Be9  1  0.325454  0.022610  0.325454  1
  Be  Be10  1  0.685756  0.667658  0.978930  1
  Be  Be11  1  0.674546  0.977390  0.674546  1
  Be  Be12  1  0.021070  0.332342  0.314244  1
  Be  Be13  1  0.978930  0.667658  0.685756  1
  Be  Be14  1  0.000000  0.500000  0.000000  1
  Al  Al15  1  0.500000  0.000000  0.000000  1
  Al  Al16  1  0.000000  0.500000  0.500000  1
  Al  Al17  1  0.500000  0.000000  0.500000  1
  Al  Al18  1  0.000000  0.000000  0.500000  1
  Al  Al19  1  0.500000  0.500000  0.000000  1
  Al  Al20  1  0.000000  0.000000  0.000000  1
  Pd  Pd21  1  0.123382  0.133264  0.123382  1
  Pd  Pd22  1  0.876618  0.866736  0.876618  1
  Pd  Pd23  1  0.125371  0.126430  0.621769  1
  Pd  Pd24  1  0.123382  0.619972  0.123382  1
  Pd  Pd25  1  0.874629  0.873570  0.378231  1
  Pd  Pd26  1  0.876618  0.380028  0.876618  1
  Pd  Pd27  1  0.621769  0.126430  0.125371  1
  Pd  Pd28  1  0.378231  0.873570  0.874629  1
