# generated using pymatgen
data_BaGa3CuNi
_symmetry_space_group_name_H-M   'P 1'
_cell_length_a   6.69620775
_cell_length_b   6.69620689
_cell_length_c   5.20216993
_cell_angle_alpha   89.94099705
_cell_angle_beta   90.05900022
_cell_angle_gamma   73.62941258
_symmetry_Int_Tables_number   1
_chemical_formula_structural   BaGa3CuNi
_chemical_formula_sum   'Ba2 Ga6 Cu2 Ni2'
_cell_volume   223.80408022
_cell_formula_units_Z   2
loop_
 _symmetry_equiv_pos_site_id
 _symmetry_equiv_pos_as_xyz
  1  'x, y, z'
loop_
 _atom_site_type_symbol
 _atom_site_label
 _atom_site_symmetry_multiplicity
 _atom_site_fract_x
 _atom_site_fract_y
 _atom_site_fract_z
 _atom_site_occupancy
  Ba  Ba0  1  0.346152  0.653849  0.245860  1
  Ba  Ba1  1  0.653849  0.346152  0.754142  1
  Ga  Ga2  1  0.926463  0.073537  0.259231  1
  Ga  Ga3  1  0.525157  0.077190  0.261596  1
  Ga  Ga4  1  0.922811  0.474843  0.261596  1
  Ga  Ga5  1  0.077190  0.525157  0.738406  1
  Ga  Ga6  1  0.474843  0.922811  0.738406  1
  Ga  Ga7  1  0.073537  0.926463  0.740771  1
  Cu  Cu8  1  0.200298  0.200298  0.000000  1
  Cu  Cu9  1  0.799702  0.799702  0.000000  1
  Ni  Ni10  1  0.196811  0.196811  0.500000  1
  Ni  Ni11  1  0.803189  0.803189  0.500000  1
