# generated using pymatgen
data_SrMn2Ni6(TeO6)3
_symmetry_space_group_name_H-M   'P 1'
_cell_length_a   9.40302500
_cell_length_b   9.40302447
_cell_length_c   8.90835300
_cell_angle_alpha   90.00000000
_cell_angle_beta   90.00000000
_cell_angle_gamma   119.99999470
_symmetry_Int_Tables_number   1
_chemical_formula_structural   SrMn2Ni6(TeO6)3
_chemical_formula_sum   'Sr2 Mn4 Ni12 Te6 O36'
_cell_volume   682.12384301
_cell_formula_units_Z   2
loop_
 _symmetry_equiv_pos_site_id
 _symmetry_equiv_pos_as_xyz
  1  'x, y, z'
loop_
 _atom_site_type_symbol
 _atom_site_label
 _atom_site_symmetry_multiplicity
 _atom_site_fract_x
 _atom_site_fract_y
 _atom_site_fract_z
 _atom_site_occupancy
  Sr  Sr0  1  0.000000  0.000000  0.000000  1
  Sr  Sr1  1  0.000000  0.000000  0.500000  1
  Mn  Mn2  1  0.333333  0.666667  0.060203  1
  Mn  Mn3  1  0.333333  0.666667  0.439797  1
  Mn  Mn4  1  0.666667  0.333334  0.560203  1
  Mn  Mn5  1  0.666667  0.333334  0.939797  1
  Ni  Ni6  1  0.348539  0.359687  0.089082  1
  Ni  Ni7  1  0.011149  0.651461  0.089082  1
  Ni  Ni8  1  0.640313  0.988852  0.089082  1
  Ni  Ni9  1  0.348539  0.359687  0.410917  1
  Ni  Ni10  1  0.011149  0.651461  0.410917  1
  Ni  Ni11  1  0.640313  0.988852  0.410917  1
  Ni  Ni12  1  0.359687  0.011148  0.589082  1
  Ni  Ni13  1  0.988852  0.348539  0.589082  1
  Ni  Ni14  1  0.651462  0.640313  0.589082  1
  Ni  Ni15  1  0.359687  0.011148  0.910918  1
  Ni  Ni16  1  0.988852  0.348539  0.910918  1
  Ni  Ni17  1  0.651462  0.640313  0.910918  1
  Te  Te18  1  0.361155  0.024651  0.250000  1
  Te  Te19  1  0.975349  0.336505  0.250000  1
  Te  Te20  1  0.663494  0.638845  0.250000  1
  Te  Te21  1  0.336505  0.361155  0.750001  1
  Te  Te22  1  0.024651  0.663495  0.750001  1
  Te  Te23  1  0.638845  0.975349  0.750001  1
  O  O24  1  0.522350  0.129303  0.087405  1
  O  O25  1  0.870696  0.393047  0.087405  1
  O  O26  1  0.606953  0.477650  0.087405  1
  O  O27  1  0.099668  0.303658  0.090619  1
  O  O28  1  0.696341  0.796010  0.090619  1
  O  O29  1  0.203990  0.900331  0.090619  1
  O  O30  1  0.816509  0.104118  0.250000  1
  O  O31  1  0.287609  0.183491  0.250000  1
  O  O32  1  0.419073  0.552359  0.250000  1
  O  O33  1  0.133283  0.580926  0.250000  1
  O  O34  1  0.895882  0.712391  0.250000  1
  O  O35  1  0.447642  0.866716  0.250000  1
  O  O36  1  0.099668  0.303658  0.409381  1
  O  O37  1  0.696341  0.796010  0.409381  1
  O  O38  1  0.203990  0.900331  0.409381  1
  O  O39  1  0.522350  0.129303  0.412595  1
  O  O40  1  0.870696  0.393047  0.412595  1
  O  O41  1  0.606953  0.477650  0.412595  1
  O  O42  1  0.393047  0.522350  0.587405  1
  O  O43  1  0.129303  0.606953  0.587405  1
  O  O44  1  0.477650  0.870697  0.587405  1
  O  O45  1  0.796010  0.099668  0.590618  1
  O  O46  1  0.303659  0.203991  0.590618  1
  O  O47  1  0.900332  0.696342  0.590618  1
  O  O48  1  0.552358  0.133284  0.750001  1
  O  O49  1  0.104118  0.287610  0.750001  1
  O  O50  1  0.866716  0.419074  0.750001  1
  O  O51  1  0.580927  0.447642  0.750001  1
  O  O52  1  0.712390  0.816509  0.750001  1
  O  O53  1  0.183492  0.895882  0.750001  1
  O  O54  1  0.796010  0.099668  0.909382  1
  O  O55  1  0.303659  0.203991  0.909382  1
  O  O56  1  0.900332  0.696342  0.909382  1
  O  O57  1  0.393047  0.522350  0.912595  1
  O  O58  1  0.129303  0.606953  0.912595  1
  O  O59  1  0.477650  0.870697  0.912595  1
