# generated using pymatgen
data_Zn3InP6N13
_symmetry_space_group_name_H-M   'P 1'
_cell_length_a   7.04911202
_cell_length_b   7.08742517
_cell_length_c   7.04911202
_cell_angle_alpha   109.58134970
_cell_angle_beta   109.36085104
_cell_angle_gamma   109.58136452
_symmetry_Int_Tables_number   1
_chemical_formula_structural   Zn3InP6N13
_chemical_formula_sum   'Zn3 In1 P6 N13'
_cell_volume   270.73434603
_cell_formula_units_Z   1
loop_
 _symmetry_equiv_pos_site_id
 _symmetry_equiv_pos_as_xyz
  1  'x, y, z'
loop_
 _atom_site_type_symbol
 _atom_site_label
 _atom_site_symmetry_multiplicity
 _atom_site_fract_x
 _atom_site_fract_y
 _atom_site_fract_z
 _atom_site_occupancy
  Zn  Zn0  1  0.709233  0.004132  0.000000  1
  Zn  Zn1  1  0.000000  0.004132  0.709233  1
  Zn  Zn2  1  0.290767  0.294898  0.290767  1
  In  In3  1  0.000000  0.719038  0.000000  1
  P  P4  1  0.496272  0.244842  0.747115  1
  P  P5  1  0.503728  0.748571  0.250843  1
  P  P6  1  0.749157  0.497727  0.252885  1
  P  P7  1  0.250843  0.748571  0.503728  1
  P  P8  1  0.747115  0.244842  0.496272  1
  P  P9  1  0.252885  0.497727  0.749157  1
  N  N10  1  0.000000  0.732964  0.455504  1
  N  N11  1  0.279455  0.543338  0.544316  1
  N  N12  1  0.730005  0.451188  0.000000  1
  N  N13  1  0.269995  0.721184  0.269995  1
  N  N14  1  0.455684  0.999022  0.735140  1
  N  N15  1  0.720545  0.263882  0.264860  1
  N  N16  1  0.544496  0.277459  0.544496  1
  N  N17  1  0.735140  0.999022  0.455684  1
  N  N18  1  0.264860  0.263882  0.720545  1
  N  N19  1  0.455504  0.732964  0.000000  1
  N  N20  1  0.544316  0.543338  0.279455  1
  N  N21  1  0.000000  0.451188  0.730005  1
  N  N22  1  0.000000  0.016086  0.000000  1
