# generated using pymatgen
data_Zr8Nb2Ga6C
_symmetry_space_group_name_H-M   'P 1'
_cell_length_a   8.10281500
_cell_length_b   8.10281370
_cell_length_c   5.60930500
_cell_angle_alpha   90.00000000
_cell_angle_beta   90.00000000
_cell_angle_gamma   119.99999305
_symmetry_Int_Tables_number   1
_chemical_formula_structural   Zr8Nb2Ga6C
_chemical_formula_sum   'Zr8 Nb2 Ga6 C1'
_cell_volume   318.94183922
_cell_formula_units_Z   1
loop_
 _symmetry_equiv_pos_site_id
 _symmetry_equiv_pos_as_xyz
  1  'x, y, z'
loop_
 _atom_site_type_symbol
 _atom_site_label
 _atom_site_symmetry_multiplicity
 _atom_site_fract_x
 _atom_site_fract_y
 _atom_site_fract_z
 _atom_site_occupancy
  Zr  Zr0  1  0.000000  0.762483  0.262485  1
  Zr  Zr1  1  0.237517  0.237517  0.262485  1
  Zr  Zr2  1  0.762483  0.000000  0.262485  1
  Zr  Zr3  1  0.000000  0.237517  0.737515  1
  Zr  Zr4  1  0.762483  0.762483  0.737515  1
  Zr  Zr5  1  0.237517  0.000000  0.737515  1
  Zr  Zr6  1  0.333333  0.666667  0.000000  1
  Zr  Zr7  1  0.666667  0.333333  0.000000  1
  Nb  Nb8  1  0.666667  0.333333  0.500000  1
  Nb  Nb9  1  0.333333  0.666667  0.500000  1
  Ga  Ga10  1  0.000000  0.398974  0.255981  1
  Ga  Ga11  1  0.601026  0.601026  0.255981  1
  Ga  Ga12  1  0.398974  0.000000  0.255981  1
  Ga  Ga13  1  0.000000  0.601026  0.744019  1
  Ga  Ga14  1  0.398974  0.398974  0.744019  1
  Ga  Ga15  1  0.601026  0.000000  0.744019  1
  C  C16  1  0.000000  0.000000  0.500000  1
