# generated using pymatgen
data_Hf18VRe7PtSe
_symmetry_space_group_name_H-M   'P 1'
_cell_length_a   8.66569500
_cell_length_b   8.66567705
_cell_length_c   8.54599700
_cell_angle_alpha   90.00017881
_cell_angle_beta   89.99938067
_cell_angle_gamma   120.00043594
_symmetry_Int_Tables_number   1
_chemical_formula_structural   Hf18VRe7PtSe
_chemical_formula_sum   'Hf18 V1 Re7 Pt1 Se1'
_cell_volume   555.77289127
_cell_formula_units_Z   1
loop_
 _symmetry_equiv_pos_site_id
 _symmetry_equiv_pos_as_xyz
  1  'x, y, z'
loop_
 _atom_site_type_symbol
 _atom_site_label
 _atom_site_symmetry_multiplicity
 _atom_site_fract_x
 _atom_site_fract_y
 _atom_site_fract_z
 _atom_site_occupancy
  Hf  Hf0  1  0.193470  0.806526  0.446927  1
  Hf  Hf1  1  0.193471  0.386946  0.446931  1
  Hf  Hf2  1  0.613054  0.806529  0.446931  1
  Hf  Hf3  1  0.807597  0.192402  0.547960  1
  Hf  Hf4  1  0.807593  0.615188  0.547960  1
  Hf  Hf5  1  0.384808  0.192402  0.547958  1
  Hf  Hf6  1  0.808386  0.191612  0.951003  1
  Hf  Hf7  1  0.808386  0.616777  0.951005  1
  Hf  Hf8  1  0.383221  0.191614  0.951010  1
  Hf  Hf9  1  0.193361  0.806640  0.053869  1
  Hf  Hf10  1  0.193361  0.386714  0.053870  1
  Hf  Hf11  1  0.613286  0.806641  0.053867  1
  Hf  Hf12  1  0.542549  0.457454  0.248739  1
  Hf  Hf13  1  0.542547  0.085097  0.248732  1
  Hf  Hf14  1  0.914900  0.457450  0.248731  1
  Hf  Hf15  1  0.454550  0.545451  0.750619  1
  Hf  Hf16  1  0.454554  0.909105  0.750623  1
  Hf  Hf17  1  0.090901  0.545449  0.750622  1
  V  V18  1  0.999998  0.999998  0.498756  1
  Re  Re19  1  0.890336  0.109662  0.254323  1
  Re  Re20  1  0.890334  0.780670  0.254329  1
  Re  Re21  1  0.219331  0.109666  0.254326  1
  Re  Re22  1  0.109304  0.890707  0.746521  1
  Re  Re23  1  0.109300  0.218596  0.746532  1
  Re  Re24  1  0.781404  0.890705  0.746536  1
  Re  Re25  1  0.000003  0.999999  0.000925  1
  Pt  Pt26  1  0.333331  0.666665  0.248759  1
  Se  Se27  1  0.666665  0.333331  0.751638  1
