# generated using pymatgen
data_Zr2TiSiGeMo
_symmetry_space_group_name_H-M   'P 1'
_cell_length_a   3.60723300
_cell_length_b   6.99343100
_cell_length_c   8.39541000
_cell_angle_alpha   90.00000000
_cell_angle_beta   90.00000000
_cell_angle_gamma   90.00000000
_symmetry_Int_Tables_number   1
_chemical_formula_structural   Zr2TiSiGeMo
_chemical_formula_sum   'Zr4 Ti2 Si2 Ge2 Mo2'
_cell_volume   211.79046309
_cell_formula_units_Z   2
loop_
 _symmetry_equiv_pos_site_id
 _symmetry_equiv_pos_as_xyz
  1  'x, y, z'
loop_
 _atom_site_type_symbol
 _atom_site_label
 _atom_site_symmetry_multiplicity
 _atom_site_fract_x
 _atom_site_fract_y
 _atom_site_fract_z
 _atom_site_occupancy
  Zr  Zr0  1  0.250000  0.055808  0.337511  1
  Zr  Zr1  1  0.250000  0.555808  0.162489  1
  Zr  Zr2  1  0.750000  0.956347  0.668829  1
  Zr  Zr3  1  0.750000  0.456347  0.831171  1
  Ti  Ti4  1  0.250000  0.119389  0.938516  1
  Ti  Ti5  1  0.250000  0.619389  0.561484  1
  Si  Si6  1  0.250000  0.253193  0.640102  1
  Si  Si7  1  0.250000  0.753193  0.859898  1
  Ge  Ge8  1  0.750000  0.748637  0.362817  1
  Ge  Ge9  1  0.750000  0.248637  0.137183  1
  Mo  Mo10  1  0.750000  0.866627  0.055486  1
  Mo  Mo11  1  0.750000  0.366627  0.444514  1
