# generated using pymatgen
data_Nd8Pd17Pt7Pb
_symmetry_space_group_name_H-M   'P 1'
_cell_length_a   8.57043700
_cell_length_b   8.57528500
_cell_length_c   8.58410700
_cell_angle_alpha   90.00000000
_cell_angle_beta   90.00000000
_cell_angle_gamma   90.00000000
_symmetry_Int_Tables_number   1
_chemical_formula_structural   Nd8Pd17Pt7Pb
_chemical_formula_sum   'Nd8 Pd17 Pt7 Pb1'
_cell_volume   630.87984352
_cell_formula_units_Z   1
loop_
 _symmetry_equiv_pos_site_id
 _symmetry_equiv_pos_as_xyz
  1  'x, y, z'
loop_
 _atom_site_type_symbol
 _atom_site_label
 _atom_site_symmetry_multiplicity
 _atom_site_fract_x
 _atom_site_fract_y
 _atom_site_fract_z
 _atom_site_occupancy
  Nd  Nd0  1  0.251594  0.251498  0.251527  1
  Nd  Nd1  1  0.748175  0.747276  0.747495  1
  Nd  Nd2  1  0.748175  0.747276  0.252505  1
  Nd  Nd3  1  0.748175  0.252724  0.747495  1
  Nd  Nd4  1  0.251594  0.251498  0.748473  1
  Nd  Nd5  1  0.251594  0.748502  0.251527  1
  Nd  Nd6  1  0.251594  0.748502  0.748473  1
  Nd  Nd7  1  0.748175  0.252724  0.252505  1
  Pd  Pd8  1  0.500343  0.000000  0.269904  1
  Pd  Pd9  1  0.269035  0.000000  0.500000  1
  Pd  Pd10  1  0.500343  0.000000  0.730096  1
  Pd  Pd11  1  0.730067  0.000000  0.500000  1
  Pd  Pd12  1  0.000113  0.500000  0.270284  1
  Pd  Pd13  1  0.000113  0.500000  0.729716  1
  Pd  Pd14  1  0.255369  0.500000  0.500000  1
  Pd  Pd15  1  0.744956  0.500000  0.500000  1
  Pd  Pd16  1  0.499921  0.255958  0.500000  1
  Pd  Pd17  1  0.499921  0.744042  0.500000  1
  Pd  Pd18  1  0.499790  0.500000  0.255682  1
  Pd  Pd19  1  0.499790  0.500000  0.744318  1
  Pd  Pd20  1  0.680081  0.000000  0.000000  1
  Pd  Pd21  1  0.999220  0.323243  0.000000  1
  Pd  Pd22  1  0.999220  0.676757  0.000000  1
  Pd  Pd23  1  0.999236  0.000000  0.321558  1
  Pd  Pd24  1  0.999236  0.000000  0.678442  1
  Pt  Pt25  1  0.268368  0.500000  0.000000  1
  Pt  Pt26  1  0.730251  0.500000  0.000000  1
  Pt  Pt27  1  0.000065  0.267531  0.500000  1
  Pt  Pt28  1  0.499745  0.268027  0.000000  1
  Pt  Pt29  1  0.000065  0.732469  0.500000  1
  Pt  Pt30  1  0.499745  0.731973  0.000000  1
  Pt  Pt31  1  0.323934  0.000000  0.000000  1
  Pb  Pb32  1  0.002000  0.000000  0.000000  1
