# generated using pymatgen
data_Dy16Sc4(Ir3Os)3
_symmetry_space_group_name_H-M   'P 1'
_cell_length_a   10.73963800
_cell_length_b   10.73963800
_cell_length_c   6.30402600
_cell_angle_alpha   90.00000000
_cell_angle_beta   90.00000000
_cell_angle_gamma   90.00000000
_symmetry_Int_Tables_number   1
_chemical_formula_structural   Dy16Sc4(Ir3Os)3
_chemical_formula_sum   'Dy16 Sc4 Ir9 Os3'
_cell_volume   727.10525167
_cell_formula_units_Z   1
loop_
 _symmetry_equiv_pos_site_id
 _symmetry_equiv_pos_as_xyz
  1  'x, y, z'
loop_
 _atom_site_type_symbol
 _atom_site_label
 _atom_site_symmetry_multiplicity
 _atom_site_fract_x
 _atom_site_fract_y
 _atom_site_fract_z
 _atom_site_occupancy
  Dy  Dy0  1  0.290351  0.085094  0.377243  1
  Dy  Dy1  1  0.290404  0.915092  0.877275  1
  Dy  Dy2  1  0.709596  0.084908  0.877275  1
  Dy  Dy3  1  0.709649  0.914906  0.377243  1
  Dy  Dy4  1  0.584908  0.790404  0.877275  1
  Dy  Dy5  1  0.585094  0.209649  0.377243  1
  Dy  Dy6  1  0.414906  0.790351  0.377243  1
  Dy  Dy7  1  0.415092  0.209596  0.877275  1
  Dy  Dy8  1  0.211375  0.414419  0.624162  1
  Dy  Dy9  1  0.211049  0.585608  0.120721  1
  Dy  Dy10  1  0.788951  0.414392  0.120721  1
  Dy  Dy11  1  0.788625  0.585581  0.624162  1
  Dy  Dy12  1  0.914392  0.711049  0.120721  1
  Dy  Dy13  1  0.914419  0.288625  0.624162  1
  Dy  Dy14  1  0.085581  0.711375  0.624162  1
  Dy  Dy15  1  0.085608  0.288951  0.120721  1
  Sc  Sc16  1  0.000000  0.000000  0.499799  1
  Sc  Sc17  1  0.000000  0.000000  0.999864  1
  Sc  Sc18  1  0.500000  0.500000  0.999864  1
  Sc  Sc19  1  0.500000  0.500000  0.499799  1
  Ir  Ir20  1  0.854261  0.146770  0.250334  1
  Ir  Ir21  1  0.854057  0.853318  0.749888  1
  Ir  Ir22  1  0.145943  0.146682  0.749888  1
  Ir  Ir23  1  0.145739  0.853230  0.250334  1
  Ir  Ir24  1  0.646682  0.354057  0.749888  1
  Ir  Ir25  1  0.646770  0.645739  0.250334  1
  Ir  Ir26  1  0.353230  0.354261  0.250334  1
  Ir  Ir27  1  0.353318  0.645943  0.749888  1
  Ir  Ir28  1  0.000000  0.500000  0.377240  1
  Os  Os29  1  0.500000  0.000000  0.124609  1
  Os  Os30  1  0.500000  0.000000  0.624274  1
  Os  Os31  1  0.000000  0.500000  0.876060  1
