# generated using pymatgen
data_DyRe3Si2Mo
_symmetry_space_group_name_H-M   'P 1'
_cell_length_a   7.81288600
_cell_length_b   7.05150061
_cell_length_c   4.20404200
_cell_angle_alpha   90.00000000
_cell_angle_beta   90.00000000
_cell_angle_gamma   89.70091321
_symmetry_Int_Tables_number   1
_chemical_formula_structural   DyRe3Si2Mo
_chemical_formula_sum   'Dy2 Re6 Si4 Mo2'
_cell_volume   231.60832414
_cell_formula_units_Z   2
loop_
 _symmetry_equiv_pos_site_id
 _symmetry_equiv_pos_as_xyz
  1  'x, y, z'
loop_
 _atom_site_type_symbol
 _atom_site_label
 _atom_site_symmetry_multiplicity
 _atom_site_fract_x
 _atom_site_fract_y
 _atom_site_fract_z
 _atom_site_occupancy
  Dy  Dy0  1  0.500000  0.500000  0.000000  1
  Dy  Dy1  1  0.000000  0.000000  0.500000  1
  Re  Re2  1  0.109686  0.345376  0.000000  1
  Re  Re3  1  0.890314  0.654624  0.000000  1
  Re  Re4  1  0.157241  0.577032  0.500000  1
  Re  Re5  1  0.842759  0.422968  0.500000  1
  Re  Re6  1  0.335307  0.078215  0.000000  1
  Re  Re7  1  0.664693  0.921785  0.000000  1
  Si  Si8  1  0.688952  0.726567  0.500000  1
  Si  Si9  1  0.311048  0.273433  0.500000  1
  Si  Si10  1  0.187803  0.770372  0.000000  1
  Si  Si11  1  0.812197  0.229628  0.000000  1
  Mo  Mo12  1  0.612825  0.151225  0.500000  1
  Mo  Mo13  1  0.387175  0.848775  0.500000  1
