# generated using pymatgen
data_Dy4VZn2Os5
_symmetry_space_group_name_H-M   'P 1'
_cell_length_a   5.26056810
_cell_length_b   5.26722266
_cell_length_c   8.88877800
_cell_angle_alpha   90.00000000
_cell_angle_beta   90.00000000
_cell_angle_gamma   117.91745522
_symmetry_Int_Tables_number   1
_chemical_formula_structural   Dy4VZn2Os5
_chemical_formula_sum   'Dy4 V1 Zn2 Os5'
_cell_volume   217.63233061
_cell_formula_units_Z   1
loop_
 _symmetry_equiv_pos_site_id
 _symmetry_equiv_pos_as_xyz
  1  'x, y, z'
loop_
 _atom_site_type_symbol
 _atom_site_label
 _atom_site_symmetry_multiplicity
 _atom_site_fract_x
 _atom_site_fract_y
 _atom_site_fract_z
 _atom_site_occupancy
  Dy  Dy0  1  0.322855  0.667242  0.434437  1
  Dy  Dy1  1  0.658287  0.327341  0.557442  1
  Dy  Dy2  1  0.658287  0.327341  0.942558  1
  Dy  Dy3  1  0.322855  0.667242  0.065563  1
  V  V4  1  0.837873  0.158995  0.250000  1
  Zn  Zn5  1  0.193007  0.841018  0.750000  1
  Zn  Zn6  1  0.187952  0.348545  0.750000  1
  Os  Os7  1  0.978595  0.996871  0.501941  1
  Os  Os8  1  0.978595  0.996871  0.998059  1
  Os  Os9  1  0.820019  0.653030  0.250000  1
  Os  Os10  1  0.349549  0.173399  0.250000  1
  Os  Os11  1  0.692127  0.842104  0.750000  1
