# generated using pymatgen
data_Ce3Dy2Lu3(AlRu)8
_symmetry_space_group_name_H-M   'P 1'
_cell_length_a   4.03135900
_cell_length_b   7.09817840
_cell_length_c   15.87602688
_cell_angle_alpha   91.41378651
_cell_angle_beta   90.00000000
_cell_angle_gamma   90.00000000
_symmetry_Int_Tables_number   1
_chemical_formula_structural   Ce3Dy2Lu3(AlRu)8
_chemical_formula_sum   'Ce3 Dy2 Lu3 Al8 Ru8'
_cell_volume   454.15906126
_cell_formula_units_Z   1
loop_
 _symmetry_equiv_pos_site_id
 _symmetry_equiv_pos_as_xyz
  1  'x, y, z'
loop_
 _atom_site_type_symbol
 _atom_site_label
 _atom_site_symmetry_multiplicity
 _atom_site_fract_x
 _atom_site_fract_y
 _atom_site_fract_z
 _atom_site_occupancy
  Ce  Ce0  1  0.750000  0.464780  0.281549  1
  Ce  Ce1  1  0.750000  0.330126  0.062776  1
  Ce  Ce2  1  0.250000  0.537831  0.719003  1
  Dy  Dy3  1  0.250000  0.664166  0.937421  1
  Dy  Dy4  1  0.250000  0.041174  0.779729  1
  Lu  Lu5  1  0.750000  0.958104  0.220834  1
  Lu  Lu6  1  0.250000  0.159212  0.559952  1
  Lu  Lu7  1  0.750000  0.843663  0.439719  1
  Al  Al8  1  0.750000  0.504858  0.560972  1
  Al  Al9  1  0.750000  0.363241  0.851782  1
  Al  Al10  1  0.750000  0.991895  0.934330  1
  Al  Al11  1  0.750000  0.876173  0.648421  1
  Al  Al12  1  0.250000  0.496190  0.438008  1
  Al  Al13  1  0.250000  0.992852  0.067180  1
  Al  Al14  1  0.250000  0.641971  0.152344  1
  Al  Al15  1  0.250000  0.123947  0.348664  1
  Ru  Ru16  1  0.750000  0.735005  0.805216  1
  Ru  Ru17  1  0.250000  0.234367  0.939933  1
  Ru  Ru18  1  0.750000  0.258200  0.433662  1
  Ru  Ru19  1  0.250000  0.743991  0.318691  1
  Ru  Ru20  1  0.750000  0.763849  0.066915  1
  Ru  Ru21  1  0.750000  0.264879  0.682537  1
  Ru  Ru22  1  0.250000  0.265288  0.187592  1
  Ru  Ru23  1  0.250000  0.744234  0.562771  1
