# generated using pymatgen
data_SrCr2(P2O7)2
_symmetry_space_group_name_H-M   'P 1'
_cell_length_a   4.85056513
_cell_length_b   7.15367542
_cell_length_c   7.92203824
_cell_angle_alpha   90.20262795
_cell_angle_beta   87.83536770
_cell_angle_gamma   73.60140342
_symmetry_Int_Tables_number   1
_chemical_formula_structural   SrCr2(P2O7)2
_chemical_formula_sum   'Sr1 Cr2 P4 O14'
_cell_volume   263.49036778
_cell_formula_units_Z   1
loop_
 _symmetry_equiv_pos_site_id
 _symmetry_equiv_pos_as_xyz
  1  'x, y, z'
loop_
 _atom_site_type_symbol
 _atom_site_label
 _atom_site_symmetry_multiplicity
 _atom_site_fract_x
 _atom_site_fract_y
 _atom_site_fract_z
 _atom_site_occupancy
  Sr  Sr0  1  0.500000  0.000000  0.000000  1
  Cr  Cr1  1  0.000000  0.500000  0.000000  1
  Cr  Cr2  1  0.500000  0.000000  0.500000  1
  P  P3  1  0.116865  0.769681  0.299241  1
  P  P4  1  0.883135  0.230319  0.700759  1
  P  P5  1  0.468635  0.619626  0.754846  1
  P  P6  1  0.531365  0.380374  0.245154  1
  O  O7  1  0.013951  0.758110  0.115959  1
  O  O8  1  0.986049  0.241890  0.884041  1
  O  O9  1  0.680906  0.096942  0.705332  1
  O  O10  1  0.319094  0.903058  0.294668  1
  O  O11  1  0.411295  0.804809  0.653592  1
  O  O12  1  0.588705  0.195191  0.346408  1
  O  O13  1  0.192860  0.564796  0.793209  1
  O  O14  1  0.807140  0.435204  0.206791  1
  O  O15  1  0.380242  0.350205  0.081894  1
  O  O16  1  0.619758  0.649795  0.918106  1
  O  O17  1  0.878980  0.819445  0.433477  1
  O  O18  1  0.121020  0.180555  0.566523  1
  O  O19  1  0.692539  0.446007  0.649976  1
  O  O20  1  0.307461  0.553993  0.350024  1
