# generated using pymatgen
data_Th3AlCd2Pd3
_symmetry_space_group_name_H-M   'P 1'
_cell_length_a   7.62029666
_cell_length_b   7.51320801
_cell_length_c   4.14306300
_cell_angle_alpha   90.00000000
_cell_angle_beta   90.00000000
_cell_angle_gamma   119.53620287
_symmetry_Int_Tables_number   1
_chemical_formula_structural   Th3AlCd2Pd3
_chemical_formula_sum   'Th3 Al1 Cd2 Pd3'
_cell_volume   206.37649619
_cell_formula_units_Z   1
loop_
 _symmetry_equiv_pos_site_id
 _symmetry_equiv_pos_as_xyz
  1  'x, y, z'
loop_
 _atom_site_type_symbol
 _atom_site_label
 _atom_site_symmetry_multiplicity
 _atom_site_fract_x
 _atom_site_fract_y
 _atom_site_fract_z
 _atom_site_occupancy
  Th  Th0  1  0.410109  0.412013  0.500000  1
  Th  Th1  1  0.589891  0.001904  0.500000  1
  Th  Th2  1  0.000000  0.579226  0.500000  1
  Al  Al3  1  0.000000  0.241529  0.000000  1
  Cd  Cd4  1  0.756183  0.754558  0.000000  1
  Cd  Cd5  1  0.243817  0.998375  0.000000  1
  Pd  Pd6  1  0.680748  0.329140  0.000000  1
  Pd  Pd7  1  0.319252  0.648393  0.000000  1
  Pd  Pd8  1  0.000000  0.034863  0.500000  1
