# generated using pymatgen
data_Hf4AlGeRh10
_symmetry_space_group_name_H-M   'P 1'
_cell_length_a   4.10085300
_cell_length_b   5.54313755
_cell_length_c   10.90730785
_cell_angle_alpha   90.12905733
_cell_angle_beta   90.00000000
_cell_angle_gamma   90.00000000
_symmetry_Int_Tables_number   1
_chemical_formula_structural   Hf4AlGeRh10
_chemical_formula_sum   'Hf4 Al1 Ge1 Rh10'
_cell_volume   247.93984562
_cell_formula_units_Z   1
loop_
 _symmetry_equiv_pos_site_id
 _symmetry_equiv_pos_as_xyz
  1  'x, y, z'
loop_
 _atom_site_type_symbol
 _atom_site_label
 _atom_site_symmetry_multiplicity
 _atom_site_fract_x
 _atom_site_fract_y
 _atom_site_fract_z
 _atom_site_occupancy
  Hf  Hf0  1  0.500000  0.179201  0.638997  1
  Hf  Hf1  1  0.500000  0.820799  0.361003  1
  Hf  Hf2  1  0.500000  0.676438  0.858560  1
  Hf  Hf3  1  0.500000  0.323562  0.141440  1
  Al  Al4  1  0.000000  0.500000  0.500000  1
  Ge  Ge5  1  0.000000  0.000000  0.000000  1
  Rh  Rh6  1  0.500000  0.184998  0.893446  1
  Rh  Rh7  1  0.500000  0.815002  0.106554  1
  Rh  Rh8  1  0.500000  0.685658  0.607162  1
  Rh  Rh9  1  0.500000  0.314342  0.392838  1
  Rh  Rh10  1  0.000000  0.429874  0.744841  1
  Rh  Rh11  1  0.000000  0.570126  0.255159  1
  Rh  Rh12  1  0.000000  0.000000  0.500000  1
  Rh  Rh13  1  0.000000  0.500000  0.000000  1
  Rh  Rh14  1  0.000000  0.069103  0.244732  1
  Rh  Rh15  1  0.000000  0.930897  0.755268  1
