# generated using pymatgen
data_SrLa5YOsI12
_symmetry_space_group_name_H-M   'P 1'
_cell_length_a   10.13863642
_cell_length_b   10.25138108
_cell_length_c   10.12579982
_cell_angle_alpha   106.77615023
_cell_angle_beta   106.60837591
_cell_angle_gamma   106.04778594
_symmetry_Int_Tables_number   1
_chemical_formula_structural   SrLa5YOsI12
_chemical_formula_sum   'Sr1 La5 Y1 Os1 I12'
_cell_volume   888.63725768
_cell_formula_units_Z   1
loop_
 _symmetry_equiv_pos_site_id
 _symmetry_equiv_pos_as_xyz
  1  'x, y, z'
loop_
 _atom_site_type_symbol
 _atom_site_label
 _atom_site_symmetry_multiplicity
 _atom_site_fract_x
 _atom_site_fract_y
 _atom_site_fract_z
 _atom_site_occupancy
  Sr  Sr0  1  0.499391  0.500398  0.498859  1
  La  La1  1  0.296495  0.022366  0.096668  1
  La  La2  1  0.023487  0.099580  0.298078  1
  La  La3  1  0.978101  0.906025  0.703276  1
  La  La4  1  0.704162  0.978954  0.903455  1
  La  La5  1  0.899015  0.687021  0.977069  1
  Y  Y6  1  0.098728  0.300526  0.023808  1
  Os  Os7  1  0.000530  0.000723  0.001156  1
  I  I8  1  0.224756  0.673029  0.072665  1
  I  I9  1  0.444244  0.373667  0.140880  1
  I  I10  1  0.678375  0.074572  0.227248  1
  I  I11  1  0.927258  0.777237  0.322559  1
  I  I12  1  0.145290  0.454651  0.364167  1
  I  I13  1  0.377418  0.150844  0.459291  1
  I  I14  1  0.622582  0.849964  0.540950  1
  I  I15  1  0.853136  0.544939  0.623706  1
  I  I16  1  0.075887  0.231560  0.690908  1
  I  I17  1  0.321718  0.925947  0.772844  1
  I  I18  1  0.542952  0.626410  0.852572  1
  I  I19  1  0.786473  0.321587  0.929841  1
