# generated using pymatgen
data_Er4Mg(SiB4)2
_symmetry_space_group_name_H-M   'P 1'
_cell_length_a   7.13003700
_cell_length_b   7.13003700
_cell_length_c   7.76752900
_cell_angle_alpha   90.00000000
_cell_angle_beta   90.00000000
_cell_angle_gamma   90.00000000
_symmetry_Int_Tables_number   1
_chemical_formula_structural   Er4Mg(SiB4)2
_chemical_formula_sum   'Er8 Mg2 Si4 B16'
_cell_volume   394.88119333
_cell_formula_units_Z   2
loop_
 _symmetry_equiv_pos_site_id
 _symmetry_equiv_pos_as_xyz
  1  'x, y, z'
loop_
 _atom_site_type_symbol
 _atom_site_label
 _atom_site_symmetry_multiplicity
 _atom_site_fract_x
 _atom_site_fract_y
 _atom_site_fract_z
 _atom_site_occupancy
  Er  Er0  1  0.682492  0.182492  0.232564  1
  Er  Er1  1  0.317508  0.817508  0.767436  1
  Er  Er2  1  0.317508  0.817508  0.232564  1
  Er  Er3  1  0.817508  0.682492  0.232564  1
  Er  Er4  1  0.817508  0.682492  0.767436  1
  Er  Er5  1  0.682492  0.182492  0.767436  1
  Er  Er6  1  0.182492  0.317508  0.767436  1
  Er  Er7  1  0.182492  0.317508  0.232564  1
  Mg  Mg8  1  0.000000  0.000000  0.500000  1
  Mg  Mg9  1  0.500000  0.500000  0.500000  1
  Si  Si10  1  0.115567  0.615567  0.500000  1
  Si  Si11  1  0.884433  0.384433  0.500000  1
  Si  Si12  1  0.384433  0.115567  0.500000  1
  Si  Si13  1  0.615567  0.884433  0.500000  1
  B  B14  1  0.174134  0.039606  0.000000  1
  B  B15  1  0.825866  0.960394  0.000000  1
  B  B16  1  0.960394  0.174134  0.000000  1
  B  B17  1  0.325866  0.539606  0.000000  1
  B  B18  1  0.039606  0.825866  0.000000  1
  B  B19  1  0.674134  0.460394  0.000000  1
  B  B20  1  0.539606  0.674134  0.000000  1
  B  B21  1  0.460394  0.325866  0.000000  1
  B  B22  1  0.088771  0.588771  0.000000  1
  B  B23  1  0.911229  0.411229  0.000000  1
  B  B24  1  0.411229  0.088771  0.000000  1
  B  B25  1  0.588771  0.911229  0.000000  1
  B  B26  1  0.000000  0.000000  0.164398  1
  B  B27  1  0.000000  0.000000  0.835602  1
  B  B28  1  0.500000  0.500000  0.835602  1
  B  B29  1  0.500000  0.500000  0.164398  1
