# generated using pymatgen
data_Tb19YPb16
_symmetry_space_group_name_H-M   'P 1'
_cell_length_a   8.24675231
_cell_length_b   15.74758000
_cell_length_c   8.33553700
_cell_angle_alpha   90.00000000
_cell_angle_beta   90.01579902
_cell_angle_gamma   90.00000000
_symmetry_Int_Tables_number   1
_chemical_formula_structural   Tb19YPb16
_chemical_formula_sum   'Tb19 Y1 Pb16'
_cell_volume   1082.50607273
_cell_formula_units_Z   1
loop_
 _symmetry_equiv_pos_site_id
 _symmetry_equiv_pos_as_xyz
  1  'x, y, z'
loop_
 _atom_site_type_symbol
 _atom_site_label
 _atom_site_symmetry_multiplicity
 _atom_site_fract_x
 _atom_site_fract_y
 _atom_site_fract_z
 _atom_site_occupancy
  Tb  Tb0  1  0.622863  0.620216  0.159338  1
  Tb  Tb1  1  0.122874  0.879697  0.340648  1
  Tb  Tb2  1  0.377145  0.120237  0.840717  1
  Tb  Tb3  1  0.877043  0.379753  0.659318  1
  Tb  Tb4  1  0.377145  0.379763  0.840717  1
  Tb  Tb5  1  0.877043  0.120247  0.659318  1
  Tb  Tb6  1  0.622863  0.879784  0.159338  1
  Tb  Tb7  1  0.122874  0.620303  0.340648  1
  Tb  Tb8  1  0.466271  0.600243  0.676871  1
  Tb  Tb9  1  0.966320  0.899832  0.823113  1
  Tb  Tb10  1  0.533780  0.100166  0.323056  1
  Tb  Tb11  1  0.033697  0.399817  0.176796  1
  Tb  Tb12  1  0.533780  0.399834  0.323056  1
  Tb  Tb13  1  0.033697  0.100183  0.176796  1
  Tb  Tb14  1  0.466271  0.899757  0.676871  1
  Tb  Tb15  1  0.966320  0.600168  0.823113  1
  Tb  Tb16  1  0.791072  0.750000  0.496528  1
  Tb  Tb17  1  0.291077  0.750000  0.003407  1
  Tb  Tb18  1  0.208910  0.250000  0.503407  1
  Y  Y19  1  0.708889  0.250000  0.996567  1
  Pb  Pb20  1  0.718913  0.457186  0.967052  1
  Pb  Pb21  1  0.218926  0.042670  0.533034  1
  Pb  Pb22  1  0.281088  0.957334  0.033100  1
  Pb  Pb23  1  0.781103  0.542676  0.466948  1
  Pb  Pb24  1  0.281088  0.542666  0.033100  1
  Pb  Pb25  1  0.781103  0.957324  0.466948  1
  Pb  Pb26  1  0.718913  0.042814  0.967052  1
  Pb  Pb27  1  0.218926  0.457330  0.533034  1
  Pb  Pb28  1  0.427194  0.750000  0.373720  1
  Pb  Pb29  1  0.927145  0.750000  0.126228  1
  Pb  Pb30  1  0.572862  0.250000  0.626368  1
  Pb  Pb31  1  0.072574  0.250000  0.874034  1
  Pb  Pb32  1  0.654936  0.750000  0.848627  1
  Pb  Pb33  1  0.154840  0.750000  0.651571  1
  Pb  Pb34  1  0.345263  0.250000  0.151423  1
  Pb  Pb35  1  0.845191  0.250000  0.348134  1
