# generated using pymatgen
data_YbGd5TaTi(MnC6)2
_symmetry_space_group_name_H-M   'P 1'
_cell_length_a   8.27703577
_cell_length_b   8.29104708
_cell_length_c   5.13204916
_cell_angle_alpha   89.97400745
_cell_angle_beta   90.00235690
_cell_angle_gamma   120.20676454
_symmetry_Int_Tables_number   1
_chemical_formula_structural   YbGd5TaTi(MnC6)2
_chemical_formula_sum   'Yb1 Gd5 Ta1 Ti1 Mn2 C12'
_cell_volume   304.36658506
_cell_formula_units_Z   1
loop_
 _symmetry_equiv_pos_site_id
 _symmetry_equiv_pos_as_xyz
  1  'x, y, z'
loop_
 _atom_site_type_symbol
 _atom_site_label
 _atom_site_symmetry_multiplicity
 _atom_site_fract_x
 _atom_site_fract_y
 _atom_site_fract_z
 _atom_site_occupancy
  Yb  Yb0  1  0.611088  0.676421  0.750963  1
  Gd  Gd1  1  0.936059  0.615895  0.248641  1
  Gd  Gd2  1  0.677102  0.060351  0.248776  1
  Gd  Gd3  1  0.322536  0.937418  0.751285  1
  Gd  Gd4  1  0.064098  0.385619  0.751187  1
  Gd  Gd5  1  0.386859  0.326035  0.248795  1
  Ta  Ta6  1  0.998684  0.998685  0.500190  1
  Ti  Ti7  1  0.998646  0.998772  0.999436  1
  Mn  Mn8  1  0.667539  0.332692  0.751281  1
  Mn  Mn9  1  0.332463  0.667125  0.248458  1
  C  C10  1  0.960677  0.759303  0.749360  1
  C  C11  1  0.201143  0.961747  0.250673  1
  C  C12  1  0.759431  0.800084  0.251737  1
  C  C13  1  0.240953  0.201956  0.749468  1
  C  C14  1  0.801813  0.040711  0.749118  1
  C  C15  1  0.039397  0.239154  0.250754  1
  C  C16  1  0.858906  0.568893  0.750310  1
  C  C17  1  0.291335  0.860755  0.249745  1
  C  C18  1  0.568626  0.709626  0.249382  1
  C  C19  1  0.432107  0.289077  0.750390  1
  C  C20  1  0.140525  0.430722  0.249747  1
  C  C21  1  0.710014  0.138960  0.750302  1
