# generated using pymatgen
data_Tb8Ag2IrRh
_symmetry_space_group_name_H-M   'P 1'
_cell_length_a   9.56972284
_cell_length_b   9.56031419
_cell_length_c   9.56972430
_cell_angle_alpha   60.03252459
_cell_angle_beta   60.06501974
_cell_angle_gamma   60.03252076
_symmetry_Int_Tables_number   1
_chemical_formula_structural   Tb8Ag2IrRh
_chemical_formula_sum   'Tb16 Ag4 Ir2 Rh2'
_cell_volume   619.70133363
_cell_formula_units_Z   2
loop_
 _symmetry_equiv_pos_site_id
 _symmetry_equiv_pos_as_xyz
  1  'x, y, z'
loop_
 _atom_site_type_symbol
 _atom_site_label
 _atom_site_symmetry_multiplicity
 _atom_site_fract_x
 _atom_site_fract_y
 _atom_site_fract_z
 _atom_site_occupancy
  Tb  Tb0  1  0.812898  0.810832  0.188172  1
  Tb  Tb1  1  0.812115  0.187885  0.812115  1
  Tb  Tb2  1  0.188172  0.188098  0.812898  1
  Tb  Tb3  1  0.647546  0.057173  0.647546  1
  Tb  Tb4  1  0.063385  0.063688  0.437137  1
  Tb  Tb5  1  0.437137  0.435788  0.063385  1
  Tb  Tb6  1  0.647546  0.647735  0.647546  1
  Tb  Tb7  1  0.812898  0.188098  0.188172  1
  Tb  Tb8  1  0.188172  0.810832  0.812898  1
  Tb  Tb9  1  0.057322  0.647641  0.647398  1
  Tb  Tb10  1  0.437137  0.063688  0.063385  1
  Tb  Tb11  1  0.435650  0.064350  0.435650  1
  Tb  Tb12  1  0.063013  0.436987  0.063013  1
  Tb  Tb13  1  0.647398  0.647641  0.057322  1
  Tb  Tb14  1  0.188516  0.811484  0.188516  1
  Tb  Tb15  1  0.063385  0.435788  0.437137  1
  Ag  Ag16  1  0.417365  0.417339  0.417365  1
  Ag  Ag17  1  0.417727  0.417764  0.746745  1
  Ag  Ag18  1  0.417365  0.747930  0.417365  1
  Ag  Ag19  1  0.746745  0.417764  0.417727  1
  Ir  Ir20  1  0.856636  0.428845  0.856636  1
  Ir  Ir21  1  0.856636  0.857883  0.856636  1
  Rh  Rh22  1  0.856274  0.857385  0.428958  1
  Rh  Rh23  1  0.428958  0.857385  0.856274  1
