# generated using pymatgen
data_Dy4Ho6Cd3Ru
_symmetry_space_group_name_H-M   'P 1'
_cell_length_a   9.56849801
_cell_length_b   9.56917109
_cell_length_c   9.82381501
_cell_angle_alpha   90.00000011
_cell_angle_beta   90.00361635
_cell_angle_gamma   120.00233243
_symmetry_Int_Tables_number   1
_chemical_formula_structural   Dy4Ho6Cd3Ru
_chemical_formula_sum   'Dy8 Ho12 Cd6 Ru2'
_cell_volume   778.96633541
_cell_formula_units_Z   2
loop_
 _symmetry_equiv_pos_site_id
 _symmetry_equiv_pos_as_xyz
  1  'x, y, z'
loop_
 _atom_site_type_symbol
 _atom_site_label
 _atom_site_symmetry_multiplicity
 _atom_site_fract_x
 _atom_site_fract_y
 _atom_site_fract_z
 _atom_site_occupancy
  Dy  Dy0  1  0.209855  0.790291  0.440252  1
  Dy  Dy1  1  0.209855  0.419566  0.440252  1
  Dy  Dy2  1  0.541111  0.458987  0.249956  1
  Dy  Dy3  1  0.541111  0.082123  0.249956  1
  Dy  Dy4  1  0.917734  0.458866  0.249886  1
  Dy  Dy5  1  0.459036  0.541072  0.750079  1
  Dy  Dy6  1  0.459036  0.917965  0.750079  1
  Dy  Dy7  1  0.082007  0.541004  0.750145  1
  Ho  Ho8  1  0.999879  0.999940  0.500036  1
  Ho  Ho9  1  0.999999  0.000000  0.000038  1
  Ho  Ho10  1  0.580496  0.790248  0.440266  1
  Ho  Ho11  1  0.790040  0.209821  0.559783  1
  Ho  Ho12  1  0.790040  0.580219  0.559783  1
  Ho  Ho13  1  0.419842  0.209920  0.559767  1
  Ho  Ho14  1  0.790109  0.209871  0.940255  1
  Ho  Ho15  1  0.790109  0.580237  0.940255  1
  Ho  Ho16  1  0.419778  0.209888  0.940288  1
  Ho  Ho17  1  0.209907  0.790169  0.059681  1
  Ho  Ho18  1  0.209907  0.419739  0.059681  1
  Ho  Ho19  1  0.580177  0.790089  0.059766  1
  Cd  Cd20  1  0.885508  0.114471  0.249969  1
  Cd  Cd21  1  0.885508  0.771039  0.249969  1
  Cd  Cd22  1  0.228948  0.114475  0.249942  1
  Cd  Cd23  1  0.114436  0.885509  0.750067  1
  Cd  Cd24  1  0.114436  0.228925  0.750067  1
  Cd  Cd25  1  0.771042  0.885520  0.750025  1
  Ru  Ru26  1  0.333441  0.666721  0.249788  1
  Ru  Ru27  1  0.666651  0.333325  0.749973  1
