# generated using pymatgen
data_Tb3DyCo18(P6Ru)2
_symmetry_space_group_name_H-M   'P 1'
_cell_length_a   3.67525900
_cell_length_b   10.34009207
_cell_length_c   11.76109608
_cell_angle_alpha   89.98663772
_cell_angle_beta   90.00000000
_cell_angle_gamma   90.00000000
_symmetry_Int_Tables_number   1
_chemical_formula_structural   Tb3DyCo18(P6Ru)2
_chemical_formula_sum   'Tb3 Dy1 Co18 P12 Ru2'
_cell_volume   446.95123500
_cell_formula_units_Z   1
loop_
 _symmetry_equiv_pos_site_id
 _symmetry_equiv_pos_as_xyz
  1  'x, y, z'
loop_
 _atom_site_type_symbol
 _atom_site_label
 _atom_site_symmetry_multiplicity
 _atom_site_fract_x
 _atom_site_fract_y
 _atom_site_fract_z
 _atom_site_occupancy
  Tb  Tb0  1  0.250000  0.582456  0.702078  1
  Tb  Tb1  1  0.250000  0.917455  0.201992  1
  Tb  Tb2  1  0.750000  0.086403  0.795662  1
  Dy  Dy3  1  0.750000  0.413699  0.295756  1
  Co  Co4  1  0.750000  0.284154  0.008309  1
  Co  Co5  1  0.750000  0.216007  0.508198  1
  Co  Co6  1  0.250000  0.405686  0.487606  1
  Co  Co7  1  0.250000  0.094294  0.988135  1
  Co  Co8  1  0.750000  0.590742  0.509685  1
  Co  Co9  1  0.750000  0.909050  0.009808  1
  Co  Co10  1  0.250000  0.220851  0.176642  1
  Co  Co11  1  0.250000  0.279615  0.676510  1
  Co  Co12  1  0.750000  0.778388  0.823218  1
  Co  Co13  1  0.750000  0.721396  0.323155  1
  Co  Co14  1  0.250000  0.886622  0.701674  1
  Co  Co15  1  0.250000  0.612913  0.201999  1
  Co  Co16  1  0.750000  0.116464  0.300910  1
  Co  Co17  1  0.750000  0.383907  0.801197  1
  Co  Co18  1  0.250000  0.464847  0.932813  1
  Co  Co19  1  0.250000  0.035258  0.432371  1
  Co  Co20  1  0.750000  0.532281  0.069303  1
  Co  Co21  1  0.750000  0.967473  0.568817  1
  P  P22  1  0.250000  0.417039  0.112318  1
  P  P23  1  0.250000  0.083065  0.611749  1
  P  P24  1  0.750000  0.578790  0.887483  1
  P  P25  1  0.750000  0.921210  0.387149  1
  P  P26  1  0.250000  0.271415  0.869316  1
  P  P27  1  0.250000  0.229191  0.369029  1
  P  P28  1  0.750000  0.727867  0.132868  1
  P  P29  1  0.750000  0.771990  0.632778  1
  P  P30  1  0.250000  0.594721  0.390617  1
  P  P31  1  0.250000  0.904851  0.890713  1
  P  P32  1  0.750000  0.396461  0.608260  1
  P  P33  1  0.750000  0.103632  0.108229  1
  Ru  Ru34  1  0.250000  0.715077  0.991975  1
  Ru  Ru35  1  0.250000  0.784730  0.491681  1
