# generated using pymatgen
data_Cs3Li2TiSb3
_symmetry_space_group_name_H-M   'P 1'
_cell_length_a   11.18100923
_cell_length_b   11.18101006
_cell_length_c   17.40619200
_cell_angle_alpha   90.00000000
_cell_angle_beta   90.00000000
_cell_angle_gamma   142.97905802
_symmetry_Int_Tables_number   1
_chemical_formula_structural   Cs3Li2TiSb3
_chemical_formula_sum   'Cs12 Li8 Ti4 Sb12'
_cell_volume   1310.20547661
_cell_formula_units_Z   4
loop_
 _symmetry_equiv_pos_site_id
 _symmetry_equiv_pos_as_xyz
  1  'x, y, z'
loop_
 _atom_site_type_symbol
 _atom_site_label
 _atom_site_symmetry_multiplicity
 _atom_site_fract_x
 _atom_site_fract_y
 _atom_site_fract_z
 _atom_site_occupancy
  Cs  Cs0  1  0.602251  0.942516  0.829503  1
  Cs  Cs1  1  0.282527  0.282527  0.321295  1
  Cs  Cs2  1  0.217473  0.217473  0.821295  1
  Cs  Cs3  1  0.717473  0.717473  0.678705  1
  Cs  Cs4  1  0.442516  0.102251  0.670497  1
  Cs  Cs5  1  0.897749  0.557484  0.329503  1
  Cs  Cs6  1  0.057484  0.397749  0.170497  1
  Cs  Cs7  1  0.397749  0.057484  0.170497  1
  Cs  Cs8  1  0.557484  0.897749  0.329503  1
  Cs  Cs9  1  0.102251  0.442516  0.670497  1
  Cs  Cs10  1  0.942516  0.602251  0.829503  1
  Cs  Cs11  1  0.782527  0.782527  0.178705  1
  Li  Li12  1  0.081843  0.918157  0.000000  1
  Li  Li13  1  0.581843  0.418157  0.500000  1
  Li  Li14  1  0.918157  0.081843  0.000000  1
  Li  Li15  1  0.748752  0.251248  0.000000  1
  Li  Li16  1  0.751248  0.248752  0.500000  1
  Li  Li17  1  0.251248  0.748752  0.000000  1
  Li  Li18  1  0.248752  0.751248  0.500000  1
  Li  Li19  1  0.418157  0.581843  0.500000  1
  Ti  Ti20  1  0.085918  0.914082  0.500000  1
  Ti  Ti21  1  0.414082  0.585918  0.000000  1
  Ti  Ti22  1  0.914082  0.085918  0.500000  1
  Ti  Ti23  1  0.585918  0.414082  0.000000  1
  Sb  Sb24  1  0.070227  0.390901  0.417464  1
  Sb  Sb25  1  0.890901  0.570227  0.082536  1
  Sb  Sb26  1  0.429773  0.109099  0.917464  1
  Sb  Sb27  1  0.609099  0.929773  0.582536  1
  Sb  Sb28  1  0.929773  0.609099  0.582536  1
  Sb  Sb29  1  0.109099  0.429773  0.917464  1
  Sb  Sb30  1  0.570227  0.890901  0.082536  1
  Sb  Sb31  1  0.390901  0.070227  0.417464  1
  Sb  Sb32  1  0.218019  0.218019  0.579671  1
  Sb  Sb33  1  0.718019  0.718019  0.920329  1
  Sb  Sb34  1  0.281981  0.281981  0.079671  1
  Sb  Sb35  1  0.781981  0.781981  0.420329  1
