# generated using pymatgen
data_Sm4Y6Sn7Bi
_symmetry_space_group_name_H-M   'P 1'
_cell_length_a   8.18520900
_cell_length_b   8.25916574
_cell_length_c   15.61008740
_cell_angle_alpha   89.80566140
_cell_angle_beta   90.00000000
_cell_angle_gamma   90.00000000
_symmetry_Int_Tables_number   1
_chemical_formula_structural   Sm4Y6Sn7Bi
_chemical_formula_sum   'Sm8 Y12 Sn14 Bi2'
_cell_volume   1055.28263278
_cell_formula_units_Z   2
loop_
 _symmetry_equiv_pos_site_id
 _symmetry_equiv_pos_as_xyz
  1  'x, y, z'
loop_
 _atom_site_type_symbol
 _atom_site_label
 _atom_site_symmetry_multiplicity
 _atom_site_fract_x
 _atom_site_fract_y
 _atom_site_fract_z
 _atom_site_occupancy
  Sm  Sm0  1  0.470926  0.819389  0.896991  1
  Sm  Sm1  1  0.970926  0.680611  0.603009  1
  Sm  Sm2  1  0.532764  0.170839  0.398317  1
  Sm  Sm3  1  0.032764  0.329161  0.101683  1
  Sm  Sm4  1  0.539301  0.179092  0.102785  1
  Sm  Sm5  1  0.039301  0.320908  0.397215  1
  Sm  Sm6  1  0.464060  0.827111  0.602939  1
  Sm  Sm7  1  0.964060  0.672889  0.897061  1
  Y  Y8  1  0.620436  0.336941  0.878804  1
  Y  Y9  1  0.120436  0.163059  0.621196  1
  Y  Y10  1  0.374550  0.662995  0.379020  1
  Y  Y11  1  0.874550  0.837005  0.120980  1
  Y  Y12  1  0.381136  0.658592  0.121844  1
  Y  Y13  1  0.881136  0.841408  0.378156  1
  Y  Y14  1  0.617955  0.334437  0.621689  1
  Y  Y15  1  0.117955  0.165563  0.878311  1
  Y  Y16  1  0.289281  0.497988  0.749665  1
  Y  Y17  1  0.789281  0.002012  0.750335  1
  Y  Y18  1  0.710758  0.501831  0.247599  1
  Y  Y19  1  0.210758  0.998169  0.252401  1
  Sn  Sn20  1  0.783637  0.031897  0.542812  1
  Sn  Sn21  1  0.283637  0.468103  0.957188  1
  Sn  Sn22  1  0.781379  0.031229  0.956610  1
  Sn  Sn23  1  0.281379  0.468771  0.543390  1
  Sn  Sn24  1  0.215162  0.966929  0.457775  1
  Sn  Sn25  1  0.715162  0.533071  0.042225  1
  Sn  Sn26  1  0.658995  0.642385  0.748541  1
  Sn  Sn27  1  0.158995  0.857615  0.751459  1
  Sn  Sn28  1  0.343788  0.355729  0.250342  1
  Sn  Sn29  1  0.843788  0.144271  0.249658  1
  Sn  Sn30  1  0.420905  0.124632  0.751227  1
  Sn  Sn31  1  0.920905  0.375368  0.748773  1
  Sn  Sn32  1  0.576857  0.874018  0.250379  1
  Sn  Sn33  1  0.076857  0.625982  0.249621  1
  Bi  Bi34  1  0.218110  0.968764  0.043292  1
  Bi  Bi35  1  0.718110  0.531236  0.456708  1
