# generated using pymatgen
data_Tm8Mg2Zn3Bi2Pt
_symmetry_space_group_name_H-M   'P 1'
_cell_length_a   8.52630096
_cell_length_b   8.52629982
_cell_length_c   8.57818892
_cell_angle_alpha   126.29291552
_cell_angle_beta   126.29291732
_cell_angle_gamma   78.98702045
_symmetry_Int_Tables_number   1
_chemical_formula_structural   Tm8Mg2Zn3Bi2Pt
_chemical_formula_sum   'Tm8 Mg2 Zn3 Bi2 Pt1'
_cell_volume   392.75094555
_cell_formula_units_Z   1
loop_
 _symmetry_equiv_pos_site_id
 _symmetry_equiv_pos_as_xyz
  1  'x, y, z'
loop_
 _atom_site_type_symbol
 _atom_site_label
 _atom_site_symmetry_multiplicity
 _atom_site_fract_x
 _atom_site_fract_y
 _atom_site_fract_z
 _atom_site_occupancy
  Tm  Tm0  1  0.789598  0.299773  0.813062  1
  Tm  Tm1  1  0.200227  0.710402  0.186938  1
  Tm  Tm2  1  0.476535  0.986712  0.186938  1
  Tm  Tm3  1  0.303734  0.470368  0.500000  1
  Tm  Tm4  1  0.029632  0.196266  0.500000  1
  Tm  Tm5  1  0.513288  0.023465  0.813062  1
  Tm  Tm6  1  0.703135  0.518676  0.500000  1
  Tm  Tm7  1  0.981324  0.796865  0.500000  1
  Mg  Mg8  1  0.000964  0.000992  0.001956  1
  Mg  Mg9  1  0.499008  0.499036  0.998044  1
  Zn  Zn10  1  0.136332  0.634581  0.770913  1
  Zn  Zn11  1  0.865419  0.363668  0.229087  1
  Zn  Zn12  1  0.635541  0.864459  0.500000  1
  Bi  Bi13  1  0.246128  0.253872  0.000000  1
  Bi  Bi14  1  0.746128  0.753872  0.000000  1
  Pt  Pt15  1  0.373007  0.126993  0.500000  1
