# generated using pymatgen
data_Ho11Sc(Si3Os)4
_symmetry_space_group_name_H-M   'P 1'
_cell_length_a   4.15553000
_cell_length_b   10.71749726
_cell_length_c   12.24697725
_cell_angle_alpha   89.82944474
_cell_angle_beta   90.00000000
_cell_angle_gamma   90.00000000
_symmetry_Int_Tables_number   1
_chemical_formula_structural   Ho11Sc(Si3Os)4
_chemical_formula_sum   'Ho11 Sc1 Si12 Os4'
_cell_volume   545.43975669
_cell_formula_units_Z   1
loop_
 _symmetry_equiv_pos_site_id
 _symmetry_equiv_pos_as_xyz
  1  'x, y, z'
loop_
 _atom_site_type_symbol
 _atom_site_label
 _atom_site_symmetry_multiplicity
 _atom_site_fract_x
 _atom_site_fract_y
 _atom_site_fract_z
 _atom_site_occupancy
  Ho  Ho0  1  0.250000  0.881435  0.019131  1
  Ho  Ho1  1  0.250000  0.618933  0.520226  1
  Ho  Ho2  1  0.750000  0.119558  0.977383  1
  Ho  Ho3  1  0.750000  0.377766  0.481809  1
  Ho  Ho4  1  0.250000  0.921949  0.605612  1
  Ho  Ho5  1  0.250000  0.580169  0.105027  1
  Ho  Ho6  1  0.750000  0.079237  0.396676  1
  Ho  Ho7  1  0.750000  0.418503  0.893396  1
  Ho  Ho8  1  0.250000  0.659018  0.799995  1
  Ho  Ho9  1  0.250000  0.841187  0.300498  1
  Ho  Ho10  1  0.750000  0.339303  0.199618  1
  Sc  Sc11  1  0.750000  0.160757  0.702086  1
  Si  Si12  1  0.250000  0.013244  0.819106  1
  Si  Si13  1  0.250000  0.489388  0.320898  1
  Si  Si14  1  0.750000  0.991245  0.179065  1
  Si  Si15  1  0.750000  0.510368  0.679198  1
  Si  Si16  1  0.250000  0.245884  0.836659  1
  Si  Si17  1  0.250000  0.250773  0.343157  1
  Si  Si18  1  0.750000  0.752233  0.158612  1
  Si  Si19  1  0.750000  0.748338  0.658253  1
  Si  Si20  1  0.250000  0.199508  0.551757  1
  Si  Si21  1  0.250000  0.297460  0.042196  1
  Si  Si22  1  0.750000  0.797995  0.456631  1
  Si  Si23  1  0.750000  0.702735  0.955498  1
  Os  Os24  1  0.250000  0.387968  0.680470  1
  Os  Os25  1  0.250000  0.112139  0.180939  1
  Os  Os26  1  0.750000  0.611473  0.319289  1
  Os  Os27  1  0.750000  0.891435  0.816814  1
