# generated using pymatgen
data_Na2Co3Ni9P7
_symmetry_space_group_name_H-M   'P 1'
_cell_length_a   3.55144800
_cell_length_b   9.06596475
_cell_length_c   9.06596400
_cell_angle_alpha   119.99999726
_cell_angle_beta   90.00000000
_cell_angle_gamma   90.00000000
_symmetry_Int_Tables_number   1
_chemical_formula_structural   Na2Co3Ni9P7
_chemical_formula_sum   'Na2 Co3 Ni9 P7'
_cell_volume   252.79246231
_cell_formula_units_Z   1
loop_
 _symmetry_equiv_pos_site_id
 _symmetry_equiv_pos_as_xyz
  1  'x, y, z'
loop_
 _atom_site_type_symbol
 _atom_site_label
 _atom_site_symmetry_multiplicity
 _atom_site_fract_x
 _atom_site_fract_y
 _atom_site_fract_z
 _atom_site_occupancy
  Na  Na0  1  0.000000  0.666667  0.333333  1
  Na  Na1  1  0.500000  0.333333  0.666667  1
  Co  Co2  1  0.000000  0.883380  0.155527  1
  Co  Co3  1  0.000000  0.272148  0.116620  1
  Co  Co4  1  0.000000  0.844473  0.727852  1
  Ni  Ni5  1  0.000000  0.565241  0.940244  1
  Ni  Ni6  1  0.000000  0.375003  0.434759  1
  Ni  Ni7  1  0.000000  0.059756  0.624997  1
  Ni  Ni8  1  0.500000  0.777884  0.904959  1
  Ni  Ni9  1  0.500000  0.127075  0.222116  1
  Ni  Ni10  1  0.500000  0.095041  0.872925  1
  Ni  Ni11  1  0.500000  0.948943  0.384283  1
  Ni  Ni12  1  0.500000  0.435339  0.051057  1
  Ni  Ni13  1  0.500000  0.615717  0.564661  1
  P  P14  1  0.000000  0.000000  0.000000  1
  P  P15  1  0.500000  0.712719  0.115529  1
  P  P16  1  0.500000  0.402809  0.287281  1
  P  P17  1  0.500000  0.884471  0.597191  1
  P  P18  1  0.000000  0.591224  0.707449  1
  P  P19  1  0.000000  0.116225  0.408776  1
  P  P20  1  0.000000  0.292551  0.883775  1
