# generated using pymatgen
data_Tm4Al17GaIr5Pt
_symmetry_space_group_name_H-M   'P 1'
_cell_length_a   7.53455763
_cell_length_b   7.53468240
_cell_length_c   9.43954624
_cell_angle_alpha   89.97688203
_cell_angle_beta   89.94776645
_cell_angle_gamma   119.44336017
_symmetry_Int_Tables_number   1
_chemical_formula_structural   Tm4Al17GaIr5Pt
_chemical_formula_sum   'Tm4 Al17 Ga1 Ir5 Pt1'
_cell_volume   466.67317163
_cell_formula_units_Z   1
loop_
 _symmetry_equiv_pos_site_id
 _symmetry_equiv_pos_as_xyz
  1  'x, y, z'
loop_
 _atom_site_type_symbol
 _atom_site_label
 _atom_site_symmetry_multiplicity
 _atom_site_fract_x
 _atom_site_fract_y
 _atom_site_fract_z
 _atom_site_occupancy
  Tm  Tm0  1  0.994236  0.674375  0.250892  1
  Tm  Tm1  1  0.004277  0.327645  0.749286  1
  Tm  Tm2  1  0.674851  0.994833  0.250607  1
  Tm  Tm3  1  0.327885  0.004764  0.749112  1
  Al  Al4  1  0.870967  0.870231  0.749890  1
  Al  Al5  1  0.003910  0.335643  0.076424  1
  Al  Al6  1  0.002096  0.667618  0.923566  1
  Al  Al7  1  0.999784  0.663943  0.574966  1
  Al  Al8  1  0.335881  0.999720  0.425396  1
  Al  Al9  1  0.000603  0.335317  0.424777  1
  Al  Al10  1  0.664505  0.999010  0.575454  1
  Al  Al11  1  0.663751  0.995560  0.923424  1
  Al  Al12  1  0.331982  0.997632  0.076109  1
  Al  Al13  1  0.332709  0.332373  0.554918  1
  Al  Al14  1  0.666842  0.666614  0.447840  1
  Al  Al15  1  0.665926  0.669167  0.056072  1
  Al  Al16  1  0.330026  0.333402  0.941199  1
  Al  Al17  1  0.339276  0.551958  0.250353  1
  Al  Al18  1  0.660352  0.452783  0.747360  1
  Al  Al19  1  0.548917  0.338889  0.252436  1
  Al  Al20  1  0.449820  0.660005  0.749719  1
  Ga  Ga21  1  0.134037  0.132907  0.250229  1
  Ir  Ir22  1  0.327384  0.671337  0.000173  1
  Ir  Ir23  1  0.327724  0.671000  0.499929  1
  Ir  Ir24  1  0.671552  0.327155  0.499868  1
  Ir  Ir25  1  0.999269  0.999772  0.997578  1
  Ir  Ir26  1  0.999769  0.999147  0.502395  1
  Pt  Pt27  1  0.671663  0.327201  0.000027  1
