# generated using pymatgen
data_Pu2CrB8Os
_symmetry_space_group_name_H-M   'P 1'
_cell_length_a   5.96325600
_cell_length_b   11.53982300
_cell_length_c   3.50547700
_cell_angle_alpha   90.00000000
_cell_angle_beta   90.00000000
_cell_angle_gamma   90.00000000
_symmetry_Int_Tables_number   1
_chemical_formula_structural   Pu2CrB8Os
_chemical_formula_sum   'Pu4 Cr2 B16 Os2'
_cell_volume   241.22911491
_cell_formula_units_Z   2
loop_
 _symmetry_equiv_pos_site_id
 _symmetry_equiv_pos_as_xyz
  1  'x, y, z'
loop_
 _atom_site_type_symbol
 _atom_site_label
 _atom_site_symmetry_multiplicity
 _atom_site_fract_x
 _atom_site_fract_y
 _atom_site_fract_z
 _atom_site_occupancy
  Pu  Pu0  1  0.124508  0.151933  0.000000  1
  Pu  Pu1  1  0.624507  0.348067  0.000000  1
  Pu  Pu2  1  0.372969  0.649235  0.000000  1
  Pu  Pu3  1  0.872968  0.850764  0.000000  1
  Cr  Cr4  1  0.636209  0.089809  0.000000  1
  Cr  Cr5  1  0.136208  0.410191  0.000000  1
  B  B6  1  0.863093  0.033177  0.500001  1
  B  B7  1  0.386879  0.047871  0.500001  1
  B  B8  1  0.784899  0.186041  0.500001  1
  B  B9  1  0.475026  0.191301  0.500001  1
  B  B10  1  0.975027  0.308699  0.500001  1
  B  B11  1  0.284898  0.313959  0.500001  1
  B  B12  1  0.886880  0.452129  0.500001  1
  B  B13  1  0.363093  0.466823  0.500001  1
  B  B14  1  0.634995  0.530596  0.500001  1
  B  B15  1  0.114530  0.545355  0.500001  1
  B  B16  1  0.713488  0.685880  0.500001  1
  B  B17  1  0.026770  0.691370  0.500001  1
  B  B18  1  0.526771  0.808630  0.500001  1
  B  B19  1  0.213487  0.814119  0.500001  1
  B  B20  1  0.614531  0.954645  0.500001  1
  B  B21  1  0.134995  0.969405  0.500001  1
  Os  Os22  1  0.866635  0.588827  0.000000  1
  Os  Os23  1  0.366634  0.911174  0.000000  1
