# generated using pymatgen
data_CaNd3Pt4
_symmetry_space_group_name_H-M   'P 1'
_cell_length_a   4.55328200
_cell_length_b   5.73405576
_cell_length_c   7.39629061
_cell_angle_alpha   89.74148826
_cell_angle_beta   90.00000000
_cell_angle_gamma   90.00000000
_symmetry_Int_Tables_number   1
_chemical_formula_structural   CaNd3Pt4
_chemical_formula_sum   'Ca1 Nd3 Pt4'
_cell_volume   193.10610598
_cell_formula_units_Z   1
loop_
 _symmetry_equiv_pos_site_id
 _symmetry_equiv_pos_as_xyz
  1  'x, y, z'
loop_
 _atom_site_type_symbol
 _atom_site_label
 _atom_site_symmetry_multiplicity
 _atom_site_fract_x
 _atom_site_fract_y
 _atom_site_fract_z
 _atom_site_occupancy
  Ca  Ca0  1  0.250000  0.360402  0.681159  1
  Nd  Nd1  1  0.250000  0.138562  0.180899  1
  Nd  Nd2  1  0.750000  0.636310  0.321500  1
  Nd  Nd3  1  0.750000  0.861909  0.816769  1
  Pt  Pt4  1  0.250000  0.852905  0.543635  1
  Pt  Pt5  1  0.250000  0.653962  0.044690  1
  Pt  Pt6  1  0.750000  0.146878  0.451486  1
  Pt  Pt7  1  0.750000  0.349074  0.959862  1
