# generated using pymatgen
data_Cu(S8Cl)3
_symmetry_space_group_name_H-M   'P 1'
_cell_length_a   4.44535924
_cell_length_b   14.97487738
_cell_length_c   15.80806122
_cell_angle_alpha   121.12810476
_cell_angle_beta   93.35388964
_cell_angle_gamma   96.77395835
_symmetry_Int_Tables_number   1
_chemical_formula_structural   Cu(S8Cl)3
_chemical_formula_sum   'Cu1 S24 Cl3'
_cell_volume   885.63361776
_cell_formula_units_Z   1
loop_
 _symmetry_equiv_pos_site_id
 _symmetry_equiv_pos_as_xyz
  1  'x, y, z'
loop_
 _atom_site_type_symbol
 _atom_site_label
 _atom_site_symmetry_multiplicity
 _atom_site_fract_x
 _atom_site_fract_y
 _atom_site_fract_z
 _atom_site_occupancy
  Cu  Cu0  1  0.612894  0.001730  0.126731  1
  S  S1  1  0.368410  0.400966  0.991780  1
  S  S2  1  0.568327  0.732325  0.006858  1
  S  S3  1  0.257437  0.521042  0.123209  1
  S  S4  1  0.388769  0.752132  0.132133  1
  S  S5  1  0.569035  0.657723  0.174345  1
  S  S6  1  0.640954  0.377590  0.257467  1
  S  S7  1  0.833753  0.267614  0.274193  1
  S  S8  1  0.906824  0.525711  0.347865  1
  S  S9  1  0.126050  0.867635  0.392856  1
  S  S10  1  0.635403  0.247613  0.379864  1
  S  S11  1  0.383041  0.000235  0.407837  1
  S  S12  1  0.374936  0.811752  0.464400  1
  S  S13  1  0.723893  0.606726  0.479090  1
  S  S14  1  0.256487  0.132262  0.525018  1
  S  S15  1  0.911501  0.341947  0.515851  1
  S  S16  1  0.966230  0.598960  0.589951  1
  S  S17  1  0.249756  0.866763  0.604776  1
  S  S18  1  0.736460  0.478413  0.601455  1
  S  S19  1  0.561049  0.188678  0.652389  1
  S  S20  1  0.558380  0.000033  0.707657  1
  S  S21  1  0.382382  0.133257  0.737850  1
  S  S22  1  0.383272  0.474498  0.822940  1
  S  S23  1  0.265700  0.622644  0.880492  1
  S  S24  1  0.119005  0.393214  0.873129  1
  Cl  Cl25  1  0.069015  0.078258  0.936175  1
  Cl  Cl26  1  0.114592  0.999901  0.136283  1
  Cl  Cl27  1  0.989356  0.920382  0.857408  1
