# generated using pymatgen
data_Y2RuC4
_symmetry_space_group_name_H-M   'P 1'
_cell_length_a   6.66368746
_cell_length_b   6.66368732
_cell_length_c   6.66368725
_cell_angle_alpha   133.15143240
_cell_angle_beta   108.87548276
_cell_angle_gamma   89.57363281
_symmetry_Int_Tables_number   1
_chemical_formula_structural   Y2RuC4
_chemical_formula_sum   'Y4 Ru2 C8'
_cell_volume   194.21867133
_cell_formula_units_Z   2
loop_
 _symmetry_equiv_pos_site_id
 _symmetry_equiv_pos_as_xyz
  1  'x, y, z'
loop_
 _atom_site_type_symbol
 _atom_site_label
 _atom_site_symmetry_multiplicity
 _atom_site_fract_x
 _atom_site_fract_y
 _atom_site_fract_z
 _atom_site_occupancy
  Y  Y0  1  0.497367  0.350575  0.146792  1
  Y  Y1  1  0.502633  0.649425  0.853208  1
  Y  Y2  1  0.203783  0.850575  0.353208  1
  Y  Y3  1  0.796217  0.149425  0.646792  1
  Ru  Ru4  1  0.000000  0.250000  0.250000  1
  Ru  Ru5  1  0.000000  0.750000  0.750000  1
  C  C6  1  0.253233  0.076783  0.176451  1
  C  C7  1  0.746767  0.923217  0.823549  1
  C  C8  1  0.900332  0.576783  0.323549  1
  C  C9  1  0.099668  0.423217  0.676451  1
  C  C10  1  0.469219  0.128622  0.340596  1
  C  C11  1  0.530781  0.871378  0.659404  1
  C  C12  1  0.788026  0.628622  0.159404  1
  C  C13  1  0.211974  0.371378  0.840596  1
