# generated using pymatgen
data_Sm3Er7(RuO6)4
_symmetry_space_group_name_H-M   'P 1'
_cell_length_a   5.84107700
_cell_length_b   7.39965411
_cell_length_c   12.34240477
_cell_angle_alpha   107.10901261
_cell_angle_beta   90.00000000
_cell_angle_gamma   90.00000000
_symmetry_Int_Tables_number   1
_chemical_formula_structural   Sm3Er7(RuO6)4
_chemical_formula_sum   'Sm3 Er7 Ru4 O24'
_cell_volume   509.85533254
_cell_formula_units_Z   1
loop_
 _symmetry_equiv_pos_site_id
 _symmetry_equiv_pos_as_xyz
  1  'x, y, z'
loop_
 _atom_site_type_symbol
 _atom_site_label
 _atom_site_symmetry_multiplicity
 _atom_site_fract_x
 _atom_site_fract_y
 _atom_site_fract_z
 _atom_site_occupancy
  Sm  Sm0  1  0.250000  0.609928  0.438172  1
  Sm  Sm1  1  0.750000  0.387987  0.563629  1
  Sm  Sm2  1  0.250000  0.084675  0.446137  1
  Er  Er3  1  0.750000  0.910989  0.553901  1
  Er  Er4  1  0.250000  0.885587  0.059980  1
  Er  Er5  1  0.750000  0.115308  0.938766  1
  Er  Er6  1  0.250000  0.413343  0.050937  1
  Er  Er7  1  0.750000  0.588687  0.949609  1
  Er  Er8  1  0.250000  0.249988  0.752169  1
  Er  Er9  1  0.750000  0.749534  0.248753  1
  Ru  Ru10  1  0.485760  0.753269  0.753678  1
  Ru  Ru11  1  0.985004  0.248004  0.245613  1
  Ru  Ru12  1  0.514996  0.248004  0.245613  1
  Ru  Ru13  1  0.014240  0.753269  0.753678  1
  O  O14  1  0.250000  0.949091  0.756227  1
  O  O15  1  0.750000  0.052066  0.245317  1
  O  O16  1  0.501670  0.331440  0.903949  1
  O  O17  1  0.002225  0.669930  0.096343  1
  O  O18  1  0.497775  0.669930  0.096343  1
  O  O19  1  0.998330  0.331440  0.903949  1
  O  O20  1  0.250000  0.554724  0.749368  1
  O  O21  1  0.750000  0.444170  0.246682  1
  O  O22  1  0.250000  0.064534  0.244945  1
  O  O23  1  0.750000  0.936545  0.752692  1
  O  O24  1  0.509993  0.831264  0.918096  1
  O  O25  1  0.009402  0.168292  0.081150  1
  O  O26  1  0.490598  0.168292  0.081150  1
  O  O27  1  0.990007  0.831264  0.918096  1
  O  O28  1  0.500523  0.164665  0.601396  1
  O  O29  1  0.992012  0.828105  0.401166  1
  O  O30  1  0.507988  0.828105  0.401166  1
  O  O31  1  0.999477  0.164665  0.601396  1
  O  O32  1  0.510579  0.676962  0.588488  1
  O  O33  1  0.005815  0.328892  0.411528  1
  O  O34  1  0.494185  0.328892  0.411528  1
  O  O35  1  0.989421  0.676962  0.588488  1
  O  O36  1  0.250000  0.429705  0.243609  1
  O  O37  1  0.750000  0.571493  0.756294  1
