# generated using pymatgen
data_AcNd(CuNi)5
_symmetry_space_group_name_H-M   'P 1'
_cell_length_a   3.96391600
_cell_length_b   5.15246300
_cell_length_c   8.86395500
_cell_angle_alpha   90.00000000
_cell_angle_beta   90.00000000
_cell_angle_gamma   90.00000000
_symmetry_Int_Tables_number   1
_chemical_formula_structural   AcNd(CuNi)5
_chemical_formula_sum   'Ac1 Nd1 Cu5 Ni5'
_cell_volume   181.03680110
_cell_formula_units_Z   1
loop_
 _symmetry_equiv_pos_site_id
 _symmetry_equiv_pos_as_xyz
  1  'x, y, z'
loop_
 _atom_site_type_symbol
 _atom_site_label
 _atom_site_symmetry_multiplicity
 _atom_site_fract_x
 _atom_site_fract_y
 _atom_site_fract_z
 _atom_site_occupancy
  Ac  Ac0  1  0.000000  0.000000  0.500000  1
  Nd  Nd1  1  0.000000  0.500000  0.000000  1
  Cu  Cu2  1  0.000000  0.500000  0.322838  1
  Cu  Cu3  1  0.000000  0.000000  0.839113  1
  Cu  Cu4  1  0.000000  0.000000  0.160887  1
  Cu  Cu5  1  0.000000  0.500000  0.677162  1
  Cu  Cu6  1  0.500000  0.500000  0.500000  1
  Ni  Ni7  1  0.500000  0.000000  0.000000  1
  Ni  Ni8  1  0.500000  0.746543  0.243221  1
  Ni  Ni9  1  0.500000  0.253457  0.756779  1
  Ni  Ni10  1  0.500000  0.253457  0.243221  1
  Ni  Ni11  1  0.500000  0.746543  0.756779  1
