# generated using pymatgen
data_Cs4Si11GeP12
_symmetry_space_group_name_H-M   'P 1'
_cell_length_a   3.56988400
_cell_length_b   9.96744927
_cell_length_c   19.94631900
_cell_angle_alpha   90.28379419
_cell_angle_beta   90.00000000
_cell_angle_gamma   90.00000000
_symmetry_Int_Tables_number   1
_chemical_formula_structural   Cs4Si11GeP12
_chemical_formula_sum   'Cs4 Si11 Ge1 P12'
_cell_volume   709.73393546
_cell_formula_units_Z   1
loop_
 _symmetry_equiv_pos_site_id
 _symmetry_equiv_pos_as_xyz
  1  'x, y, z'
loop_
 _atom_site_type_symbol
 _atom_site_label
 _atom_site_symmetry_multiplicity
 _atom_site_fract_x
 _atom_site_fract_y
 _atom_site_fract_z
 _atom_site_occupancy
  Cs  Cs0  1  0.000000  0.301754  0.308690  1
  Cs  Cs1  1  0.000000  0.697917  0.691017  1
  Cs  Cs2  1  0.000000  0.198022  0.808074  1
  Cs  Cs3  1  0.000000  0.801750  0.191614  1
  Si  Si4  1  0.500000  0.599257  0.963289  1
  Si  Si5  1  0.500000  0.095550  0.534996  1
  Si  Si6  1  0.500000  0.904440  0.465036  1
  Si  Si7  1  0.000000  0.112783  0.015960  1
  Si  Si8  1  0.000000  0.886885  0.984181  1
  Si  Si9  1  0.000000  0.386623  0.515974  1
  Si  Si10  1  0.000000  0.613389  0.484022  1
  Si  Si11  1  0.000000  0.179876  0.129017  1
  Si  Si12  1  0.000000  0.820517  0.871207  1
  Si  Si13  1  0.000000  0.319710  0.628577  1
  Si  Si14  1  0.000000  0.680349  0.371419  1
  Ge  Ge15  1  0.500000  0.407144  0.035232  1
  P  P16  1  0.500000  0.112923  0.187235  1
  P  P17  1  0.500000  0.885625  0.812637  1
  P  P18  1  0.500000  0.385309  0.687418  1
  P  P19  1  0.500000  0.614808  0.312595  1
  P  P20  1  0.500000  0.281718  0.466734  1
  P  P21  1  0.500000  0.718261  0.533287  1
  P  P22  1  0.500000  0.212312  0.965214  1
  P  P23  1  0.500000  0.782908  0.033084  1
  P  P24  1  0.000000  0.408810  0.111095  1
  P  P25  1  0.000000  0.591326  0.892340  1
  P  P26  1  0.000000  0.090761  0.606236  1
  P  P27  1  0.000000  0.909271  0.393818  1
