# generated using pymatgen
data_La5Pa(Sb4Pt3)2
_symmetry_space_group_name_H-M   'P 1'
_cell_length_a   8.67486382
_cell_length_b   8.68331485
_cell_length_c   8.67409054
_cell_angle_alpha   109.48731781
_cell_angle_beta   109.42244665
_cell_angle_gamma   109.46730778
_symmetry_Int_Tables_number   1
_chemical_formula_structural   La5Pa(Sb4Pt3)2
_chemical_formula_sum   'La5 Pa1 Sb8 Pt6'
_cell_volume   503.20636084
_cell_formula_units_Z   1
loop_
 _symmetry_equiv_pos_site_id
 _symmetry_equiv_pos_as_xyz
  1  'x, y, z'
loop_
 _atom_site_type_symbol
 _atom_site_label
 _atom_site_symmetry_multiplicity
 _atom_site_fract_x
 _atom_site_fract_y
 _atom_site_fract_z
 _atom_site_occupancy
  La  La0  1  0.625077  0.749988  0.375053  1
  La  La1  1  0.251888  0.125758  0.874311  1
  La  La2  1  0.748577  0.374195  0.626098  1
  La  La3  1  0.125480  0.877691  0.251851  1
  La  La4  1  0.374198  0.622320  0.747816  1
  Pa  Pa5  1  0.875460  0.249978  0.125412  1
  Sb  Sb6  1  0.669842  0.503843  0.003436  1
  Sb  Sb7  1  0.499602  0.996170  0.666031  1
  Sb  Sb8  1  0.997655  0.668329  0.501105  1
  Sb  Sb9  1  0.832664  0.831616  0.829222  1
  Sb  Sb10  1  0.499130  0.997015  0.166633  1
  Sb  Sb11  1  0.169570  0.502992  0.002139  1
  Sb  Sb12  1  0.997007  0.167133  0.500141  1
  Sb  Sb13  1  0.333020  0.332859  0.329803  1
  Pt  Pt14  1  0.375330  0.249982  0.625408  1
  Pt  Pt15  1  0.125477  0.750195  0.875548  1
  Pt  Pt16  1  0.221753  0.601892  0.359872  1
  Pt  Pt17  1  0.757990  0.898103  0.119833  1
  Pt  Pt18  1  0.640030  0.361752  0.242069  1
  Pt  Pt19  1  0.880250  0.138191  0.778218  1
