# generated using pymatgen
data_CaPr5NdCoI12
_symmetry_space_group_name_H-M   'P 1'
_cell_length_a   9.98721083
_cell_length_b   10.11318419
_cell_length_c   10.10215228
_cell_angle_alpha   107.04066999
_cell_angle_beta   107.05380544
_cell_angle_gamma   106.77465941
_symmetry_Int_Tables_number   1
_chemical_formula_structural   CaPr5NdCoI12
_chemical_formula_sum   'Ca1 Pr5 Nd1 Co1 I12'
_cell_volume   850.75529877
_cell_formula_units_Z   1
loop_
 _symmetry_equiv_pos_site_id
 _symmetry_equiv_pos_as_xyz
  1  'x, y, z'
loop_
 _atom_site_type_symbol
 _atom_site_label
 _atom_site_symmetry_multiplicity
 _atom_site_fract_x
 _atom_site_fract_y
 _atom_site_fract_z
 _atom_site_occupancy
  Ca  Ca0  1  0.500183  0.500069  0.499937  1
  Pr  Pr1  1  0.025452  0.099990  0.304636  1
  Pr  Pr2  1  0.099553  0.303274  0.025915  1
  Pr  Pr3  1  0.289929  0.024605  0.094625  1
  Pr  Pr4  1  0.900419  0.696647  0.974101  1
  Pr  Pr5  1  0.709896  0.975153  0.904551  1
  Nd  Nd6  1  0.974470  0.900367  0.697140  1
  Co  Co7  1  0.999831  0.999841  0.999691  1
  I  I8  1  0.537674  0.617872  0.840060  1
  I  I9  1  0.462260  0.382110  0.159728  1
  I  I10  1  0.318205  0.927317  0.774289  1
  I  I11  1  0.383994  0.159251  0.460465  1
  I  I12  1  0.927072  0.774339  0.319585  1
  I  I13  1  0.679497  0.072227  0.224228  1
  I  I14  1  0.072524  0.223918  0.681348  1
  I  I15  1  0.771959  0.317764  0.926158  1
  I  I16  1  0.227995  0.682211  0.073772  1
  I  I17  1  0.843285  0.540899  0.617823  1
  I  I18  1  0.157759  0.461028  0.382355  1
  I  I19  1  0.618045  0.841117  0.539591  1
