# generated using pymatgen
data_Y5Er3(CuP)12
_symmetry_space_group_name_H-M   'P 1'
_cell_length_a   3.83703500
_cell_length_b   10.65300800
_cell_length_c   12.93761100
_cell_angle_alpha   89.99859625
_cell_angle_beta   90.00000000
_cell_angle_gamma   90.00000000
_symmetry_Int_Tables_number   1
_chemical_formula_structural   Y5Er3(CuP)12
_chemical_formula_sum   'Y5 Er3 Cu12 P12'
_cell_volume   528.83732861
_cell_formula_units_Z   1
loop_
 _symmetry_equiv_pos_site_id
 _symmetry_equiv_pos_as_xyz
  1  'x, y, z'
loop_
 _atom_site_type_symbol
 _atom_site_label
 _atom_site_symmetry_multiplicity
 _atom_site_fract_x
 _atom_site_fract_y
 _atom_site_fract_z
 _atom_site_occupancy
  Y  Y0  1  0.250000  0.931899  0.792980  1
  Y  Y1  1  0.750000  0.431443  0.707770  1
  Y  Y2  1  0.250000  0.568074  0.291851  1
  Y  Y3  1  0.750000  0.068438  0.207392  1
  Y  Y4  1  0.250000  0.840990  0.503288  1
  Er  Er5  1  0.750000  0.341269  0.996757  1
  Er  Er6  1  0.250000  0.658708  0.003137  1
  Er  Er7  1  0.750000  0.158909  0.496786  1
  Cu  Cu8  1  0.250000  0.404021  0.512929  1
  Cu  Cu9  1  0.750000  0.904485  0.986952  1
  Cu  Cu10  1  0.250000  0.095808  0.012824  1
  Cu  Cu11  1  0.750000  0.595498  0.487051  1
  Cu  Cu12  1  0.250000  0.271158  0.331898  1
  Cu  Cu13  1  0.750000  0.770703  0.167567  1
  Cu  Cu14  1  0.250000  0.229415  0.831745  1
  Cu  Cu15  1  0.750000  0.729211  0.668785  1
  Cu  Cu16  1  0.250000  0.859253  0.280942  1
  Cu  Cu17  1  0.750000  0.359076  0.218747  1
  Cu  Cu18  1  0.250000  0.641098  0.781742  1
  Cu  Cu19  1  0.750000  0.141082  0.718947  1
  P  P20  1  0.250000  0.242069  0.642027  1
  P  P21  1  0.750000  0.742318  0.858217  1
  P  P22  1  0.250000  0.257787  0.141930  1
  P  P23  1  0.750000  0.756914  0.356731  1
  P  P24  1  0.250000  0.604685  0.602247  1
  P  P25  1  0.750000  0.105985  0.898433  1
  P  P26  1  0.250000  0.894357  0.101446  1
  P  P27  1  0.750000  0.394309  0.398330  1
  P  P28  1  0.250000  0.056672  0.370083  1
  P  P29  1  0.750000  0.555778  0.129145  1
  P  P30  1  0.250000  0.444013  0.870553  1
  P  P31  1  0.750000  0.944573  0.630768  1
