# generated using pymatgen
data_Ac2Th(SnIr)3
_symmetry_space_group_name_H-M   'P 1'
_cell_length_a   7.76209475
_cell_length_b   7.71764153
_cell_length_c   4.23077100
_cell_angle_alpha   90.00000000
_cell_angle_beta   90.00000000
_cell_angle_gamma   119.81072684
_symmetry_Int_Tables_number   1
_chemical_formula_structural   Ac2Th(SnIr)3
_chemical_formula_sum   'Ac2 Th1 Sn3 Ir3'
_cell_volume   219.90689249
_cell_formula_units_Z   1
loop_
 _symmetry_equiv_pos_site_id
 _symmetry_equiv_pos_as_xyz
  1  'x, y, z'
loop_
 _atom_site_type_symbol
 _atom_site_label
 _atom_site_symmetry_multiplicity
 _atom_site_fract_x
 _atom_site_fract_y
 _atom_site_fract_z
 _atom_site_occupancy
  Ac  Ac0  1  0.415053  0.416168  0.000000  1
  Ac  Ac1  1  0.584947  0.001115  0.000000  1
  Th  Th2  1  0.000000  0.584760  0.000000  1
  Sn  Sn3  1  0.000000  0.242458  0.500000  1
  Sn  Sn4  1  0.758155  0.755055  0.500000  1
  Sn  Sn5  1  0.241845  0.996900  0.500000  1
  Ir  Ir6  1  0.000000  0.985937  0.000000  1
  Ir  Ir7  1  0.700431  0.359020  0.500000  1
  Ir  Ir8  1  0.299569  0.658588  0.500000  1
