# generated using pymatgen
data_TbDy(PSe)2
_symmetry_space_group_name_H-M   'P 1'
_cell_length_a   5.44873500
_cell_length_b   5.50323300
_cell_length_c   17.15703800
_cell_angle_alpha   90.00000000
_cell_angle_beta   90.00000000
_cell_angle_gamma   90.00000000
_symmetry_Int_Tables_number   1
_chemical_formula_structural   TbDy(PSe)2
_chemical_formula_sum   'Tb4 Dy4 P8 Se8'
_cell_volume   514.46507823
_cell_formula_units_Z   4
loop_
 _symmetry_equiv_pos_site_id
 _symmetry_equiv_pos_as_xyz
  1  'x, y, z'
loop_
 _atom_site_type_symbol
 _atom_site_label
 _atom_site_symmetry_multiplicity
 _atom_site_fract_x
 _atom_site_fract_y
 _atom_site_fract_z
 _atom_site_occupancy
  Tb  Tb0  1  0.250000  0.484277  0.368977  1
  Tb  Tb1  1  0.250000  0.984277  0.131023  1
  Tb  Tb2  1  0.750000  0.515723  0.631023  1
  Tb  Tb3  1  0.750000  0.015723  0.868977  1
  Dy  Dy4  1  0.250000  0.014493  0.639920  1
  Dy  Dy5  1  0.250000  0.514493  0.860080  1
  Dy  Dy6  1  0.750000  0.985507  0.360080  1
  Dy  Dy7  1  0.750000  0.485507  0.139920  1
  P  P8  1  0.039525  0.299064  0.997234  1
  P  P9  1  0.460475  0.799064  0.502766  1
  P  P10  1  0.539525  0.700936  0.002766  1
  P  P11  1  0.960475  0.200936  0.497234  1
  P  P12  1  0.960475  0.700936  0.002766  1
  P  P13  1  0.539525  0.200936  0.497234  1
  P  P14  1  0.460475  0.299064  0.997234  1
  P  P15  1  0.039525  0.799064  0.502766  1
  Se  Se16  1  0.250000  0.485306  0.190023  1
  Se  Se17  1  0.250000  0.985306  0.309977  1
  Se  Se18  1  0.750000  0.514694  0.809977  1
  Se  Se19  1  0.750000  0.014694  0.690023  1
  Se  Se20  1  0.250000  0.011138  0.815159  1
  Se  Se21  1  0.250000  0.511138  0.684841  1
  Se  Se22  1  0.750000  0.988862  0.184841  1
  Se  Se23  1  0.750000  0.488862  0.315159  1
