# generated using pymatgen
data_U3Ga3IrRh2
_symmetry_space_group_name_H-M   'P 1'
_cell_length_a   6.91071000
_cell_length_b   6.91070914
_cell_length_c   4.09458200
_cell_angle_alpha   90.00000000
_cell_angle_beta   90.00000000
_cell_angle_gamma   119.99999455
_symmetry_Int_Tables_number   1
_chemical_formula_structural   U3Ga3IrRh2
_chemical_formula_sum   'U3 Ga3 Ir1 Rh2'
_cell_volume   169.35012114
_cell_formula_units_Z   1
loop_
 _symmetry_equiv_pos_site_id
 _symmetry_equiv_pos_as_xyz
  1  'x, y, z'
loop_
 _atom_site_type_symbol
 _atom_site_label
 _atom_site_symmetry_multiplicity
 _atom_site_fract_x
 _atom_site_fract_y
 _atom_site_fract_z
 _atom_site_occupancy
  U  U0  1  0.423781  0.423474  0.500000  1
  U  U1  1  0.576526  0.000307  0.500000  1
  U  U2  1  0.999693  0.576219  0.500000  1
  Ga  Ga3  1  0.761386  0.762100  0.000000  1
  Ga  Ga4  1  0.237900  0.999286  0.000000  1
  Ga  Ga5  1  0.000714  0.238614  0.000000  1
  Ir  Ir6  1  0.666667  0.333333  0.000000  1
  Rh  Rh7  1  0.333333  0.666667  0.000000  1
  Rh  Rh8  1  0.000000  0.000000  0.500000  1
