# generated using pymatgen
data_ZrPd3(SeO3)8
_symmetry_space_group_name_H-M   'P 1'
_cell_length_a   8.17480709
_cell_length_b   8.17480728
_cell_length_c   8.17480724
_cell_angle_alpha   90.67053250
_cell_angle_beta   89.32947136
_cell_angle_gamma   90.67053313
_symmetry_Int_Tables_number   1
_chemical_formula_structural   ZrPd3(SeO3)8
_chemical_formula_sum   'Zr1 Pd3 Se8 O24'
_cell_volume   546.19034381
_cell_formula_units_Z   1
loop_
 _symmetry_equiv_pos_site_id
 _symmetry_equiv_pos_as_xyz
  1  'x, y, z'
loop_
 _atom_site_type_symbol
 _atom_site_label
 _atom_site_symmetry_multiplicity
 _atom_site_fract_x
 _atom_site_fract_y
 _atom_site_fract_z
 _atom_site_occupancy
  Zr  Zr0  1  0.000000  0.500000  0.500000  1
  Pd  Pd1  1  0.500000  0.500000  0.000000  1
  Pd  Pd2  1  0.500000  0.000000  0.500000  1
  Pd  Pd3  1  0.000000  0.000000  0.000000  1
  Se  Se4  1  0.822977  0.138770  0.684017  1
  Se  Se5  1  0.177023  0.861230  0.315983  1
  Se  Se6  1  0.638770  0.684017  0.677023  1
  Se  Se7  1  0.184017  0.677023  0.861230  1
  Se  Se8  1  0.330297  0.169703  0.830297  1
  Se  Se9  1  0.815983  0.322977  0.138770  1
  Se  Se10  1  0.669703  0.830297  0.169703  1
  Se  Se11  1  0.361230  0.315983  0.322977  1
  O  O12  1  0.244630  0.439604  0.447296  1
  O  O13  1  0.964200  0.244957  0.000417  1
  O  O14  1  0.052704  0.744630  0.439604  1
  O  O15  1  0.469264  0.255155  0.970007  1
  O  O16  1  0.255043  0.999583  0.464200  1
  O  O17  1  0.500417  0.535800  0.755043  1
  O  O18  1  0.970374  0.002471  0.754723  1
  O  O19  1  0.530736  0.744845  0.029993  1
  O  O20  1  0.529993  0.969264  0.255155  1
  O  O21  1  0.470007  0.030736  0.744845  1
  O  O22  1  0.755155  0.970007  0.030736  1
  O  O23  1  0.254723  0.529626  0.997529  1
  O  O24  1  0.060396  0.552704  0.744630  1
  O  O25  1  0.029626  0.997529  0.245277  1
  O  O26  1  0.244845  0.029993  0.969264  1
  O  O27  1  0.499583  0.464200  0.244957  1
  O  O28  1  0.755370  0.560396  0.552704  1
  O  O29  1  0.939604  0.447296  0.255370  1
  O  O30  1  0.035800  0.755043  0.999583  1
  O  O31  1  0.497529  0.245277  0.470374  1
  O  O32  1  0.502471  0.754723  0.529626  1
  O  O33  1  0.947296  0.255370  0.560396  1
  O  O34  1  0.744957  0.000417  0.535800  1
  O  O35  1  0.745277  0.470374  0.002471  1
