# generated using pymatgen
data_Ta3Ti3Si6Mo5Ru
_symmetry_space_group_name_H-M   'P 1'
_cell_length_a   7.63542677
_cell_length_b   7.66924509
_cell_length_c   7.63257902
_cell_angle_alpha   126.14644458
_cell_angle_beta   128.67651041
_cell_angle_gamma   77.48324169
_symmetry_Int_Tables_number   1
_chemical_formula_structural   Ta3Ti3Si6Mo5Ru
_chemical_formula_sum   'Ta3 Ti3 Si6 Mo5 Ru1'
_cell_volume   273.46229540
_cell_formula_units_Z   1
loop_
 _symmetry_equiv_pos_site_id
 _symmetry_equiv_pos_as_xyz
  1  'x, y, z'
loop_
 _atom_site_type_symbol
 _atom_site_label
 _atom_site_symmetry_multiplicity
 _atom_site_fract_x
 _atom_site_fract_y
 _atom_site_fract_z
 _atom_site_occupancy
  Ta  Ta0  1  0.450406  0.914479  0.962460  1
  Ta  Ta1  1  0.745979  0.090417  0.847812  1
  Ta  Ta2  1  0.245170  0.095496  0.346417  1
  Ti  Ti3  1  0.951391  0.913306  0.463763  1
  Ti  Ti4  1  0.054196  0.502993  0.952824  1
  Ti  Ti5  1  0.549071  0.504192  0.451104  1
  Si  Si6  1  0.751646  0.504991  0.249846  1
  Si  Si7  1  0.254427  0.503826  0.753223  1
  Si  Si8  1  0.670565  0.179186  0.514437  1
  Si  Si9  1  0.327204  0.831165  0.497057  1
  Si  Si10  1  0.165234  0.174216  0.002908  1
  Si  Si11  1  0.830601  0.825598  0.001633  1
  Mo  Mo12  1  0.501625  0.765963  0.264496  1
  Mo  Mo13  1  0.999375  0.763009  0.763417  1
  Mo  Mo14  1  0.869845  0.242707  0.372667  1
  Mo  Mo15  1  0.132264  0.502325  0.370926  1
  Mo  Mo16  1  0.371541  0.242383  0.872005  1
  Ru  Ru17  1  0.629459  0.501548  0.870804  1
