# generated using pymatgen
data_Lu(Hf5Bi6)3
_symmetry_space_group_name_H-M   'P 1'
_cell_length_a   10.83993500
_cell_length_b   10.83993500
_cell_length_c   7.64903400
_cell_angle_alpha   90.00000000
_cell_angle_beta   90.00000000
_cell_angle_gamma   90.00000000
_symmetry_Int_Tables_number   1
_chemical_formula_structural   Lu(Hf5Bi6)3
_chemical_formula_sum   'Lu1 Hf15 Bi18'
_cell_volume   898.79355060
_cell_formula_units_Z   1
loop_
 _symmetry_equiv_pos_site_id
 _symmetry_equiv_pos_as_xyz
  1  'x, y, z'
loop_
 _atom_site_type_symbol
 _atom_site_label
 _atom_site_symmetry_multiplicity
 _atom_site_fract_x
 _atom_site_fract_y
 _atom_site_fract_z
 _atom_site_occupancy
  Lu  Lu0  1  0.750000  0.750000  0.079920  1
  Hf  Hf1  1  0.000721  0.000721  0.000548  1
  Hf  Hf2  1  0.499279  0.000721  0.000548  1
  Hf  Hf3  1  0.000721  0.499279  0.000548  1
  Hf  Hf4  1  0.499279  0.499279  0.000548  1
  Hf  Hf5  1  0.750000  0.104181  0.152205  1
  Hf  Hf6  1  0.750000  0.395818  0.152205  1
  Hf  Hf7  1  0.104181  0.750000  0.152205  1
  Hf  Hf8  1  0.395818  0.750000  0.152205  1
  Hf  Hf9  1  0.250000  0.250000  0.433453  1
  Hf  Hf10  1  0.750000  0.750000  0.566244  1
  Hf  Hf11  1  0.605103  0.249999  0.846288  1
  Hf  Hf12  1  0.894898  0.250000  0.846288  1
  Hf  Hf13  1  0.249999  0.605103  0.846288  1
  Hf  Hf14  1  0.250000  0.894898  0.846288  1
  Hf  Hf15  1  0.250000  0.250000  0.920830  1
  Bi  Bi16  1  0.250000  0.016607  0.197225  1
  Bi  Bi17  1  0.016607  0.250000  0.197225  1
  Bi  Bi18  1  0.483392  0.249999  0.197225  1
  Bi  Bi19  1  0.249999  0.483392  0.197225  1
  Bi  Bi20  1  0.581180  0.581180  0.354632  1
  Bi  Bi21  1  0.918820  0.581180  0.354632  1
  Bi  Bi22  1  0.918820  0.918820  0.354632  1
  Bi  Bi23  1  0.581180  0.918820  0.354632  1
  Bi  Bi24  1  0.750000  0.250000  0.498137  1
  Bi  Bi25  1  0.250000  0.750000  0.498137  1
  Bi  Bi26  1  0.416083  0.083917  0.649228  1
  Bi  Bi27  1  0.083917  0.083917  0.649228  1
  Bi  Bi28  1  0.083917  0.416083  0.649228  1
  Bi  Bi29  1  0.416083  0.416083  0.649228  1
  Bi  Bi30  1  0.750000  0.513756  0.800697  1
  Bi  Bi31  1  0.513756  0.750000  0.800697  1
  Bi  Bi32  1  0.986244  0.750000  0.800697  1
  Bi  Bi33  1  0.750000  0.986244  0.800697  1
