# generated using pymatgen
data_Tb4HoEr3(ReC2)4
_symmetry_space_group_name_H-M   'P 1'
_cell_length_a   5.10698800
_cell_length_b   6.58763134
_cell_length_c   9.83536551
_cell_angle_alpha   90.03699266
_cell_angle_beta   90.00000000
_cell_angle_gamma   90.00000000
_symmetry_Int_Tables_number   1
_chemical_formula_structural   Tb4HoEr3(ReC2)4
_chemical_formula_sum   'Tb4 Ho1 Er3 Re4 C8'
_cell_volume   330.89068269
_cell_formula_units_Z   1
loop_
 _symmetry_equiv_pos_site_id
 _symmetry_equiv_pos_as_xyz
  1  'x, y, z'
loop_
 _atom_site_type_symbol
 _atom_site_label
 _atom_site_symmetry_multiplicity
 _atom_site_fract_x
 _atom_site_fract_y
 _atom_site_fract_z
 _atom_site_occupancy
  Tb  Tb0  1  0.750000  0.467040  0.785189  1
  Tb  Tb1  1  0.250000  0.033081  0.285470  1
  Tb  Tb2  1  0.750000  0.967120  0.714387  1
  Tb  Tb3  1  0.250000  0.532840  0.214748  1
  Ho  Ho4  1  0.750000  0.822377  0.056491  1
  Er  Er5  1  0.250000  0.676816  0.556703  1
  Er  Er6  1  0.750000  0.323093  0.443401  1
  Er  Er7  1  0.250000  0.176930  0.943097  1
  Re  Re8  1  0.750000  0.278190  0.134332  1
  Re  Re9  1  0.250000  0.221877  0.633932  1
  Re  Re10  1  0.750000  0.778073  0.366277  1
  Re  Re11  1  0.250000  0.722040  0.865651  1
  C  C12  1  0.750000  0.174609  0.950898  1
  C  C13  1  0.250000  0.825994  0.048778  1
  C  C14  1  0.750000  0.673706  0.549189  1
  C  C15  1  0.250000  0.326309  0.450935  1
  C  C16  1  0.750000  0.046096  0.260210  1
  C  C17  1  0.250000  0.454116  0.759782  1
  C  C18  1  0.750000  0.545506  0.240625  1
  C  C19  1  0.250000  0.954187  0.739905  1
