# generated using pymatgen
data_Y3Mg(P3Ir4)2
_symmetry_space_group_name_H-M   'P 1'
_cell_length_a   3.99299500
_cell_length_b   11.29054100
_cell_length_c   12.83921600
_cell_angle_alpha   90.00000000
_cell_angle_beta   90.00000000
_cell_angle_gamma   90.00000000
_symmetry_Int_Tables_number   1
_chemical_formula_structural   Y3Mg(P3Ir4)2
_chemical_formula_sum   'Y6 Mg2 P12 Ir16'
_cell_volume   578.83132195
_cell_formula_units_Z   2
loop_
 _symmetry_equiv_pos_site_id
 _symmetry_equiv_pos_as_xyz
  1  'x, y, z'
loop_
 _atom_site_type_symbol
 _atom_site_label
 _atom_site_symmetry_multiplicity
 _atom_site_fract_x
 _atom_site_fract_y
 _atom_site_fract_z
 _atom_site_occupancy
  Y  Y0  1  0.000000  0.500000  0.518130  1
  Y  Y1  1  0.500000  0.000000  0.481870  1
  Y  Y2  1  0.500000  0.819075  0.204000  1
  Y  Y3  1  0.500000  0.180925  0.204000  1
  Y  Y4  1  0.000000  0.680925  0.796000  1
  Y  Y5  1  0.000000  0.319075  0.796000  1
  Mg  Mg6  1  0.500000  0.500000  0.156599  1
  Mg  Mg7  1  0.000000  0.000000  0.843401  1
  P  P8  1  0.500000  0.500000  0.878757  1
  P  P9  1  0.000000  0.000000  0.121243  1
  P  P10  1  0.500000  0.500000  0.353925  1
  P  P11  1  0.000000  0.000000  0.646075  1
  P  P12  1  0.500000  0.313736  0.617528  1
  P  P13  1  0.500000  0.686264  0.617528  1
  P  P14  1  0.000000  0.186264  0.382472  1
  P  P15  1  0.000000  0.813736  0.382472  1
  P  P16  1  0.500000  0.841593  0.889624  1
  P  P17  1  0.500000  0.158407  0.889624  1
  P  P18  1  0.000000  0.658407  0.110376  1
  P  P19  1  0.000000  0.341593  0.110376  1
  Ir  Ir20  1  0.500000  0.500000  0.699958  1
  Ir  Ir21  1  0.000000  0.000000  0.300042  1
  Ir  Ir22  1  0.000000  0.500000  0.989694  1
  Ir  Ir23  1  0.500000  0.000000  0.010306  1
  Ir  Ir24  1  0.500000  0.332054  0.986153  1
  Ir  Ir25  1  0.500000  0.667946  0.986153  1
  Ir  Ir26  1  0.000000  0.167946  0.013847  1
  Ir  Ir27  1  0.000000  0.832054  0.013847  1
  Ir  Ir28  1  0.500000  0.288555  0.429901  1
  Ir  Ir29  1  0.500000  0.711445  0.429901  1
  Ir  Ir30  1  0.000000  0.211445  0.570099  1
  Ir  Ir31  1  0.000000  0.788555  0.570099  1
  Ir  Ir32  1  0.500000  0.872936  0.710818  1
  Ir  Ir33  1  0.500000  0.127064  0.710818  1
  Ir  Ir34  1  0.000000  0.627064  0.289182  1
  Ir  Ir35  1  0.000000  0.372936  0.289182  1
