# generated using pymatgen
data_Sr2LaTh(ZnSn)4
_symmetry_space_group_name_H-M   'P 1'
_cell_length_a   4.60097700
_cell_length_b   4.60097628
_cell_length_c   17.92720500
_cell_angle_alpha   90.00000000
_cell_angle_beta   90.00000000
_cell_angle_gamma   119.99998360
_symmetry_Int_Tables_number   1
_chemical_formula_structural   Sr2LaTh(ZnSn)4
_chemical_formula_sum   'Sr2 La1 Th1 Zn4 Sn4'
_cell_volume   328.65734673
_cell_formula_units_Z   1
loop_
 _symmetry_equiv_pos_site_id
 _symmetry_equiv_pos_as_xyz
  1  'x, y, z'
loop_
 _atom_site_type_symbol
 _atom_site_label
 _atom_site_symmetry_multiplicity
 _atom_site_fract_x
 _atom_site_fract_y
 _atom_site_fract_z
 _atom_site_occupancy
  Sr  Sr0  1  0.000000  0.000000  0.252064  1
  Sr  Sr1  1  0.000000  0.000000  0.993397  1
  La  La2  1  0.000000  0.000000  0.505462  1
  Th  Th3  1  0.000000  0.000000  0.745048  1
  Zn  Zn4  1  0.666667  0.333333  0.831850  1
  Zn  Zn5  1  0.666667  0.333333  0.653491  1
  Zn  Zn6  1  0.333333  0.666667  0.125545  1
  Zn  Zn7  1  0.333333  0.666667  0.395883  1
  Sn  Sn8  1  0.666667  0.333333  0.119982  1
  Sn  Sn9  1  0.666667  0.333333  0.386834  1
  Sn  Sn10  1  0.333333  0.666667  0.868105  1
  Sn  Sn11  1  0.333333  0.666667  0.622338  1
