# generated using pymatgen
data_Gd3Er(ScPt)4
_symmetry_space_group_name_H-M   'P 1'
_cell_length_a   4.64189300
_cell_length_b   6.99244760
_cell_length_c   8.40178600
_cell_angle_alpha   90.07254108
_cell_angle_beta   90.00000000
_cell_angle_gamma   90.00000000
_symmetry_Int_Tables_number   1
_chemical_formula_structural   Gd3Er(ScPt)4
_chemical_formula_sum   'Gd3 Er1 Sc4 Pt4'
_cell_volume   272.70657790
_cell_formula_units_Z   1
loop_
 _symmetry_equiv_pos_site_id
 _symmetry_equiv_pos_as_xyz
  1  'x, y, z'
loop_
 _atom_site_type_symbol
 _atom_site_label
 _atom_site_symmetry_multiplicity
 _atom_site_fract_x
 _atom_site_fract_y
 _atom_site_fract_z
 _atom_site_occupancy
  Gd  Gd0  1  0.250000  0.016884  0.322432  1
  Gd  Gd1  1  0.250000  0.516899  0.176176  1
  Gd  Gd2  1  0.750000  0.982925  0.678677  1
  Er  Er3  1  0.750000  0.482343  0.823698  1
  Sc  Sc4  1  0.250000  0.639335  0.575596  1
  Sc  Sc5  1  0.250000  0.142303  0.926314  1
  Sc  Sc6  1  0.750000  0.359950  0.428157  1
  Sc  Sc7  1  0.750000  0.859091  0.071955  1
  Pt  Pt8  1  0.250000  0.259391  0.598817  1
  Pt  Pt9  1  0.250000  0.755900  0.901087  1
  Pt  Pt10  1  0.750000  0.741513  0.402287  1
  Pt  Pt11  1  0.750000  0.243468  0.094806  1
