# generated using pymatgen
data_Ca2Nd6SbPd24
_symmetry_space_group_name_H-M   'P 1'
_cell_length_a   8.52626002
_cell_length_b   8.51742200
_cell_length_c   8.52626002
_cell_angle_alpha   90.00000000
_cell_angle_beta   89.92106782
_cell_angle_gamma   90.00000000
_symmetry_Int_Tables_number   1
_chemical_formula_structural   Ca2Nd6SbPd24
_chemical_formula_sum   'Ca2 Nd6 Sb1 Pd24'
_cell_volume   619.19137627
_cell_formula_units_Z   1
loop_
 _symmetry_equiv_pos_site_id
 _symmetry_equiv_pos_as_xyz
  1  'x, y, z'
loop_
 _atom_site_type_symbol
 _atom_site_label
 _atom_site_symmetry_multiplicity
 _atom_site_fract_x
 _atom_site_fract_y
 _atom_site_fract_z
 _atom_site_occupancy
  Ca  Ca0  1  0.252017  0.748528  0.252017  1
  Ca  Ca1  1  0.252017  0.251472  0.252017  1
  Nd  Nd2  1  0.746154  0.746006  0.253597  1
  Nd  Nd3  1  0.746709  0.252520  0.746709  1
  Nd  Nd4  1  0.253597  0.746006  0.746154  1
  Nd  Nd5  1  0.746709  0.747480  0.746709  1
  Nd  Nd6  1  0.746154  0.253994  0.253597  1
  Nd  Nd7  1  0.253597  0.253994  0.746154  1
  Sb  Sb8  1  0.000849  0.000000  0.000849  1
  Pd  Pd9  1  0.002370  0.000000  0.309507  1
  Pd  Pd10  1  0.734354  0.000000  0.500048  1
  Pd  Pd11  1  0.734128  0.500000  0.998107  1
  Pd  Pd12  1  0.500048  0.000000  0.734354  1
  Pd  Pd13  1  0.000324  0.734100  0.499654  1
  Pd  Pd14  1  0.499208  0.000000  0.266551  1
  Pd  Pd15  1  0.000324  0.265900  0.499654  1
  Pd  Pd16  1  0.499654  0.734100  0.000324  1
  Pd  Pd17  1  0.254740  0.500000  0.497406  1
  Pd  Pd18  1  0.501345  0.500000  0.744627  1
  Pd  Pd19  1  0.497406  0.500000  0.254740  1
  Pd  Pd20  1  0.499344  0.254805  0.499344  1
  Pd  Pd21  1  0.499344  0.745195  0.499344  1
  Pd  Pd22  1  0.744627  0.500000  0.501345  1
  Pd  Pd23  1  0.309507  0.000000  0.002370  1
  Pd  Pd24  1  0.999552  0.000000  0.690340  1
  Pd  Pd25  1  0.002842  0.500000  0.266621  1
  Pd  Pd26  1  0.000903  0.309965  0.000903  1
  Pd  Pd27  1  0.000903  0.690035  0.000903  1
  Pd  Pd28  1  0.690340  0.000000  0.999552  1
  Pd  Pd29  1  0.266621  0.500000  0.002842  1
  Pd  Pd30  1  0.266551  0.000000  0.499208  1
  Pd  Pd31  1  0.998107  0.500000  0.734128  1
  Pd  Pd32  1  0.499654  0.265900  0.000324  1
