# generated using pymatgen
data_Ti13Al9(Ir3Os)2
_symmetry_space_group_name_H-M   'P 1'
_cell_length_a   8.75426211
_cell_length_b   8.75426098
_cell_length_c   8.75426201
_cell_angle_alpha   59.68980614
_cell_angle_beta   59.68980603
_cell_angle_gamma   59.68981460
_symmetry_Int_Tables_number   1
_chemical_formula_structural   Ti13Al9(Ir3Os)2
_chemical_formula_sum   'Ti13 Al9 Ir6 Os2'
_cell_volume   471.05599232
_cell_formula_units_Z   1
loop_
 _symmetry_equiv_pos_site_id
 _symmetry_equiv_pos_as_xyz
  1  'x, y, z'
loop_
 _atom_site_type_symbol
 _atom_site_label
 _atom_site_symmetry_multiplicity
 _atom_site_fract_x
 _atom_site_fract_y
 _atom_site_fract_z
 _atom_site_occupancy
  Ti  Ti0  1  0.212333  0.212333  0.788929  1
  Ti  Ti1  1  0.788929  0.212333  0.212333  1
  Ti  Ti2  1  0.212333  0.788929  0.212333  1
  Ti  Ti3  1  0.797525  0.797525  0.187592  1
  Ti  Ti4  1  0.187592  0.797525  0.797525  1
  Ti  Ti5  1  0.797525  0.187592  0.797525  1
  Ti  Ti6  1  0.378782  0.378782  0.378782  1
  Ti  Ti7  1  0.379702  0.865295  0.379702  1
  Ti  Ti8  1  0.865295  0.379702  0.379702  1
  Ti  Ti9  1  0.379702  0.379702  0.865295  1
  Ti  Ti10  1  0.846089  0.464214  0.846089  1
  Ti  Ti11  1  0.464214  0.846089  0.846089  1
  Ti  Ti12  1  0.846089  0.846089  0.464214  1
  Al  Al13  1  0.153559  0.153559  0.153559  1
  Al  Al14  1  0.157328  0.532854  0.157328  1
  Al  Al15  1  0.532854  0.157328  0.157328  1
  Al  Al16  1  0.157328  0.157328  0.532854  1
  Al  Al17  1  0.619448  0.619448  0.619448  1
  Al  Al18  1  0.619847  0.142783  0.619847  1
  Al  Al19  1  0.142783  0.619847  0.619847  1
  Al  Al20  1  0.619847  0.619847  0.142783  1
  Al  Al21  1  0.830140  0.830140  0.830140  1
  Ir  Ir22  1  0.003530  0.003530  0.498845  1
  Ir  Ir23  1  0.498845  0.003530  0.003530  1
  Ir  Ir24  1  0.003530  0.498845  0.003530  1
  Ir  Ir25  1  0.499654  0.499654  0.001537  1
  Ir  Ir26  1  0.001537  0.499654  0.499654  1
  Ir  Ir27  1  0.499654  0.001537  0.499654  1
  Os  Os28  1  0.500417  0.500417  0.500417  1
  Os  Os29  1  0.003586  0.003586  0.003586  1
