# generated using pymatgen
data_Tb3Dy5Sc12Si15Ir
_symmetry_space_group_name_H-M   'P 1'
_cell_length_a   7.08988928
_cell_length_b   7.44103290
_cell_length_c   13.98309715
_cell_angle_alpha   90.01139676
_cell_angle_beta   89.98761984
_cell_angle_gamma   90.20512677
_symmetry_Int_Tables_number   1
_chemical_formula_structural   Tb3Dy5Sc12Si15Ir
_chemical_formula_sum   'Tb3 Dy5 Sc12 Si15 Ir1'
_cell_volume   737.68890337
_cell_formula_units_Z   1
loop_
 _symmetry_equiv_pos_site_id
 _symmetry_equiv_pos_as_xyz
  1  'x, y, z'
loop_
 _atom_site_type_symbol
 _atom_site_label
 _atom_site_symmetry_multiplicity
 _atom_site_fract_x
 _atom_site_fract_y
 _atom_site_fract_z
 _atom_site_occupancy
  Tb  Tb0  1  0.011469  0.178183  0.403596  1
  Tb  Tb1  1  0.511192  0.323717  0.403472  1
  Tb  Tb2  1  0.488597  0.676320  0.595786  1
  Dy  Dy3  1  0.011662  0.178527  0.096519  1
  Dy  Dy4  1  0.990652  0.825646  0.903862  1
  Dy  Dy5  1  0.488469  0.676677  0.904110  1
  Dy  Dy6  1  0.990709  0.825670  0.596341  1
  Dy  Dy7  1  0.511252  0.323360  0.096618  1
  Sc  Sc8  1  0.156813  0.498660  0.750038  1
  Sc  Sc9  1  0.838052  0.496530  0.249877  1
  Sc  Sc10  1  0.338970  0.004410  0.249872  1
  Sc  Sc11  1  0.668843  0.998940  0.750062  1
  Sc  Sc12  1  0.320670  0.172701  0.626861  1
  Sc  Sc13  1  0.671546  0.825337  0.373726  1
  Sc  Sc14  1  0.171012  0.677533  0.374158  1
  Sc  Sc15  1  0.671421  0.825221  0.126091  1
  Sc  Sc16  1  0.835015  0.320335  0.626906  1
  Sc  Sc17  1  0.320624  0.172869  0.873304  1
  Sc  Sc18  1  0.835119  0.320216  0.873255  1
  Sc  Sc19  1  0.171032  0.677516  0.125623  1
  Si  Si20  1  0.968753  0.883782  0.249825  1
  Si  Si21  1  0.467999  0.615421  0.249820  1
  Si  Si22  1  0.530494  0.388185  0.750196  1
  Si  Si23  1  0.286430  0.869007  0.750227  1
  Si  Si24  1  0.713206  0.128826  0.249610  1
  Si  Si25  1  0.213276  0.372340  0.249601  1
  Si  Si26  1  0.779578  0.625625  0.750242  1
  Si  Si27  1  0.158706  0.468018  0.537573  1
  Si  Si28  1  0.843904  0.536515  0.461431  1
  Si  Si29  1  0.345589  0.965602  0.460355  1
  Si  Si30  1  0.843393  0.535931  0.038689  1
  Si  Si31  1  0.656423  0.034124  0.538326  1
  Si  Si32  1  0.159291  0.467859  0.962511  1
  Si  Si33  1  0.656337  0.034102  0.961728  1
  Si  Si34  1  0.345343  0.965935  0.039732  1
  Ir  Ir35  1  0.028156  0.110360  0.750057  1
