# generated using pymatgen
data_GdGaCo3C
_symmetry_space_group_name_H-M   'P 1'
_cell_length_a   5.14823200
_cell_length_b   5.14812068
_cell_length_c   6.57578000
_cell_angle_alpha   90.00000000
_cell_angle_beta   90.00000000
_cell_angle_gamma   120.00074100
_symmetry_Int_Tables_number   1
_chemical_formula_structural   GdGaCo3C
_chemical_formula_sum   'Gd2 Ga2 Co6 C2'
_cell_volume   150.93205752
_cell_formula_units_Z   2
loop_
 _symmetry_equiv_pos_site_id
 _symmetry_equiv_pos_as_xyz
  1  'x, y, z'
loop_
 _atom_site_type_symbol
 _atom_site_label
 _atom_site_symmetry_multiplicity
 _atom_site_fract_x
 _atom_site_fract_y
 _atom_site_fract_z
 _atom_site_occupancy
  Gd  Gd0  1  0.999961  0.000000  0.000000  1
  Gd  Gd1  1  0.999987  0.000000  0.500000  1
  Ga  Ga2  1  0.333289  0.666633  0.000000  1
  Ga  Ga3  1  0.666656  0.333367  0.000000  1
  Co  Co4  1  0.500011  0.000000  0.305577  1
  Co  Co5  1  0.499984  0.500001  0.305550  1
  Co  Co6  1  0.999982  0.499999  0.305550  1
  Co  Co7  1  0.500011  0.000000  0.694423  1
  Co  Co8  1  0.499984  0.500001  0.694450  1
  Co  Co9  1  0.999982  0.499999  0.694450  1
  C  C10  1  0.333302  0.666653  0.500000  1
  C  C11  1  0.666649  0.333347  0.500000  1
