# generated using pymatgen
data_FeTcRh6
_symmetry_space_group_name_H-M   'P 1'
_cell_length_a   5.46022800
_cell_length_b   5.46022873
_cell_length_c   4.35356800
_cell_angle_alpha   90.00000000
_cell_angle_beta   90.00000000
_cell_angle_gamma   119.99999558
_symmetry_Int_Tables_number   1
_chemical_formula_structural   FeTcRh6
_chemical_formula_sum   'Fe1 Tc1 Rh6'
_cell_volume   112.40809729
_cell_formula_units_Z   1
loop_
 _symmetry_equiv_pos_site_id
 _symmetry_equiv_pos_as_xyz
  1  'x, y, z'
loop_
 _atom_site_type_symbol
 _atom_site_label
 _atom_site_symmetry_multiplicity
 _atom_site_fract_x
 _atom_site_fract_y
 _atom_site_fract_z
 _atom_site_occupancy
  Fe  Fe0  1  0.666667  0.333333  0.250000  1
  Tc  Tc1  1  0.333333  0.666667  0.750000  1
  Rh  Rh2  1  0.168237  0.336474  0.250000  1
  Rh  Rh3  1  0.663526  0.831763  0.250000  1
  Rh  Rh4  1  0.168237  0.831763  0.250000  1
  Rh  Rh5  1  0.831975  0.663950  0.750000  1
  Rh  Rh6  1  0.336050  0.168025  0.750000  1
  Rh  Rh7  1  0.831975  0.168025  0.750000  1
