# generated using pymatgen
data_Pr3NdPb3
_symmetry_space_group_name_H-M   'P 1'
_cell_length_a   8.47140091
_cell_length_b   8.47138177
_cell_length_c   8.46800709
_cell_angle_alpha   109.47092751
_cell_angle_beta   109.47205242
_cell_angle_gamma   109.48655230
_symmetry_Int_Tables_number   1
_chemical_formula_structural   Pr3NdPb3
_chemical_formula_sum   'Pr6 Nd2 Pb6'
_cell_volume   467.71760046
_cell_formula_units_Z   2
loop_
 _symmetry_equiv_pos_site_id
 _symmetry_equiv_pos_as_xyz
  1  'x, y, z'
loop_
 _atom_site_type_symbol
 _atom_site_label
 _atom_site_symmetry_multiplicity
 _atom_site_fract_x
 _atom_site_fract_y
 _atom_site_fract_z
 _atom_site_occupancy
  Pr  Pr0  1  0.361103  0.500017  0.000024  1
  Pr  Pr1  1  0.860911  0.499940  0.999910  1
  Pr  Pr2  1  0.138916  0.138899  0.138903  1
  Pr  Pr3  1  0.499997  0.000013  0.361099  1
  Pr  Pr4  1  0.999993  0.361079  0.499977  1
  Pr  Pr5  1  0.000030  0.861002  0.500090  1
  Nd  Nd6  1  0.638771  0.638868  0.638837  1
  Nd  Nd7  1  0.500030  0.999934  0.861164  1
  Pb  Pb8  1  0.749640  0.874978  0.124425  1
  Pb  Pb9  1  0.624909  0.374908  0.250000  1
  Pb  Pb10  1  0.250553  0.625217  0.375576  1
  Pb  Pb11  1  0.375337  0.250259  0.625136  1
  Pb  Pb12  1  0.874690  0.124690  0.750000  1
  Pb  Pb13  1  0.125124  0.750202  0.874864  1
