# generated using pymatgen
data_Tb8Ho2Tl3In5Pd4
_symmetry_space_group_name_H-M   'P 1'
_cell_length_a   3.65031700
_cell_length_b   8.22313616
_cell_length_c   18.37315064
_cell_angle_alpha   89.78837565
_cell_angle_beta   90.00000000
_cell_angle_gamma   90.00000000
_symmetry_Int_Tables_number   1
_chemical_formula_structural   Tb8Ho2Tl3In5Pd4
_chemical_formula_sum   'Tb8 Ho2 Tl3 In5 Pd4'
_cell_volume   551.50408793
_cell_formula_units_Z   1
loop_
 _symmetry_equiv_pos_site_id
 _symmetry_equiv_pos_as_xyz
  1  'x, y, z'
loop_
 _atom_site_type_symbol
 _atom_site_label
 _atom_site_symmetry_multiplicity
 _atom_site_fract_x
 _atom_site_fract_y
 _atom_site_fract_z
 _atom_site_occupancy
  Tb  Tb0  1  0.000000  0.498333  0.500220  1
  Tb  Tb1  1  0.000000  0.000062  0.999976  1
  Tb  Tb2  1  0.000000  0.740268  0.283061  1
  Tb  Tb3  1  0.000000  0.259805  0.716981  1
  Tb  Tb4  1  0.000000  0.759762  0.780696  1
  Tb  Tb5  1  0.000000  0.239878  0.218824  1
  Tb  Tb6  1  0.000000  0.618157  0.085077  1
  Tb  Tb7  1  0.000000  0.382329  0.914858  1
  Ho  Ho8  1  0.000000  0.882773  0.584786  1
  Ho  Ho9  1  0.000000  0.117980  0.416107  1
  Tl  Tl10  1  0.500000  0.708259  0.933024  1
  Tl  Tl11  1  0.500000  0.292325  0.066646  1
  Tl  Tl12  1  0.500000  0.794424  0.434945  1
  In  In13  1  0.500000  0.205223  0.566064  1
  In  In14  1  0.500000  0.581622  0.649967  1
  In  In15  1  0.500000  0.414686  0.349622  1
  In  In16  1  0.500000  0.917191  0.151867  1
  In  In17  1  0.500000  0.082290  0.848244  1
  Pd  Pd18  1  0.500000  0.528181  0.198026  1
  Pd  Pd19  1  0.500000  0.473195  0.802058  1
  Pd  Pd20  1  0.500000  0.975307  0.694736  1
  Pd  Pd21  1  0.500000  0.027951  0.304215  1
