# generated using pymatgen
data_Ho4Al16Si2Ir5Pd
_symmetry_space_group_name_H-M   'P 1'
_cell_length_a   7.54973753
_cell_length_b   7.54973741
_cell_length_c   9.32986433
_cell_angle_alpha   89.97711828
_cell_angle_beta   89.97711525
_cell_angle_gamma   119.68572056
_symmetry_Int_Tables_number   1
_chemical_formula_structural   Ho4Al16Si2Ir5Pd
_chemical_formula_sum   'Ho4 Al16 Si2 Ir5 Pd1'
_cell_volume   461.99384734
_cell_formula_units_Z   1
loop_
 _symmetry_equiv_pos_site_id
 _symmetry_equiv_pos_as_xyz
  1  'x, y, z'
loop_
 _atom_site_type_symbol
 _atom_site_label
 _atom_site_symmetry_multiplicity
 _atom_site_fract_x
 _atom_site_fract_y
 _atom_site_fract_z
 _atom_site_occupancy
  Ho  Ho0  1  0.994411  0.674143  0.250700  1
  Ho  Ho1  1  0.004621  0.325514  0.749265  1
  Ho  Ho2  1  0.674486  0.995379  0.250735  1
  Ho  Ho3  1  0.325857  0.005589  0.749300  1
  Al  Al4  1  0.004401  0.336079  0.077931  1
  Al  Al5  1  0.001782  0.667215  0.922573  1
  Al  Al6  1  0.999621  0.663392  0.575325  1
  Al  Al7  1  0.336608  0.000379  0.424675  1
  Al  Al8  1  0.000205  0.336065  0.423850  1
  Al  Al9  1  0.663935  0.999795  0.576150  1
  Al  Al10  1  0.663921  0.995599  0.922069  1
  Al  Al11  1  0.332785  0.998218  0.077427  1
  Al  Al12  1  0.334530  0.334467  0.554591  1
  Al  Al13  1  0.665533  0.665470  0.445409  1
  Al  Al14  1  0.664544  0.667649  0.059195  1
  Al  Al15  1  0.332351  0.335456  0.940805  1
  Al  Al16  1  0.336867  0.549154  0.250507  1
  Al  Al17  1  0.664204  0.453000  0.748060  1
  Al  Al18  1  0.547000  0.335796  0.251940  1
  Al  Al19  1  0.450846  0.663133  0.749493  1
  Si  Si20  1  0.128448  0.127718  0.250509  1
  Si  Si21  1  0.872282  0.871552  0.749491  1
  Ir  Ir22  1  0.328054  0.671946  0.000000  1
  Ir  Ir23  1  0.328503  0.671497  0.500000  1
  Ir  Ir24  1  0.671928  0.328072  0.500000  1
  Ir  Ir25  1  0.999745  0.000255  0.000000  1
  Ir  Ir26  1  0.000028  0.999972  0.500000  1
  Pd  Pd27  1  0.672503  0.327497  0.000000  1
