# generated using pymatgen
data_LiPr2Si2(AsPd5)4
_symmetry_space_group_name_H-M   'P 1'
_cell_length_a   8.83880575
_cell_length_b   8.83880545
_cell_length_c   8.86723100
_cell_angle_alpha   59.89356236
_cell_angle_beta   59.89356349
_cell_angle_gamma   60.21287590
_symmetry_Int_Tables_number   1
_chemical_formula_structural   LiPr2Si2(AsPd5)4
_chemical_formula_sum   'Li1 Pr2 Si2 As4 Pd20'
_cell_volume   489.83654453
_cell_formula_units_Z   1
loop_
 _symmetry_equiv_pos_site_id
 _symmetry_equiv_pos_as_xyz
  1  'x, y, z'
loop_
 _atom_site_type_symbol
 _atom_site_label
 _atom_site_symmetry_multiplicity
 _atom_site_fract_x
 _atom_site_fract_y
 _atom_site_fract_z
 _atom_site_occupancy
  Li  Li0  1  0.000000  0.000000  0.000000  1
  Pr  Pr1  1  0.250000  0.250000  0.250000  1
  Pr  Pr2  1  0.750000  0.750000  0.750000  1
  Si  Si3  1  0.262535  0.262535  0.737465  1
  Si  Si4  1  0.737465  0.737465  0.262535  1
  As  As5  1  0.737417  0.262583  0.262583  1
  As  As6  1  0.262583  0.737417  0.737417  1
  As  As7  1  0.262583  0.737417  0.262583  1
  As  As8  1  0.737417  0.262583  0.737417  1
  Pd  Pd9  1  0.382460  0.382460  0.390236  1
  Pd  Pd10  1  0.617540  0.617540  0.609764  1
  Pd  Pd11  1  0.382460  0.382460  0.844846  1
  Pd  Pd12  1  0.390236  0.844846  0.382460  1
  Pd  Pd13  1  0.617540  0.617540  0.155154  1
  Pd  Pd14  1  0.609764  0.155154  0.617540  1
  Pd  Pd15  1  0.844846  0.390236  0.382460  1
  Pd  Pd16  1  0.155154  0.609764  0.617540  1
  Pd  Pd17  1  0.346935  0.005865  0.994135  1
  Pd  Pd18  1  0.653065  0.994135  0.005865  1
  Pd  Pd19  1  0.005865  0.346935  0.653065  1
  Pd  Pd20  1  0.994135  0.653065  0.346935  1
  Pd  Pd21  1  0.005865  0.346935  0.994135  1
  Pd  Pd22  1  0.653065  0.994135  0.346935  1
  Pd  Pd23  1  0.994135  0.653065  0.005865  1
  Pd  Pd24  1  0.346935  0.005865  0.653065  1
  Pd  Pd25  1  0.000000  0.000000  0.347300  1
  Pd  Pd26  1  0.000000  0.000000  0.652700  1
  Pd  Pd27  1  0.652700  0.347300  0.000000  1
  Pd  Pd28  1  0.347300  0.652700  0.000000  1
