# generated using pymatgen
data_Lu3In4CoRh
_symmetry_space_group_name_H-M   'P 1'
_cell_length_a   7.92401400
_cell_length_b   7.92401340
_cell_length_c   3.54905700
_cell_angle_alpha   90.00000000
_cell_angle_beta   90.00000000
_cell_angle_gamma   120.00001309
_symmetry_Int_Tables_number   1
_chemical_formula_structural   Lu3In4CoRh
_chemical_formula_sum   'Lu3 In4 Co1 Rh1'
_cell_volume   192.98963483
_cell_formula_units_Z   1
loop_
 _symmetry_equiv_pos_site_id
 _symmetry_equiv_pos_as_xyz
  1  'x, y, z'
loop_
 _atom_site_type_symbol
 _atom_site_label
 _atom_site_symmetry_multiplicity
 _atom_site_fract_x
 _atom_site_fract_y
 _atom_site_fract_z
 _atom_site_occupancy
  Lu  Lu0  1  0.040051  0.295308  0.500000  1
  Lu  Lu1  1  0.704692  0.744742  0.500000  1
  Lu  Lu2  1  0.255258  0.959949  0.500000  1
  In  In3  1  0.660246  0.074210  0.000000  1
  In  In4  1  0.925790  0.586036  0.000000  1
  In  In5  1  0.413964  0.339754  0.000000  1
  In  In6  1  0.333333  0.666667  0.000000  1
  Co  Co7  1  0.666667  0.333333  0.500000  1
  Rh  Rh8  1  0.000000  0.000000  0.000000  1
