# generated using pymatgen
data_Tb3Bi5O14
_symmetry_space_group_name_H-M   'P 1'
_cell_length_a   6.64708230
_cell_length_b   6.77289912
_cell_length_c   7.83277133
_cell_angle_alpha   106.64512144
_cell_angle_beta   89.49380401
_cell_angle_gamma   98.81083690
_symmetry_Int_Tables_number   1
_chemical_formula_structural   Tb3Bi5O14
_chemical_formula_sum   'Tb3 Bi5 O14'
_cell_volume   333.63967173
_cell_formula_units_Z   1
loop_
 _symmetry_equiv_pos_site_id
 _symmetry_equiv_pos_as_xyz
  1  'x, y, z'
loop_
 _atom_site_type_symbol
 _atom_site_label
 _atom_site_symmetry_multiplicity
 _atom_site_fract_x
 _atom_site_fract_y
 _atom_site_fract_z
 _atom_site_occupancy
  Tb  Tb0  1  0.461472  0.001244  0.252516  1
  Tb  Tb1  1  0.540277  0.996699  0.752498  1
  Tb  Tb2  1  0.262303  0.535676  0.884676  1
  Bi  Bi3  1  0.002570  0.006998  0.501863  1
  Bi  Bi4  1  0.003164  0.001196  0.999301  1
  Bi  Bi5  1  0.737767  0.480829  0.116452  1
  Bi  Bi6  1  0.721123  0.464245  0.613723  1
  Bi  Bi7  1  0.269140  0.527315  0.392563  1
  O  O8  1  0.450841  0.649331  0.165884  1
  O  O9  1  0.540982  0.347200  0.823851  1
  O  O10  1  0.302064  0.917305  0.951114  1
  O  O11  1  0.698113  0.052964  0.048310  1
  O  O12  1  0.298804  0.920405  0.513149  1
  O  O13  1  0.701825  0.085004  0.491196  1
  O  O14  1  0.531855  0.355381  0.351512  1
  O  O15  1  0.455516  0.642954  0.657113  1
  O  O16  1  0.934486  0.669840  0.959842  1
  O  O17  1  0.085295  0.322326  0.029688  1
  O  O18  1  0.096751  0.333280  0.623152  1
  O  O19  1  0.902404  0.683650  0.371827  1
  O  O20  1  0.878652  0.926567  0.731262  1
  O  O21  1  0.124596  0.079593  0.268508  1
