# generated using pymatgen
data_Cs3FeH7
_symmetry_space_group_name_H-M   'P 1'
_cell_length_a   6.28809005
_cell_length_b   6.26420952
_cell_length_c   6.56348974
_cell_angle_alpha   60.89299458
_cell_angle_beta   119.15256103
_cell_angle_gamma   90.96216703
_symmetry_Int_Tables_number   1
_chemical_formula_structural   Cs3FeH7
_chemical_formula_sum   'Cs3 Fe1 H7'
_cell_volume   188.88088156
_cell_formula_units_Z   1
loop_
 _symmetry_equiv_pos_site_id
 _symmetry_equiv_pos_as_xyz
  1  'x, y, z'
loop_
 _atom_site_type_symbol
 _atom_site_label
 _atom_site_symmetry_multiplicity
 _atom_site_fract_x
 _atom_site_fract_y
 _atom_site_fract_z
 _atom_site_occupancy
  Cs  Cs0  1  0.542663  0.400137  0.641836  1
  Cs  Cs1  1  0.783782  0.642109  0.142740  1
  Cs  Cs2  1  0.043449  0.897727  0.644372  1
  Fe  Fe3  1  0.301250  0.153114  0.145320  1
  H  H4  1  0.119627  0.330453  0.804310  1
  H  H5  1  0.404150  0.942331  0.126194  1
  H  H6  1  0.101201  0.272997  0.166328  1
  H  H7  1  0.541227  0.192485  0.140355  1
  H  H8  1  0.118073  0.977546  0.149067  1
  H  H9  1  0.480372  0.974269  0.485805  1
  H  H10  1  0.360349  0.392928  0.145453  1
