# generated using pymatgen
data_Ba(TaSe2)3
_symmetry_space_group_name_H-M   'P 1'
_cell_length_a   6.07592300
_cell_length_b   6.07592304
_cell_length_c   16.71936300
_cell_angle_alpha   90.00000000
_cell_angle_beta   90.00000000
_cell_angle_gamma   119.99999436
_symmetry_Int_Tables_number   1
_chemical_formula_structural   Ba(TaSe2)3
_chemical_formula_sum   'Ba2 Ta6 Se12'
_cell_volume   534.53347607
_cell_formula_units_Z   2
loop_
 _symmetry_equiv_pos_site_id
 _symmetry_equiv_pos_as_xyz
  1  'x, y, z'
loop_
 _atom_site_type_symbol
 _atom_site_label
 _atom_site_symmetry_multiplicity
 _atom_site_fract_x
 _atom_site_fract_y
 _atom_site_fract_z
 _atom_site_occupancy
  Ba  Ba0  1  0.000000  0.000000  0.500000  1
  Ba  Ba1  1  0.000000  0.000000  0.000000  1
  Ta  Ta2  1  0.000000  0.000000  0.250000  1
  Ta  Ta3  1  0.000000  0.000000  0.750000  1
  Ta  Ta4  1  0.333333  0.666667  0.250000  1
  Ta  Ta5  1  0.666667  0.333333  0.750000  1
  Ta  Ta6  1  0.666667  0.333333  0.250000  1
  Ta  Ta7  1  0.333333  0.666667  0.750000  1
  Se  Se8  1  0.338405  0.000000  0.150511  1
  Se  Se9  1  0.000000  0.338405  0.150511  1
  Se  Se10  1  0.661595  0.661595  0.150511  1
  Se  Se11  1  0.338405  0.338405  0.650511  1
  Se  Se12  1  0.661595  0.661595  0.349489  1
  Se  Se13  1  0.661595  0.000000  0.650511  1
  Se  Se14  1  0.000000  0.661595  0.650511  1
  Se  Se15  1  0.000000  0.661595  0.849489  1
  Se  Se16  1  0.338405  0.338405  0.849489  1
  Se  Se17  1  0.000000  0.338405  0.349489  1
  Se  Se18  1  0.338405  0.000000  0.349489  1
  Se  Se19  1  0.661595  0.000000  0.849489  1
