# generated using pymatgen
data_TbErMnCo5P4
_symmetry_space_group_name_H-M   'P 1'
_cell_length_a   3.69944100
_cell_length_b   10.55239802
_cell_length_c   12.15248802
_cell_angle_alpha   89.99352962
_cell_angle_beta   90.00000000
_cell_angle_gamma   90.00000000
_symmetry_Int_Tables_number   1
_chemical_formula_structural   TbErMnCo5P4
_chemical_formula_sum   'Tb3 Er3 Mn3 Co15 P12'
_cell_volume   474.40850675
_cell_formula_units_Z   3
loop_
 _symmetry_equiv_pos_site_id
 _symmetry_equiv_pos_as_xyz
  1  'x, y, z'
loop_
 _atom_site_type_symbol
 _atom_site_label
 _atom_site_symmetry_multiplicity
 _atom_site_fract_x
 _atom_site_fract_y
 _atom_site_fract_z
 _atom_site_occupancy
  Tb  Tb0  1  0.000000  0.500083  0.523508  1
  Tb  Tb1  1  0.500000  0.999956  0.476989  1
  Tb  Tb2  1  0.000000  0.319578  0.795626  1
  Er  Er3  1  0.500000  0.818452  0.204900  1
  Er  Er4  1  0.500000  0.181480  0.204829  1
  Er  Er5  1  0.000000  0.680486  0.795705  1
  Mn  Mn6  1  0.500000  0.500028  0.154624  1
  Mn  Mn7  1  0.000000  0.999883  0.841429  1
  Mn  Mn8  1  0.000000  0.500346  0.989023  1
  Co  Co9  1  0.500000  0.500678  0.700087  1
  Co  Co10  1  0.000000  0.999972  0.297037  1
  Co  Co11  1  0.500000  0.999803  0.013645  1
  Co  Co12  1  0.500000  0.330326  0.994886  1
  Co  Co13  1  0.500000  0.669861  0.994461  1
  Co  Co14  1  0.000000  0.164832  0.005286  1
  Co  Co15  1  0.000000  0.834931  0.005009  1
  Co  Co16  1  0.500000  0.295882  0.430126  1
  Co  Co17  1  0.500000  0.704139  0.430239  1
  Co  Co18  1  0.000000  0.203452  0.569871  1
  Co  Co19  1  0.000000  0.796401  0.570234  1
  Co  Co20  1  0.500000  0.879438  0.710027  1
  Co  Co21  1  0.500000  0.119892  0.709698  1
  Co  Co22  1  0.000000  0.621487  0.291192  1
  Co  Co23  1  0.000000  0.378540  0.291158  1
  P  P24  1  0.500000  0.500738  0.882798  1
  P  P25  1  0.000000  0.999948  0.117725  1
  P  P26  1  0.500000  0.500001  0.345724  1
  P  P27  1  0.000000  0.000038  0.655395  1
  P  P28  1  0.500000  0.309965  0.616147  1
  P  P29  1  0.500000  0.689993  0.616973  1
  P  P30  1  0.000000  0.189149  0.383520  1
  P  P31  1  0.000000  0.810819  0.383582  1
  P  P32  1  0.500000  0.846748  0.892612  1
  P  P33  1  0.500000  0.152569  0.893092  1
  P  P34  1  0.000000  0.655598  0.106499  1
  P  P35  1  0.000000  0.344507  0.106341  1
