# generated using pymatgen
data_Th2Ga5Rh3
_symmetry_space_group_name_H-M   'P 1'
_cell_length_a   8.67892293
_cell_length_b   8.67892349
_cell_length_c   5.78869189
_cell_angle_alpha   70.66551093
_cell_angle_beta   70.66550973
_cell_angle_gamma   95.31891212
_symmetry_Int_Tables_number   1
_chemical_formula_structural   Th2Ga5Rh3
_chemical_formula_sum   'Th4 Ga10 Rh6'
_cell_volume   378.07557411
_cell_formula_units_Z   2
loop_
 _symmetry_equiv_pos_site_id
 _symmetry_equiv_pos_as_xyz
  1  'x, y, z'
loop_
 _atom_site_type_symbol
 _atom_site_label
 _atom_site_symmetry_multiplicity
 _atom_site_fract_x
 _atom_site_fract_y
 _atom_site_fract_z
 _atom_site_occupancy
  Th  Th0  1  0.862341  0.584076  0.776633  1
  Th  Th1  1  0.415924  0.137659  0.723367  1
  Th  Th2  1  0.137659  0.415924  0.223367  1
  Th  Th3  1  0.584076  0.862341  0.276633  1
  Ga  Ga4  1  0.075960  0.258122  0.832818  1
  Ga  Ga5  1  0.741878  0.924040  0.667182  1
  Ga  Ga6  1  0.924040  0.741878  0.167182  1
  Ga  Ga7  1  0.258122  0.075960  0.332818  1
  Ga  Ga8  1  0.205469  0.794531  0.750000  1
  Ga  Ga9  1  0.794531  0.205469  0.250000  1
  Ga  Ga10  1  0.499947  0.500053  0.750000  1
  Ga  Ga11  1  0.500053  0.499947  0.250000  1
  Ga  Ga12  1  0.794006  0.205994  0.750000  1
  Ga  Ga13  1  0.205994  0.794006  0.250000  1
  Rh  Rh14  1  0.254988  0.551235  0.597864  1
  Rh  Rh15  1  0.448765  0.745012  0.902136  1
  Rh  Rh16  1  0.745012  0.448765  0.402136  1
  Rh  Rh17  1  0.551235  0.254988  0.097864  1
  Rh  Rh18  1  0.999898  0.000102  0.750000  1
  Rh  Rh19  1  0.000102  0.999898  0.250000  1
