# generated using pymatgen
data_Tm5TlBi2S
_symmetry_space_group_name_H-M   'P 1'
_cell_length_a   9.08827400
_cell_length_b   9.08827356
_cell_length_c   6.61114300
_cell_angle_alpha   90.00000000
_cell_angle_beta   90.00000000
_cell_angle_gamma   120.17731791
_symmetry_Int_Tables_number   1
_chemical_formula_structural   Tm5TlBi2S
_chemical_formula_sum   'Tm10 Tl2 Bi4 S2'
_cell_volume   472.05350195
_cell_formula_units_Z   2
loop_
 _symmetry_equiv_pos_site_id
 _symmetry_equiv_pos_as_xyz
  1  'x, y, z'
loop_
 _atom_site_type_symbol
 _atom_site_label
 _atom_site_symmetry_multiplicity
 _atom_site_fract_x
 _atom_site_fract_y
 _atom_site_fract_z
 _atom_site_occupancy
  Tm  Tm0  1  0.668507  0.329458  0.003196  1
  Tm  Tm1  1  0.329458  0.668507  0.003196  1
  Tm  Tm2  1  0.329458  0.668507  0.496804  1
  Tm  Tm3  1  0.668507  0.329458  0.496804  1
  Tm  Tm4  1  0.756780  0.756780  0.750000  1
  Tm  Tm5  1  0.243747  0.999749  0.750000  1
  Tm  Tm6  1  0.999749  0.243747  0.750000  1
  Tm  Tm7  1  0.241759  0.241759  0.250000  1
  Tm  Tm8  1  0.757144  0.007543  0.250000  1
  Tm  Tm9  1  0.007543  0.757144  0.250000  1
  Tl  Tl10  1  0.395941  0.001321  0.250000  1
  Tl  Tl11  1  0.001321  0.395941  0.250000  1
  Bi  Bi12  1  0.395854  0.395854  0.750000  1
  Bi  Bi13  1  0.601883  0.998497  0.750000  1
  Bi  Bi14  1  0.998497  0.601883  0.750000  1
  Bi  Bi15  1  0.607827  0.607827  0.250000  1
  S  S16  1  0.998013  0.998013  0.998869  1
  S  S17  1  0.998013  0.998013  0.501131  1
