# generated using pymatgen
data_Rb2Rh(BrO3)6
_symmetry_space_group_name_H-M   'P 1'
_cell_length_a   7.75442306
_cell_length_b   7.88978127
_cell_length_c   7.92272273
_cell_angle_alpha   97.45034961
_cell_angle_beta   96.12065156
_cell_angle_gamma   96.71075234
_symmetry_Int_Tables_number   1
_chemical_formula_structural   Rb2Rh(BrO3)6
_chemical_formula_sum   'Rb2 Rh1 Br6 O18'
_cell_volume   473.66902498
_cell_formula_units_Z   1
loop_
 _symmetry_equiv_pos_site_id
 _symmetry_equiv_pos_as_xyz
  1  'x, y, z'
loop_
 _atom_site_type_symbol
 _atom_site_label
 _atom_site_symmetry_multiplicity
 _atom_site_fract_x
 _atom_site_fract_y
 _atom_site_fract_z
 _atom_site_occupancy
  Rb  Rb0  1  0.178263  0.165229  0.672266  1
  Rb  Rb1  1  0.821737  0.834771  0.327734  1
  Rh  Rh2  1  0.500000  0.500000  0.000000  1
  Br  Br3  1  0.166389  0.702134  0.825106  1
  Br  Br4  1  0.833611  0.297866  0.174894  1
  Br  Br5  1  0.289722  0.678147  0.325367  1
  Br  Br6  1  0.710278  0.321853  0.674633  1
  Br  Br7  1  0.322429  0.169041  0.204682  1
  Br  Br8  1  0.677571  0.830959  0.795318  1
  O  O9  1  0.324889  0.537593  0.817675  1
  O  O10  1  0.675111  0.462407  0.182325  1
  O  O11  1  0.298602  0.887505  0.864614  1
  O  O12  1  0.701398  0.112495  0.135386  1
  O  O13  1  0.094482  0.663917  0.618605  1
  O  O14  1  0.905518  0.336083  0.381395  1
  O  O15  1  0.314585  0.885344  0.406847  1
  O  O16  1  0.685415  0.114656  0.593153  1
  O  O17  1  0.447967  0.696057  0.176742  1
  O  O18  1  0.552033  0.303943  0.823258  1
  O  O19  1  0.099486  0.634265  0.198784  1
  O  O20  1  0.900514  0.365735  0.801216  1
  O  O21  1  0.110522  0.095705  0.178367  1
  O  O22  1  0.889478  0.904295  0.821633  1
  O  O23  1  0.369577  0.297560  0.391438  1
  O  O24  1  0.630423  0.702440  0.608562  1
  O  O25  1  0.311153  0.315794  0.048500  1
  O  O26  1  0.688847  0.684206  0.951500  1
