# generated using pymatgen
data_Y13Th3(HgRh)4
_symmetry_space_group_name_H-M   'P 1'
_cell_length_a   9.70154815
_cell_length_b   9.69947461
_cell_length_c   9.69947400
_cell_angle_alpha   59.99999526
_cell_angle_beta   60.00706525
_cell_angle_gamma   60.00706855
_symmetry_Int_Tables_number   1
_chemical_formula_structural   Y13Th3(HgRh)4
_chemical_formula_sum   'Y13 Th3 Hg4 Rh4'
_cell_volume   645.45921492
_cell_formula_units_Z   1
loop_
 _symmetry_equiv_pos_site_id
 _symmetry_equiv_pos_as_xyz
  1  'x, y, z'
loop_
 _atom_site_type_symbol
 _atom_site_label
 _atom_site_symmetry_multiplicity
 _atom_site_fract_x
 _atom_site_fract_y
 _atom_site_fract_z
 _atom_site_occupancy
  Y  Y0  1  0.188638  0.603787  0.603787  1
  Y  Y1  1  0.061073  0.439757  0.439757  1
  Y  Y2  1  0.438273  0.061817  0.061817  1
  Y  Y3  1  0.438273  0.061817  0.438093  1
  Y  Y4  1  0.061073  0.439757  0.059412  1
  Y  Y5  1  0.438273  0.438093  0.061817  1
  Y  Y6  1  0.061073  0.059412  0.439757  1
  Y  Y7  1  0.185694  0.814213  0.814213  1
  Y  Y8  1  0.814272  0.185404  0.185404  1
  Y  Y9  1  0.814272  0.185404  0.814921  1
  Y  Y10  1  0.185694  0.814213  0.185880  1
  Y  Y11  1  0.814272  0.814921  0.185404  1
  Y  Y12  1  0.185694  0.185880  0.814213  1
  Th  Th13  1  0.599507  0.601641  0.601641  1
  Th  Th14  1  0.599507  0.601641  0.197213  1
  Th  Th15  1  0.599507  0.197213  0.601641  1
  Hg  Hg16  1  0.838705  0.835429  0.835429  1
  Hg  Hg17  1  0.838705  0.835429  0.490437  1
  Hg  Hg18  1  0.838705  0.490437  0.835429  1
  Hg  Hg19  1  0.488686  0.837105  0.837105  1
  Rh  Rh20  1  0.397986  0.392185  0.392185  1
  Rh  Rh21  1  0.397986  0.392185  0.817645  1
  Rh  Rh22  1  0.397986  0.817645  0.392185  1
  Rh  Rh23  1  0.816142  0.394619  0.394619  1
