# generated using pymatgen
data_Tm9Lu11(SiSb3)3
_symmetry_space_group_name_H-M   'P 1'
_cell_length_a   7.87973649
_cell_length_b   8.96762805
_cell_length_c   11.67629814
_cell_angle_alpha   89.99022292
_cell_angle_beta   89.90369574
_cell_angle_gamma   89.99246266
_symmetry_Int_Tables_number   1
_chemical_formula_structural   Tm9Lu11(SiSb3)3
_chemical_formula_sum   'Tm9 Lu11 Si3 Sb9'
_cell_volume   825.07577004
_cell_formula_units_Z   1
loop_
 _symmetry_equiv_pos_site_id
 _symmetry_equiv_pos_as_xyz
  1  'x, y, z'
loop_
 _atom_site_type_symbol
 _atom_site_label
 _atom_site_symmetry_multiplicity
 _atom_site_fract_x
 _atom_site_fract_y
 _atom_site_fract_z
 _atom_site_occupancy
  Tm  Tm0  1  0.310517  0.455945  0.431442  1
  Tm  Tm1  1  0.165880  0.750014  0.213651  1
  Tm  Tm2  1  0.677440  0.249992  0.271962  1
  Tm  Tm3  1  0.835553  0.249978  0.786229  1
  Tm  Tm4  1  0.334610  0.749994  0.716222  1
  Tm  Tm5  1  0.640991  0.749988  0.293388  1
  Tm  Tm6  1  0.141844  0.249911  0.207236  1
  Tm  Tm7  1  0.343571  0.249960  0.714090  1
  Tm  Tm8  1  0.857986  0.749984  0.794883  1
  Lu  Lu9  1  0.815686  0.946164  0.063683  1
  Lu  Lu10  1  0.310722  0.044030  0.431381  1
  Lu  Lu11  1  0.180675  0.446971  0.938756  1
  Lu  Lu12  1  0.687026  0.565416  0.565723  1
  Lu  Lu13  1  0.180696  0.053012  0.938747  1
  Lu  Lu14  1  0.686998  0.934627  0.565697  1
  Lu  Lu15  1  0.815653  0.553817  0.063700  1
  Lu  Lu16  1  0.535756  0.250002  0.996236  1
  Lu  Lu17  1  0.040747  0.750083  0.501945  1
  Lu  Lu18  1  0.461062  0.750026  0.001467  1
  Lu  Lu19  1  0.974799  0.249948  0.497448  1
  Si  Si20  1  0.908819  0.250013  0.024800  1
  Si  Si21  1  0.416557  0.750518  0.480656  1
  Si  Si22  1  0.087937  0.749975  0.977908  1
  Sb  Sb23  1  0.932642  0.988224  0.326637  1
  Sb  Sb24  1  0.432958  0.010803  0.172733  1
  Sb  Sb25  1  0.066509  0.491501  0.674111  1
  Sb  Sb26  1  0.566906  0.509899  0.826120  1
  Sb  Sb27  1  0.066436  0.008451  0.674113  1
  Sb  Sb28  1  0.566864  0.990108  0.826124  1
  Sb  Sb29  1  0.932562  0.511717  0.326592  1
  Sb  Sb30  1  0.433065  0.489144  0.172643  1
  Sb  Sb31  1  0.590529  0.249784  0.523675  1
