# generated using pymatgen
data_Ba6SbIrO12
_symmetry_space_group_name_H-M   'P 1'
_cell_length_a   6.15852829
_cell_length_b   6.63970729
_cell_length_c   8.94392706
_cell_angle_alpha   86.35422169
_cell_angle_beta   89.97540039
_cell_angle_gamma   90.51820055
_symmetry_Int_Tables_number   1
_chemical_formula_structural   Ba6SbIrO12
_chemical_formula_sum   'Ba6 Sb1 Ir1 O12'
_cell_volume   364.96930747
_cell_formula_units_Z   1
loop_
 _symmetry_equiv_pos_site_id
 _symmetry_equiv_pos_as_xyz
  1  'x, y, z'
loop_
 _atom_site_type_symbol
 _atom_site_label
 _atom_site_symmetry_multiplicity
 _atom_site_fract_x
 _atom_site_fract_y
 _atom_site_fract_z
 _atom_site_occupancy
  Ba  Ba0  1  0.492350  0.395913  0.942025  1
  Ba  Ba1  1  0.995914  0.988108  0.489194  1
  Ba  Ba2  1  0.998916  0.033501  0.013827  1
  Ba  Ba3  1  0.486396  0.443224  0.495906  1
  Ba  Ba4  1  0.997117  0.508141  0.228667  1
  Ba  Ba5  1  0.488056  0.917402  0.741853  1
  Sb  Sb6  1  0.988541  0.432647  0.721123  1
  Ir  Ir7  1  0.498640  0.998334  0.244292  1
  O  O8  1  0.446043  0.977848  0.031368  1
  O  O9  1  0.718957  0.601729  0.724889  1
  O  O10  1  0.311284  0.772623  0.288747  1
  O  O11  1  0.248457  0.241456  0.715809  1
  O  O12  1  0.046141  0.448804  0.945518  1
  O  O13  1  0.932605  0.387220  0.502056  1
  O  O14  1  0.795858  0.183251  0.776360  1
  O  O15  1  0.546576  0.029452  0.453338  1
  O  O16  1  0.686425  0.229542  0.193222  1
  O  O17  1  0.183770  0.670437  0.664240  1
  O  O18  1  0.249288  0.180848  0.249185  1
  O  O19  1  0.754664  0.829512  0.239380  1
