# generated using pymatgen
data_Dy6Y4Ho2Co5Bi
_symmetry_space_group_name_H-M   'P 1'
_cell_length_a   8.32133522
_cell_length_b   8.31783953
_cell_length_c   8.32133363
_cell_angle_alpha   110.70619197
_cell_angle_beta   110.74795693
_cell_angle_gamma   107.00395690
_symmetry_Int_Tables_number   1
_chemical_formula_structural   Dy6Y4Ho2Co5Bi
_chemical_formula_sum   'Dy6 Y4 Ho2 Co5 Bi1'
_cell_volume   442.67211649
_cell_formula_units_Z   1
loop_
 _symmetry_equiv_pos_site_id
 _symmetry_equiv_pos_as_xyz
  1  'x, y, z'
loop_
 _atom_site_type_symbol
 _atom_site_label
 _atom_site_symmetry_multiplicity
 _atom_site_fract_x
 _atom_site_fract_y
 _atom_site_fract_z
 _atom_site_occupancy
  Dy  Dy0  1  0.688476  0.998359  0.309884  1
  Dy  Dy1  1  0.311524  0.001641  0.690116  1
  Dy  Dy2  1  0.600440  0.794314  0.805701  1
  Dy  Dy3  1  0.399560  0.205686  0.194299  1
  Dy  Dy4  1  0.988613  0.794314  0.193874  1
  Dy  Dy5  1  0.011387  0.205686  0.806126  1
  Y  Y6  1  0.814914  0.709506  0.525016  1
  Y  Y7  1  0.185086  0.290494  0.474984  1
  Y  Y8  1  0.184490  0.709506  0.894591  1
  Y  Y9  1  0.815510  0.290494  0.105409  1
  Ho  Ho10  1  0.688381  0.378253  0.689872  1
  Ho  Ho11  1  0.311619  0.621747  0.310128  1
  Co  Co12  1  0.623314  0.000000  0.623314  1
  Co  Co13  1  0.376686  0.000000  0.376686  1
  Co  Co14  1  0.111601  0.611442  0.499841  1
  Co  Co15  1  0.888399  0.388558  0.500159  1
  Co  Co16  1  0.000000  0.000000  0.000000  1
  Bi  Bi17  1  0.500000  0.500000  0.000000  1
