# generated using pymatgen
data_Li2Er2LuMgIn3
_symmetry_space_group_name_H-M   'P 1'
_cell_length_a   7.12277681
_cell_length_b   7.09103519
_cell_length_c   4.75599400
_cell_angle_alpha   90.00000000
_cell_angle_beta   90.00000000
_cell_angle_gamma   116.51105207
_symmetry_Int_Tables_number   1
_chemical_formula_structural   Li2Er2LuMgIn3
_chemical_formula_sum   'Li2 Er2 Lu1 Mg1 In3'
_cell_volume   214.95605366
_cell_formula_units_Z   1
loop_
 _symmetry_equiv_pos_site_id
 _symmetry_equiv_pos_as_xyz
  1  'x, y, z'
loop_
 _atom_site_type_symbol
 _atom_site_label
 _atom_site_symmetry_multiplicity
 _atom_site_fract_x
 _atom_site_fract_y
 _atom_site_fract_z
 _atom_site_occupancy
  Li  Li0  1  0.236860  0.008961  0.500000  1
  Li  Li1  1  0.008966  0.236839  0.500000  1
  Er  Er2  1  0.990737  0.553383  0.000000  1
  Er  Er3  1  0.438236  0.438056  0.000000  1
  Lu  Lu4  1  0.553599  0.990600  0.000000  1
  Mg  Mg5  1  0.775973  0.776294  0.500000  1
  In  In6  1  0.322253  0.657857  0.500000  1
  In  In7  1  0.656591  0.320259  0.500000  1
  In  In8  1  0.016784  0.017751  0.000000  1
