# generated using pymatgen
data_La2Y4TcSb2
_symmetry_space_group_name_H-M   'P 1'
_cell_length_a   8.44529200
_cell_length_b   8.29776922
_cell_length_c   4.35738700
_cell_angle_alpha   90.00000000
_cell_angle_beta   90.00000000
_cell_angle_gamma   120.58987512
_symmetry_Int_Tables_number   1
_chemical_formula_structural   La2Y4TcSb2
_chemical_formula_sum   'La2 Y4 Tc1 Sb2'
_cell_volume   262.85760201
_cell_formula_units_Z   1
loop_
 _symmetry_equiv_pos_site_id
 _symmetry_equiv_pos_as_xyz
  1  'x, y, z'
loop_
 _atom_site_type_symbol
 _atom_site_label
 _atom_site_symmetry_multiplicity
 _atom_site_fract_x
 _atom_site_fract_y
 _atom_site_fract_z
 _atom_site_occupancy
  La  La0  1  0.005060  0.600060  0.500000  1
  La  La1  1  0.405001  0.399940  0.500000  1
  Y  Y2  1  0.226150  0.000000  0.000000  1
  Y  Y3  1  0.763479  0.760735  0.000000  1
  Y  Y4  1  0.002745  0.239265  0.000000  1
  Y  Y5  1  0.604338  0.000000  0.500000  1
  Tc  Tc6  1  0.984174  0.000000  0.500000  1
  Sb  Sb7  1  0.344267  0.679480  0.000000  1
  Sb  Sb8  1  0.664787  0.320520  0.000000  1
