# generated using pymatgen
data_Th2ZnGaI2
_symmetry_space_group_name_H-M   'P 1'
_cell_length_a   4.24473100
_cell_length_b   4.24473222
_cell_length_c   12.64488600
_cell_angle_alpha   90.00000000
_cell_angle_beta   90.00000000
_cell_angle_gamma   119.99999827
_symmetry_Int_Tables_number   1
_chemical_formula_structural   Th2ZnGaI2
_chemical_formula_sum   'Th2 Zn1 Ga1 I2'
_cell_volume   197.30860616
_cell_formula_units_Z   1
loop_
 _symmetry_equiv_pos_site_id
 _symmetry_equiv_pos_as_xyz
  1  'x, y, z'
loop_
 _atom_site_type_symbol
 _atom_site_label
 _atom_site_symmetry_multiplicity
 _atom_site_fract_x
 _atom_site_fract_y
 _atom_site_fract_z
 _atom_site_occupancy
  Th  Th0  1  0.000000  0.000000  0.839682  1
  Th  Th1  1  0.000000  0.000000  0.161477  1
  Zn  Zn2  1  0.333333  0.666667  0.987988  1
  Ga  Ga3  1  0.666667  0.333333  0.010395  1
  I  I4  1  0.666667  0.333333  0.667464  1
  I  I5  1  0.333333  0.666667  0.332995  1
