# generated using pymatgen
data_Dy2Ho2Ga12Os
_symmetry_space_group_name_H-M   'P 1'
_cell_length_a   7.47374044
_cell_length_b   7.47092497
_cell_length_c   7.47373942
_cell_angle_alpha   109.45971854
_cell_angle_beta   109.50947550
_cell_angle_gamma   109.45971260
_symmetry_Int_Tables_number   1
_chemical_formula_structural   Dy2Ho2Ga12Os
_chemical_formula_sum   'Dy2 Ho2 Ga12 Os1'
_cell_volume   321.17862126
_cell_formula_units_Z   1
loop_
 _symmetry_equiv_pos_site_id
 _symmetry_equiv_pos_as_xyz
  1  'x, y, z'
loop_
 _atom_site_type_symbol
 _atom_site_label
 _atom_site_symmetry_multiplicity
 _atom_site_fract_x
 _atom_site_fract_y
 _atom_site_fract_z
 _atom_site_occupancy
  Dy  Dy0  1  0.000000  0.500000  0.000000  1
  Dy  Dy1  1  0.500000  0.500000  0.500000  1
  Ho  Ho2  1  0.000000  0.000000  0.500000  1
  Ho  Ho3  1  0.500000  0.000000  0.000000  1
  Ga  Ga4  1  0.749967  0.249782  0.499816  1
  Ga  Ga5  1  0.750000  0.500000  0.250000  1
  Ga  Ga6  1  0.499816  0.249782  0.749967  1
  Ga  Ga7  1  0.250000  0.500000  0.750000  1
  Ga  Ga8  1  0.250033  0.750218  0.500184  1
  Ga  Ga9  1  0.500184  0.750218  0.250033  1
  Ga  Ga10  1  0.708348  0.708540  0.000192  1
  Ga  Ga11  1  0.291666  0.000000  0.291666  1
  Ga  Ga12  1  0.999808  0.291460  0.291652  1
  Ga  Ga13  1  0.291652  0.291460  0.999808  1
  Ga  Ga14  1  0.708334  0.000000  0.708334  1
  Ga  Ga15  1  0.000192  0.708540  0.708348  1
  Os  Os16  1  0.000000  0.000000  0.000000  1
