# generated using pymatgen
data_Cs2SrPd3F12
_symmetry_space_group_name_H-M   'P 1'
_cell_length_a   7.39650091
_cell_length_b   7.87703560
_cell_length_c   10.57365300
_cell_angle_alpha   89.95126571
_cell_angle_beta   85.48315205
_cell_angle_gamma   89.40090874
_symmetry_Int_Tables_number   1
_chemical_formula_structural   Cs2SrPd3F12
_chemical_formula_sum   'Cs4 Sr2 Pd6 F24'
_cell_volume   614.10058817
_cell_formula_units_Z   2
loop_
 _symmetry_equiv_pos_site_id
 _symmetry_equiv_pos_as_xyz
  1  'x, y, z'
loop_
 _atom_site_type_symbol
 _atom_site_label
 _atom_site_symmetry_multiplicity
 _atom_site_fract_x
 _atom_site_fract_y
 _atom_site_fract_z
 _atom_site_occupancy
  Cs  Cs0  1  0.507052  0.750061  0.617037  1
  Cs  Cs1  1  0.492948  0.249939  0.382963  1
  Cs  Cs2  1  0.014266  0.250179  0.153203  1
  Cs  Cs3  1  0.985734  0.749821  0.846797  1
  Sr  Sr4  1  0.723685  0.249218  0.739144  1
  Sr  Sr5  1  0.276315  0.750782  0.260856  1
  Pd  Pd6  1  0.821047  0.747862  0.204219  1
  Pd  Pd7  1  0.178953  0.252138  0.795781  1
  Pd  Pd8  1  0.000000  0.500000  0.500000  1
  Pd  Pd9  1  0.000000  0.000000  0.500000  1
  Pd  Pd10  1  0.500000  0.000000  0.000000  1
  Pd  Pd11  1  0.500000  0.500000  0.000000  1
  F  F12  1  0.055579  0.733275  0.101587  1
  F  F13  1  0.944421  0.266725  0.898413  1
  F  F14  1  0.591096  0.761686  0.316621  1
  F  F15  1  0.408904  0.238314  0.683379  1
  F  F16  1  0.736502  0.441731  0.552201  1
  F  F17  1  0.263498  0.558269  0.447799  1
  F  F18  1  0.738321  0.058532  0.547104  1
  F  F19  1  0.261679  0.941468  0.452896  1
  F  F20  1  0.637052  0.962094  0.830523  1
  F  F21  1  0.362948  0.037906  0.169477  1
  F  F22  1  0.639262  0.537088  0.832015  1
  F  F23  1  0.360738  0.462912  0.167985  1
  F  F24  1  0.582233  0.247630  0.973794  1
  F  F25  1  0.417767  0.752370  0.026206  1
  F  F26  1  0.274006  0.451267  0.906663  1
  F  F27  1  0.725994  0.548733  0.093337  1
  F  F28  1  0.265559  0.054180  0.914160  1
  F  F29  1  0.734441  0.945820  0.085840  1
  F  F30  1  0.042401  0.076620  0.688516  1
  F  F31  1  0.957599  0.923380  0.311484  1
  F  F32  1  0.947553  0.756851  0.562647  1
  F  F33  1  0.052447  0.243149  0.437353  1
  F  F34  1  0.056054  0.434598  0.682262  1
  F  F35  1  0.943946  0.565402  0.317738  1
