# generated using pymatgen
data_DyHo(BiO4)2
_symmetry_space_group_name_H-M   'P 1'
_cell_length_a   5.52003360
_cell_length_b   7.85575785
_cell_length_c   7.82707314
_cell_angle_alpha   83.04436149
_cell_angle_beta   90.46750942
_cell_angle_gamma   92.23353485
_symmetry_Int_Tables_number   1
_chemical_formula_structural   DyHo(BiO4)2
_chemical_formula_sum   'Dy2 Ho2 Bi4 O16'
_cell_volume   336.65757077
_cell_formula_units_Z   2
loop_
 _symmetry_equiv_pos_site_id
 _symmetry_equiv_pos_as_xyz
  1  'x, y, z'
loop_
 _atom_site_type_symbol
 _atom_site_label
 _atom_site_symmetry_multiplicity
 _atom_site_fract_x
 _atom_site_fract_y
 _atom_site_fract_z
 _atom_site_occupancy
  Dy  Dy0  1  0.255633  0.124911  0.620688  1
  Dy  Dy1  1  0.744367  0.875089  0.379312  1
  Ho  Ho2  1  0.217839  0.150966  0.115539  1
  Ho  Ho3  1  0.782161  0.849034  0.884461  1
  Bi  Bi4  1  0.239591  0.664103  0.183511  1
  Bi  Bi5  1  0.760409  0.335897  0.816489  1
  Bi  Bi6  1  0.724681  0.336758  0.319587  1
  Bi  Bi7  1  0.275319  0.663242  0.680413  1
  O  O8  1  0.091669  0.418782  0.676532  1
  O  O9  1  0.908332  0.581218  0.323468  1
  O  O10  1  0.581284  0.320901  0.571604  1
  O  O11  1  0.418716  0.679099  0.428396  1
  O  O12  1  0.898775  0.327223  0.073268  1
  O  O13  1  0.101225  0.672777  0.926732  1
  O  O14  1  0.393215  0.417867  0.185767  1
  O  O15  1  0.606785  0.582133  0.814233  1
  O  O16  1  0.032738  0.894485  0.168989  1
  O  O17  1  0.967262  0.105515  0.831011  1
  O  O18  1  0.501493  0.102533  0.323406  1
  O  O19  1  0.498507  0.897467  0.676594  1
  O  O20  1  0.455010  0.179369  0.885882  1
  O  O21  1  0.544990  0.820631  0.114118  1
  O  O22  1  0.995870  0.157113  0.387970  1
  O  O23  1  0.004130  0.842887  0.612030  1
