# generated using pymatgen
data_Nd16MgCd3(RuPt)2
_symmetry_space_group_name_H-M   'P 1'
_cell_length_a   9.98126163
_cell_length_b   9.98126068
_cell_length_c   10.04121684
_cell_angle_alpha   59.73076092
_cell_angle_beta   59.73076373
_cell_angle_gamma   59.64826199
_symmetry_Int_Tables_number   1
_chemical_formula_structural   Nd16MgCd3(RuPt)2
_chemical_formula_sum   'Nd16 Mg1 Cd3 Ru2 Pt2'
_cell_volume   702.59398097
_cell_formula_units_Z   1
loop_
 _symmetry_equiv_pos_site_id
 _symmetry_equiv_pos_as_xyz
  1  'x, y, z'
loop_
 _atom_site_type_symbol
 _atom_site_label
 _atom_site_symmetry_multiplicity
 _atom_site_fract_x
 _atom_site_fract_y
 _atom_site_fract_z
 _atom_site_occupancy
  Nd  Nd0  1  0.348015  0.348015  0.354280  1
  Nd  Nd1  1  0.348229  0.348229  0.950449  1
  Nd  Nd2  1  0.343864  0.958797  0.348166  1
  Nd  Nd3  1  0.958797  0.343864  0.348166  1
  Nd  Nd4  1  0.815125  0.190180  0.190755  1
  Nd  Nd5  1  0.187496  0.816093  0.805571  1
  Nd  Nd6  1  0.190180  0.815125  0.190755  1
  Nd  Nd7  1  0.816093  0.187496  0.805571  1
  Nd  Nd8  1  0.189708  0.189708  0.810390  1
  Nd  Nd9  1  0.808065  0.808065  0.191315  1
  Nd  Nd10  1  0.937647  0.559130  0.566028  1
  Nd  Nd11  1  0.557729  0.937953  0.940131  1
  Nd  Nd12  1  0.559130  0.937647  0.566028  1
  Nd  Nd13  1  0.937953  0.557729  0.940131  1
  Nd  Nd14  1  0.562064  0.562064  0.939509  1
  Nd  Nd15  1  0.937780  0.937780  0.561716  1
  Mg  Mg16  1  0.575351  0.575351  0.574998  1
  Cd  Cd17  1  0.580750  0.580750  0.258069  1
  Cd  Cd18  1  0.581825  0.256569  0.580602  1
  Cd  Cd19  1  0.256569  0.581825  0.580602  1
  Ru  Ru20  1  0.143604  0.143604  0.137860  1
  Ru  Ru21  1  0.143863  0.143863  0.577071  1
  Pt  Pt22  1  0.146241  0.573924  0.140918  1
  Pt  Pt23  1  0.573924  0.146241  0.140918  1
