# generated using pymatgen
data_Cs6K(FeSe2)4
_symmetry_space_group_name_H-M   'P 1'
_cell_length_a   10.69409553
_cell_length_b   10.69409447
_cell_length_c   17.28282900
_cell_angle_alpha   64.82701544
_cell_angle_beta   64.82701811
_cell_angle_gamma   47.76079575
_symmetry_Int_Tables_number   1
_chemical_formula_structural   Cs6K(FeSe2)4
_chemical_formula_sum   'Cs12 K2 Fe8 Se16'
_cell_volume   1295.35117891
_cell_formula_units_Z   2
loop_
 _symmetry_equiv_pos_site_id
 _symmetry_equiv_pos_as_xyz
  1  'x, y, z'
loop_
 _atom_site_type_symbol
 _atom_site_label
 _atom_site_symmetry_multiplicity
 _atom_site_fract_x
 _atom_site_fract_y
 _atom_site_fract_z
 _atom_site_occupancy
  Cs  Cs0  1  0.243633  0.746720  0.988791  1
  Cs  Cs1  1  0.253280  0.756367  0.511209  1
  Cs  Cs2  1  0.756367  0.253280  0.011209  1
  Cs  Cs3  1  0.746720  0.243633  0.488791  1
  Cs  Cs4  1  0.002239  0.521621  0.611803  1
  Cs  Cs5  1  0.478379  0.997761  0.888197  1
  Cs  Cs6  1  0.997761  0.478379  0.388197  1
  Cs  Cs7  1  0.521621  0.002239  0.111803  1
  Cs  Cs8  1  0.009792  0.507947  0.861971  1
  Cs  Cs9  1  0.492053  0.990208  0.638029  1
  Cs  Cs10  1  0.990208  0.492053  0.138029  1
  Cs  Cs11  1  0.507947  0.009792  0.361971  1
  K  K12  1  0.231438  0.768562  0.750000  1
  K  K13  1  0.768562  0.231438  0.250000  1
  Fe  Fe14  1  0.681127  0.426658  0.669482  1
  Fe  Fe15  1  0.573342  0.318873  0.830518  1
  Fe  Fe16  1  0.318873  0.573342  0.330518  1
  Fe  Fe17  1  0.426658  0.681127  0.169482  1
  Fe  Fe18  1  0.891856  0.213394  0.776147  1
  Fe  Fe19  1  0.786606  0.108144  0.723853  1
  Fe  Fe20  1  0.108144  0.786606  0.223853  1
  Fe  Fe21  1  0.213394  0.891856  0.276147  1
  Se  Se22  1  0.648927  0.511588  0.790514  1
  Se  Se23  1  0.488412  0.351073  0.709486  1
  Se  Se24  1  0.351073  0.488412  0.209486  1
  Se  Se25  1  0.511588  0.648927  0.290514  1
  Se  Se26  1  0.979451  0.184500  0.626202  1
  Se  Se27  1  0.815500  0.020549  0.873798  1
  Se  Se28  1  0.020549  0.815500  0.373798  1
  Se  Se29  1  0.184500  0.979451  0.126202  1
  Se  Se30  1  0.665157  0.608007  0.052098  1
  Se  Se31  1  0.391993  0.334843  0.447902  1
  Se  Se32  1  0.334843  0.391993  0.947902  1
  Se  Se33  1  0.608007  0.665157  0.552098  1
  Se  Se34  1  0.868482  0.872473  0.684976  1
  Se  Se35  1  0.127527  0.131518  0.815024  1
  Se  Se36  1  0.131518  0.127527  0.315024  1
  Se  Se37  1  0.872473  0.868482  0.184976  1
