# generated using pymatgen
data_Tb3Nd2Y3Pt4
_symmetry_space_group_name_H-M   'P 1'
_cell_length_a   4.80097900
_cell_length_b   7.24337040
_cell_length_c   8.93953017
_cell_angle_alpha   89.86689589
_cell_angle_beta   90.00000000
_cell_angle_gamma   90.00000000
_symmetry_Int_Tables_number   1
_chemical_formula_structural   Tb3Nd2Y3Pt4
_chemical_formula_sum   'Tb3 Nd2 Y3 Pt4'
_cell_volume   310.87372917
_cell_formula_units_Z   1
loop_
 _symmetry_equiv_pos_site_id
 _symmetry_equiv_pos_as_xyz
  1  'x, y, z'
loop_
 _atom_site_type_symbol
 _atom_site_label
 _atom_site_symmetry_multiplicity
 _atom_site_fract_x
 _atom_site_fract_y
 _atom_site_fract_z
 _atom_site_occupancy
  Tb  Tb0  1  0.250000  0.856319  0.915936  1
  Tb  Tb1  1  0.250000  0.355453  0.583664  1
  Tb  Tb2  1  0.750000  0.142919  0.077231  1
  Nd  Nd3  1  0.250000  0.991861  0.330925  1
  Nd  Nd4  1  0.250000  0.492378  0.169059  1
  Y  Y5  1  0.750000  0.642975  0.423032  1
  Y  Y6  1  0.750000  0.007446  0.669923  1
  Y  Y7  1  0.750000  0.508716  0.830588  1
  Pt  Pt8  1  0.250000  0.255668  0.904379  1
  Pt  Pt9  1  0.250000  0.754900  0.596199  1
  Pt  Pt10  1  0.750000  0.746565  0.088077  1
  Pt  Pt11  1  0.750000  0.244801  0.410983  1
