# generated using pymatgen
data_Li4Cd3AsPd8
_symmetry_space_group_name_H-M   'P 1'
_cell_length_a   5.86026100
_cell_length_b   5.86026304
_cell_length_c   7.25351800
_cell_angle_alpha   89.99930837
_cell_angle_beta   90.00000979
_cell_angle_gamma   90.00914149
_symmetry_Int_Tables_number   1
_chemical_formula_structural   Li4Cd3AsPd8
_chemical_formula_sum   'Li4 Cd3 As1 Pd8'
_cell_volume   249.10517896
_cell_formula_units_Z   1
loop_
 _symmetry_equiv_pos_site_id
 _symmetry_equiv_pos_as_xyz
  1  'x, y, z'
loop_
 _atom_site_type_symbol
 _atom_site_label
 _atom_site_symmetry_multiplicity
 _atom_site_fract_x
 _atom_site_fract_y
 _atom_site_fract_z
 _atom_site_occupancy
  Li  Li0  1  0.750000  0.249993  0.000016  1
  Li  Li1  1  0.250001  0.750006  0.000014  1
  Li  Li2  1  0.250002  0.749998  0.499991  1
  Li  Li3  1  0.749998  0.249999  0.499992  1
  Cd  Cd4  1  0.750025  0.750002  0.999999  1
  Cd  Cd5  1  0.749974  0.750000  0.499998  1
  Cd  Cd6  1  0.250033  0.249998  0.499998  1
  As  As7  1  0.249983  0.249992  0.999971  1
  Pd  Pd8  1  0.494847  0.005156  0.238330  1
  Pd  Pd9  1  0.494846  0.494854  0.238342  1
  Pd  Pd10  1  0.005152  0.005157  0.238371  1
  Pd  Pd11  1  0.005148  0.494857  0.238385  1
  Pd  Pd12  1  0.005144  0.005143  0.761621  1
  Pd  Pd13  1  0.005149  0.494847  0.761635  1
  Pd  Pd14  1  0.494846  0.005148  0.761670  1
  Pd  Pd15  1  0.494851  0.494852  0.761668  1
