# generated using pymatgen
data_Dy8Ta12Si15As
_symmetry_space_group_name_H-M   'P 1'
_cell_length_a   7.04264901
_cell_length_b   7.03328186
_cell_length_c   13.02326548
_cell_angle_alpha   90.03969582
_cell_angle_beta   89.87886289
_cell_angle_gamma   90.08651021
_symmetry_Int_Tables_number   1
_chemical_formula_structural   Dy8Ta12Si15As
_chemical_formula_sum   'Dy8 Ta12 Si15 As1'
_cell_volume   645.07823839
_cell_formula_units_Z   1
loop_
 _symmetry_equiv_pos_site_id
 _symmetry_equiv_pos_as_xyz
  1  'x, y, z'
loop_
 _atom_site_type_symbol
 _atom_site_label
 _atom_site_symmetry_multiplicity
 _atom_site_fract_x
 _atom_site_fract_y
 _atom_site_fract_z
 _atom_site_occupancy
  Dy  Dy0  1  0.997899  0.658421  0.031868  1
  Dy  Dy1  1  0.002971  0.341592  0.531812  1
  Dy  Dy2  1  0.658653  0.997136  0.968104  1
  Dy  Dy3  1  0.159112  0.502800  0.781460  1
  Dy  Dy4  1  0.838724  0.496089  0.280246  1
  Dy  Dy5  1  0.501648  0.158900  0.218189  1
  Dy  Dy6  1  0.499111  0.842460  0.718918  1
  Dy  Dy7  1  0.341337  0.001064  0.469036  1
  Ta  Ta8  1  0.347999  0.506142  0.376159  1
  Ta  Ta9  1  0.843682  0.998321  0.372881  1
  Ta  Ta10  1  0.007268  0.153804  0.125491  1
  Ta  Ta11  1  0.996044  0.847441  0.626377  1
  Ta  Ta12  1  0.509285  0.344678  0.625146  1
  Ta  Ta13  1  0.153376  0.007116  0.874397  1
  Ta  Ta14  1  0.667153  0.670765  0.499888  1
  Ta  Ta15  1  0.829376  0.170932  0.749939  1
  Ta  Ta16  1  0.170766  0.829875  0.248387  1
  Ta  Ta17  1  0.328188  0.328594  0.000005  1
  Ta  Ta18  1  0.492831  0.653222  0.124258  1
  Ta  Ta19  1  0.653890  0.493241  0.875635  1
  Si  Si20  1  0.954718  0.294305  0.935917  1
  Si  Si21  1  0.706639  0.043788  0.563907  1
  Si  Si22  1  0.205168  0.455086  0.186206  1
  Si  Si23  1  0.794635  0.545499  0.686220  1
  Si  Si24  1  0.454893  0.205944  0.814529  1
  Si  Si25  1  0.544551  0.794621  0.313419  1
  Si  Si26  1  0.294226  0.954902  0.063604  1
  Si  Si27  1  0.795981  0.866330  0.181934  1
  Si  Si28  1  0.303781  0.631258  0.572070  1
  Si  Si29  1  0.702504  0.365757  0.067381  1
  Si  Si30  1  0.633313  0.296879  0.432293  1
  Si  Si31  1  0.365946  0.702453  0.932245  1
  Si  Si32  1  0.134648  0.203205  0.317596  1
  Si  Si33  1  0.203489  0.134239  0.682771  1
  Si  Si34  1  0.866448  0.797064  0.817564  1
  As  As35  1  0.039745  0.706077  0.434154  1
