# generated using pymatgen
data_La3Th(Zn5Ga)2
_symmetry_space_group_name_H-M   'P 1'
_cell_length_a   8.50051321
_cell_length_b   8.50051316
_cell_length_c   9.00724000
_cell_angle_alpha   90.00000000
_cell_angle_beta   90.00000000
_cell_angle_gamma   148.96143216
_symmetry_Int_Tables_number   1
_chemical_formula_structural   La3Th(Zn5Ga)2
_chemical_formula_sum   'La3 Th1 Zn10 Ga2'
_cell_volume   335.58885155
_cell_formula_units_Z   1
loop_
 _symmetry_equiv_pos_site_id
 _symmetry_equiv_pos_as_xyz
  1  'x, y, z'
loop_
 _atom_site_type_symbol
 _atom_site_label
 _atom_site_symmetry_multiplicity
 _atom_site_fract_x
 _atom_site_fract_y
 _atom_site_fract_z
 _atom_site_occupancy
  La  La0  1  0.795190  0.204810  0.750000  1
  La  La1  1  0.001301  0.998699  0.501240  1
  La  La2  1  0.001301  0.998699  0.998760  1
  Th  Th3  1  0.204525  0.795475  0.250000  1
  Zn  Zn4  1  0.813528  0.186472  0.390845  1
  Zn  Zn5  1  0.185066  0.814934  0.606964  1
  Zn  Zn6  1  0.813528  0.186472  0.109155  1
  Zn  Zn7  1  0.185066  0.814934  0.893036  1
  Zn  Zn8  1  0.653362  0.346638  0.478524  1
  Zn  Zn9  1  0.346934  0.653066  0.518711  1
  Zn  Zn10  1  0.653362  0.346638  0.021476  1
  Zn  Zn11  1  0.346934  0.653066  0.981289  1
  Zn  Zn12  1  0.403428  0.596572  0.250000  1
  Zn  Zn13  1  0.596295  0.403705  0.750000  1
  Ga  Ga14  1  0.559565  0.440435  0.250000  1
  Ga  Ga15  1  0.440617  0.559383  0.750000  1
