# generated using pymatgen
data_YbDy4Y2FeI12
_symmetry_space_group_name_H-M   'P 1'
_cell_length_a   9.78119381
_cell_length_b   9.75426812
_cell_length_c   9.74841626
_cell_angle_alpha   107.03513916
_cell_angle_beta   106.74043664
_cell_angle_gamma   106.86603724
_symmetry_Int_Tables_number   1
_chemical_formula_structural   YbDy4Y2FeI12
_chemical_formula_sum   'Yb1 Dy4 Y2 Fe1 I12'
_cell_volume   777.08645343
_cell_formula_units_Z   1
loop_
 _symmetry_equiv_pos_site_id
 _symmetry_equiv_pos_as_xyz
  1  'x, y, z'
loop_
 _atom_site_type_symbol
 _atom_site_label
 _atom_site_symmetry_multiplicity
 _atom_site_fract_x
 _atom_site_fract_y
 _atom_site_fract_z
 _atom_site_occupancy
  Yb  Yb0  1  0.500014  0.499924  0.500119  1
  Dy  Dy1  1  0.699997  0.975710  0.903101  1
  Dy  Dy2  1  0.975931  0.907447  0.714405  1
  Dy  Dy3  1  0.092400  0.285939  0.024112  1
  Dy  Dy4  1  0.300039  0.024326  0.096604  1
  Y  Y5  1  0.907149  0.712778  0.975750  1
  Y  Y6  1  0.024454  0.092984  0.286737  1
  Fe  Fe7  1  0.000072  0.000337  0.999606  1
  I  I8  1  0.072768  0.223467  0.683910  1
  I  I9  1  0.377450  0.149887  0.456521  1
  I  I10  1  0.623363  0.850153  0.543656  1
  I  I11  1  0.223533  0.681456  0.072447  1
  I  I12  1  0.777195  0.318900  0.927907  1
  I  I13  1  0.681342  0.073664  0.226008  1
  I  I14  1  0.544654  0.621618  0.850456  1
  I  I15  1  0.849414  0.544955  0.621396  1
  I  I16  1  0.927146  0.776474  0.316684  1
  I  I17  1  0.317670  0.925981  0.773315  1
  I  I18  1  0.454659  0.378472  0.149370  1
  I  I19  1  0.150748  0.455527  0.377897  1
