# generated using pymatgen
data_Sr6BiRh4O15
_symmetry_space_group_name_H-M   'P 1'
_cell_length_a   7.23519931
_cell_length_b   7.23519919
_cell_length_c   7.23520046
_cell_angle_alpha   83.84877769
_cell_angle_beta   83.84877473
_cell_angle_gamma   83.84877882
_symmetry_Int_Tables_number   1
_chemical_formula_structural   Sr6BiRh4O15
_chemical_formula_sum   'Sr6 Bi1 Rh4 O15'
_cell_volume   372.64275092
_cell_formula_units_Z   1
loop_
 _symmetry_equiv_pos_site_id
 _symmetry_equiv_pos_as_xyz
  1  'x, y, z'
loop_
 _atom_site_type_symbol
 _atom_site_label
 _atom_site_symmetry_multiplicity
 _atom_site_fract_x
 _atom_site_fract_y
 _atom_site_fract_z
 _atom_site_occupancy
  Sr  Sr0  1  0.329743  0.670257  0.000000  1
  Sr  Sr1  1  0.670257  0.000000  0.329743  1
  Sr  Sr2  1  0.000000  0.329743  0.670257  1
  Sr  Sr3  1  0.134701  0.865299  0.500000  1
  Sr  Sr4  1  0.865299  0.500000  0.134701  1
  Sr  Sr5  1  0.500000  0.134701  0.865299  1
  Bi  Bi6  1  0.500000  0.500000  0.500000  1
  Rh  Rh7  1  0.905930  0.905930  0.905930  1
  Rh  Rh8  1  0.094070  0.094070  0.094070  1
  Rh  Rh9  1  0.711192  0.711192  0.711192  1
  Rh  Rh10  1  0.288808  0.288808  0.288808  1
  O  O11  1  0.227987  0.550055  0.372798  1
  O  O12  1  0.372798  0.227987  0.550055  1
  O  O13  1  0.550055  0.372798  0.227987  1
  O  O14  1  0.772013  0.627202  0.449945  1
  O  O15  1  0.449945  0.772013  0.627202  1
  O  O16  1  0.627202  0.449945  0.772013  1
  O  O17  1  0.000000  0.835337  0.164663  1
  O  O18  1  0.164663  0.000000  0.835337  1
  O  O19  1  0.835337  0.164663  0.000000  1
  O  O20  1  0.350077  0.020349  0.200617  1
  O  O21  1  0.200617  0.350077  0.020349  1
  O  O22  1  0.799383  0.979651  0.649923  1
  O  O23  1  0.979651  0.649923  0.799383  1
  O  O24  1  0.649923  0.799383  0.979651  1
  O  O25  1  0.020349  0.200617  0.350077  1
