# generated using pymatgen
data_Li3VIn(PO4)3
_symmetry_space_group_name_H-M   'P 1'
_cell_length_a   9.23988972
_cell_length_b   8.49277584
_cell_length_c   8.48073684
_cell_angle_alpha   59.79075292
_cell_angle_beta   62.69591459
_cell_angle_gamma   89.98180501
_symmetry_Int_Tables_number   1
_chemical_formula_structural   Li3VIn(PO4)3
_chemical_formula_sum   'Li6 V2 In2 P6 O24'
_cell_volume   487.48246394
_cell_formula_units_Z   2
loop_
 _symmetry_equiv_pos_site_id
 _symmetry_equiv_pos_as_xyz
  1  'x, y, z'
loop_
 _atom_site_type_symbol
 _atom_site_label
 _atom_site_symmetry_multiplicity
 _atom_site_fract_x
 _atom_site_fract_y
 _atom_site_fract_z
 _atom_site_occupancy
  Li  Li0  1  0.136676  0.729598  0.196842  1
  Li  Li1  1  0.145552  0.338045  0.933700  1
  Li  Li2  1  0.367537  0.184805  0.368793  1
  Li  Li3  1  0.873494  0.676326  0.049350  1
  Li  Li4  1  0.865112  0.925409  0.409581  1
  Li  Li5  1  0.875617  0.269494  0.791945  1
  V  V6  1  0.034248  0.343121  0.314358  1
  V  V7  1  0.967152  0.653051  0.690828  1
  In  In8  1  0.566738  0.854154  0.291047  1
  In  In9  1  0.441175  0.141270  0.710098  1
  P  P10  1  0.246319  0.050562  0.211796  1
  P  P11  1  0.248177  0.457057  0.494597  1
  P  P12  1  0.243577  0.742232  0.802620  1
  P  P13  1  0.758780  0.255271  0.192526  1
  P  P14  1  0.759635  0.545537  0.498354  1
  P  P15  1  0.752596  0.952577  0.787814  1
  O  O16  1  0.108141  0.850635  0.357048  1
  O  O17  1  0.264891  0.147878  0.989161  1
  O  O18  1  0.184893  0.172613  0.303658  1
  O  O19  1  0.179533  0.491133  0.347389  1
  O  O20  1  0.103638  0.450367  0.696156  1
  O  O21  1  0.103284  0.781851  0.744118  1
  O  O22  1  0.414552  0.035605  0.203308  1
  O  O23  1  0.279339  0.258787  0.579202  1
  O  O24  1  0.410816  0.615404  0.369933  1
  O  O25  1  0.181663  0.525354  0.987551  1
  O  O26  1  0.251205  0.863071  0.889976  1
  O  O27  1  0.415772  0.794724  0.607845  1
  O  O28  1  0.580866  0.202059  0.384659  1
  O  O29  1  0.750350  0.138946  0.101132  1
  O  O30  1  0.818963  0.472166  0.017080  1
  O  O31  1  0.591403  0.396966  0.618429  1
  O  O32  1  0.744170  0.751660  0.397268  1
  O  O33  1  0.575626  0.958742  0.823444  1
  O  O34  1  0.895025  0.203922  0.257652  1
  O  O35  1  0.902342  0.545106  0.302172  1
  O  O36  1  0.826248  0.510867  0.648618  1
  O  O37  1  0.823897  0.838095  0.687940  1
  O  O38  1  0.746633  0.858715  0.003366  1
  O  O39  1  0.876439  0.162771  0.634342  1
