# generated using pymatgen
data_Ti3Al2PtC
_symmetry_space_group_name_H-M   'P 1'
_cell_length_a   8.22838214
_cell_length_b   8.22838240
_cell_length_c   8.22838200
_cell_angle_alpha   60.00000159
_cell_angle_beta   60.00000054
_cell_angle_gamma   59.99999677
_symmetry_Int_Tables_number   1
_chemical_formula_structural   Ti3Al2PtC
_chemical_formula_sum   'Ti12 Al8 Pt4 C4'
_cell_volume   393.93844201
_cell_formula_units_Z   4
loop_
 _symmetry_equiv_pos_site_id
 _symmetry_equiv_pos_as_xyz
  1  'x, y, z'
loop_
 _atom_site_type_symbol
 _atom_site_label
 _atom_site_symmetry_multiplicity
 _atom_site_fract_x
 _atom_site_fract_y
 _atom_site_fract_z
 _atom_site_occupancy
  Ti  Ti0  1  0.935300  0.935300  0.564700  1
  Ti  Ti1  1  0.685300  0.314700  0.314700  1
  Ti  Ti2  1  0.314700  0.685300  0.685300  1
  Ti  Ti3  1  0.685300  0.685300  0.314700  1
  Ti  Ti4  1  0.685300  0.314700  0.685300  1
  Ti  Ti5  1  0.314700  0.685300  0.314700  1
  Ti  Ti6  1  0.564700  0.935300  0.564700  1
  Ti  Ti7  1  0.564700  0.935300  0.935300  1
  Ti  Ti8  1  0.935300  0.564700  0.564700  1
  Ti  Ti9  1  0.935300  0.564700  0.935300  1
  Ti  Ti10  1  0.314700  0.314700  0.685300  1
  Ti  Ti11  1  0.564700  0.564700  0.935300  1
  Al  Al12  1  0.914200  0.257401  0.914200  1
  Al  Al13  1  0.335800  0.335800  0.992599  1
  Al  Al14  1  0.992599  0.335800  0.335800  1
  Al  Al15  1  0.335800  0.335800  0.335800  1
  Al  Al16  1  0.257401  0.914200  0.914200  1
  Al  Al17  1  0.914200  0.914200  0.914200  1
  Al  Al18  1  0.914200  0.914200  0.257401  1
  Al  Al19  1  0.335800  0.992599  0.335800  1
  Pt  Pt20  1  0.125000  0.625000  0.125000  1
  Pt  Pt21  1  0.125000  0.125000  0.625000  1
  Pt  Pt22  1  0.625000  0.125000  0.125000  1
  Pt  Pt23  1  0.125000  0.125000  0.125000  1
  C  C24  1  0.625000  0.125000  0.625000  1
  C  C25  1  0.625000  0.625000  0.125000  1
  C  C26  1  0.125000  0.625000  0.625000  1
  C  C27  1  0.625000  0.625000  0.625000  1
