# generated using pymatgen
data_Sc4B8Mo(Ru2W)3
_symmetry_space_group_name_H-M   'P 1'
_cell_length_a   3.06032000
_cell_length_b   8.69840469
_cell_length_c   10.02502503
_cell_angle_alpha   90.01246236
_cell_angle_beta   90.00000000
_cell_angle_gamma   90.00000000
_symmetry_Int_Tables_number   1
_chemical_formula_structural   Sc4B8Mo(Ru2W)3
_chemical_formula_sum   'Sc4 B8 Mo1 Ru6 W3'
_cell_volume   266.86517595
_cell_formula_units_Z   1
loop_
 _symmetry_equiv_pos_site_id
 _symmetry_equiv_pos_as_xyz
  1  'x, y, z'
loop_
 _atom_site_type_symbol
 _atom_site_label
 _atom_site_symmetry_multiplicity
 _atom_site_fract_x
 _atom_site_fract_y
 _atom_site_fract_z
 _atom_site_occupancy
  Sc  Sc0  1  0.500000  0.840415  0.180399  1
  Sc  Sc1  1  0.500000  0.159779  0.818846  1
  Sc  Sc2  1  0.500000  0.660022  0.681925  1
  Sc  Sc3  1  0.500000  0.340740  0.318913  1
  B  B4  1  0.500000  0.966469  0.586123  1
  B  B5  1  0.500000  0.032853  0.413271  1
  B  B6  1  0.500000  0.853931  0.898228  1
  B  B7  1  0.500000  0.146112  0.101561  1
  B  B8  1  0.500000  0.645963  0.398340  1
  B  B9  1  0.500000  0.353664  0.601818  1
  B  B10  1  0.500000  0.466559  0.913665  1
  B  B11  1  0.500000  0.533539  0.086706  1
  Mo  Mo12  1  0.000000  0.662561  0.952789  1
  Ru  Ru13  1  0.000000  0.000495  0.999677  1
  Ru  Ru14  1  0.000000  0.406088  0.760833  1
  Ru  Ru15  1  0.000000  0.593472  0.239533  1
  Ru  Ru16  1  0.000000  0.500229  0.500497  1
  Ru  Ru17  1  0.000000  0.906976  0.738967  1
  Ru  Ru18  1  0.000000  0.093727  0.260855  1
  W  W19  1  0.000000  0.336765  0.047837  1
  W  W20  1  0.000000  0.836461  0.451938  1
  W  W21  1  0.000000  0.163178  0.547279  1
