# generated using pymatgen
data_Th3Hg3Pd2Pt
_symmetry_space_group_name_H-M   'P 1'
_cell_length_a   7.90162900
_cell_length_b   7.90162886
_cell_length_c   3.89629300
_cell_angle_alpha   90.00000000
_cell_angle_beta   90.00000000
_cell_angle_gamma   120.00000475
_symmetry_Int_Tables_number   1
_chemical_formula_structural   Th3Hg3Pd2Pt
_chemical_formula_sum   'Th3 Hg3 Pd2 Pt1'
_cell_volume   210.67620229
_cell_formula_units_Z   1
loop_
 _symmetry_equiv_pos_site_id
 _symmetry_equiv_pos_as_xyz
  1  'x, y, z'
loop_
 _atom_site_type_symbol
 _atom_site_label
 _atom_site_symmetry_multiplicity
 _atom_site_fract_x
 _atom_site_fract_y
 _atom_site_fract_z
 _atom_site_occupancy
  Th  Th0  1  0.407744  0.401167  0.500000  1
  Th  Th1  1  0.598833  0.006577  0.500000  1
  Th  Th2  1  0.993423  0.592256  0.500000  1
  Hg  Hg3  1  0.735492  0.742992  0.000000  1
  Hg  Hg4  1  0.257008  0.992500  0.000000  1
  Hg  Hg5  1  0.007500  0.264508  0.000000  1
  Pd  Pd6  1  0.333333  0.666667  0.000000  1
  Pd  Pd7  1  0.000000  0.000000  0.500000  1
  Pt  Pt8  1  0.666667  0.333333  0.000000  1
