# generated using pymatgen
data_Th6MgCo17P12
_symmetry_space_group_name_H-M   'P 1'
_cell_length_a   3.83319300
_cell_length_b   10.64914800
_cell_length_c   12.50333700
_cell_angle_alpha   90.00000000
_cell_angle_beta   90.00000000
_cell_angle_gamma   90.00000000
_symmetry_Int_Tables_number   1
_chemical_formula_structural   Th6MgCo17P12
_chemical_formula_sum   'Th6 Mg1 Co17 P12'
_cell_volume   510.38921176
_cell_formula_units_Z   1
loop_
 _symmetry_equiv_pos_site_id
 _symmetry_equiv_pos_as_xyz
  1  'x, y, z'
loop_
 _atom_site_type_symbol
 _atom_site_label
 _atom_site_symmetry_multiplicity
 _atom_site_fract_x
 _atom_site_fract_y
 _atom_site_fract_z
 _atom_site_occupancy
  Th  Th0  1  0.000000  0.500000  0.524926  1
  Th  Th1  1  0.500000  0.000000  0.478884  1
  Th  Th2  1  0.500000  0.817036  0.208827  1
  Th  Th3  1  0.500000  0.182964  0.208827  1
  Th  Th4  1  0.000000  0.685056  0.794453  1
  Th  Th5  1  0.000000  0.314944  0.794453  1
  Mg  Mg6  1  0.500000  0.500000  0.147920  1
  Co  Co7  1  0.000000  0.000000  0.839727  1
  Co  Co8  1  0.500000  0.500000  0.703895  1
  Co  Co9  1  0.000000  0.000000  0.296483  1
  Co  Co10  1  0.000000  0.500000  0.984487  1
  Co  Co11  1  0.500000  0.000000  0.015641  1
  Co  Co12  1  0.500000  0.328174  0.992267  1
  Co  Co13  1  0.500000  0.671826  0.992267  1
  Co  Co14  1  0.000000  0.161549  0.001337  1
  Co  Co15  1  0.000000  0.838451  0.001337  1
  Co  Co16  1  0.500000  0.298657  0.431863  1
  Co  Co17  1  0.500000  0.701343  0.431863  1
  Co  Co18  1  0.000000  0.199377  0.571690  1
  Co  Co19  1  0.000000  0.800623  0.571690  1
  Co  Co20  1  0.500000  0.882185  0.712512  1
  Co  Co21  1  0.500000  0.117815  0.712512  1
  Co  Co22  1  0.000000  0.622132  0.292980  1
  Co  Co23  1  0.000000  0.377868  0.292980  1
  P  P24  1  0.500000  0.500000  0.885571  1
  P  P25  1  0.000000  0.000000  0.114315  1
  P  P26  1  0.500000  0.500000  0.347096  1
  P  P27  1  0.000000  0.000000  0.660812  1
  P  P28  1  0.500000  0.304848  0.614122  1
  P  P29  1  0.500000  0.695152  0.614122  1
  P  P30  1  0.000000  0.193882  0.389159  1
  P  P31  1  0.000000  0.806118  0.389159  1
  P  P32  1  0.500000  0.853385  0.894378  1
  P  P33  1  0.500000  0.146615  0.894378  1
  P  P34  1  0.000000  0.660402  0.096534  1
  P  P35  1  0.000000  0.339598  0.096534  1
