# generated using pymatgen
data_Er4MgIn(Ni7B2)2
_symmetry_space_group_name_H-M   'P 1'
_cell_length_a   4.98375600
_cell_length_b   4.98375524
_cell_length_c   14.22287900
_cell_angle_alpha   90.00000000
_cell_angle_beta   90.00000000
_cell_angle_gamma   119.99999178
_symmetry_Int_Tables_number   1
_chemical_formula_structural   Er4MgIn(Ni7B2)2
_chemical_formula_sum   'Er4 Mg1 In1 Ni14 B4'
_cell_volume   305.93675764
_cell_formula_units_Z   1
loop_
 _symmetry_equiv_pos_site_id
 _symmetry_equiv_pos_as_xyz
  1  'x, y, z'
loop_
 _atom_site_type_symbol
 _atom_site_label
 _atom_site_symmetry_multiplicity
 _atom_site_fract_x
 _atom_site_fract_y
 _atom_site_fract_z
 _atom_site_occupancy
  Er  Er0  1  0.666667  0.333333  0.529655  1
  Er  Er1  1  0.333333  0.666667  0.031205  1
  Er  Er2  1  0.666667  0.333333  0.753903  1
  Er  Er3  1  0.333333  0.666667  0.256128  1
  Mg  Mg4  1  0.333333  0.666667  0.468009  1
  In  In5  1  0.666667  0.333333  0.968769  1
  Ni  Ni6  1  0.834638  0.165362  0.353323  1
  Ni  Ni7  1  0.834638  0.669278  0.353323  1
  Ni  Ni8  1  0.000000  0.000000  0.999424  1
  Ni  Ni9  1  0.000000  0.000000  0.498431  1
  Ni  Ni10  1  0.833498  0.666997  0.148707  1
  Ni  Ni11  1  0.166135  0.833865  0.646129  1
  Ni  Ni12  1  0.667730  0.833865  0.646129  1
  Ni  Ni13  1  0.333003  0.166502  0.148707  1
  Ni  Ni14  1  0.833498  0.166502  0.148707  1
  Ni  Ni15  1  0.166194  0.332387  0.851602  1
  Ni  Ni16  1  0.166194  0.833806  0.851602  1
  Ni  Ni17  1  0.166135  0.332270  0.646129  1
  Ni  Ni18  1  0.667613  0.833806  0.851602  1
  Ni  Ni19  1  0.330722  0.165362  0.353323  1
  B  B20  1  0.666667  0.333333  0.251196  1
  B  B21  1  0.333333  0.666667  0.748543  1
  B  B22  1  0.000000  0.000000  0.747108  1
  B  B23  1  0.000000  0.000000  0.248350  1
