# generated using pymatgen
data_La8GaSi11Pt4
_symmetry_space_group_name_H-M   'P 1'
_cell_length_a   8.35649204
_cell_length_b   8.35649223
_cell_length_c   8.79731900
_cell_angle_alpha   90.00547829
_cell_angle_beta   89.99451485
_cell_angle_gamma   119.86122991
_symmetry_Int_Tables_number   1
_chemical_formula_structural   La8GaSi11Pt4
_chemical_formula_sum   'La8 Ga1 Si11 Pt4'
_cell_volume   532.76364418
_cell_formula_units_Z   1
loop_
 _symmetry_equiv_pos_site_id
 _symmetry_equiv_pos_as_xyz
  1  'x, y, z'
loop_
 _atom_site_type_symbol
 _atom_site_label
 _atom_site_symmetry_multiplicity
 _atom_site_fract_x
 _atom_site_fract_y
 _atom_site_fract_z
 _atom_site_occupancy
  La  La0  1  0.998049  0.001951  0.248726  1
  La  La1  1  0.997954  0.002046  0.751224  1
  La  La2  1  0.500309  0.499691  0.251147  1
  La  La3  1  0.502425  0.001246  0.250485  1
  La  La4  1  0.998754  0.497575  0.250485  1
  La  La5  1  0.499567  0.500433  0.748839  1
  La  La6  1  0.501954  0.000132  0.749532  1
  La  La7  1  0.999868  0.498046  0.749532  1
  Ga  Ga8  1  0.164638  0.835362  0.500693  1
  Si  Si9  1  0.165723  0.331401  0.500208  1
  Si  Si10  1  0.668599  0.834277  0.500208  1
  Si  Si11  1  0.834118  0.165882  0.499935  1
  Si  Si12  1  0.831030  0.667885  0.499782  1
  Si  Si13  1  0.332115  0.168970  0.499782  1
  Si  Si14  1  0.834632  0.165368  0.001255  1
  Si  Si15  1  0.834661  0.668811  0.000959  1
  Si  Si16  1  0.331189  0.165339  0.000959  1
  Si  Si17  1  0.165685  0.834315  0.998839  1
  Si  Si18  1  0.166342  0.331695  0.998787  1
  Si  Si19  1  0.668305  0.833658  0.998787  1
  Pt  Pt20  1  0.337571  0.662429  0.498957  1
  Pt  Pt21  1  0.666483  0.333517  0.500661  1
  Pt  Pt22  1  0.666649  0.333351  0.997983  1
  Pt  Pt23  1  0.333377  0.666623  0.002236  1
