# generated using pymatgen
data_Hf9Ir5Rh6
_symmetry_space_group_name_H-M   'P 1'
_cell_length_a   7.06262924
_cell_length_b   7.82502594
_cell_length_c   7.82923253
_cell_angle_alpha   78.24967276
_cell_angle_beta   63.15552170
_cell_angle_gamma   63.16767395
_symmetry_Int_Tables_number   1
_chemical_formula_structural   Hf9Ir5Rh6
_chemical_formula_sum   'Hf9 Ir5 Rh6'
_cell_volume   344.49031341
_cell_formula_units_Z   1
loop_
 _symmetry_equiv_pos_site_id
 _symmetry_equiv_pos_as_xyz
  1  'x, y, z'
loop_
 _atom_site_type_symbol
 _atom_site_label
 _atom_site_symmetry_multiplicity
 _atom_site_fract_x
 _atom_site_fract_y
 _atom_site_fract_z
 _atom_site_occupancy
  Hf  Hf0  1  0.998298  0.999553  0.000226  1
  Hf  Hf1  1  0.690718  0.405502  0.215188  1
  Hf  Hf2  1  0.312363  0.593648  0.784553  1
  Hf  Hf3  1  0.095916  0.215927  0.593856  1
  Hf  Hf4  1  0.905789  0.785014  0.406635  1
  Hf  Hf5  1  0.758837  0.650633  0.830365  1
  Hf  Hf6  1  0.240315  0.350032  0.169764  1
  Hf  Hf7  1  0.410497  0.828848  0.349204  1
  Hf  Hf8  1  0.588868  0.170140  0.650790  1
  Ir  Ir9  1  0.253139  0.500379  0.499862  1
  Ir  Ir10  1  0.753233  0.500450  0.499314  1
  Ir  Ir11  1  0.674532  0.314450  0.895511  1
  Ir  Ir12  1  0.884714  0.684994  0.104713  1
  Ir  Ir13  1  0.986737  0.896413  0.687193  1
  Rh  Rh14  1  0.500437  0.000268  0.000286  1
  Rh  Rh15  1  0.570722  0.104802  0.314336  1
  Rh  Rh16  1  0.321975  0.688815  0.103787  1
  Rh  Rh17  1  0.115079  0.310241  0.896106  1
  Rh  Rh18  1  0.013059  0.102804  0.310651  1
  Rh  Rh19  1  0.424772  0.897087  0.687659  1
