# generated using pymatgen
data_GdDyLuTaO7
_symmetry_space_group_name_H-M   'P 1'
_cell_length_a   6.45454206
_cell_length_b   6.45454223
_cell_length_c   7.48108325
_cell_angle_alpha   89.92903462
_cell_angle_beta   89.92903601
_cell_angle_gamma   108.76934007
_symmetry_Int_Tables_number   1
_chemical_formula_structural   GdDyLuTaO7
_chemical_formula_sum   'Gd2 Dy2 Lu2 Ta2 O14'
_cell_volume   295.09546304
_cell_formula_units_Z   2
loop_
 _symmetry_equiv_pos_site_id
 _symmetry_equiv_pos_as_xyz
  1  'x, y, z'
loop_
 _atom_site_type_symbol
 _atom_site_label
 _atom_site_symmetry_multiplicity
 _atom_site_fract_x
 _atom_site_fract_y
 _atom_site_fract_z
 _atom_site_occupancy
  Gd  Gd0  1  0.475320  0.473477  0.002073  1
  Gd  Gd1  1  0.526523  0.524680  0.497927  1
  Dy  Dy2  1  0.999815  0.466260  0.744310  1
  Dy  Dy3  1  0.533740  0.000185  0.755690  1
  Lu  Lu4  1  0.001698  0.533816  0.244256  1
  Lu  Lu5  1  0.466184  0.998302  0.255744  1
  Ta  Ta6  1  0.002095  0.003154  0.497749  1
  Ta  Ta7  1  0.996846  0.997905  0.002251  1
  O  O8  1  0.932591  0.067409  0.750000  1
  O  O9  1  0.639313  0.360687  0.750000  1
  O  O10  1  0.314652  0.057405  0.536734  1
  O  O11  1  0.942595  0.685348  0.963266  1
  O  O12  1  0.636015  0.363985  0.250000  1
  O  O13  1  0.920827  0.672275  0.523638  1
  O  O14  1  0.327725  0.079173  0.976362  1
  O  O15  1  0.075933  0.326274  0.032382  1
  O  O16  1  0.673726  0.924067  0.467618  1
  O  O17  1  0.368856  0.631144  0.750000  1
  O  O18  1  0.686333  0.944538  0.045368  1
  O  O19  1  0.055462  0.313667  0.454632  1
  O  O20  1  0.354030  0.645970  0.250000  1
  O  O21  1  0.069720  0.930280  0.250000  1
