# generated using pymatgen
data_Lu2(AlAu3)3
_symmetry_space_group_name_H-M   'P 1'
_cell_length_a   7.90866046
_cell_length_b   7.90866183
_cell_length_c   10.70612692
_cell_angle_alpha   68.40504932
_cell_angle_beta   68.40504543
_cell_angle_gamma   59.80515338
_symmetry_Int_Tables_number   1
_chemical_formula_structural   Lu2(AlAu3)3
_chemical_formula_sum   'Lu4 Al6 Au18'
_cell_volume   524.02578963
_cell_formula_units_Z   2
loop_
 _symmetry_equiv_pos_site_id
 _symmetry_equiv_pos_as_xyz
  1  'x, y, z'
loop_
 _atom_site_type_symbol
 _atom_site_label
 _atom_site_symmetry_multiplicity
 _atom_site_fract_x
 _atom_site_fract_y
 _atom_site_fract_z
 _atom_site_occupancy
  Lu  Lu0  1  0.414316  0.248499  0.748620  1
  Lu  Lu1  1  0.585684  0.751501  0.251380  1
  Lu  Lu2  1  0.751501  0.585684  0.751380  1
  Lu  Lu3  1  0.248499  0.414316  0.248620  1
  Al  Al4  1  0.650612  0.176111  0.998684  1
  Al  Al5  1  0.823889  0.349388  0.501316  1
  Al  Al6  1  0.349388  0.823889  0.001316  1
  Al  Al7  1  0.000000  0.500000  0.000000  1
  Al  Al8  1  0.176111  0.650612  0.498684  1
  Al  Al9  1  0.500000  0.000000  0.500000  1
  Au  Au10  1  0.479874  0.639762  0.572475  1
  Au  Au11  1  0.360238  0.520126  0.927525  1
  Au  Au12  1  0.857002  0.688397  0.432277  1
  Au  Au13  1  0.850569  0.149431  0.750000  1
  Au  Au14  1  0.520126  0.360238  0.427525  1
  Au  Au15  1  0.688397  0.857002  0.932277  1
  Au  Au16  1  0.918225  0.307140  0.254361  1
  Au  Au17  1  0.977766  0.797254  0.076471  1
  Au  Au18  1  0.307140  0.918225  0.754361  1
  Au  Au19  1  0.142998  0.311603  0.567723  1
  Au  Au20  1  0.797254  0.977766  0.576471  1
  Au  Au21  1  0.311603  0.142998  0.067723  1
  Au  Au22  1  0.149431  0.850569  0.250000  1
  Au  Au23  1  0.022234  0.202746  0.923529  1
  Au  Au24  1  0.081775  0.692860  0.745639  1
  Au  Au25  1  0.639762  0.479874  0.072475  1
  Au  Au26  1  0.202746  0.022234  0.423529  1
  Au  Au27  1  0.692860  0.081775  0.245639  1
