# generated using pymatgen
data_YU2Nb(Co4P3)2
_symmetry_space_group_name_H-M   'P 1'
_cell_length_a   3.71967700
_cell_length_b   10.66320200
_cell_length_c   12.25288000
_cell_angle_alpha   90.00000000
_cell_angle_beta   90.00000000
_cell_angle_gamma   90.00000000
_symmetry_Int_Tables_number   1
_chemical_formula_structural   YU2Nb(Co4P3)2
_chemical_formula_sum   'Y2 U4 Nb2 Co16 P12'
_cell_volume   485.99415488
_cell_formula_units_Z   2
loop_
 _symmetry_equiv_pos_site_id
 _symmetry_equiv_pos_as_xyz
  1  'x, y, z'
loop_
 _atom_site_type_symbol
 _atom_site_label
 _atom_site_symmetry_multiplicity
 _atom_site_fract_x
 _atom_site_fract_y
 _atom_site_fract_z
 _atom_site_occupancy
  Y  Y0  1  0.500000  0.819632  0.205031  1
  Y  Y1  1  0.500000  0.180368  0.205031  1
  U  U2  1  0.000000  0.500000  0.530136  1
  U  U3  1  0.500000  0.000000  0.466942  1
  U  U4  1  0.000000  0.677809  0.792750  1
  U  U5  1  0.000000  0.322191  0.792750  1
  Nb  Nb6  1  0.500000  0.500000  0.156856  1
  Nb  Nb7  1  0.000000  0.000000  0.840842  1
  Co  Co8  1  0.500000  0.500000  0.699421  1
  Co  Co9  1  0.000000  0.000000  0.307823  1
  Co  Co10  1  0.000000  0.500000  0.986512  1
  Co  Co11  1  0.500000  0.000000  0.013353  1
  Co  Co12  1  0.500000  0.334115  0.992039  1
  Co  Co13  1  0.500000  0.665885  0.992039  1
  Co  Co14  1  0.000000  0.167537  0.008796  1
  Co  Co15  1  0.000000  0.832463  0.008796  1
  Co  Co16  1  0.500000  0.297926  0.433289  1
  Co  Co17  1  0.500000  0.702074  0.433289  1
  Co  Co18  1  0.000000  0.203049  0.566909  1
  Co  Co19  1  0.000000  0.796951  0.566909  1
  Co  Co20  1  0.500000  0.877711  0.704781  1
  Co  Co21  1  0.500000  0.122289  0.704781  1
  Co  Co22  1  0.000000  0.620586  0.295104  1
  Co  Co23  1  0.000000  0.379414  0.295104  1
  P  P24  1  0.500000  0.500000  0.883466  1
  P  P25  1  0.000000  0.000000  0.120353  1
  P  P26  1  0.500000  0.500000  0.357205  1
  P  P27  1  0.000000  0.000000  0.641077  1
  P  P28  1  0.500000  0.308677  0.613656  1
  P  P29  1  0.500000  0.691323  0.613656  1
  P  P30  1  0.000000  0.192945  0.384711  1
  P  P31  1  0.000000  0.807055  0.384711  1
  P  P32  1  0.500000  0.840718  0.894038  1
  P  P33  1  0.500000  0.159282  0.894038  1
  P  P34  1  0.000000  0.658970  0.106903  1
  P  P35  1  0.000000  0.341030  0.106903  1
