# generated using pymatgen
data_Hf18MnMo8S
_symmetry_space_group_name_H-M   'P 1'
_cell_length_a   8.65047400
_cell_length_b   8.65047329
_cell_length_c   8.55729300
_cell_angle_alpha   90.00000000
_cell_angle_beta   90.00000000
_cell_angle_gamma   119.99999505
_symmetry_Int_Tables_number   1
_chemical_formula_structural   Hf18MnMo8S
_chemical_formula_sum   'Hf18 Mn1 Mo8 S1'
_cell_volume   554.55781585
_cell_formula_units_Z   1
loop_
 _symmetry_equiv_pos_site_id
 _symmetry_equiv_pos_as_xyz
  1  'x, y, z'
loop_
 _atom_site_type_symbol
 _atom_site_label
 _atom_site_symmetry_multiplicity
 _atom_site_fract_x
 _atom_site_fract_y
 _atom_site_fract_z
 _atom_site_occupancy
  Hf  Hf0  1  0.202836  0.797164  0.443163  1
  Hf  Hf1  1  0.202836  0.405673  0.443163  1
  Hf  Hf2  1  0.594327  0.797164  0.443163  1
  Hf  Hf3  1  0.803136  0.196864  0.550019  1
  Hf  Hf4  1  0.803136  0.606271  0.550019  1
  Hf  Hf5  1  0.393729  0.196864  0.550019  1
  Hf  Hf6  1  0.803136  0.196864  0.949981  1
  Hf  Hf7  1  0.803136  0.606271  0.949981  1
  Hf  Hf8  1  0.393729  0.196864  0.949981  1
  Hf  Hf9  1  0.202836  0.797164  0.056837  1
  Hf  Hf10  1  0.202836  0.405673  0.056837  1
  Hf  Hf11  1  0.594327  0.797164  0.056837  1
  Hf  Hf12  1  0.539968  0.460032  0.250000  1
  Hf  Hf13  1  0.539968  0.079936  0.250000  1
  Hf  Hf14  1  0.920064  0.460032  0.250000  1
  Hf  Hf15  1  0.456097  0.543903  0.750000  1
  Hf  Hf16  1  0.456097  0.912195  0.750000  1
  Hf  Hf17  1  0.087805  0.543903  0.750000  1
  Mn  Mn18  1  0.333333  0.666667  0.250000  1
  Mo  Mo19  1  0.887957  0.112043  0.250000  1
  Mo  Mo20  1  0.887957  0.775913  0.250000  1
  Mo  Mo21  1  0.224087  0.112043  0.250000  1
  Mo  Mo22  1  0.111064  0.888936  0.750000  1
  Mo  Mo23  1  0.111064  0.222128  0.750000  1
  Mo  Mo24  1  0.777872  0.888936  0.750000  1
  Mo  Mo25  1  0.000000  0.000000  0.498669  1
  Mo  Mo26  1  0.000000  0.000000  0.001331  1
  S  S27  1  0.666667  0.333333  0.750000  1
