# generated using pymatgen
data_Sm8Si13Pd3
_symmetry_space_group_name_H-M   'P 1'
_cell_length_a   8.20724500
_cell_length_b   8.20724604
_cell_length_c   8.29499500
_cell_angle_alpha   90.00000000
_cell_angle_beta   90.00000000
_cell_angle_gamma   120.00000790
_symmetry_Int_Tables_number   1
_chemical_formula_structural   Sm8Si13Pd3
_chemical_formula_sum   'Sm8 Si13 Pd3'
_cell_volume   483.88435068
_cell_formula_units_Z   1
loop_
 _symmetry_equiv_pos_site_id
 _symmetry_equiv_pos_as_xyz
  1  'x, y, z'
loop_
 _atom_site_type_symbol
 _atom_site_label
 _atom_site_symmetry_multiplicity
 _atom_site_fract_x
 _atom_site_fract_y
 _atom_site_fract_z
 _atom_site_occupancy
  Sm  Sm0  1  0.502027  0.497973  0.752570  1
  Sm  Sm1  1  0.502953  0.497047  0.247140  1
  Sm  Sm2  1  0.995946  0.497973  0.752570  1
  Sm  Sm3  1  0.994095  0.497047  0.247140  1
  Sm  Sm4  1  0.502027  0.004054  0.752570  1
  Sm  Sm5  1  0.502953  0.005905  0.247140  1
  Sm  Sm6  1  0.000000  0.000000  0.751526  1
  Sm  Sm7  1  0.000000  0.000000  0.248797  1
  Si  Si8  1  0.666667  0.333333  0.997461  1
  Si  Si9  1  0.835295  0.164705  0.001031  1
  Si  Si10  1  0.167216  0.832784  0.999077  1
  Si  Si11  1  0.329410  0.164705  0.001031  1
  Si  Si12  1  0.166446  0.833554  0.499704  1
  Si  Si13  1  0.665568  0.832784  0.999077  1
  Si  Si14  1  0.834417  0.165583  0.500427  1
  Si  Si15  1  0.835295  0.670590  0.001031  1
  Si  Si16  1  0.667109  0.833554  0.499704  1
  Si  Si17  1  0.167216  0.334432  0.999077  1
  Si  Si18  1  0.331167  0.165583  0.500427  1
  Si  Si19  1  0.166446  0.332891  0.499704  1
  Si  Si20  1  0.834417  0.668833  0.500427  1
  Pd  Pd21  1  0.333333  0.666667  0.002257  1
  Pd  Pd22  1  0.333333  0.666667  0.499049  1
  Pd  Pd23  1  0.666667  0.333333  0.501066  1
