# generated using pymatgen
data_Pr2Er4ZnSi5Rh12
_symmetry_space_group_name_H-M   'P 1'
_cell_length_a   5.60163700
_cell_length_b   5.60163593
_cell_length_c   15.13515200
_cell_angle_alpha   90.00000000
_cell_angle_beta   90.00000000
_cell_angle_gamma   120.00000040
_symmetry_Int_Tables_number   1
_chemical_formula_structural   Pr2Er4ZnSi5Rh12
_chemical_formula_sum   'Pr2 Er4 Zn1 Si5 Rh12'
_cell_volume   411.28915501
_cell_formula_units_Z   1
loop_
 _symmetry_equiv_pos_site_id
 _symmetry_equiv_pos_as_xyz
  1  'x, y, z'
loop_
 _atom_site_type_symbol
 _atom_site_label
 _atom_site_symmetry_multiplicity
 _atom_site_fract_x
 _atom_site_fract_y
 _atom_site_fract_z
 _atom_site_occupancy
  Pr  Pr0  1  0.333333  0.666667  0.750278  1
  Pr  Pr1  1  0.666667  0.333333  0.249722  1
  Er  Er2  1  0.333333  0.666667  0.535763  1
  Er  Er3  1  0.666667  0.333333  0.464237  1
  Er  Er4  1  0.666667  0.333333  0.034531  1
  Er  Er5  1  0.333333  0.666667  0.965469  1
  Zn  Zn6  1  0.000000  0.000000  0.000000  1
  Si  Si7  1  0.000000  0.000000  0.251665  1
  Si  Si8  1  0.000000  0.000000  0.748335  1
  Si  Si9  1  0.333333  0.666667  0.252057  1
  Si  Si10  1  0.666667  0.333333  0.747943  1
  Si  Si11  1  0.000000  0.000000  0.500000  1
  Rh  Rh12  1  0.167824  0.335648  0.133943  1
  Rh  Rh13  1  0.832176  0.664352  0.866057  1
  Rh  Rh14  1  0.664352  0.832176  0.133943  1
  Rh  Rh15  1  0.833102  0.666204  0.628176  1
  Rh  Rh16  1  0.335648  0.167824  0.866057  1
  Rh  Rh17  1  0.166898  0.333796  0.371824  1
  Rh  Rh18  1  0.167824  0.832176  0.133943  1
  Rh  Rh19  1  0.333796  0.166898  0.628176  1
  Rh  Rh20  1  0.832176  0.167824  0.866057  1
  Rh  Rh21  1  0.666204  0.833102  0.371824  1
  Rh  Rh22  1  0.833102  0.166898  0.628176  1
  Rh  Rh23  1  0.166898  0.833102  0.371824  1
