# generated using pymatgen
data_Tm4MnB12Ru
_symmetry_space_group_name_H-M   'P 1'
_cell_length_a   3.57189200
_cell_length_b   9.04813505
_cell_length_c   11.41996706
_cell_angle_alpha   89.98836093
_cell_angle_beta   90.00000000
_cell_angle_gamma   90.00000000
_symmetry_Int_Tables_number   1
_chemical_formula_structural   Tm4MnB12Ru
_chemical_formula_sum   'Tm8 Mn2 B24 Ru2'
_cell_volume   369.08146453
_cell_formula_units_Z   2
loop_
 _symmetry_equiv_pos_site_id
 _symmetry_equiv_pos_as_xyz
  1  'x, y, z'
loop_
 _atom_site_type_symbol
 _atom_site_label
 _atom_site_symmetry_multiplicity
 _atom_site_fract_x
 _atom_site_fract_y
 _atom_site_fract_z
 _atom_site_occupancy
  Tm  Tm0  1  0.000000  0.326716  0.416580  1
  Tm  Tm1  1  0.000000  0.673284  0.583420  1
  Tm  Tm2  1  0.000000  0.820233  0.087620  1
  Tm  Tm3  1  0.000000  0.179767  0.912380  1
  Tm  Tm4  1  0.000000  0.939937  0.370811  1
  Tm  Tm5  1  0.000000  0.060063  0.629189  1
  Tm  Tm6  1  0.000000  0.445201  0.131569  1
  Tm  Tm7  1  0.000000  0.554799  0.868431  1
  Mn  Mn8  1  0.000000  0.638289  0.319990  1
  Mn  Mn9  1  0.000000  0.361711  0.680010  1
  B  B10  1  0.500000  0.553915  0.432560  1
  B  B11  1  0.500000  0.446085  0.567440  1
  B  B12  1  0.500000  0.053538  0.066611  1
  B  B13  1  0.500000  0.946462  0.933389  1
  B  B14  1  0.500000  0.746537  0.418167  1
  B  B15  1  0.500000  0.253463  0.581833  1
  B  B16  1  0.500000  0.249532  0.080825  1
  B  B17  1  0.500000  0.750468  0.919175  1
  B  B18  1  0.500000  0.789843  0.265778  1
  B  B19  1  0.500000  0.210157  0.734222  1
  B  B20  1  0.500000  0.292220  0.235840  1
  B  B21  1  0.500000  0.707780  0.764160  1
  B  B22  1  0.500000  0.631052  0.186353  1
  B  B23  1  0.500000  0.368948  0.813647  1
  B  B24  1  0.500000  0.131064  0.315529  1
  B  B25  1  0.500000  0.868936  0.684471  1
  B  B26  1  0.500000  0.981432  0.212490  1
  B  B27  1  0.500000  0.018568  0.787510  1
  B  B28  1  0.500000  0.484613  0.289026  1
  B  B29  1  0.500000  0.515387  0.710974  1
  B  B30  1  0.500000  0.602869  0.028468  1
  B  B31  1  0.500000  0.397131  0.971532  1
  B  B32  1  0.500000  0.103830  0.471467  1
  B  B33  1  0.500000  0.896170  0.528533  1
  Ru  Ru34  1  0.000000  0.138015  0.179078  1
  Ru  Ru35  1  0.000000  0.861985  0.820922  1
