# generated using pymatgen
data_Sm2CrO6
_symmetry_space_group_name_H-M   'P 1'
_cell_length_a   7.29689052
_cell_length_b   7.29689042
_cell_length_c   8.28610937
_cell_angle_alpha   73.06034183
_cell_angle_beta   73.06034378
_cell_angle_gamma   34.90811343
_symmetry_Int_Tables_number   1
_chemical_formula_structural   Sm2CrO6
_chemical_formula_sum   'Sm4 Cr2 O12'
_cell_volume   240.41219022
_cell_formula_units_Z   2
loop_
 _symmetry_equiv_pos_site_id
 _symmetry_equiv_pos_as_xyz
  1  'x, y, z'
loop_
 _atom_site_type_symbol
 _atom_site_label
 _atom_site_symmetry_multiplicity
 _atom_site_fract_x
 _atom_site_fract_y
 _atom_site_fract_z
 _atom_site_occupancy
  Sm  Sm0  1  0.681705  0.663143  0.914386  1
  Sm  Sm1  1  0.336857  0.318295  0.585614  1
  Sm  Sm2  1  0.663143  0.681705  0.414386  1
  Sm  Sm3  1  0.318295  0.336857  0.085614  1
  Cr  Cr4  1  0.959079  0.040921  0.750000  1
  Cr  Cr5  1  0.040921  0.959079  0.250000  1
  O  O6  1  0.734494  0.781604  0.121072  1
  O  O7  1  0.269268  0.732743  0.087645  1
  O  O8  1  0.277562  0.927183  0.698918  1
  O  O9  1  0.722438  0.072817  0.301082  1
  O  O10  1  0.218396  0.265506  0.378928  1
  O  O11  1  0.267257  0.730732  0.412355  1
  O  O12  1  0.781604  0.734494  0.621072  1
  O  O13  1  0.730732  0.267257  0.912355  1
  O  O14  1  0.265506  0.218396  0.878928  1
  O  O15  1  0.732743  0.269268  0.587645  1
  O  O16  1  0.927183  0.277562  0.198918  1
  O  O17  1  0.072817  0.722438  0.801082  1
