# generated using pymatgen
data_Y5Ho11CdIn3Ir4
_symmetry_space_group_name_H-M   'P 1'
_cell_length_a   9.62857537
_cell_length_b   9.64897743
_cell_length_c   9.64901965
_cell_angle_alpha   59.91602785
_cell_angle_beta   59.88928522
_cell_angle_gamma   59.88905717
_symmetry_Int_Tables_number   1
_chemical_formula_structural   Y5Ho11CdIn3Ir4
_chemical_formula_sum   'Y5 Ho11 Cd1 In3 Ir4'
_cell_volume   632.42134449
_cell_formula_units_Z   1
loop_
 _symmetry_equiv_pos_site_id
 _symmetry_equiv_pos_as_xyz
  1  'x, y, z'
loop_
 _atom_site_type_symbol
 _atom_site_label
 _atom_site_symmetry_multiplicity
 _atom_site_fract_x
 _atom_site_fract_y
 _atom_site_fract_z
 _atom_site_occupancy
  Y  Y0  1  0.559761  0.940487  0.940488  1
  Y  Y1  1  0.562702  0.938779  0.559838  1
  Y  Y2  1  0.941968  0.559732  0.938523  1
  Y  Y3  1  0.562688  0.559835  0.938792  1
  Y  Y4  1  0.941969  0.938523  0.559735  1
  Ho  Ho5  1  0.349038  0.347499  0.347502  1
  Ho  Ho6  1  0.349783  0.350528  0.952449  1
  Ho  Ho7  1  0.349779  0.952458  0.350526  1
  Ho  Ho8  1  0.952459  0.350090  0.350094  1
  Ho  Ho9  1  0.807860  0.191023  0.191032  1
  Ho  Ho10  1  0.188001  0.810448  0.810442  1
  Ho  Ho11  1  0.189955  0.808919  0.190703  1
  Ho  Ho12  1  0.808001  0.190546  0.808114  1
  Ho  Ho13  1  0.189960  0.190701  0.808913  1
  Ho  Ho14  1  0.808004  0.808121  0.190542  1
  Ho  Ho15  1  0.941467  0.561147  0.561143  1
  Cd  Cd16  1  0.253730  0.581630  0.581628  1
  In  In17  1  0.581612  0.583403  0.583407  1
  In  In18  1  0.581022  0.582968  0.252083  1
  In  In19  1  0.581005  0.252086  0.582978  1
  Ir  Ir20  1  0.141420  0.141230  0.141219  1
  Ir  Ir21  1  0.140891  0.141794  0.576664  1
  Ir  Ir22  1  0.140899  0.576654  0.141792  1
  Ir  Ir23  1  0.576028  0.141404  0.141397  1
