# generated using pymatgen
data_Ho3Pa(Cu5Sn)4
_symmetry_space_group_name_H-M   'P 1'
_cell_length_a   5.01145600
_cell_length_b   8.21156907
_cell_length_c   10.54761176
_cell_angle_alpha   90.08212008
_cell_angle_beta   90.00000000
_cell_angle_gamma   90.00000000
_symmetry_Int_Tables_number   1
_chemical_formula_structural   Ho3Pa(Cu5Sn)4
_chemical_formula_sum   'Ho3 Pa1 Cu20 Sn4'
_cell_volume   434.05399870
_cell_formula_units_Z   1
loop_
 _symmetry_equiv_pos_site_id
 _symmetry_equiv_pos_as_xyz
  1  'x, y, z'
loop_
 _atom_site_type_symbol
 _atom_site_label
 _atom_site_symmetry_multiplicity
 _atom_site_fract_x
 _atom_site_fract_y
 _atom_site_fract_z
 _atom_site_occupancy
  Ho  Ho0  1  0.750000  0.250214  0.938145  1
  Ho  Ho1  1  0.750000  0.751155  0.560271  1
  Ho  Ho2  1  0.250000  0.248398  0.441483  1
  Pa  Pa3  1  0.250000  0.747876  0.058983  1
  Cu  Cu4  1  0.250000  0.819875  0.745359  1
  Cu  Cu5  1  0.750000  0.181054  0.257997  1
  Cu  Cu6  1  0.750000  0.682642  0.240772  1
  Cu  Cu7  1  0.250000  0.318837  0.755730  1
  Cu  Cu8  1  0.501589  0.571703  0.813321  1
  Cu  Cu9  1  0.497455  0.427997  0.187100  1
  Cu  Cu10  1  0.498741  0.928746  0.312772  1
  Cu  Cu11  1  0.002545  0.427997  0.187100  1
  Cu  Cu12  1  0.501432  0.072072  0.687624  1
  Cu  Cu13  1  0.998411  0.571703  0.813321  1
  Cu  Cu14  1  0.998568  0.072072  0.687624  1
  Cu  Cu15  1  0.001259  0.928746  0.312772  1
  Cu  Cu16  1  0.250000  0.915899  0.518104  1
  Cu  Cu17  1  0.750000  0.081890  0.483001  1
  Cu  Cu18  1  0.750000  0.579520  0.017215  1
  Cu  Cu19  1  0.250000  0.415968  0.982013  1
  Cu  Cu20  1  0.250000  0.563826  0.602398  1
  Cu  Cu21  1  0.750000  0.437795  0.397530  1
  Cu  Cu22  1  0.750000  0.937845  0.102061  1
  Cu  Cu23  1  0.250000  0.062942  0.897889  1
  Sn  Sn24  1  0.250000  0.635768  0.360041  1
  Sn  Sn25  1  0.750000  0.365683  0.639293  1
  Sn  Sn26  1  0.750000  0.866114  0.859663  1
  Sn  Sn27  1  0.250000  0.135664  0.140418  1
