# generated using pymatgen
data_DyY3ThRu2
_symmetry_space_group_name_H-M   'P 1'
_cell_length_a   8.70613825
_cell_length_b   8.70613802
_cell_length_c   7.24836116
_cell_angle_alpha   83.49387307
_cell_angle_beta   83.49387153
_cell_angle_gamma   43.44026612
_symmetry_Int_Tables_number   1
_chemical_formula_structural   DyY3ThRu2
_chemical_formula_sum   'Dy2 Y6 Th2 Ru4'
_cell_volume   374.94785007
_cell_formula_units_Z   2
loop_
 _symmetry_equiv_pos_site_id
 _symmetry_equiv_pos_as_xyz
  1  'x, y, z'
loop_
 _atom_site_type_symbol
 _atom_site_label
 _atom_site_symmetry_multiplicity
 _atom_site_fract_x
 _atom_site_fract_y
 _atom_site_fract_z
 _atom_site_occupancy
  Dy  Dy0  1  0.575195  0.424805  0.750000  1
  Dy  Dy1  1  0.421554  0.578446  0.250000  1
  Y  Y2  1  0.211894  0.356371  0.311830  1
  Y  Y3  1  0.643629  0.788106  0.188170  1
  Y  Y4  1  0.790248  0.642515  0.684588  1
  Y  Y5  1  0.357485  0.209752  0.815412  1
  Y  Y6  1  0.977287  0.208433  0.084879  1
  Y  Y7  1  0.791567  0.022713  0.415121  1
  Th  Th8  1  0.201011  0.991259  0.592907  1
  Th  Th9  1  0.008741  0.798989  0.907093  1
  Ru  Ru10  1  0.170931  0.613288  0.587008  1
  Ru  Ru11  1  0.386712  0.829069  0.912992  1
  Ru  Ru12  1  0.842151  0.378404  0.431367  1
  Ru  Ru13  1  0.621596  0.157849  0.068633  1
