# generated using pymatgen
data_Er3Cd2SnPdPt2
_symmetry_space_group_name_H-M   'P 1'
_cell_length_a   7.77862887
_cell_length_b   7.71560617
_cell_length_c   3.72669200
_cell_angle_alpha   90.00000000
_cell_angle_beta   90.00000000
_cell_angle_gamma   119.73234743
_symmetry_Int_Tables_number   1
_chemical_formula_structural   Er3Cd2SnPdPt2
_chemical_formula_sum   'Er3 Cd2 Sn1 Pd1 Pt2'
_cell_volume   194.21923570
_cell_formula_units_Z   1
loop_
 _symmetry_equiv_pos_site_id
 _symmetry_equiv_pos_as_xyz
  1  'x, y, z'
loop_
 _atom_site_type_symbol
 _atom_site_label
 _atom_site_symmetry_multiplicity
 _atom_site_fract_x
 _atom_site_fract_y
 _atom_site_fract_z
 _atom_site_occupancy
  Er  Er0  1  0.409674  0.406325  0.500000  1
  Er  Er1  1  0.590326  0.996651  0.500000  1
  Er  Er2  1  0.000000  0.597036  0.500000  1
  Cd  Cd3  1  0.736637  0.737146  0.000000  1
  Cd  Cd4  1  0.263363  0.000509  0.000000  1
  Sn  Sn5  1  0.000000  0.259351  0.000000  1
  Pd  Pd6  1  0.000000  0.007858  0.500000  1
  Pt  Pt7  1  0.669892  0.332507  0.000000  1
  Pt  Pt8  1  0.330108  0.662616  0.000000  1
