# generated using pymatgen
data_AcTbPdS3
_symmetry_space_group_name_H-M   'P 1'
_cell_length_a   6.91835312
_cell_length_b   6.91835348
_cell_length_c   9.98708800
_cell_angle_alpha   90.00000000
_cell_angle_beta   90.00000000
_cell_angle_gamma   146.06906545
_symmetry_Int_Tables_number   1
_chemical_formula_structural   AcTbPdS3
_chemical_formula_sum   'Ac2 Tb2 Pd2 S6'
_cell_volume   266.82643847
_cell_formula_units_Z   2
loop_
 _symmetry_equiv_pos_site_id
 _symmetry_equiv_pos_as_xyz
  1  'x, y, z'
loop_
 _atom_site_type_symbol
 _atom_site_label
 _atom_site_symmetry_multiplicity
 _atom_site_fract_x
 _atom_site_fract_y
 _atom_site_fract_z
 _atom_site_occupancy
  Ac  Ac0  1  0.750630  0.249368  0.250000  1
  Ac  Ac1  1  0.249368  0.750630  0.750000  1
  Tb  Tb2  1  0.499999  0.499999  0.000000  1
  Tb  Tb3  1  0.499999  0.499999  0.500000  1
  Pd  Pd4  1  0.026534  0.973464  0.250000  1
  Pd  Pd5  1  0.973464  0.026534  0.750000  1
  S  S6  1  0.144868  0.855130  0.057640  1
  S  S7  1  0.412974  0.587024  0.250000  1
  S  S8  1  0.144868  0.855130  0.442361  1
  S  S9  1  0.855130  0.144868  0.557640  1
  S  S10  1  0.587024  0.412974  0.750000  1
  S  S11  1  0.855130  0.144868  0.942360  1
