# generated using pymatgen
data_Cs5NaP4W
_symmetry_space_group_name_H-M   'P 1'
_cell_length_a   10.88958504
_cell_length_b   10.88958483
_cell_length_c   8.07281500
_cell_angle_alpha   87.85939943
_cell_angle_beta   87.85939420
_cell_angle_gamma   121.72480074
_symmetry_Int_Tables_number   1
_chemical_formula_structural   Cs5NaP4W
_chemical_formula_sum   'Cs10 Na2 P8 W2'
_cell_volume   811.86348522
_cell_formula_units_Z   2
loop_
 _symmetry_equiv_pos_site_id
 _symmetry_equiv_pos_as_xyz
  1  'x, y, z'
loop_
 _atom_site_type_symbol
 _atom_site_label
 _atom_site_symmetry_multiplicity
 _atom_site_fract_x
 _atom_site_fract_y
 _atom_site_fract_z
 _atom_site_occupancy
  Cs  Cs0  1  0.463741  0.530022  0.486512  1
  Cs  Cs1  1  0.067889  0.536561  0.497530  1
  Cs  Cs2  1  0.530022  0.463741  0.986512  1
  Cs  Cs3  1  0.536561  0.067889  0.997530  1
  Cs  Cs4  1  0.855564  0.145590  0.691590  1
  Cs  Cs5  1  0.292620  0.141738  0.715496  1
  Cs  Cs6  1  0.858327  0.709061  0.664091  1
  Cs  Cs7  1  0.145590  0.855564  0.191590  1
  Cs  Cs8  1  0.709061  0.858327  0.164091  1
  Cs  Cs9  1  0.141738  0.292620  0.215496  1
  Na  Na10  1  0.473390  0.948724  0.520487  1
  Na  Na11  1  0.948724  0.473390  0.020487  1
  P  P12  1  0.675648  0.336137  0.669059  1
  P  P13  1  0.336137  0.675648  0.169059  1
  P  P14  1  0.784407  0.205329  0.296427  1
  P  P15  1  0.427948  0.197515  0.322063  1
  P  P16  1  0.790778  0.563427  0.267124  1
  P  P17  1  0.205329  0.784407  0.796427  1
  P  P18  1  0.563427  0.790778  0.767124  1
  P  P19  1  0.197515  0.427948  0.822063  1
  W  W20  1  0.670298  0.325286  0.383911  1
  W  W21  1  0.325286  0.670298  0.883911  1
