# generated using pymatgen
data_Pr2Pt2O7
_symmetry_space_group_name_H-M   'P 1'
_cell_length_a   7.47680300
_cell_length_b   7.47680343
_cell_length_c   7.47680300
_cell_angle_alpha   120.00000253
_cell_angle_beta   90.00000000
_cell_angle_gamma   120.00000253
_symmetry_Int_Tables_number   1
_chemical_formula_structural   Pr2Pt2O7
_chemical_formula_sum   'Pr4 Pt4 O14'
_cell_volume   295.55125479
_cell_formula_units_Z   2
loop_
 _symmetry_equiv_pos_site_id
 _symmetry_equiv_pos_as_xyz
  1  'x, y, z'
loop_
 _atom_site_type_symbol
 _atom_site_label
 _atom_site_symmetry_multiplicity
 _atom_site_fract_x
 _atom_site_fract_y
 _atom_site_fract_z
 _atom_site_occupancy
  Pr  Pr0  1  0.000000  0.000000  0.000000  1
  Pr  Pr1  1  0.500000  0.000000  0.000000  1
  Pr  Pr2  1  0.500000  0.500000  0.000000  1
  Pr  Pr3  1  0.500000  0.500000  0.500000  1
  Pt  Pt4  1  0.000000  0.500000  0.000000  1
  Pt  Pt5  1  0.000000  0.000000  0.500000  1
  Pt  Pt6  1  0.500000  0.000000  0.500000  1
  Pt  Pt7  1  0.000000  0.500000  0.500000  1
  O  O8  1  0.374999  0.249999  0.125000  1
  O  O9  1  0.915730  0.331463  0.165731  1
  O  O10  1  0.915730  0.749999  0.165731  1
  O  O11  1  0.334268  0.749999  0.165732  1
  O  O12  1  0.084268  0.249999  0.415730  1
  O  O13  1  0.665730  0.249999  0.415731  1
  O  O14  1  0.665730  0.831463  0.415731  1
  O  O15  1  0.334268  0.168536  0.584268  1
  O  O16  1  0.334268  0.749999  0.584268  1
  O  O17  1  0.915730  0.749999  0.584268  1
  O  O18  1  0.084268  0.249999  0.834268  1
  O  O19  1  0.665731  0.249999  0.834268  1
  O  O20  1  0.084268  0.668536  0.834268  1
  O  O21  1  0.625000  0.749999  0.874999  1
