# generated using pymatgen
data_YEr9(AlSb2)2
_symmetry_space_group_name_H-M   'P 1'
_cell_length_a   8.81981921
_cell_length_b   8.82143156
_cell_length_c   6.35129000
_cell_angle_alpha   90.00000000
_cell_angle_beta   90.00000000
_cell_angle_gamma   120.01953651
_symmetry_Int_Tables_number   1
_chemical_formula_structural   YEr9(AlSb2)2
_chemical_formula_sum   'Y1 Er9 Al2 Sb4'
_cell_volume   427.86404933
_cell_formula_units_Z   1
loop_
 _symmetry_equiv_pos_site_id
 _symmetry_equiv_pos_as_xyz
  1  'x, y, z'
loop_
 _atom_site_type_symbol
 _atom_site_label
 _atom_site_symmetry_multiplicity
 _atom_site_fract_x
 _atom_site_fract_y
 _atom_site_fract_z
 _atom_site_occupancy
  Y  Y0  1  0.008627  0.766261  0.750000  1
  Er  Er1  1  0.008898  0.242274  0.250000  1
  Er  Er2  1  0.755342  0.756685  0.250000  1
  Er  Er3  1  0.755453  0.998963  0.750000  1
  Er  Er4  1  0.241814  0.232481  0.750000  1
  Er  Er5  1  0.241766  0.009824  0.250000  1
  Er  Er6  1  0.335951  0.667866  0.499964  1
  Er  Er7  1  0.655645  0.327831  0.000010  1
  Er  Er8  1  0.655645  0.327831  0.499990  1
  Er  Er9  1  0.335951  0.667866  0.000036  1
  Al  Al10  1  0.398423  0.997399  0.750000  1
  Al  Al11  1  0.397821  0.400723  0.250000  1
  Sb  Sb12  1  0.998537  0.606539  0.250000  1
  Sb  Sb13  1  0.998475  0.391560  0.750000  1
  Sb  Sb14  1  0.605569  0.605001  0.750000  1
  Sb  Sb15  1  0.606083  0.000895  0.250000  1
