# generated using pymatgen
data_TaCl(OF3)2
_symmetry_space_group_name_H-M   'P 1'
_cell_length_a   5.21718436
_cell_length_b   5.21718436
_cell_length_c   5.99540834
_cell_angle_alpha   91.41337375
_cell_angle_beta   91.41337596
_cell_angle_gamma   87.11545998
_symmetry_Int_Tables_number   1
_chemical_formula_structural   TaCl(OF3)2
_chemical_formula_sum   'Ta1 Cl1 O2 F6'
_cell_volume   162.88789707
_cell_formula_units_Z   1
loop_
 _symmetry_equiv_pos_site_id
 _symmetry_equiv_pos_as_xyz
  1  'x, y, z'
loop_
 _atom_site_type_symbol
 _atom_site_label
 _atom_site_symmetry_multiplicity
 _atom_site_fract_x
 _atom_site_fract_y
 _atom_site_fract_z
 _atom_site_occupancy
  Ta  Ta0  1  0.995254  0.995254  0.505373  1
  Cl  Cl1  1  0.506017  0.506017  0.875046  1
  O  O2  1  0.351623  0.351623  0.004879  1
  O  O3  1  0.672433  0.672433  0.994343  1
  F  F4  1  0.804146  0.183087  0.286600  1
  F  F5  1  0.183087  0.804146  0.286600  1
  F  F6  1  0.742449  0.742449  0.519206  1
  F  F7  1  0.248654  0.248654  0.532409  1
  F  F8  1  0.809898  0.186438  0.747772  1
  F  F9  1  0.186438  0.809898  0.747772  1
