# generated using pymatgen
data_TbNd2Si3P3Pd20
_symmetry_space_group_name_H-M   'P 1'
_cell_length_a   8.74117637
_cell_length_b   8.74382280
_cell_length_c   8.74998440
_cell_angle_alpha   59.95667421
_cell_angle_beta   59.98668125
_cell_angle_gamma   60.05665538
_symmetry_Int_Tables_number   1
_chemical_formula_structural   TbNd2Si3P3Pd20
_chemical_formula_sum   'Tb1 Nd2 Si3 P3 Pd20'
_cell_volume   472.89296223
_cell_formula_units_Z   1
loop_
 _symmetry_equiv_pos_site_id
 _symmetry_equiv_pos_as_xyz
  1  'x, y, z'
loop_
 _atom_site_type_symbol
 _atom_site_label
 _atom_site_symmetry_multiplicity
 _atom_site_fract_x
 _atom_site_fract_y
 _atom_site_fract_z
 _atom_site_occupancy
  Tb  Tb0  1  0.999603  0.000397  0.999603  1
  Nd  Nd1  1  0.250341  0.249659  0.250341  1
  Nd  Nd2  1  0.750341  0.749659  0.750341  1
  Si  Si3  1  0.734325  0.265675  0.734325  1
  Si  Si4  1  0.265811  0.264658  0.735342  1
  Si  Si5  1  0.735342  0.734189  0.265811  1
  P  P6  1  0.736521  0.263479  0.264843  1
  P  P7  1  0.264843  0.735157  0.736521  1
  P  P8  1  0.263774  0.736226  0.263774  1
  Pd  Pd9  1  0.346402  0.998691  0.001309  1
  Pd  Pd10  1  0.653731  0.999673  0.000327  1
  Pd  Pd11  1  0.000327  0.346269  0.653731  1
  Pd  Pd12  1  0.001309  0.653598  0.346402  1
  Pd  Pd13  1  0.998743  0.345985  0.000237  1
  Pd  Pd14  1  0.654015  0.001257  0.344964  1
  Pd  Pd15  1  0.000237  0.655036  0.998743  1
  Pd  Pd16  1  0.344964  0.999763  0.654015  1
  Pd  Pd17  1  0.000543  0.999457  0.344254  1
  Pd  Pd18  1  0.000916  0.999084  0.655402  1
  Pd  Pd19  1  0.655402  0.344598  0.000916  1
  Pd  Pd20  1  0.344254  0.655746  0.000543  1
  Pd  Pd21  1  0.386352  0.386444  0.384650  1
  Pd  Pd22  1  0.613065  0.615459  0.615060  1
  Pd  Pd23  1  0.384541  0.386935  0.843583  1
  Pd  Pd24  1  0.384650  0.842552  0.386352  1
  Pd  Pd25  1  0.613556  0.613648  0.157448  1
  Pd  Pd26  1  0.615060  0.156417  0.613065  1
  Pd  Pd27  1  0.843583  0.384940  0.384541  1
  Pd  Pd28  1  0.157448  0.615350  0.613556  1
