# generated using pymatgen
data_Ho16Hf3InIr12
_symmetry_space_group_name_H-M   'P 1'
_cell_length_a   10.80834900
_cell_length_b   10.80834900
_cell_length_c   6.20046200
_cell_angle_alpha   90.00000000
_cell_angle_beta   90.00000000
_cell_angle_gamma   90.00000000
_symmetry_Int_Tables_number   1
_chemical_formula_structural   Ho16Hf3InIr12
_chemical_formula_sum   'Ho16 Hf3 In1 Ir12'
_cell_volume   724.34050128
_cell_formula_units_Z   1
loop_
 _symmetry_equiv_pos_site_id
 _symmetry_equiv_pos_as_xyz
  1  'x, y, z'
loop_
 _atom_site_type_symbol
 _atom_site_label
 _atom_site_symmetry_multiplicity
 _atom_site_fract_x
 _atom_site_fract_y
 _atom_site_fract_z
 _atom_site_occupancy
  Ho  Ho0  1  0.284288  0.083145  0.375504  1
  Ho  Ho1  1  0.290054  0.913405  0.875595  1
  Ho  Ho2  1  0.709946  0.086595  0.875595  1
  Ho  Ho3  1  0.715712  0.916855  0.375504  1
  Ho  Ho4  1  0.586941  0.788896  0.877222  1
  Ho  Ho5  1  0.585339  0.210254  0.373074  1
  Ho  Ho6  1  0.414661  0.789746  0.373074  1
  Ho  Ho7  1  0.413059  0.211104  0.877222  1
  Ho  Ho8  1  0.210254  0.414661  0.626926  1
  Ho  Ho9  1  0.211104  0.586941  0.122778  1
  Ho  Ho10  1  0.788896  0.413059  0.122778  1
  Ho  Ho11  1  0.789746  0.585339  0.626926  1
  Ho  Ho12  1  0.913405  0.709946  0.124405  1
  Ho  Ho13  1  0.916855  0.284288  0.624496  1
  Ho  Ho14  1  0.083145  0.715712  0.624496  1
  Ho  Ho15  1  0.086595  0.290054  0.124405  1
  Hf  Hf16  1  0.000000  0.000000  0.000000  1
  Hf  Hf17  1  0.500000  0.500000  0.000000  1
  Hf  Hf18  1  0.500000  0.500000  0.500000  1
  In  In19  1  0.000000  0.000000  0.500000  1
  Ir  Ir20  1  0.853205  0.154281  0.233194  1
  Ir  Ir21  1  0.845719  0.853205  0.766806  1
  Ir  Ir22  1  0.154281  0.146795  0.766806  1
  Ir  Ir23  1  0.146795  0.845719  0.233194  1
  Ir  Ir24  1  0.644295  0.357957  0.745693  1
  Ir  Ir25  1  0.642043  0.644295  0.254307  1
  Ir  Ir26  1  0.357957  0.355705  0.254307  1
  Ir  Ir27  1  0.355705  0.642043  0.745693  1
  Ir  Ir28  1  0.500000  0.000000  0.122947  1
  Ir  Ir29  1  0.500000  0.000000  0.619077  1
  Ir  Ir30  1  0.000000  0.500000  0.877053  1
  Ir  Ir31  1  0.000000  0.500000  0.380923  1
