# generated using pymatgen
data_Lu2Mn2P7Ru10
_symmetry_space_group_name_H-M   'P 1'
_cell_length_a   9.42051235
_cell_length_b   9.29518575
_cell_length_c   3.87591700
_cell_angle_alpha   90.00000000
_cell_angle_beta   90.00000000
_cell_angle_gamma   119.94635410
_symmetry_Int_Tables_number   1
_chemical_formula_structural   Lu2Mn2P7Ru10
_chemical_formula_sum   'Lu2 Mn2 P7 Ru10'
_cell_volume   294.08455058
_cell_formula_units_Z   1
loop_
 _symmetry_equiv_pos_site_id
 _symmetry_equiv_pos_as_xyz
  1  'x, y, z'
loop_
 _atom_site_type_symbol
 _atom_site_label
 _atom_site_symmetry_multiplicity
 _atom_site_fract_x
 _atom_site_fract_y
 _atom_site_fract_z
 _atom_site_occupancy
  Lu  Lu0  1  0.668766  0.332674  0.000000  1
  Lu  Lu1  1  0.001880  0.001802  0.500000  1
  Mn  Mn2  1  0.060164  0.553970  0.000000  1
  Mn  Mn3  1  0.448753  0.509844  0.000000  1
  P  P4  1  0.450303  0.067908  0.500000  1
  P  P5  1  0.935456  0.385916  0.500000  1
  P  P6  1  0.621506  0.549352  0.500000  1
  P  P7  1  0.753687  0.971791  0.000000  1
  P  P8  1  0.028058  0.778098  0.000000  1
  P  P9  1  0.218059  0.251241  0.000000  1
  P  P10  1  0.323850  0.658227  0.000000  1
  Ru  Ru11  1  0.755380  0.726740  0.000000  1
  Ru  Ru12  1  0.263845  0.029204  0.000000  1
  Ru  Ru13  1  0.972378  0.245003  0.000000  1
  Ru  Ru14  1  0.492168  0.937047  0.000000  1
  Ru  Ru15  1  0.723933  0.108726  0.500000  1
  Ru  Ru16  1  0.896298  0.615454  0.500000  1
  Ru  Ru17  1  0.389005  0.283290  0.500000  1
  Ru  Ru18  1  0.540391  0.748442  0.500000  1
  Ru  Ru19  1  0.240619  0.783747  0.500000  1
  Ru  Ru20  1  0.215498  0.461526  0.500000  1
