# generated using pymatgen
data_Ce3Y(Al3Co)6
_symmetry_space_group_name_H-M   'P 1'
_cell_length_a   7.43948500
_cell_length_b   7.44259277
_cell_length_c   9.27265700
_cell_angle_alpha   90.00000000
_cell_angle_beta   90.00000000
_cell_angle_gamma   119.32171157
_symmetry_Int_Tables_number   1
_chemical_formula_structural   Ce3Y(Al3Co)6
_chemical_formula_sum   'Ce3 Y1 Al18 Co6'
_cell_volume   447.64105973
_cell_formula_units_Z   1
loop_
 _symmetry_equiv_pos_site_id
 _symmetry_equiv_pos_as_xyz
  1  'x, y, z'
loop_
 _atom_site_type_symbol
 _atom_site_label
 _atom_site_symmetry_multiplicity
 _atom_site_fract_x
 _atom_site_fract_y
 _atom_site_fract_z
 _atom_site_occupancy
  Ce  Ce0  1  0.005874  0.328375  0.750000  1
  Ce  Ce1  1  0.671694  0.994173  0.250000  1
  Ce  Ce2  1  0.328381  0.005979  0.750000  1
  Y  Y3  1  0.993770  0.671952  0.250000  1
  Al  Al4  1  0.125982  0.125476  0.250000  1
  Al  Al5  1  0.872718  0.872173  0.750000  1
  Al  Al6  1  0.333623  0.333594  0.542239  1
  Al  Al7  1  0.667517  0.666408  0.043093  1
  Al  Al8  1  0.333623  0.333594  0.957761  1
  Al  Al9  1  0.667517  0.666408  0.456907  1
  Al  Al10  1  0.340331  0.553204  0.250000  1
  Al  Al11  1  0.659100  0.448157  0.750000  1
  Al  Al12  1  0.554048  0.341540  0.250000  1
  Al  Al13  1  0.447739  0.658878  0.750000  1
  Al  Al14  1  0.999854  0.336645  0.073104  1
  Al  Al15  1  0.000523  0.664813  0.571652  1
  Al  Al16  1  0.333938  0.998505  0.426925  1
  Al  Al17  1  0.664542  0.000036  0.927420  1
  Al  Al18  1  0.000523  0.664813  0.928348  1
  Al  Al19  1  0.999854  0.336645  0.426896  1
  Al  Al20  1  0.664542  0.000036  0.572580  1
  Al  Al21  1  0.333938  0.998505  0.073075  1
  Co  Co22  1  0.000079  0.000559  0.999321  1
  Co  Co23  1  0.000079  0.000559  0.500679  1
  Co  Co24  1  0.671242  0.327851  0.999459  1
  Co  Co25  1  0.328864  0.671636  0.500494  1
  Co  Co26  1  0.328864  0.671636  0.999506  1
  Co  Co27  1  0.671242  0.327851  0.500541  1
