# generated using pymatgen
data_Tb12Nd4Cd3AgPt4
_symmetry_space_group_name_H-M   'P 1'
_cell_length_a   9.74684481
_cell_length_b   9.74329454
_cell_length_c   9.74366640
_cell_angle_alpha   60.34689665
_cell_angle_beta   60.25991640
_cell_angle_gamma   60.25861249
_symmetry_Int_Tables_number   1
_chemical_formula_structural   Tb12Nd4Cd3AgPt4
_chemical_formula_sum   'Tb12 Nd4 Cd3 Ag1 Pt4'
_cell_volume   658.57111082
_cell_formula_units_Z   1
loop_
 _symmetry_equiv_pos_site_id
 _symmetry_equiv_pos_as_xyz
  1  'x, y, z'
loop_
 _atom_site_type_symbol
 _atom_site_label
 _atom_site_symmetry_multiplicity
 _atom_site_fract_x
 _atom_site_fract_y
 _atom_site_fract_z
 _atom_site_occupancy
  Tb  Tb0  1  0.351416  0.349465  0.349008  1
  Tb  Tb1  1  0.352308  0.354023  0.942940  1
  Tb  Tb2  1  0.353068  0.942153  0.353952  1
  Tb  Tb3  1  0.940380  0.353713  0.353491  1
  Tb  Tb4  1  0.813147  0.188691  0.188746  1
  Tb  Tb5  1  0.187352  0.811829  0.812301  1
  Tb  Tb6  1  0.189970  0.812284  0.189664  1
  Tb  Tb7  1  0.811548  0.187778  0.810404  1
  Tb  Tb8  1  0.190088  0.189726  0.812081  1
  Tb  Tb9  1  0.811435  0.810735  0.187959  1
  Tb  Tb10  1  0.939160  0.559063  0.558429  1
  Tb  Tb11  1  0.557449  0.940687  0.941151  1
  Nd  Nd12  1  0.563665  0.934256  0.564634  1
  Nd  Nd13  1  0.935412  0.562711  0.935276  1
  Nd  Nd14  1  0.563607  0.564736  0.933933  1
  Nd  Nd15  1  0.935833  0.935375  0.562115  1
  Cd  Cd16  1  0.579258  0.583465  0.258685  1
  Cd  Cd17  1  0.579039  0.258969  0.583750  1
  Cd  Cd18  1  0.258925  0.579968  0.580699  1
  Ag  Ag19  1  0.587673  0.580419  0.580234  1
  Pt  Pt20  1  0.145634  0.143604  0.144211  1
  Pt  Pt21  1  0.141810  0.144682  0.570200  1
  Pt  Pt22  1  0.141127  0.570550  0.145251  1
  Pt  Pt23  1  0.570696  0.141119  0.140888  1
