# generated using pymatgen
data_Tb4Mn3Co17As12
_symmetry_space_group_name_H-M   'P 1'
_cell_length_a   3.80312200
_cell_length_b   10.75393564
_cell_length_c   12.28879192
_cell_angle_alpha   90.11047168
_cell_angle_beta   90.00000000
_cell_angle_gamma   90.00000000
_symmetry_Int_Tables_number   1
_chemical_formula_structural   Tb4Mn3Co17As12
_chemical_formula_sum   'Tb4 Mn3 Co17 As12'
_cell_volume   502.59258124
_cell_formula_units_Z   1
loop_
 _symmetry_equiv_pos_site_id
 _symmetry_equiv_pos_as_xyz
  1  'x, y, z'
loop_
 _atom_site_type_symbol
 _atom_site_label
 _atom_site_symmetry_multiplicity
 _atom_site_fract_x
 _atom_site_fract_y
 _atom_site_fract_z
 _atom_site_occupancy
  Tb  Tb0  1  0.250000  0.578170  0.702726  1
  Tb  Tb1  1  0.250000  0.921683  0.201411  1
  Tb  Tb2  1  0.750000  0.419979  0.297053  1
  Tb  Tb3  1  0.750000  0.078142  0.796912  1
  Mn  Mn4  1  0.250000  0.700911  0.991060  1
  Mn  Mn5  1  0.250000  0.798132  0.490707  1
  Mn  Mn6  1  0.750000  0.299126  0.008458  1
  Co  Co7  1  0.750000  0.205741  0.509373  1
  Co  Co8  1  0.250000  0.404622  0.488048  1
  Co  Co9  1  0.250000  0.094373  0.987430  1
  Co  Co10  1  0.750000  0.593312  0.513008  1
  Co  Co11  1  0.750000  0.906806  0.013984  1
  Co  Co12  1  0.250000  0.218154  0.177091  1
  Co  Co13  1  0.250000  0.281915  0.673815  1
  Co  Co14  1  0.750000  0.782733  0.825147  1
  Co  Co15  1  0.750000  0.718030  0.325387  1
  Co  Co16  1  0.250000  0.882944  0.697560  1
  Co  Co17  1  0.250000  0.617822  0.199036  1
  Co  Co18  1  0.750000  0.117867  0.303249  1
  Co  Co19  1  0.750000  0.380882  0.800424  1
  Co  Co20  1  0.250000  0.465240  0.932467  1
  Co  Co21  1  0.250000  0.033993  0.432781  1
  Co  Co22  1  0.750000  0.534494  0.067156  1
  Co  Co23  1  0.750000  0.967433  0.565933  1
  As  As24  1  0.250000  0.419407  0.115942  1
  As  As25  1  0.250000  0.081982  0.614198  1
  As  As26  1  0.750000  0.580105  0.883589  1
  As  As27  1  0.750000  0.919299  0.383299  1
  As  As28  1  0.250000  0.266912  0.864646  1
  As  As29  1  0.250000  0.232000  0.367815  1
  As  As30  1  0.750000  0.732436  0.135222  1
  As  As31  1  0.750000  0.768386  0.635516  1
  As  As32  1  0.250000  0.597495  0.391514  1
  As  As33  1  0.250000  0.901127  0.891962  1
  As  As34  1  0.750000  0.397429  0.606826  1
  As  As35  1  0.750000  0.100913  0.109256  1
