# generated using pymatgen
data_Yb3Dy(Al3Pt)6
_symmetry_space_group_name_H-M   'P 1'
_cell_length_a   7.63592482
_cell_length_b   7.63855244
_cell_length_c   9.45784300
_cell_angle_alpha   90.00000000
_cell_angle_beta   90.00000000
_cell_angle_gamma   119.65686723
_symmetry_Int_Tables_number   1
_chemical_formula_structural   Yb3Dy(Al3Pt)6
_chemical_formula_sum   'Yb3 Dy1 Al18 Pt6'
_cell_volume   479.38750644
_cell_formula_units_Z   1
loop_
 _symmetry_equiv_pos_site_id
 _symmetry_equiv_pos_as_xyz
  1  'x, y, z'
loop_
 _atom_site_type_symbol
 _atom_site_label
 _atom_site_symmetry_multiplicity
 _atom_site_fract_x
 _atom_site_fract_y
 _atom_site_fract_z
 _atom_site_occupancy
  Yb  Yb0  1  0.003444  0.328783  0.750000  1
  Yb  Yb1  1  0.670575  0.996279  0.250000  1
  Yb  Yb2  1  0.329662  0.004074  0.750000  1
  Dy  Dy3  1  0.996284  0.670290  0.250000  1
  Al  Al4  1  0.130608  0.129849  0.250000  1
  Al  Al5  1  0.868896  0.868945  0.750000  1
  Al  Al6  1  0.999474  0.334467  0.077095  1
  Al  Al7  1  0.000724  0.665214  0.922753  1
  Al  Al8  1  0.000724  0.665214  0.577247  1
  Al  Al9  1  0.335147  0.999844  0.422860  1
  Al  Al10  1  0.999474  0.334467  0.422905  1
  Al  Al11  1  0.665187  0.000545  0.576749  1
  Al  Al12  1  0.665187  0.000545  0.923251  1
  Al  Al13  1  0.335147  0.999844  0.077140  1
  Al  Al14  1  0.332216  0.332261  0.556906  1
  Al  Al15  1  0.667671  0.667857  0.442501  1
  Al  Al16  1  0.667671  0.667857  0.057499  1
  Al  Al17  1  0.332216  0.332261  0.943094  1
  Al  Al18  1  0.339213  0.545747  0.250000  1
  Al  Al19  1  0.659676  0.454373  0.750000  1
  Al  Al20  1  0.546875  0.341497  0.250000  1
  Al  Al21  1  0.453900  0.659757  0.750000  1
  Pt  Pt22  1  0.671854  0.328430  0.000080  1
  Pt  Pt23  1  0.328191  0.671795  0.000307  1
  Pt  Pt24  1  0.328191  0.671795  0.499693  1
  Pt  Pt25  1  0.671854  0.328430  0.499920  1
  Pt  Pt26  1  0.999970  0.999791  0.000247  1
  Pt  Pt27  1  0.999970  0.999791  0.499753  1
