# generated using pymatgen
data_La4Pr12MgCd3Ir4
_symmetry_space_group_name_H-M   'P 1'
_cell_length_a   10.08948480
_cell_length_b   10.08918811
_cell_length_c   10.08919425
_cell_angle_alpha   60.11539081
_cell_angle_beta   60.09906193
_cell_angle_gamma   60.09911744
_symmetry_Int_Tables_number   1
_chemical_formula_structural   La4Pr12MgCd3Ir4
_chemical_formula_sum   'La4 Pr12 Mg1 Cd3 Ir4'
_cell_volume   727.93729393
_cell_formula_units_Z   1
loop_
 _symmetry_equiv_pos_site_id
 _symmetry_equiv_pos_as_xyz
  1  'x, y, z'
loop_
 _atom_site_type_symbol
 _atom_site_label
 _atom_site_symmetry_multiplicity
 _atom_site_fract_x
 _atom_site_fract_y
 _atom_site_fract_z
 _atom_site_occupancy
  La  La0  1  0.347389  0.347395  0.347395  1
  La  La1  1  0.347355  0.347221  0.958667  1
  La  La2  1  0.347355  0.958667  0.347221  1
  La  La3  1  0.958710  0.347247  0.347247  1
  Pr  Pr4  1  0.810159  0.189951  0.189951  1
  Pr  Pr5  1  0.187789  0.810879  0.810881  1
  Pr  Pr6  1  0.189741  0.810242  0.190150  1
  Pr  Pr7  1  0.810934  0.188039  0.810883  1
  Pr  Pr8  1  0.189740  0.190150  0.810242  1
  Pr  Pr9  1  0.810934  0.810884  0.188038  1
  Pr  Pr10  1  0.938823  0.562395  0.562396  1
  Pr  Pr11  1  0.560714  0.938911  0.938912  1
  Pr  Pr12  1  0.562608  0.938684  0.562474  1
  Pr  Pr13  1  0.938798  0.560724  0.938910  1
  Pr  Pr14  1  0.562608  0.562474  0.938684  1
  Pr  Pr15  1  0.938799  0.938910  0.560724  1
  Mg  Mg16  1  0.575152  0.575281  0.575281  1
  Cd  Cd17  1  0.580806  0.580792  0.258379  1
  Cd  Cd18  1  0.580806  0.258379  0.580792  1
  Cd  Cd19  1  0.258310  0.580838  0.580838  1
  Ir  Ir20  1  0.142521  0.142330  0.142330  1
  Ir  Ir21  1  0.143111  0.142950  0.573691  1
  Ir  Ir22  1  0.143111  0.573691  0.142950  1
  Ir  Ir23  1  0.573729  0.142962  0.142962  1
