# generated using pymatgen
data_Tb5Er5(Bi3Se)2
_symmetry_space_group_name_H-M   'P 1'
_cell_length_a   9.29483200
_cell_length_b   9.29483279
_cell_length_c   6.63902100
_cell_angle_alpha   90.00000000
_cell_angle_beta   90.00000000
_cell_angle_gamma   120.02626562
_symmetry_Int_Tables_number   1
_chemical_formula_structural   Tb5Er5(Bi3Se)2
_chemical_formula_sum   'Tb5 Er5 Bi6 Se2'
_cell_volume   496.59551689
_cell_formula_units_Z   1
loop_
 _symmetry_equiv_pos_site_id
 _symmetry_equiv_pos_as_xyz
  1  'x, y, z'
loop_
 _atom_site_type_symbol
 _atom_site_label
 _atom_site_symmetry_multiplicity
 _atom_site_fract_x
 _atom_site_fract_y
 _atom_site_fract_z
 _atom_site_occupancy
  Tb  Tb0  1  0.255039  0.000236  0.250000  1
  Tb  Tb1  1  0.000236  0.255039  0.250000  1
  Tb  Tb2  1  0.254153  0.254153  0.750000  1
  Tb  Tb3  1  0.745126  0.999546  0.750000  1
  Tb  Tb4  1  0.999546  0.745126  0.750000  1
  Er  Er5  1  0.666918  0.333441  0.499800  1
  Er  Er6  1  0.333441  0.666918  0.499800  1
  Er  Er7  1  0.333441  0.666918  0.000200  1
  Er  Er8  1  0.666918  0.333441  0.000200  1
  Er  Er9  1  0.745936  0.745936  0.250000  1
  Bi  Bi10  1  0.395795  0.395795  0.250000  1
  Bi  Bi11  1  0.605367  0.999377  0.250000  1
  Bi  Bi12  1  0.999377  0.605367  0.250000  1
  Bi  Bi13  1  0.605021  0.605021  0.750000  1
  Bi  Bi14  1  0.394783  0.999695  0.750000  1
  Bi  Bi15  1  0.999695  0.394783  0.750000  1
  Se  Se16  1  0.999605  0.999605  0.499744  1
  Se  Se17  1  0.999605  0.999605  0.000256  1
