# generated using pymatgen
data_Ho4Tm8Tc3Pt
_symmetry_space_group_name_H-M   'P 1'
_cell_length_a   6.24227447
_cell_length_b   7.35900313
_cell_length_c   9.03953000
_cell_angle_alpha   90.00000000
_cell_angle_beta   90.00000000
_cell_angle_gamma   89.96718113
_symmetry_Int_Tables_number   1
_chemical_formula_structural   Ho4Tm8Tc3Pt
_chemical_formula_sum   'Ho4 Tm8 Tc3 Pt1'
_cell_volume   415.24807416
_cell_formula_units_Z   1
loop_
 _symmetry_equiv_pos_site_id
 _symmetry_equiv_pos_as_xyz
  1  'x, y, z'
loop_
 _atom_site_type_symbol
 _atom_site_label
 _atom_site_symmetry_multiplicity
 _atom_site_fract_x
 _atom_site_fract_y
 _atom_site_fract_z
 _atom_site_occupancy
  Ho  Ho0  1  0.874854  0.542050  0.250000  1
  Ho  Ho1  1  0.621032  0.037075  0.250000  1
  Ho  Ho2  1  0.127254  0.456126  0.750000  1
  Ho  Ho3  1  0.373346  0.965007  0.750000  1
  Tm  Tm4  1  0.331359  0.675890  0.066460  1
  Tm  Tm5  1  0.162691  0.177315  0.436403  1
  Tm  Tm6  1  0.665087  0.318534  0.558635  1
  Tm  Tm7  1  0.839089  0.828092  0.940374  1
  Tm  Tm8  1  0.665087  0.318534  0.941365  1
  Tm  Tm9  1  0.839089  0.828092  0.559626  1
  Tm  Tm10  1  0.331359  0.675890  0.433540  1
  Tm  Tm11  1  0.162691  0.177315  0.063597  1
  Tc  Tc12  1  0.038957  0.884599  0.250000  1
  Tc  Tc13  1  0.463122  0.386014  0.250000  1
  Tc  Tc14  1  0.957212  0.115551  0.750000  1
  Pt  Pt15  1  0.547771  0.613916  0.750000  1
