# generated using pymatgen
data_Na4NdSi12Ir19
_symmetry_space_group_name_H-M   'P 1'
_cell_length_a   12.77567800
_cell_length_b   12.79440766
_cell_length_c   4.01069200
_cell_angle_alpha   90.00000000
_cell_angle_beta   90.00000000
_cell_angle_gamma   119.95159173
_symmetry_Int_Tables_number   1
_chemical_formula_structural   Na4NdSi12Ir19
_chemical_formula_sum   'Na4 Nd1 Si12 Ir19'
_cell_volume   568.02274280
_cell_formula_units_Z   1
loop_
 _symmetry_equiv_pos_site_id
 _symmetry_equiv_pos_as_xyz
  1  'x, y, z'
loop_
 _atom_site_type_symbol
 _atom_site_label
 _atom_site_symmetry_multiplicity
 _atom_site_fract_x
 _atom_site_fract_y
 _atom_site_fract_z
 _atom_site_occupancy
  Na  Na0  1  0.000673  0.816413  0.500000  1
  Na  Na1  1  0.184260  0.183587  0.500000  1
  Na  Na2  1  0.333307  0.667909  0.000000  1
  Na  Na3  1  0.665399  0.332091  0.000000  1
  Nd  Nd4  1  0.823797  0.000000  0.500000  1
  Si  Si5  1  0.005335  0.186560  0.000000  1
  Si  Si6  1  0.818774  0.813440  0.000000  1
  Si  Si7  1  0.184444  0.000000  0.000000  1
  Si  Si8  1  0.516951  0.686195  0.500000  1
  Si  Si9  1  0.311438  0.831075  0.500000  1
  Si  Si10  1  0.169284  0.483092  0.500000  1
  Si  Si11  1  0.480362  0.168925  0.500000  1
  Si  Si12  1  0.686192  0.516908  0.500000  1
  Si  Si13  1  0.830756  0.313805  0.500000  1
  Si  Si14  1  0.999274  0.630238  0.000000  1
  Si  Si15  1  0.369036  0.369762  0.000000  1
  Si  Si16  1  0.629808  0.000000  0.000000  1
  Ir  Ir17  1  0.999459  0.285060  0.500000  1
  Ir  Ir18  1  0.714399  0.714940  0.500000  1
  Ir  Ir19  1  0.283079  0.000000  0.500000  1
  Ir  Ir20  1  0.622599  0.805746  0.000000  1
  Ir  Ir21  1  0.195135  0.815557  0.000000  1
  Ir  Ir22  1  0.184638  0.381313  0.000000  1
  Ir  Ir23  1  0.379577  0.184443  0.000000  1
  Ir  Ir24  1  0.803323  0.618687  0.000000  1
  Ir  Ir25  1  0.816851  0.194254  0.000000  1
  Ir  Ir26  1  0.513802  0.874517  0.500000  1
  Ir  Ir27  1  0.123340  0.639111  0.500000  1
  Ir  Ir28  1  0.359945  0.485642  0.500000  1
  Ir  Ir29  1  0.484228  0.360889  0.500000  1
  Ir  Ir30  1  0.874303  0.514358  0.500000  1
  Ir  Ir31  1  0.639285  0.125483  0.500000  1
  Ir  Ir32  1  0.999966  0.000000  0.000000  1
  Ir  Ir33  1  0.997854  0.445279  0.000000  1
  Ir  Ir34  1  0.552576  0.554721  0.000000  1
  Ir  Ir35  1  0.446550  0.000000  0.000000  1
