# generated using pymatgen
data_Sc4B12IrRh
_symmetry_space_group_name_H-M   'P 1'
_cell_length_a   8.92194333
_cell_length_b   11.22279892
_cell_length_c   3.47133900
_cell_angle_alpha   90.00000000
_cell_angle_beta   90.00000000
_cell_angle_gamma   89.91726420
_symmetry_Int_Tables_number   1
_chemical_formula_structural   Sc4B12IrRh
_chemical_formula_sum   'Sc8 B24 Ir2 Rh2'
_cell_volume   347.58195118
_cell_formula_units_Z   2
loop_
 _symmetry_equiv_pos_site_id
 _symmetry_equiv_pos_as_xyz
  1  'x, y, z'
loop_
 _atom_site_type_symbol
 _atom_site_label
 _atom_site_symmetry_multiplicity
 _atom_site_fract_x
 _atom_site_fract_y
 _atom_site_fract_z
 _atom_site_occupancy
  Sc  Sc0  1  0.682446  0.586844  0.000000  1
  Sc  Sc1  1  0.317554  0.413156  0.000000  1
  Sc  Sc2  1  0.180240  0.914669  0.000000  1
  Sc  Sc3  1  0.819759  0.085331  0.000000  1
  Sc  Sc4  1  0.055522  0.625732  0.000000  1
  Sc  Sc5  1  0.944478  0.374268  0.000000  1
  Sc  Sc6  1  0.555960  0.874666  0.000000  1
  Sc  Sc7  1  0.444040  0.125334  0.000000  1
  B  B8  1  0.246854  0.578091  0.499999  1
  B  B9  1  0.753146  0.421909  0.499999  1
  B  B10  1  0.747786  0.922138  0.499999  1
  B  B11  1  0.252214  0.077863  0.499999  1
  B  B12  1  0.020357  0.787303  0.499999  1
  B  B13  1  0.979643  0.212697  0.499999  1
  B  B14  1  0.520926  0.713163  0.499999  1
  B  B15  1  0.479074  0.286836  0.499999  1
  B  B16  1  0.204128  0.737417  0.499999  1
  B  B17  1  0.795871  0.262584  0.499999  1
  B  B18  1  0.704260  0.762497  0.499999  1
  B  B19  1  0.295741  0.237503  0.499999  1
  B  B20  1  0.446678  0.563889  0.499999  1
  B  B21  1  0.553322  0.436109  0.499999  1
  B  B22  1  0.946571  0.936376  0.499999  1
  B  B23  1  0.053428  0.063624  0.499999  1
  B  B24  1  0.397120  0.972106  0.499999  1
  B  B25  1  0.602881  0.027893  0.499999  1
  B  B26  1  0.897180  0.527902  0.499999  1
  B  B27  1  0.868900  0.681065  0.499999  1
  B  B28  1  0.131100  0.318933  0.499999  1
  B  B29  1  0.102820  0.472098  0.499999  1
  B  B30  1  0.369077  0.818924  0.499999  1
  B  B31  1  0.630921  0.181076  0.499999  1
  Ir  Ir32  1  0.360023  0.679443  0.000000  1
  Ir  Ir33  1  0.639977  0.320558  0.000000  1
  Rh  Rh34  1  0.859112  0.819126  0.000000  1
  Rh  Rh35  1  0.140888  0.180874  0.000000  1
