# generated using pymatgen
data_PrYU4O12
_symmetry_space_group_name_H-M   'P 1'
_cell_length_a   6.66749468
_cell_length_b   6.66749502
_cell_length_c   6.63256640
_cell_angle_alpha   80.34871871
_cell_angle_beta   80.34870736
_cell_angle_gamma   120.12638546
_symmetry_Int_Tables_number   1
_chemical_formula_structural   PrYU4O12
_chemical_formula_sum   'Pr1 Y1 U4 O12'
_cell_volume   240.20359828
_cell_formula_units_Z   1
loop_
 _symmetry_equiv_pos_site_id
 _symmetry_equiv_pos_as_xyz
  1  'x, y, z'
loop_
 _atom_site_type_symbol
 _atom_site_label
 _atom_site_symmetry_multiplicity
 _atom_site_fract_x
 _atom_site_fract_y
 _atom_site_fract_z
 _atom_site_occupancy
  Pr  Pr0  1  0.499836  0.500164  0.500000  1
  Y  Y1  1  0.833571  0.166429  0.500000  1
  U  U2  1  0.166979  0.833021  0.500000  1
  U  U3  1  0.669006  0.330994  0.000000  1
  U  U4  1  0.999800  0.000200  0.000000  1
  U  U5  1  0.331053  0.668947  0.000000  1
  O  O6  1  0.111141  0.105059  0.640004  1
  O  O7  1  0.703417  0.041206  0.885411  1
  O  O8  1  0.958794  0.296583  0.114589  1
  O  O9  1  0.366368  0.364884  0.893380  1
  O  O10  1  0.042813  0.706828  0.882357  1
  O  O11  1  0.535683  0.195754  0.362759  1
  O  O12  1  0.894941  0.888859  0.359996  1
  O  O13  1  0.447464  0.793398  0.638764  1
  O  O14  1  0.635116  0.633632  0.106620  1
  O  O15  1  0.293172  0.957187  0.117643  1
  O  O16  1  0.804246  0.464317  0.637241  1
  O  O17  1  0.206602  0.552536  0.361236  1
