# generated using pymatgen
data_Y(ThH5)3
_symmetry_space_group_name_H-M   'P 1'
_cell_length_a   7.84368648
_cell_length_b   7.84365941
_cell_length_c   7.80637979
_cell_angle_alpha   109.45540638
_cell_angle_beta   109.45554699
_cell_angle_gamma   109.69533804
_symmetry_Int_Tables_number   1
_chemical_formula_structural   Y(ThH5)3
_chemical_formula_sum   'Y2 Th6 H30'
_cell_volume   368.83155849
_cell_formula_units_Z   2
loop_
 _symmetry_equiv_pos_site_id
 _symmetry_equiv_pos_as_xyz
  1  'x, y, z'
loop_
 _atom_site_type_symbol
 _atom_site_label
 _atom_site_symmetry_multiplicity
 _atom_site_fract_x
 _atom_site_fract_y
 _atom_site_fract_z
 _atom_site_occupancy
  Y  Y0  1  0.913502  0.914663  0.915334  1
  Y  Y1  1  0.498169  0.999329  0.084666  1
  Th  Th2  1  0.994491  0.080639  0.495389  1
  Th  Th3  1  0.085581  0.504102  0.000741  1
  Th  Th4  1  0.999102  0.585250  0.504611  1
  Th  Th5  1  0.584840  0.503360  0.999259  1
  Th  Th6  1  0.503660  0.998751  0.587768  1
  Th  Th7  1  0.415891  0.410983  0.412232  1
  H  H8  1  0.651987  0.966627  0.371850  1
  H  H9  1  0.218189  0.315887  0.845605  1
  H  H10  1  0.185994  0.403765  0.533149  1
  H  H11  1  0.095948  0.280995  0.126164  1
  H  H12  1  0.282157  0.123272  0.093857  1
  H  H13  1  0.125268  0.094047  0.277962  1
  H  H14  1  0.469784  0.154831  0.873836  1
  H  H15  1  0.719766  0.349403  0.814820  1
  H  H16  1  0.628040  0.380596  0.251702  1
  H  H17  1  0.249899  0.624768  0.375283  1
  H  H18  1  0.750874  0.872582  0.127708  1
  H  H19  1  0.123165  0.744874  0.872292  1
  H  H20  1  0.374616  0.249485  0.624717  1
  H  H21  1  0.876337  0.128894  0.748298  1
  H  H22  1  0.780137  0.594777  0.628150  1
  H  H23  1  0.317350  0.847424  0.221254  1
  H  H24  1  0.374607  0.658120  0.968668  1
  H  H25  1  0.966191  0.370318  0.651893  1
  H  H26  1  0.534324  0.184941  0.405767  1
  H  H27  1  0.404946  0.534583  0.185180  1
  H  H28  1  0.840966  0.217891  0.312669  1
  H  H29  1  0.905939  0.689452  0.031332  1
  H  H30  1  0.814298  0.718425  0.348107  1
  H  H31  1  0.152845  0.870616  0.466851  1
  H  H32  1  0.688300  0.029415  0.906143  1
  H  H33  1  0.347305  0.816084  0.722038  1
  H  H34  1  0.872584  0.470283  0.154395  1
  H  H35  1  0.628557  0.779174  0.594233  1
  H  H36  1  0.596096  0.626169  0.778746  1
  H  H37  1  0.028297  0.905222  0.687331  1
