# generated using pymatgen
data_Dy7Ho9In6CoPt
_symmetry_space_group_name_H-M   'P 1'
_cell_length_a   10.41203300
_cell_length_b   10.41616006
_cell_length_c   6.98724700
_cell_angle_alpha   89.99842504
_cell_angle_beta   90.00000000
_cell_angle_gamma   119.98689728
_symmetry_Int_Tables_number   1
_chemical_formula_structural   Dy7Ho9In6CoPt
_chemical_formula_sum   'Dy7 Ho9 In6 Co1 Pt1'
_cell_volume   656.35263603
_cell_formula_units_Z   1
loop_
 _symmetry_equiv_pos_site_id
 _symmetry_equiv_pos_as_xyz
  1  'x, y, z'
loop_
 _atom_site_type_symbol
 _atom_site_label
 _atom_site_symmetry_multiplicity
 _atom_site_fract_x
 _atom_site_fract_y
 _atom_site_fract_z
 _atom_site_occupancy
  Dy  Dy0  1  0.530298  0.060594  0.507168  1
  Dy  Dy1  1  0.939210  0.469891  0.507450  1
  Dy  Dy2  1  0.530682  0.469891  0.507450  1
  Dy  Dy3  1  0.464577  0.929155  0.004998  1
  Dy  Dy4  1  0.070715  0.535403  0.005445  1
  Dy  Dy5  1  0.464687  0.535403  0.005445  1
  Dy  Dy6  1  0.177925  0.355850  0.714337  1
  Ho  Ho7  1  0.644216  0.822154  0.714326  1
  Ho  Ho8  1  0.177939  0.822154  0.714326  1
  Ho  Ho9  1  0.824611  0.649221  0.212705  1
  Ho  Ho10  1  0.350608  0.175218  0.212939  1
  Ho  Ho11  1  0.824609  0.175218  0.212939  1
  Ho  Ho12  1  0.666628  0.333256  0.884114  1
  Ho  Ho13  1  0.333464  0.666930  0.396236  1
  Ho  Ho14  1  0.000033  0.000065  0.491736  1
  Ho  Ho15  1  0.999815  0.999629  0.990534  1
  In  In16  1  0.837595  0.675192  0.751446  1
  In  In17  1  0.325106  0.162157  0.751519  1
  In  In18  1  0.837050  0.162157  0.751519  1
  In  In19  1  0.162921  0.325843  0.252622  1
  In  In20  1  0.674036  0.837099  0.253172  1
  In  In21  1  0.163062  0.837099  0.253172  1
  Co  Co22  1  0.333493  0.666986  0.781417  1
  Pt  Pt23  1  0.666718  0.333435  0.281024  1
