# generated using pymatgen
data_CeDy3(Si3Ir)2
_symmetry_space_group_name_H-M   'P 1'
_cell_length_a   8.18586400
_cell_length_b   8.18586421
_cell_length_c   8.02546800
_cell_angle_alpha   90.00000000
_cell_angle_beta   90.00000000
_cell_angle_gamma   119.99999105
_symmetry_Int_Tables_number   1
_chemical_formula_structural   CeDy3(Si3Ir)2
_chemical_formula_sum   'Ce2 Dy6 Si12 Ir4'
_cell_volume   465.72558789
_cell_formula_units_Z   2
loop_
 _symmetry_equiv_pos_site_id
 _symmetry_equiv_pos_as_xyz
  1  'x, y, z'
loop_
 _atom_site_type_symbol
 _atom_site_label
 _atom_site_symmetry_multiplicity
 _atom_site_fract_x
 _atom_site_fract_y
 _atom_site_fract_z
 _atom_site_occupancy
  Ce  Ce0  1  0.000000  0.000000  0.250000  1
  Ce  Ce1  1  0.000000  0.000000  0.750000  1
  Dy  Dy2  1  0.508964  0.491036  0.250000  1
  Dy  Dy3  1  0.508964  0.017928  0.250000  1
  Dy  Dy4  1  0.982072  0.491036  0.250000  1
  Dy  Dy5  1  0.491036  0.508964  0.750000  1
  Dy  Dy6  1  0.491036  0.982072  0.750000  1
  Dy  Dy7  1  0.017928  0.508964  0.750000  1
  Si  Si8  1  0.167081  0.832919  0.500023  1
  Si  Si9  1  0.167081  0.334162  0.500023  1
  Si  Si10  1  0.665838  0.832919  0.500023  1
  Si  Si11  1  0.832919  0.167081  0.499977  1
  Si  Si12  1  0.832919  0.665838  0.499977  1
  Si  Si13  1  0.334162  0.167081  0.499977  1
  Si  Si14  1  0.832919  0.167081  0.000023  1
  Si  Si15  1  0.832919  0.665838  0.000023  1
  Si  Si16  1  0.334162  0.167081  0.000023  1
  Si  Si17  1  0.167081  0.832919  0.999977  1
  Si  Si18  1  0.167081  0.334162  0.999977  1
  Si  Si19  1  0.665838  0.832919  0.999977  1
  Ir  Ir20  1  0.333333  0.666667  0.468176  1
  Ir  Ir21  1  0.666667  0.333333  0.531824  1
  Ir  Ir22  1  0.666667  0.333333  0.968176  1
  Ir  Ir23  1  0.333333  0.666667  0.031824  1
