# generated using pymatgen
data_Tb4ZnGa23Pt9
_symmetry_space_group_name_H-M   'P 1'
_cell_length_a   7.49528130
_cell_length_b   7.60524009
_cell_length_c   13.37000859
_cell_angle_alpha   84.64135785
_cell_angle_beta   79.24235075
_cell_angle_gamma   60.47870802
_symmetry_Int_Tables_number   1
_chemical_formula_structural   Tb4ZnGa23Pt9
_chemical_formula_sum   'Tb4 Zn1 Ga23 Pt9'
_cell_volume   651.53387865
_cell_formula_units_Z   1
loop_
 _symmetry_equiv_pos_site_id
 _symmetry_equiv_pos_as_xyz
  1  'x, y, z'
loop_
 _atom_site_type_symbol
 _atom_site_label
 _atom_site_symmetry_multiplicity
 _atom_site_fract_x
 _atom_site_fract_y
 _atom_site_fract_z
 _atom_site_occupancy
  Tb  Tb0  1  0.393152  0.169420  0.809383  1
  Tb  Tb1  1  0.605540  0.831666  0.190330  1
  Tb  Tb2  1  0.731713  0.497581  0.810151  1
  Tb  Tb3  1  0.269282  0.501014  0.188644  1
  Zn  Zn4  1  0.686796  0.833990  0.939382  1
  Ga  Ga5  1  0.319672  0.160608  0.059220  1
  Ga  Ga6  1  0.146526  0.831692  0.559528  1
  Ga  Ga7  1  0.853337  0.168485  0.440939  1
  Ga  Ga8  1  0.479102  0.166116  0.556352  1
  Ga  Ga9  1  0.521920  0.833552  0.443547  1
  Ga  Ga10  1  0.219316  0.165249  0.323572  1
  Ga  Ga11  1  0.780596  0.834526  0.676721  1
  Ga  Ga12  1  0.436903  0.504005  0.676743  1
  Ga  Ga13  1  0.562074  0.496890  0.323943  1
  Ga  Ga14  1  0.107128  0.161985  0.674995  1
  Ga  Ga15  1  0.892816  0.837355  0.325835  1
  Ga  Ga16  1  0.360028  0.497985  0.937998  1
  Ga  Ga17  1  0.642470  0.507887  0.059185  1
  Ga  Ga18  1  0.021585  0.168640  0.944946  1
  Ga  Ga19  1  0.976280  0.831026  0.052620  1
  Ga  Ga20  1  0.186660  0.498594  0.443006  1
  Ga  Ga21  1  0.813463  0.502123  0.557273  1
  Ga  Ga22  1  0.735233  0.165273  0.182422  1
  Ga  Ga23  1  0.264120  0.836051  0.817478  1
  Ga  Ga24  1  0.052544  0.634723  0.818733  1
  Ga  Ga25  1  0.941852  0.366870  0.182901  1
  Ga  Ga26  1  0.851887  0.036962  0.818702  1
  Ga  Ga27  1  0.142703  0.959036  0.183144  1
  Pt  Pt28  1  0.119228  0.494133  0.639266  1
  Pt  Pt29  1  0.882164  0.505556  0.360684  1
  Pt  Pt30  1  0.660771  0.175761  0.000603  1
  Pt  Pt31  1  0.335607  0.830091  0.000979  1
  Pt  Pt32  1  0.539685  0.167322  0.360488  1
  Pt  Pt33  1  0.460378  0.832780  0.639014  1
  Pt  Pt34  1  0.780209  0.172938  0.637142  1
  Pt  Pt35  1  0.220027  0.827703  0.363415  1
  Pt  Pt36  1  0.007236  0.494412  0.000716  1
