# generated using pymatgen
data_Ce2HoIn3Fe2
_symmetry_space_group_name_H-M   'P 1'
_cell_length_a   8.22183003
_cell_length_b   8.22182916
_cell_length_c   4.80893000
_cell_angle_alpha   82.97928683
_cell_angle_beta   82.97928757
_cell_angle_gamma   34.06539136
_symmetry_Int_Tables_number   1
_chemical_formula_structural   Ce2HoIn3Fe2
_chemical_formula_sum   'Ce2 Ho1 In3 Fe2'
_cell_volume   180.59390293
_cell_formula_units_Z   1
loop_
 _symmetry_equiv_pos_site_id
 _symmetry_equiv_pos_as_xyz
  1  'x, y, z'
loop_
 _atom_site_type_symbol
 _atom_site_label
 _atom_site_symmetry_multiplicity
 _atom_site_fract_x
 _atom_site_fract_y
 _atom_site_fract_z
 _atom_site_occupancy
  Ce  Ce0  1  0.826693  0.826693  0.559929  1
  Ce  Ce1  1  0.173307  0.173307  0.440071  1
  Ho  Ho2  1  0.000000  0.000000  0.000000  1
  In  In3  1  0.363885  0.363885  0.028682  1
  In  In4  1  0.500000  0.500000  0.500000  1
  In  In5  1  0.636115  0.636115  0.971318  1
  Fe  Fe6  1  0.797381  0.797381  0.143746  1
  Fe  Fe7  1  0.202619  0.202619  0.856254  1
