# generated using pymatgen
data_Zr6Zn19Ni4C
_symmetry_space_group_name_H-M   'P 1'
_cell_length_a   8.60296585
_cell_length_b   8.60127174
_cell_length_c   8.60348861
_cell_angle_alpha   59.64405286
_cell_angle_beta   59.60576952
_cell_angle_gamma   59.65328830
_symmetry_Int_Tables_number   1
_chemical_formula_structural   Zr6Zn19Ni4C
_chemical_formula_sum   'Zr6 Zn19 Ni4 C1'
_cell_volume   446.42328476
_cell_formula_units_Z   1
loop_
 _symmetry_equiv_pos_site_id
 _symmetry_equiv_pos_as_xyz
  1  'x, y, z'
loop_
 _atom_site_type_symbol
 _atom_site_label
 _atom_site_symmetry_multiplicity
 _atom_site_fract_x
 _atom_site_fract_y
 _atom_site_fract_z
 _atom_site_occupancy
  Zr  Zr0  1  0.688546  0.308510  0.308468  1
  Zr  Zr1  1  0.311454  0.691490  0.691532  1
  Zr  Zr2  1  0.308495  0.688536  0.308491  1
  Zr  Zr3  1  0.691505  0.311464  0.691509  1
  Zr  Zr4  1  0.308461  0.308500  0.688557  1
  Zr  Zr5  1  0.691539  0.691500  0.311443  1
  Zn  Zn6  1  0.116708  0.116686  0.116714  1
  Zn  Zn7  1  0.883292  0.883314  0.883286  1
  Zn  Zn8  1  0.122369  0.122394  0.645338  1
  Zn  Zn9  1  0.122408  0.645331  0.122405  1
  Zn  Zn10  1  0.877631  0.877606  0.354662  1
  Zn  Zn11  1  0.877592  0.354669  0.877595  1
  Zn  Zn12  1  0.645338  0.122399  0.122371  1
  Zn  Zn13  1  0.354662  0.877601  0.877629  1
  Zn  Zn14  1  0.500000  0.000000  0.000000  1
  Zn  Zn15  1  0.000000  0.500000  0.000000  1
  Zn  Zn16  1  0.000000  0.000000  0.500000  1
  Zn  Zn17  1  0.331536  0.331608  0.331528  1
  Zn  Zn18  1  0.668464  0.668392  0.668472  1
  Zn  Zn19  1  0.335678  0.335690  0.004296  1
  Zn  Zn20  1  0.335665  0.004296  0.335659  1
  Zn  Zn21  1  0.664322  0.664310  0.995704  1
  Zn  Zn22  1  0.664335  0.995704  0.664341  1
  Zn  Zn23  1  0.004295  0.335692  0.335674  1
  Zn  Zn24  1  0.995705  0.664308  0.664326  1
  Ni  Ni25  1  0.000000  0.500000  0.500000  1
  Ni  Ni26  1  0.500000  0.000000  0.500000  1
  Ni  Ni27  1  0.500000  0.500000  0.000000  1
  Ni  Ni28  1  0.000000  0.000000  0.000000  1
  C  C29  1  0.500000  0.500000  0.500000  1
