# generated using pymatgen
data_Y2Zr2Al17SiRh6
_symmetry_space_group_name_H-M   'P 1'
_cell_length_a   7.50840741
_cell_length_b   7.48602694
_cell_length_c   9.31951900
_cell_angle_alpha   90.00000000
_cell_angle_beta   90.00000000
_cell_angle_gamma   119.64335985
_symmetry_Int_Tables_number   1
_chemical_formula_structural   Y2Zr2Al17SiRh6
_chemical_formula_sum   'Y2 Zr2 Al17 Si1 Rh6'
_cell_volume   455.27404999
_cell_formula_units_Z   1
loop_
 _symmetry_equiv_pos_site_id
 _symmetry_equiv_pos_as_xyz
  1  'x, y, z'
loop_
 _atom_site_type_symbol
 _atom_site_label
 _atom_site_symmetry_multiplicity
 _atom_site_fract_x
 _atom_site_fract_y
 _atom_site_fract_z
 _atom_site_occupancy
  Y  Y0  1  0.676397  0.991677  0.250000  1
  Y  Y1  1  0.330367  0.005206  0.750000  1
  Zr  Zr2  1  0.992220  0.676804  0.250000  1
  Zr  Zr3  1  0.005164  0.329580  0.750000  1
  Al  Al4  1  0.876450  0.877884  0.750000  1
  Al  Al5  1  0.998985  0.338796  0.073351  1
  Al  Al6  1  0.000397  0.663358  0.926715  1
  Al  Al7  1  0.000397  0.663358  0.573285  1
  Al  Al8  1  0.334269  0.998848  0.420773  1
  Al  Al9  1  0.998985  0.338796  0.426649  1
  Al  Al10  1  0.668587  0.001740  0.577138  1
  Al  Al11  1  0.668587  0.001740  0.922862  1
  Al  Al12  1  0.334269  0.998848  0.079227  1
  Al  Al13  1  0.329611  0.332469  0.559061  1
  Al  Al14  1  0.665358  0.662877  0.446731  1
  Al  Al15  1  0.665358  0.662877  0.053269  1
  Al  Al16  1  0.329611  0.332469  0.940939  1
  Al  Al17  1  0.328360  0.547878  0.250000  1
  Al  Al18  1  0.668312  0.453116  0.750000  1
  Al  Al19  1  0.556012  0.340828  0.250000  1
  Al  Al20  1  0.446293  0.657352  0.750000  1
  Si  Si21  1  0.129529  0.128507  0.250000  1
  Rh  Rh22  1  0.670258  0.325697  0.000319  1
  Rh  Rh23  1  0.326743  0.671120  0.001045  1
  Rh  Rh24  1  0.326743  0.671120  0.498955  1
  Rh  Rh25  1  0.670258  0.325697  0.499681  1
  Rh  Rh26  1  0.001239  0.000679  0.007208  1
  Rh  Rh27  1  0.001239  0.000679  0.492792  1
