# generated using pymatgen
data_SmNi2P2Pd
_symmetry_space_group_name_H-M   'P 1'
_cell_length_a   7.92111500
_cell_length_b   7.92111533
_cell_length_c   9.62494058
_cell_angle_alpha   74.24619758
_cell_angle_beta   74.24619635
_cell_angle_gamma   27.50233700
_symmetry_Int_Tables_number   1
_chemical_formula_structural   SmNi2P2Pd
_chemical_formula_sum   'Sm3 Ni6 P6 Pd3'
_cell_volume   267.75979380
_cell_formula_units_Z   3
loop_
 _symmetry_equiv_pos_site_id
 _symmetry_equiv_pos_as_xyz
  1  'x, y, z'
loop_
 _atom_site_type_symbol
 _atom_site_label
 _atom_site_symmetry_multiplicity
 _atom_site_fract_x
 _atom_site_fract_y
 _atom_site_fract_z
 _atom_site_occupancy
  Sm  Sm0  1  0.848781  0.848781  0.691940  1
  Sm  Sm1  1  0.151219  0.151219  0.308060  1
  Sm  Sm2  1  0.000000  0.000000  0.000000  1
  Ni  Ni3  1  0.949665  0.949665  0.329500  1
  Ni  Ni4  1  0.050335  0.050335  0.670500  1
  Ni  Ni5  1  0.780705  0.780705  0.397492  1
  Ni  Ni6  1  0.219295  0.219295  0.602508  1
  Ni  Ni7  1  0.368144  0.368144  0.213825  1
  Ni  Ni8  1  0.631856  0.631856  0.786175  1
  P  P9  1  0.800985  0.800985  0.150884  1
  P  P10  1  0.199015  0.199015  0.849116  1
  P  P11  1  0.524133  0.524133  0.220907  1
  P  P12  1  0.475867  0.475867  0.779093  1
  P  P13  1  0.644313  0.644313  0.551427  1
  P  P14  1  0.355687  0.355687  0.448573  1
  Pd  Pd15  1  0.500000  0.500000  0.500000  1
  Pd  Pd16  1  0.672736  0.672736  0.037772  1
  Pd  Pd17  1  0.327264  0.327264  0.962228  1
