# generated using pymatgen
data_K4Sb7PbAu8
_symmetry_space_group_name_H-M   'P 1'
_cell_length_a   4.84308800
_cell_length_b   9.02282404
_cell_length_c   12.37593800
_cell_angle_alpha   90.00567063
_cell_angle_beta   90.00000000
_cell_angle_gamma   90.00000000
_symmetry_Int_Tables_number   1
_chemical_formula_structural   K4Sb7PbAu8
_chemical_formula_sum   'K4 Sb7 Pb1 Au8'
_cell_volume   540.80783071
_cell_formula_units_Z   1
loop_
 _symmetry_equiv_pos_site_id
 _symmetry_equiv_pos_as_xyz
  1  'x, y, z'
loop_
 _atom_site_type_symbol
 _atom_site_label
 _atom_site_symmetry_multiplicity
 _atom_site_fract_x
 _atom_site_fract_y
 _atom_site_fract_z
 _atom_site_occupancy
  K  K0  1  0.750000  0.742777  0.336103  1
  K  K1  1  0.250000  0.757996  0.835962  1
  K  K2  1  0.250000  0.258820  0.661691  1
  K  K3  1  0.750000  0.239130  0.166747  1
  Sb  Sb4  1  0.250000  0.397881  0.345460  1
  Sb  Sb5  1  0.250000  0.899035  0.158533  1
  Sb  Sb6  1  0.750000  0.607219  0.046418  1
  Sb  Sb7  1  0.750000  0.607950  0.650090  1
  Sb  Sb8  1  0.750000  0.103289  0.848105  1
  Sb  Sb9  1  0.250000  0.891927  0.548688  1
  Sb  Sb10  1  0.750000  0.110068  0.455429  1
  Pb  Pb11  1  0.250000  0.387092  0.953328  1
  Au  Au12  1  0.250000  0.071008  0.968020  1
  Au  Au13  1  0.750000  0.436531  0.831632  1
  Au  Au14  1  0.750000  0.935265  0.659079  1
  Au  Au15  1  0.250000  0.569728  0.160240  1
  Au  Au16  1  0.250000  0.067639  0.345029  1
  Au  Au17  1  0.750000  0.913043  0.035035  1
  Au  Au18  1  0.250000  0.584823  0.530109  1
  Au  Au19  1  0.750000  0.418780  0.464301  1
