# generated using pymatgen
data_TiMn3Al2(B2Rh5)2
_symmetry_space_group_name_H-M   'P 1'
_cell_length_a   9.30233289
_cell_length_b   9.30233289
_cell_length_c   2.94671200
_cell_angle_alpha   90.00000000
_cell_angle_beta   90.00000000
_cell_angle_gamma   89.64800826
_symmetry_Int_Tables_number   1
_chemical_formula_structural   TiMn3Al2(B2Rh5)2
_chemical_formula_sum   'Ti1 Mn3 Al2 B4 Rh10'
_cell_volume   254.98418785
_cell_formula_units_Z   1
loop_
 _symmetry_equiv_pos_site_id
 _symmetry_equiv_pos_as_xyz
  1  'x, y, z'
loop_
 _atom_site_type_symbol
 _atom_site_label
 _atom_site_symmetry_multiplicity
 _atom_site_fract_x
 _atom_site_fract_y
 _atom_site_fract_z
 _atom_site_occupancy
  Ti  Ti0  1  0.824861  0.324861  0.000000  1
  Mn  Mn1  1  0.322155  0.176336  0.000000  1
  Mn  Mn2  1  0.676336  0.822155  0.000000  1
  Mn  Mn3  1  0.178365  0.678365  0.000000  1
  Al  Al4  1  0.000208  0.998861  0.000000  1
  Al  Al5  1  0.498861  0.500208  0.000000  1
  B  B6  1  0.624126  0.124126  0.000000  1
  B  B7  1  0.127959  0.372262  0.000000  1
  B  B8  1  0.872262  0.627959  0.000000  1
  B  B9  1  0.372532  0.872532  0.000000  1
  Rh  Rh10  1  0.066176  0.215068  0.500000  1
  Rh  Rh11  1  0.214224  0.930932  0.500000  1
  Rh  Rh12  1  0.786632  0.074407  0.500000  1
  Rh  Rh13  1  0.928459  0.785847  0.500000  1
  Rh  Rh14  1  0.430932  0.714224  0.500000  1
  Rh  Rh15  1  0.574407  0.286632  0.500000  1
  Rh  Rh16  1  0.715068  0.566176  0.500000  1
  Rh  Rh17  1  0.285847  0.428459  0.500000  1
  Rh  Rh18  1  0.500458  0.000458  0.500000  1
  Rh  Rh19  1  0.000133  0.500133  0.500000  1
