# generated using pymatgen
data_PrDyRh2O7
_symmetry_space_group_name_H-M   'P 1'
_cell_length_a   7.35315416
_cell_length_b   7.32168504
_cell_length_c   7.32168550
_cell_angle_alpha   59.69904364
_cell_angle_beta   59.85771013
_cell_angle_gamma   59.85771715
_symmetry_Int_Tables_number   1
_chemical_formula_structural   PrDyRh2O7
_chemical_formula_sum   'Pr2 Dy2 Rh4 O14'
_cell_volume   277.49177935
_cell_formula_units_Z   2
loop_
 _symmetry_equiv_pos_site_id
 _symmetry_equiv_pos_as_xyz
  1  'x, y, z'
loop_
 _atom_site_type_symbol
 _atom_site_label
 _atom_site_symmetry_multiplicity
 _atom_site_fract_x
 _atom_site_fract_y
 _atom_site_fract_z
 _atom_site_occupancy
  Pr  Pr0  1  0.125000  0.125000  0.125000  1
  Pr  Pr1  1  0.625000  0.125000  0.125000  1
  Dy  Dy2  1  0.125000  0.625000  0.125000  1
  Dy  Dy3  1  0.125000  0.125000  0.625000  1
  Rh  Rh4  1  0.625000  0.625000  0.625000  1
  Rh  Rh5  1  0.625000  0.625000  0.125000  1
  Rh  Rh6  1  0.125000  0.625000  0.625000  1
  Rh  Rh7  1  0.625000  0.125000  0.625000  1
  O  O8  1  0.241700  0.258300  0.258300  1
  O  O9  1  0.290593  0.700678  0.291412  1
  O  O10  1  0.959407  0.958588  0.549322  1
  O  O11  1  0.532683  0.958588  0.549322  1
  O  O12  1  0.717317  0.700678  0.291412  1
  O  O13  1  0.957730  0.542270  0.542270  1
  O  O14  1  0.717317  0.291412  0.700678  1
  O  O15  1  0.290593  0.291412  0.700678  1
  O  O16  1  0.708415  0.291585  0.291585  1
  O  O17  1  0.292270  0.707730  0.707730  1
  O  O18  1  0.959407  0.549322  0.958588  1
  O  O19  1  0.532683  0.549322  0.958588  1
  O  O20  1  0.008300  0.991700  0.991700  1
  O  O21  1  0.541585  0.958415  0.958415  1
