# generated using pymatgen
data_Mg3Tc2Ni9P7
_symmetry_space_group_name_H-M   'P 1'
_cell_length_a   3.61998100
_cell_length_b   9.30501636
_cell_length_c   9.14654384
_cell_angle_alpha   120.72481209
_cell_angle_beta   90.00000000
_cell_angle_gamma   90.00000000
_symmetry_Int_Tables_number   1
_chemical_formula_structural   Mg3Tc2Ni9P7
_chemical_formula_sum   'Mg3 Tc2 Ni9 P7'
_cell_volume   264.84548332
_cell_formula_units_Z   1
loop_
 _symmetry_equiv_pos_site_id
 _symmetry_equiv_pos_as_xyz
  1  'x, y, z'
loop_
 _atom_site_type_symbol
 _atom_site_label
 _atom_site_symmetry_multiplicity
 _atom_site_fract_x
 _atom_site_fract_y
 _atom_site_fract_z
 _atom_site_occupancy
  Mg  Mg0  1  0.500000  0.105959  0.877571  1
  Mg  Mg1  1  0.000000  0.657128  0.327380  1
  Mg  Mg2  1  0.500000  0.337371  0.668570  1
  Tc  Tc3  1  0.500000  0.788617  0.908162  1
  Tc  Tc4  1  0.500000  0.119300  0.222672  1
  Ni  Ni5  1  0.000000  0.567473  0.933126  1
  Ni  Ni6  1  0.000000  0.370790  0.443160  1
  Ni  Ni7  1  0.000000  0.067346  0.627100  1
  Ni  Ni8  1  0.500000  0.939998  0.383196  1
  Ni  Ni9  1  0.500000  0.444685  0.062043  1
  Ni  Ni10  1  0.500000  0.612958  0.554032  1
  Ni  Ni11  1  0.000000  0.872625  0.164318  1
  Ni  Ni12  1  0.000000  0.276867  0.119938  1
  Ni  Ni13  1  0.000000  0.846450  0.716098  1
  P  P14  1  0.500000  0.706809  0.117924  1
  P  P15  1  0.500000  0.404866  0.289634  1
  P  P16  1  0.500000  0.865988  0.573309  1
  P  P17  1  0.000000  0.994539  0.006460  1
  P  P18  1  0.000000  0.591658  0.706012  1
  P  P19  1  0.000000  0.118008  0.415565  1
  P  P20  1  0.000000  0.310565  0.883733  1
