# generated using pymatgen
data_Ho3Er5Si8Pd3Pt5
_symmetry_space_group_name_H-M   'P 1'
_cell_length_a   4.26272100
_cell_length_b   7.49174682
_cell_length_c   13.95917003
_cell_angle_alpha   89.97731017
_cell_angle_beta   90.00000000
_cell_angle_gamma   90.00000000
_symmetry_Int_Tables_number   1
_chemical_formula_structural   Ho3Er5Si8Pd3Pt5
_chemical_formula_sum   'Ho3 Er5 Si8 Pd3 Pt5'
_cell_volume   445.78922155
_cell_formula_units_Z   1
loop_
 _symmetry_equiv_pos_site_id
 _symmetry_equiv_pos_as_xyz
  1  'x, y, z'
loop_
 _atom_site_type_symbol
 _atom_site_label
 _atom_site_symmetry_multiplicity
 _atom_site_fract_x
 _atom_site_fract_y
 _atom_site_fract_z
 _atom_site_occupancy
  Ho  Ho0  1  0.000000  0.299780  0.000235  1
  Ho  Ho1  1  0.500000  0.700244  0.500141  1
  Ho  Ho2  1  0.500000  0.706773  0.999891  1
  Er  Er3  1  0.000000  0.292588  0.499692  1
  Er  Er4  1  0.000000  0.203425  0.250077  1
  Er  Er5  1  0.500000  0.795580  0.249757  1
  Er  Er6  1  0.000000  0.204002  0.749695  1
  Er  Er7  1  0.500000  0.796006  0.750619  1
  Si  Si8  1  0.000000  0.907118  0.592317  1
  Si  Si9  1  0.500000  0.093187  0.907832  1
  Si  Si10  1  0.000000  0.907295  0.407947  1
  Si  Si11  1  0.500000  0.094692  0.093104  1
  Si  Si12  1  0.000000  0.593499  0.144321  1
  Si  Si13  1  0.500000  0.403839  0.353880  1
  Si  Si14  1  0.000000  0.595696  0.857278  1
  Si  Si15  1  0.500000  0.404065  0.643086  1
  Pd  Pd16  1  0.000000  0.580287  0.343909  1
  Pd  Pd17  1  0.500000  0.421264  0.840509  1
  Pd  Pd18  1  0.000000  0.578820  0.658051  1
  Pt  Pt19  1  0.500000  0.074931  0.609185  1
  Pt  Pt20  1  0.000000  0.925443  0.890799  1
  Pt  Pt21  1  0.500000  0.074896  0.391314  1
  Pt  Pt22  1  0.000000  0.924163  0.109333  1
  Pt  Pt23  1  0.500000  0.422406  0.157029  1
