# generated using pymatgen
data_Dy2HoGa6(CuNi2)3
_symmetry_space_group_name_H-M   'P 1'
_cell_length_a   4.11312900
_cell_length_b   8.79011981
_cell_length_c   8.79011843
_cell_angle_alpha   59.99307962
_cell_angle_beta   90.00000000
_cell_angle_gamma   90.00000000
_symmetry_Int_Tables_number   1
_chemical_formula_structural   Dy2HoGa6(CuNi2)3
_chemical_formula_sum   'Dy2 Ho1 Ga6 Cu3 Ni6'
_cell_volume   275.20872214
_cell_formula_units_Z   1
loop_
 _symmetry_equiv_pos_site_id
 _symmetry_equiv_pos_as_xyz
  1  'x, y, z'
loop_
 _atom_site_type_symbol
 _atom_site_label
 _atom_site_symmetry_multiplicity
 _atom_site_fract_x
 _atom_site_fract_y
 _atom_site_fract_z
 _atom_site_occupancy
  Dy  Dy0  1  0.500000  0.333347  0.333201  1
  Dy  Dy1  1  0.500000  0.666799  0.666653  1
  Ho  Ho2  1  0.000000  0.999908  0.000092  1
  Ga  Ga3  1  0.000000  0.516606  0.483394  1
  Ga  Ga4  1  0.000000  0.483403  0.999875  1
  Ga  Ga5  1  0.000000  0.000125  0.516597  1
  Ga  Ga6  1  0.500000  0.279418  0.720582  1
  Ga  Ga7  1  0.500000  0.720727  0.999985  1
  Ga  Ga8  1  0.500000  0.000015  0.279273  1
  Cu  Cu9  1  0.500000  0.706577  0.293423  1
  Cu  Cu10  1  0.500000  0.293410  0.999695  1
  Cu  Cu11  1  0.500000  0.000305  0.706590  1
  Ni  Ni12  1  0.000000  0.174071  0.198049  1
  Ni  Ni13  1  0.000000  0.197767  0.628053  1
  Ni  Ni14  1  0.000000  0.627607  0.174082  1
  Ni  Ni15  1  0.000000  0.801951  0.825929  1
  Ni  Ni16  1  0.000000  0.371947  0.802233  1
  Ni  Ni17  1  0.000000  0.825918  0.372393  1
