# generated using pymatgen
data_CaTbHo6(B6Os)4
_symmetry_space_group_name_H-M   'P 1'
_cell_length_a   3.64964200
_cell_length_b   9.14587427
_cell_length_c   11.53594002
_cell_angle_alpha   89.89882917
_cell_angle_beta   90.00000000
_cell_angle_gamma   90.00000000
_symmetry_Int_Tables_number   1
_chemical_formula_structural   CaTbHo6(B6Os)4
_chemical_formula_sum   'Ca1 Tb1 Ho6 B24 Os4'
_cell_volume   385.05946671
_cell_formula_units_Z   1
loop_
 _symmetry_equiv_pos_site_id
 _symmetry_equiv_pos_as_xyz
  1  'x, y, z'
loop_
 _atom_site_type_symbol
 _atom_site_label
 _atom_site_symmetry_multiplicity
 _atom_site_fract_x
 _atom_site_fract_y
 _atom_site_fract_z
 _atom_site_occupancy
  Ca  Ca0  1  0.000000  0.321900  0.413401  1
  Tb  Tb1  1  0.000000  0.676518  0.585402  1
  Ho  Ho2  1  0.000000  0.822057  0.086516  1
  Ho  Ho3  1  0.000000  0.178575  0.914522  1
  Ho  Ho4  1  0.000000  0.944059  0.371424  1
  Ho  Ho5  1  0.000000  0.057829  0.627792  1
  Ho  Ho6  1  0.000000  0.442952  0.128511  1
  Ho  Ho7  1  0.000000  0.556233  0.873016  1
  B  B8  1  0.500000  0.554151  0.432127  1
  B  B9  1  0.500000  0.446094  0.567990  1
  B  B10  1  0.500000  0.053063  0.066308  1
  B  B11  1  0.500000  0.946162  0.932895  1
  B  B12  1  0.500000  0.748461  0.418520  1
  B  B13  1  0.500000  0.252044  0.581690  1
  B  B14  1  0.500000  0.247312  0.080240  1
  B  B15  1  0.500000  0.752055  0.919864  1
  B  B16  1  0.500000  0.791402  0.265621  1
  B  B17  1  0.500000  0.209625  0.734605  1
  B  B18  1  0.500000  0.289591  0.232748  1
  B  B19  1  0.500000  0.709810  0.767101  1
  B  B20  1  0.500000  0.631850  0.185541  1
  B  B21  1  0.500000  0.368503  0.815468  1
  B  B22  1  0.500000  0.130577  0.313248  1
  B  B23  1  0.500000  0.869170  0.685840  1
  B  B24  1  0.500000  0.982717  0.211601  1
  B  B25  1  0.500000  0.017240  0.787530  1
  B  B26  1  0.500000  0.483770  0.286940  1
  B  B27  1  0.500000  0.516395  0.713473  1
  B  B28  1  0.500000  0.607915  0.030086  1
  B  B29  1  0.500000  0.392270  0.970551  1
  B  B30  1  0.500000  0.103285  0.471232  1
  B  B31  1  0.500000  0.895769  0.528905  1
  Os  Os32  1  0.000000  0.639683  0.319992  1
  Os  Os33  1  0.000000  0.362046  0.680842  1
  Os  Os34  1  0.000000  0.135890  0.176746  1
  Os  Os35  1  0.000000  0.863028  0.821716  1
