# generated using pymatgen
data_LaYLuTaO7
_symmetry_space_group_name_H-M   'P 1'
_cell_length_a   6.48988418
_cell_length_b   6.48988286
_cell_length_c   7.60316000
_cell_angle_alpha   90.00000000
_cell_angle_beta   90.00000000
_cell_angle_gamma   109.00253429
_symmetry_Int_Tables_number   1
_chemical_formula_structural   LaYLuTaO7
_chemical_formula_sum   'La2 Y2 Lu2 Ta2 O14'
_cell_volume   302.78292809
_cell_formula_units_Z   2
loop_
 _symmetry_equiv_pos_site_id
 _symmetry_equiv_pos_as_xyz
  1  'x, y, z'
loop_
 _atom_site_type_symbol
 _atom_site_label
 _atom_site_symmetry_multiplicity
 _atom_site_fract_x
 _atom_site_fract_y
 _atom_site_fract_z
 _atom_site_occupancy
  La  La0  1  0.504048  0.504048  0.500000  1
  La  La1  1  0.504048  0.504048  0.000000  1
  Y  Y2  1  0.467709  0.999493  0.250000  1
  Y  Y3  1  0.999493  0.467709  0.750000  1
  Lu  Lu4  1  0.529669  0.002270  0.750000  1
  Lu  Lu5  1  0.002270  0.529669  0.250000  1
  Ta  Ta6  1  0.000101  0.000101  0.500000  1
  Ta  Ta7  1  0.000101  0.000101  0.000000  1
  O  O8  1  0.677856  0.932161  0.472374  1
  O  O9  1  0.932161  0.677856  0.527626  1
  O  O10  1  0.677856  0.932161  0.027626  1
  O  O11  1  0.932161  0.677856  0.972374  1
  O  O12  1  0.317925  0.064606  0.538987  1
  O  O13  1  0.064606  0.317925  0.461013  1
  O  O14  1  0.317925  0.064606  0.961013  1
  O  O15  1  0.064606  0.317925  0.038987  1
  O  O16  1  0.936973  0.065239  0.750000  1
  O  O17  1  0.065239  0.936973  0.250000  1
  O  O18  1  0.365467  0.644942  0.750000  1
  O  O19  1  0.644942  0.365467  0.250000  1
  O  O20  1  0.643603  0.351242  0.750000  1
  O  O21  1  0.351242  0.643603  0.250000  1
