# generated using pymatgen
data_KSm6RhBr12
_symmetry_space_group_name_H-M   'P 1'
_cell_length_a   9.50130095
_cell_length_b   9.34338863
_cell_length_c   9.38791900
_cell_angle_alpha   104.54686575
_cell_angle_beta   104.64393149
_cell_angle_gamma   104.47744602
_symmetry_Int_Tables_number   1
_chemical_formula_structural   KSm6RhBr12
_chemical_formula_sum   'K1 Sm6 Rh1 Br12'
_cell_volume   735.45473006
_cell_formula_units_Z   1
loop_
 _symmetry_equiv_pos_site_id
 _symmetry_equiv_pos_as_xyz
  1  'x, y, z'
loop_
 _atom_site_type_symbol
 _atom_site_label
 _atom_site_symmetry_multiplicity
 _atom_site_fract_x
 _atom_site_fract_y
 _atom_site_fract_z
 _atom_site_occupancy
  K  K0  1  0.500000  0.500000  0.500000  1
  Sm  Sm1  1  0.100520  0.305036  0.011226  1
  Sm  Sm2  1  0.314214  0.010363  0.104624  1
  Sm  Sm3  1  0.009954  0.100716  0.303423  1
  Sm  Sm4  1  0.990047  0.899284  0.696578  1
  Sm  Sm5  1  0.685786  0.989638  0.895376  1
  Sm  Sm6  1  0.899480  0.694964  0.988774  1
  Rh  Rh7  1  0.000000  0.000000  0.000000  1
  Br  Br8  1  0.214710  0.671110  0.074837  1
  Br  Br9  1  0.426510  0.336938  0.115816  1
  Br  Br10  1  0.673345  0.076855  0.216390  1
  Br  Br11  1  0.924746  0.783219  0.327086  1
  Br  Br12  1  0.117674  0.430016  0.337583  1
  Br  Br13  1  0.334299  0.115595  0.428487  1
  Br  Br14  1  0.665701  0.884405  0.571514  1
  Br  Br15  1  0.882327  0.569984  0.662417  1
  Br  Br16  1  0.075255  0.216781  0.672915  1
  Br  Br17  1  0.326656  0.923146  0.783610  1
  Br  Br18  1  0.573490  0.663062  0.884185  1
  Br  Br19  1  0.785290  0.328890  0.925163  1
