# generated using pymatgen
data_Nd8Nb11Si16W
_symmetry_space_group_name_H-M   'P 1'
_cell_length_a   7.15335595
_cell_length_b   7.15365782
_cell_length_c   13.28082247
_cell_angle_alpha   89.93175775
_cell_angle_beta   89.89794235
_cell_angle_gamma   90.02858341
_symmetry_Int_Tables_number   1
_chemical_formula_structural   Nd8Nb11Si16W
_chemical_formula_sum   'Nd8 Nb11 Si16 W1'
_cell_volume   679.61337726
_cell_formula_units_Z   1
loop_
 _symmetry_equiv_pos_site_id
 _symmetry_equiv_pos_as_xyz
  1  'x, y, z'
loop_
 _atom_site_type_symbol
 _atom_site_label
 _atom_site_symmetry_multiplicity
 _atom_site_fract_x
 _atom_site_fract_y
 _atom_site_fract_z
 _atom_site_occupancy
  Nd  Nd0  1  0.996537  0.338117  0.219326  1
  Nd  Nd1  1  0.004299  0.662502  0.716939  1
  Nd  Nd2  1  0.161610  0.496223  0.467569  1
  Nd  Nd3  1  0.502809  0.838504  0.032959  1
  Nd  Nd4  1  0.837515  0.504186  0.968064  1
  Nd  Nd5  1  0.496572  0.161340  0.531033  1
  Nd  Nd6  1  0.337824  0.996638  0.781656  1
  Nd  Nd7  1  0.662628  0.003457  0.282259  1
  Nb  Nb8  1  0.170037  0.170126  0.000833  1
  Nb  Nb9  1  0.831373  0.830948  0.499374  1
  Nb  Nb10  1  0.329026  0.670363  0.250931  1
  Nb  Nb11  1  0.670302  0.329817  0.750188  1
  Nb  Nb12  1  0.842855  0.010234  0.874943  1
  Nb  Nb13  1  0.508476  0.658302  0.624133  1
  Nb  Nb14  1  0.343021  0.490037  0.874354  1
  Nb  Nb15  1  0.488085  0.341079  0.126098  1
  Nb  Nb16  1  0.657220  0.510180  0.374782  1
  Nb  Nb17  1  0.990877  0.157711  0.624461  1
  Nb  Nb18  1  0.008841  0.844256  0.124584  1
  Si  Si19  1  0.289528  0.041570  0.189317  1
  Si  Si20  1  0.709712  0.956679  0.686180  1
  Si  Si21  1  0.454020  0.791252  0.435742  1
  Si  Si22  1  0.209038  0.543676  0.063802  1
  Si  Si23  1  0.542921  0.208820  0.936927  1
  Si  Si24  1  0.790180  0.456466  0.563205  1
  Si  Si25  1  0.043337  0.291467  0.813500  1
  Si  Si26  1  0.959595  0.712884  0.313722  1
  Si  Si27  1  0.371717  0.293478  0.315882  1
  Si  Si28  1  0.627829  0.702871  0.813511  1
  Si  Si29  1  0.201918  0.873779  0.561766  1
  Si  Si30  1  0.128005  0.797605  0.936140  1
  Si  Si31  1  0.797393  0.128355  0.064512  1
  Si  Si32  1  0.876242  0.198987  0.434752  1
  Si  Si33  1  0.298334  0.372021  0.685198  1
  Si  Si34  1  0.702659  0.627118  0.186281  1
  W  W35  1  0.157667  0.988959  0.375078  1
