# generated using pymatgen
data_ErTm4Bi2Sb
_symmetry_space_group_name_H-M   'P 1'
_cell_length_a   8.09574400
_cell_length_b   9.38472200
_cell_length_c   11.82717400
_cell_angle_alpha   90.00000000
_cell_angle_beta   90.00000000
_cell_angle_gamma   90.00000000
_symmetry_Int_Tables_number   1
_chemical_formula_structural   ErTm4Bi2Sb
_chemical_formula_sum   'Er4 Tm16 Bi8 Sb4'
_cell_volume   898.58500067
_cell_formula_units_Z   4
loop_
 _symmetry_equiv_pos_site_id
 _symmetry_equiv_pos_as_xyz
  1  'x, y, z'
loop_
 _atom_site_type_symbol
 _atom_site_label
 _atom_site_symmetry_multiplicity
 _atom_site_fract_x
 _atom_site_fract_y
 _atom_site_fract_z
 _atom_site_occupancy
  Er  Er0  1  0.315162  0.250000  0.217304  1
  Er  Er1  1  0.815162  0.250000  0.282696  1
  Er  Er2  1  0.684838  0.750000  0.782696  1
  Er  Er3  1  0.184838  0.750000  0.717304  1
  Tm  Tm4  1  0.352945  0.750000  0.214810  1
  Tm  Tm5  1  0.852945  0.750000  0.285190  1
  Tm  Tm6  1  0.647055  0.250000  0.785190  1
  Tm  Tm7  1  0.147055  0.250000  0.714810  1
  Tm  Tm8  1  0.688669  0.564387  0.057912  1
  Tm  Tm9  1  0.188669  0.935613  0.442088  1
  Tm  Tm10  1  0.311331  0.064387  0.942088  1
  Tm  Tm11  1  0.811331  0.435613  0.557912  1
  Tm  Tm12  1  0.311331  0.435613  0.942088  1
  Tm  Tm13  1  0.811331  0.064387  0.557912  1
  Tm  Tm14  1  0.688669  0.935613  0.057912  1
  Tm  Tm15  1  0.188669  0.564387  0.442088  1
  Tm  Tm16  1  0.474277  0.250000  0.488719  1
  Tm  Tm17  1  0.974277  0.250000  0.011281  1
  Tm  Tm18  1  0.525723  0.750000  0.511281  1
  Tm  Tm19  1  0.025723  0.750000  0.988719  1
  Bi  Bi20  1  0.565420  0.995735  0.325331  1
  Bi  Bi21  1  0.065420  0.504265  0.174669  1
  Bi  Bi22  1  0.434580  0.495735  0.674669  1
  Bi  Bi23  1  0.934580  0.004265  0.825331  1
  Bi  Bi24  1  0.434580  0.004265  0.674669  1
  Bi  Bi25  1  0.934580  0.495735  0.825331  1
  Bi  Bi26  1  0.565420  0.504265  0.325331  1
  Bi  Bi27  1  0.065420  0.995735  0.174669  1
  Sb  Sb28  1  0.404176  0.750000  0.958205  1
  Sb  Sb29  1  0.904176  0.750000  0.541795  1
  Sb  Sb30  1  0.595824  0.250000  0.041795  1
  Sb  Sb31  1  0.095824  0.250000  0.458205  1
