# generated using pymatgen
data_Ho5TmAl17Si7Os8
_symmetry_space_group_name_H-M   'P 1'
_cell_length_a   8.68914305
_cell_length_b   8.67951128
_cell_length_c   9.46815100
_cell_angle_alpha   90.00000000
_cell_angle_beta   90.00000000
_cell_angle_gamma   120.07818681
_symmetry_Int_Tables_number   1
_chemical_formula_structural   Ho5TmAl17Si7Os8
_chemical_formula_sum   'Ho5 Tm1 Al17 Si7 Os8'
_cell_volume   617.91014082
_cell_formula_units_Z   1
loop_
 _symmetry_equiv_pos_site_id
 _symmetry_equiv_pos_as_xyz
  1  'x, y, z'
loop_
 _atom_site_type_symbol
 _atom_site_label
 _atom_site_symmetry_multiplicity
 _atom_site_fract_x
 _atom_site_fract_y
 _atom_site_fract_z
 _atom_site_occupancy
  Ho  Ho0  1  0.193089  0.388931  0.250000  1
  Ho  Ho1  1  0.806646  0.613497  0.750000  1
  Ho  Ho2  1  0.610186  0.806992  0.250000  1
  Ho  Ho3  1  0.388579  0.191484  0.750000  1
  Ho  Ho4  1  0.802328  0.191988  0.750000  1
  Tm  Tm5  1  0.196607  0.804444  0.250000  1
  Al  Al6  1  0.164298  0.329396  0.578661  1
  Al  Al7  1  0.834358  0.671259  0.420669  1
  Al  Al8  1  0.671465  0.835017  0.578239  1
  Al  Al9  1  0.834358  0.671259  0.079331  1
  Al  Al10  1  0.329660  0.165866  0.421823  1
  Al  Al11  1  0.164298  0.329396  0.921339  1
  Al  Al12  1  0.163621  0.834334  0.577107  1
  Al  Al13  1  0.329660  0.165866  0.078177  1
  Al  Al14  1  0.835516  0.164221  0.421058  1
  Al  Al15  1  0.671465  0.835017  0.921761  1
  Al  Al16  1  0.835516  0.164221  0.078942  1
  Al  Al17  1  0.163621  0.834334  0.922893  1
  Al  Al18  1  0.125598  0.565358  0.750000  1
  Al  Al19  1  0.564598  0.435112  0.250000  1
  Al  Al20  1  0.438653  0.566197  0.750000  1
  Al  Al21  1  0.999687  0.999075  0.250000  1
  Al  Al22  1  0.000032  0.000899  0.750000  1
  Si  Si23  1  0.333224  0.664904  0.039428  1
  Si  Si24  1  0.666513  0.335686  0.959902  1
  Si  Si25  1  0.666513  0.335686  0.540098  1
  Si  Si26  1  0.333224  0.664904  0.460572  1
  Si  Si27  1  0.564155  0.124102  0.250000  1
  Si  Si28  1  0.436488  0.873204  0.750000  1
  Si  Si29  1  0.875025  0.435403  0.250000  1
  Os  Os30  1  0.500752  0.000889  0.001174  1
  Os  Os31  1  0.998559  0.499593  0.006721  1
  Os  Os32  1  0.500752  0.000889  0.498826  1
  Os  Os33  1  0.500606  0.500189  0.000411  1
  Os  Os34  1  0.998559  0.499593  0.493279  1
  Os  Os35  1  0.500606  0.500189  0.499589  1
  Os  Os36  1  0.000592  0.000303  0.000163  1
  Os  Os37  1  0.000592  0.000303  0.499837  1
