# generated using pymatgen
data_Y18Ho2Ir7Au5
_symmetry_space_group_name_H-M   'P 1'
_cell_length_a   11.24628847
_cell_length_b   11.24628840
_cell_length_c   6.35932800
_cell_angle_alpha   89.97068035
_cell_angle_beta   89.97068035
_cell_angle_gamma   89.73209265
_symmetry_Int_Tables_number   1
_chemical_formula_structural   Y18Ho2Ir7Au5
_chemical_formula_sum   'Y18 Ho2 Ir7 Au5'
_cell_volume   804.31246670
_cell_formula_units_Z   1
loop_
 _symmetry_equiv_pos_site_id
 _symmetry_equiv_pos_as_xyz
  1  'x, y, z'
loop_
 _atom_site_type_symbol
 _atom_site_label
 _atom_site_symmetry_multiplicity
 _atom_site_fract_x
 _atom_site_fract_y
 _atom_site_fract_z
 _atom_site_occupancy
  Y  Y0  1  0.300216  0.091509  0.364861  1
  Y  Y1  1  0.301791  0.906856  0.864557  1
  Y  Y2  1  0.698063  0.081390  0.859480  1
  Y  Y3  1  0.697777  0.905346  0.362228  1
  Y  Y4  1  0.581209  0.785129  0.877323  1
  Y  Y5  1  0.576957  0.206455  0.362906  1
  Y  Y6  1  0.417079  0.788962  0.377429  1
  Y  Y7  1  0.411146  0.207948  0.876386  1
  Y  Y8  1  0.214871  0.418791  0.622677  1
  Y  Y9  1  0.211038  0.582921  0.122571  1
  Y  Y10  1  0.793545  0.423043  0.137094  1
  Y  Y11  1  0.792052  0.588854  0.623614  1
  Y  Y12  1  0.908491  0.699784  0.135139  1
  Y  Y13  1  0.918610  0.301937  0.640520  1
  Y  Y14  1  0.093144  0.698209  0.635443  1
  Y  Y15  1  0.094654  0.302223  0.137772  1
  Y  Y16  1  0.998589  0.000481  0.499398  1
  Y  Y17  1  0.999519  0.001411  0.000602  1
  Ho  Ho18  1  0.495602  0.502329  0.001359  1
  Ho  Ho19  1  0.497671  0.504398  0.498641  1
  Ir  Ir20  1  0.652567  0.650216  0.250723  1
  Ir  Ir21  1  0.349784  0.347433  0.249277  1
  Ir  Ir22  1  0.346322  0.653678  0.750000  1
  Ir  Ir23  1  0.499617  0.999444  0.112194  1
  Ir  Ir24  1  0.499342  0.000540  0.613515  1
  Ir  Ir25  1  0.999460  0.500658  0.886485  1
  Ir  Ir26  1  0.000556  0.500383  0.387806  1
  Au  Au27  1  0.841615  0.158385  0.250000  1
  Au  Au28  1  0.843231  0.845702  0.750849  1
  Au  Au29  1  0.154298  0.156769  0.749151  1
  Au  Au30  1  0.155809  0.844191  0.250000  1
  Au  Au31  1  0.655374  0.344626  0.750000  1
