# generated using pymatgen
data_CsSm2(H6Ir)2
_symmetry_space_group_name_H-M   'P 1'
_cell_length_a   5.11063100
_cell_length_b   5.11063138
_cell_length_c   9.65645900
_cell_angle_alpha   90.00000000
_cell_angle_beta   90.00000000
_cell_angle_gamma   119.99999108
_symmetry_Int_Tables_number   1
_chemical_formula_structural   CsSm2(H6Ir)2
_chemical_formula_sum   'Cs1 Sm2 H12 Ir2'
_cell_volume   218.42264083
_cell_formula_units_Z   1
loop_
 _symmetry_equiv_pos_site_id
 _symmetry_equiv_pos_as_xyz
  1  'x, y, z'
loop_
 _atom_site_type_symbol
 _atom_site_label
 _atom_site_symmetry_multiplicity
 _atom_site_fract_x
 _atom_site_fract_y
 _atom_site_fract_z
 _atom_site_occupancy
  Cs  Cs0  1  0.000000  0.000000  0.000000  1
  Sm  Sm1  1  0.666667  0.333333  0.375161  1
  Sm  Sm2  1  0.333333  0.666667  0.624839  1
  H  H3  1  0.172028  0.827972  0.394495  1
  H  H4  1  0.655943  0.827972  0.394495  1
  H  H5  1  0.172028  0.344057  0.394495  1
  H  H6  1  0.827972  0.172028  0.605505  1
  H  H7  1  0.344057  0.172028  0.605505  1
  H  H8  1  0.827972  0.655943  0.605505  1
  H  H9  1  0.515244  0.030488  0.807638  1
  H  H10  1  0.515244  0.484756  0.807638  1
  H  H11  1  0.969512  0.484756  0.807638  1
  H  H12  1  0.484756  0.969512  0.192362  1
  H  H13  1  0.484756  0.515244  0.192362  1
  H  H14  1  0.030488  0.515244  0.192362  1
  Ir  Ir15  1  0.666667  0.333333  0.702099  1
  Ir  Ir16  1  0.333333  0.666667  0.297901  1
