# generated using pymatgen
data_Er19LuGaBi11
_symmetry_space_group_name_H-M   'P 1'
_cell_length_a   8.15487834
_cell_length_b   9.42281106
_cell_length_c   11.91423079
_cell_angle_alpha   90.01234330
_cell_angle_beta   89.63311127
_cell_angle_gamma   89.99549863
_symmetry_Int_Tables_number   1
_chemical_formula_structural   Er19LuGaBi11
_chemical_formula_sum   'Er19 Lu1 Ga1 Bi11'
_cell_volume   915.49307253
_cell_formula_units_Z   1
loop_
 _symmetry_equiv_pos_site_id
 _symmetry_equiv_pos_as_xyz
  1  'x, y, z'
loop_
 _atom_site_type_symbol
 _atom_site_label
 _atom_site_symmetry_multiplicity
 _atom_site_fract_x
 _atom_site_fract_y
 _atom_site_fract_z
 _atom_site_occupancy
  Er  Er0  1  0.036371  0.250289  0.509718  1
  Er  Er1  1  0.979889  0.749946  0.490201  1
  Er  Er2  1  0.476070  0.749997  0.011598  1
  Er  Er3  1  0.526286  0.249932  0.988669  1
  Er  Er4  1  0.353220  0.250059  0.294198  1
  Er  Er5  1  0.652439  0.749821  0.716541  1
  Er  Er6  1  0.148862  0.749582  0.782127  1
  Er  Er7  1  0.850653  0.249882  0.214976  1
  Er  Er8  1  0.195236  0.249937  0.776955  1
  Er  Er9  1  0.809829  0.749870  0.217663  1
  Er  Er10  1  0.312402  0.749656  0.282747  1
  Er  Er11  1  0.673203  0.249878  0.710364  1
  Er  Er12  1  0.192292  0.065864  0.059686  1
  Er  Er13  1  0.808519  0.934810  0.941834  1
  Er  Er14  1  0.309520  0.949563  0.558081  1
  Er  Er15  1  0.808420  0.565122  0.941835  1
  Er  Er16  1  0.683160  0.071506  0.445802  1
  Er  Er17  1  0.192472  0.434209  0.059698  1
  Er  Er18  1  0.683254  0.428644  0.445780  1
  Lu  Lu19  1  0.309312  0.551170  0.558188  1
  Ga  Ga20  1  0.405499  0.251577  0.539609  1
  Bi  Bi21  1  0.594565  0.749607  0.458174  1
  Bi  Bi22  1  0.095591  0.749992  0.042917  1
  Bi  Bi23  1  0.908204  0.249996  0.953558  1
  Bi  Bi24  1  0.061262  0.002692  0.323906  1
  Bi  Bi25  1  0.936416  0.998306  0.675316  1
  Bi  Bi26  1  0.437333  0.994951  0.824667  1
  Bi  Bi27  1  0.936706  0.501397  0.675299  1
  Bi  Bi28  1  0.562556  0.004457  0.175873  1
  Bi  Bi29  1  0.060748  0.497096  0.323687  1
  Bi  Bi30  1  0.562341  0.495389  0.175831  1
  Bi  Bi31  1  0.437371  0.504801  0.824503  1
