# generated using pymatgen
data_Hf5NbCo16Si6Ge
_symmetry_space_group_name_H-M   'P 1'
_cell_length_a   8.01292472
_cell_length_b   7.99715619
_cell_length_c   8.01292604
_cell_angle_alpha   60.06507743
_cell_angle_beta   59.86984933
_cell_angle_gamma   60.06506962
_symmetry_Int_Tables_number   1
_chemical_formula_structural   Hf5NbCo16Si6Ge
_chemical_formula_sum   'Hf5 Nb1 Co16 Si6 Ge1'
_cell_volume   363.07756055
_cell_formula_units_Z   1
loop_
 _symmetry_equiv_pos_site_id
 _symmetry_equiv_pos_as_xyz
  1  'x, y, z'
loop_
 _atom_site_type_symbol
 _atom_site_label
 _atom_site_symmetry_multiplicity
 _atom_site_fract_x
 _atom_site_fract_y
 _atom_site_fract_z
 _atom_site_occupancy
  Hf  Hf0  1  0.205958  0.794042  0.205958  1
  Hf  Hf1  1  0.203238  0.796762  0.795914  1
  Hf  Hf2  1  0.795914  0.204086  0.203238  1
  Hf  Hf3  1  0.795914  0.796762  0.203238  1
  Hf  Hf4  1  0.203238  0.204086  0.795914  1
  Nb  Nb5  1  0.797246  0.202754  0.797246  1
  Co  Co6  1  0.169889  0.170541  0.169889  1
  Co  Co7  1  0.510321  0.830111  0.829459  1
  Co  Co8  1  0.830581  0.507473  0.830581  1
  Co  Co9  1  0.829459  0.830111  0.510321  1
  Co  Co10  1  0.169889  0.489679  0.169889  1
  Co  Co11  1  0.168634  0.169419  0.492527  1
  Co  Co12  1  0.492527  0.169419  0.168634  1
  Co  Co13  1  0.830581  0.831366  0.830581  1
  Co  Co14  1  0.378428  0.378471  0.378428  1
  Co  Co15  1  0.135327  0.621572  0.621529  1
  Co  Co16  1  0.621895  0.138604  0.621895  1
  Co  Co17  1  0.621529  0.621572  0.135327  1
  Co  Co18  1  0.378428  0.864673  0.378428  1
  Co  Co19  1  0.382395  0.378105  0.861396  1
  Co  Co20  1  0.861396  0.378105  0.382395  1
  Co  Co21  1  0.621895  0.617605  0.621895  1
  Si  Si22  1  0.999720  0.500280  0.999720  1
  Si  Si23  1  0.500635  0.001789  0.998211  1
  Si  Si24  1  0.998211  0.499365  0.500635  1
  Si  Si25  1  0.499720  0.000280  0.499720  1
  Si  Si26  1  0.998211  0.001789  0.500635  1
  Si  Si27  1  0.500635  0.499365  0.998211  1
  Ge  Ge28  1  0.498182  0.501818  0.498182  1
