# generated using pymatgen
data_Mg3(SbAu)4
_symmetry_space_group_name_H-M   'P 1'
_cell_length_a   7.85640000
_cell_length_b   7.85639934
_cell_length_c   7.85639924
_cell_angle_alpha   130.75980182
_cell_angle_beta   130.75979505
_cell_angle_gamma   72.19498396
_symmetry_Int_Tables_number   1
_chemical_formula_structural   Mg3(SbAu)4
_chemical_formula_sum   'Mg3 Sb4 Au4'
_cell_volume   272.01225293
_cell_formula_units_Z   1
loop_
 _symmetry_equiv_pos_site_id
 _symmetry_equiv_pos_as_xyz
  1  'x, y, z'
loop_
 _atom_site_type_symbol
 _atom_site_label
 _atom_site_symmetry_multiplicity
 _atom_site_fract_x
 _atom_site_fract_y
 _atom_site_fract_z
 _atom_site_occupancy
  Mg  Mg0  1  0.000000  0.000000  0.000000  1
  Mg  Mg1  1  0.750001  0.250000  0.500001  1
  Mg  Mg2  1  0.250000  0.750001  0.500001  1
  Sb  Sb3  1  0.254449  0.254449  0.000000  1
  Sb  Sb4  1  0.745551  0.745551  0.000000  1
  Sb  Sb5  1  0.500001  0.000000  0.500001  1
  Sb  Sb6  1  0.000000  0.500001  0.500001  1
  Au  Au7  1  0.626920  0.128072  0.000000  1
  Au  Au8  1  0.128072  0.626920  0.000000  1
  Au  Au9  1  0.871928  0.871928  0.498848  1
  Au  Au10  1  0.373080  0.373080  0.501153  1
