# generated using pymatgen
data_Hf5B4Os10W
_symmetry_space_group_name_H-M   'P 1'
_cell_length_a   3.10745100
_cell_length_b   9.47978700
_cell_length_c   9.47978700
_cell_angle_alpha   90.00000000
_cell_angle_beta   90.00000000
_cell_angle_gamma   90.00000000
_symmetry_Int_Tables_number   1
_chemical_formula_structural   Hf5B4Os10W
_chemical_formula_sum   'Hf5 B4 Os10 W1'
_cell_volume   279.25531511
_cell_formula_units_Z   1
loop_
 _symmetry_equiv_pos_site_id
 _symmetry_equiv_pos_as_xyz
  1  'x, y, z'
loop_
 _atom_site_type_symbol
 _atom_site_label
 _atom_site_symmetry_multiplicity
 _atom_site_fract_x
 _atom_site_fract_y
 _atom_site_fract_z
 _atom_site_occupancy
  Hf  Hf0  1  0.000000  0.676958  0.824277  1
  Hf  Hf1  1  0.000000  0.323042  0.175723  1
  Hf  Hf2  1  0.000000  0.824277  0.323042  1
  Hf  Hf3  1  0.000000  0.175723  0.676958  1
  Hf  Hf4  1  0.000000  0.000000  0.000000  1
  B  B5  1  0.000000  0.880216  0.622364  1
  B  B6  1  0.000000  0.119784  0.377636  1
  B  B7  1  0.000000  0.622364  0.119784  1
  B  B8  1  0.000000  0.377636  0.880216  1
  Os  Os9  1  0.500000  0.715798  0.566305  1
  Os  Os10  1  0.500000  0.284202  0.433695  1
  Os  Os11  1  0.500000  0.778608  0.074498  1
  Os  Os12  1  0.500000  0.221392  0.925502  1
  Os  Os13  1  0.500000  0.566305  0.284202  1
  Os  Os14  1  0.500000  0.433695  0.715798  1
  Os  Os15  1  0.500000  0.074498  0.221392  1
  Os  Os16  1  0.500000  0.925502  0.778608  1
  Os  Os17  1  0.500000  0.000000  0.500000  1
  Os  Os18  1  0.500000  0.500000  0.000000  1
  W  W19  1  0.000000  0.500000  0.500000  1
