# generated using pymatgen
data_Lu5InPb2S
_symmetry_space_group_name_H-M   'P 1'
_cell_length_a   8.90294200
_cell_length_b   8.91026265
_cell_length_c   6.62367100
_cell_angle_alpha   90.00000000
_cell_angle_beta   90.00000000
_cell_angle_gamma   120.02719942
_symmetry_Int_Tables_number   1
_chemical_formula_structural   Lu5InPb2S
_chemical_formula_sum   'Lu10 In2 Pb4 S2'
_cell_volume   454.91927464
_cell_formula_units_Z   2
loop_
 _symmetry_equiv_pos_site_id
 _symmetry_equiv_pos_as_xyz
  1  'x, y, z'
loop_
 _atom_site_type_symbol
 _atom_site_label
 _atom_site_symmetry_multiplicity
 _atom_site_fract_x
 _atom_site_fract_y
 _atom_site_fract_z
 _atom_site_occupancy
  Lu  Lu0  1  0.665135  0.331510  0.996122  1
  Lu  Lu1  1  0.334865  0.666376  0.996122  1
  Lu  Lu2  1  0.334865  0.666376  0.503878  1
  Lu  Lu3  1  0.665135  0.331510  0.503878  1
  Lu  Lu4  1  0.753900  0.757108  0.750000  1
  Lu  Lu5  1  0.246100  0.003208  0.750000  1
  Lu  Lu6  1  0.000000  0.242756  0.750000  1
  Lu  Lu7  1  0.243337  0.244003  0.250000  1
  Lu  Lu8  1  0.756663  0.000666  0.250000  1
  Lu  Lu9  1  0.000000  0.757565  0.250000  1
  In  In10  1  0.396555  0.397253  0.750000  1
  In  In11  1  0.603445  0.000697  0.750000  1
  Pb  Pb12  1  0.000000  0.605897  0.750000  1
  Pb  Pb13  1  0.601800  0.600689  0.250000  1
  Pb  Pb14  1  0.398200  0.998889  0.250000  1
  Pb  Pb15  1  0.000000  0.396693  0.250000  1
  S  S16  1  0.000000  0.999402  0.001002  1
  S  S17  1  0.000000  0.999402  0.498998  1
