# generated using pymatgen
data_Y6Al24Co3NiOs4
_symmetry_space_group_name_H-M   'P 1'
_cell_length_a   8.75963080
_cell_length_b   8.86618640
_cell_length_c   9.42478036
_cell_angle_alpha   90.00000207
_cell_angle_beta   89.93007081
_cell_angle_gamma   120.40321803
_symmetry_Int_Tables_number   1
_chemical_formula_structural   Y6Al24Co3NiOs4
_chemical_formula_sum   'Y6 Al24 Co3 Ni1 Os4'
_cell_volume   631.31358919
_cell_formula_units_Z   1
loop_
 _symmetry_equiv_pos_site_id
 _symmetry_equiv_pos_as_xyz
  1  'x, y, z'
loop_
 _atom_site_type_symbol
 _atom_site_label
 _atom_site_symmetry_multiplicity
 _atom_site_fract_x
 _atom_site_fract_y
 _atom_site_fract_z
 _atom_site_occupancy
  Y  Y0  1  0.200021  0.386382  0.249982  1
  Y  Y1  1  0.799979  0.613618  0.750018  1
  Y  Y2  1  0.607820  0.803910  0.250707  1
  Y  Y3  1  0.392180  0.196090  0.749293  1
  Y  Y4  1  0.200021  0.813639  0.249982  1
  Y  Y5  1  0.799979  0.186361  0.750018  1
  Al  Al6  1  0.328957  0.664479  0.015604  1
  Al  Al7  1  0.671043  0.335521  0.984396  1
  Al  Al8  1  0.674120  0.337059  0.515433  1
  Al  Al9  1  0.325880  0.662941  0.484567  1
  Al  Al10  1  0.157137  0.320403  0.575858  1
  Al  Al11  1  0.842863  0.679597  0.424142  1
  Al  Al12  1  0.678000  0.839000  0.574048  1
  Al  Al13  1  0.841214  0.680946  0.077077  1
  Al  Al14  1  0.322000  0.161000  0.425952  1
  Al  Al15  1  0.158786  0.319054  0.922923  1
  Al  Al16  1  0.157137  0.836735  0.575858  1
  Al  Al17  1  0.322547  0.161274  0.074412  1
  Al  Al18  1  0.842863  0.163265  0.424142  1
  Al  Al19  1  0.677453  0.838726  0.925588  1
  Al  Al20  1  0.841214  0.160266  0.077077  1
  Al  Al21  1  0.158786  0.839734  0.922923  1
  Al  Al22  1  0.564561  0.124973  0.249759  1
  Al  Al23  1  0.435439  0.875027  0.750241  1
  Al  Al24  1  0.888487  0.444244  0.252440  1
  Al  Al25  1  0.111513  0.555756  0.747560  1
  Al  Al26  1  0.564561  0.439589  0.249759  1
  Al  Al27  1  0.435439  0.560411  0.750241  1
  Al  Al28  1  0.001709  0.000855  0.250296  1
  Al  Al29  1  0.998291  0.999145  0.749704  1
  Co  Co30  1  0.000000  0.500000  0.500000  1
  Co  Co31  1  0.000000  0.000000  0.000000  1
  Co  Co32  1  0.000000  0.000000  0.500000  1
  Ni  Ni33  1  0.000000  0.500000  0.000000  1
  Os  Os34  1  0.500000  0.000000  0.000000  1
  Os  Os35  1  0.500000  0.000000  0.500000  1
  Os  Os36  1  0.500000  0.500000  0.000000  1
  Os  Os37  1  0.500000  0.500000  0.500000  1
