# generated using pymatgen
data_TeS8Br3
_symmetry_space_group_name_H-M   'P 1'
_cell_length_a   8.75719570
_cell_length_b   10.33733112
_cell_length_c   12.83240707
_cell_angle_alpha   99.24165985
_cell_angle_beta   111.36237739
_cell_angle_gamma   105.56281674
_symmetry_Int_Tables_number   1
_chemical_formula_structural   TeS8Br3
_chemical_formula_sum   'Te2 S16 Br6'
_cell_volume   998.05096337
_cell_formula_units_Z   2
loop_
 _symmetry_equiv_pos_site_id
 _symmetry_equiv_pos_as_xyz
  1  'x, y, z'
loop_
 _atom_site_type_symbol
 _atom_site_label
 _atom_site_symmetry_multiplicity
 _atom_site_fract_x
 _atom_site_fract_y
 _atom_site_fract_z
 _atom_site_occupancy
  Te  Te0  1  0.816585  0.019252  0.827397  1
  Te  Te1  1  0.183415  0.980748  0.172603  1
  S  S2  1  0.861973  0.487064  0.811177  1
  S  S3  1  0.138027  0.512936  0.188823  1
  S  S4  1  0.713159  0.390222  0.634816  1
  S  S5  1  0.286841  0.609778  0.365184  1
  S  S6  1  0.746102  0.201925  0.591162  1
  S  S7  1  0.253898  0.798075  0.408838  1
  S  S8  1  0.939353  0.229135  0.532527  1
  S  S9  1  0.060647  0.770865  0.467473  1
  S  S10  1  0.907326  0.364572  0.164304  1
  S  S11  1  0.092674  0.635428  0.835696  1
  S  S12  1  0.709327  0.445810  0.118014  1
  S  S13  1  0.290673  0.554190  0.881986  1
  S  S14  1  0.681046  0.525970  0.264831  1
  S  S15  1  0.318954  0.474030  0.735169  1
  S  S16  1  0.824329  0.738056  0.331039  1
  S  S17  1  0.175671  0.261944  0.668961  1
  Br  Br18  1  0.539785  0.080077  0.809488  1
  Br  Br19  1  0.460215  0.919923  0.190512  1
  Br  Br20  1  0.851664  0.843096  0.015883  1
  Br  Br21  1  0.148336  0.156904  0.984117  1
  Br  Br22  1  0.758015  0.834499  0.642035  1
  Br  Br23  1  0.241985  0.165501  0.357965  1
