# generated using pymatgen
data_Cr3Sb12Pt
_symmetry_space_group_name_H-M   'P 1'
_cell_length_a   8.28764085
_cell_length_b   8.21993200
_cell_length_c   8.21993138
_cell_angle_alpha   109.30374922
_cell_angle_beta   109.63817411
_cell_angle_gamma   109.63816592
_symmetry_Int_Tables_number   1
_chemical_formula_structural   Cr3Sb12Pt
_chemical_formula_sum   'Cr3 Sb12 Pt1'
_cell_volume   430.17634492
_cell_formula_units_Z   1
loop_
 _symmetry_equiv_pos_site_id
 _symmetry_equiv_pos_as_xyz
  1  'x, y, z'
loop_
 _atom_site_type_symbol
 _atom_site_label
 _atom_site_symmetry_multiplicity
 _atom_site_fract_x
 _atom_site_fract_y
 _atom_site_fract_z
 _atom_site_occupancy
  Cr  Cr0  1  0.000000  0.000000  0.500000  1
  Cr  Cr1  1  0.000000  0.500000  0.000000  1
  Cr  Cr2  1  0.500000  0.500000  0.500000  1
  Sb  Sb3  1  0.151065  0.809336  0.656798  1
  Sb  Sb4  1  0.848935  0.190664  0.343202  1
  Sb  Sb5  1  0.845701  0.504804  0.658021  1
  Sb  Sb6  1  0.154299  0.495196  0.341979  1
  Sb  Sb7  1  0.812320  0.658021  0.153218  1
  Sb  Sb8  1  0.187680  0.341979  0.846782  1
  Sb  Sb9  1  0.505733  0.656798  0.847461  1
  Sb  Sb10  1  0.494267  0.343202  0.152539  1
  Sb  Sb11  1  0.658272  0.152539  0.809336  1
  Sb  Sb12  1  0.341728  0.847461  0.190664  1
  Sb  Sb13  1  0.659102  0.846782  0.504804  1
  Sb  Sb14  1  0.340898  0.153218  0.495196  1
  Pt  Pt15  1  0.500000  0.000000  0.000000  1
