# generated using pymatgen
data_Ho10SiSn6H
_symmetry_space_group_name_H-M   'P 1'
_cell_length_a   9.00385300
_cell_length_b   9.00385188
_cell_length_c   6.56144500
_cell_angle_alpha   90.00000000
_cell_angle_beta   90.00000000
_cell_angle_gamma   119.99999310
_symmetry_Int_Tables_number   1
_chemical_formula_structural   Ho10SiSn6H
_chemical_formula_sum   'Ho10 Si1 Sn6 H1'
_cell_volume   460.66677710
_cell_formula_units_Z   1
loop_
 _symmetry_equiv_pos_site_id
 _symmetry_equiv_pos_as_xyz
  1  'x, y, z'
loop_
 _atom_site_type_symbol
 _atom_site_label
 _atom_site_symmetry_multiplicity
 _atom_site_fract_x
 _atom_site_fract_y
 _atom_site_fract_z
 _atom_site_occupancy
  Ho  Ho0  1  0.666667  0.333333  0.000000  1
  Ho  Ho1  1  0.333333  0.666667  0.000000  1
  Ho  Ho2  1  0.333333  0.666667  0.500000  1
  Ho  Ho3  1  0.666667  0.333333  0.500000  1
  Ho  Ho4  1  0.754640  0.754640  0.755185  1
  Ho  Ho5  1  0.245360  0.000000  0.755185  1
  Ho  Ho6  1  0.000000  0.245360  0.755185  1
  Ho  Ho7  1  0.245360  0.245360  0.244815  1
  Ho  Ho8  1  0.754640  0.000000  0.244815  1
  Ho  Ho9  1  0.000000  0.754640  0.244815  1
  Si  Si10  1  0.000000  0.000000  0.500000  1
  Sn  Sn11  1  0.394010  0.394010  0.750814  1
  Sn  Sn12  1  0.605990  0.000000  0.750814  1
  Sn  Sn13  1  0.000000  0.605990  0.750814  1
  Sn  Sn14  1  0.605990  0.605990  0.249186  1
  Sn  Sn15  1  0.394010  0.000000  0.249186  1
  Sn  Sn16  1  0.000000  0.394010  0.249186  1
  H  H17  1  0.000000  0.000000  0.000000  1
