# generated using pymatgen
data_Dy10HoTh5(MgRu)4
_symmetry_space_group_name_H-M   'P 1'
_cell_length_a   9.72338760
_cell_length_b   9.79044294
_cell_length_c   9.79012010
_cell_angle_alpha   59.80783415
_cell_angle_beta   60.18086878
_cell_angle_gamma   60.19403844
_symmetry_Int_Tables_number   1
_chemical_formula_structural   Dy10HoTh5(MgRu)4
_chemical_formula_sum   'Dy10 Ho1 Th5 Mg4 Ru4'
_cell_volume   659.90199371
_cell_formula_units_Z   1
loop_
 _symmetry_equiv_pos_site_id
 _symmetry_equiv_pos_as_xyz
  1  'x, y, z'
loop_
 _atom_site_type_symbol
 _atom_site_label
 _atom_site_symmetry_multiplicity
 _atom_site_fract_x
 _atom_site_fract_y
 _atom_site_fract_z
 _atom_site_occupancy
  Dy  Dy0  1  0.186102  0.813599  0.813508  1
  Dy  Dy1  1  0.190912  0.809556  0.185683  1
  Dy  Dy2  1  0.813693  0.185016  0.810079  1
  Dy  Dy3  1  0.190965  0.185550  0.809564  1
  Dy  Dy4  1  0.813648  0.810156  0.185124  1
  Dy  Dy5  1  0.933564  0.567137  0.566937  1
  Dy  Dy6  1  0.564746  0.935370  0.935211  1
  Dy  Dy7  1  0.563395  0.935780  0.564836  1
  Dy  Dy8  1  0.936555  0.564645  0.935423  1
  Dy  Dy9  1  0.563210  0.564871  0.935771  1
  Ho  Ho10  1  0.936500  0.935630  0.564524  1
  Th  Th11  1  0.342172  0.348130  0.348189  1
  Th  Th12  1  0.346442  0.347384  0.960068  1
  Th  Th13  1  0.346371  0.960029  0.347486  1
  Th  Th14  1  0.960518  0.348622  0.348770  1
  Th  Th15  1  0.815570  0.183998  0.184168  1
  Mg  Mg16  1  0.581064  0.579742  0.579749  1
  Mg  Mg17  1  0.579337  0.581918  0.258738  1
  Mg  Mg18  1  0.579490  0.258579  0.581914  1
  Mg  Mg19  1  0.259384  0.579626  0.579451  1
  Ru  Ru20  1  0.129492  0.147215  0.147403  1
  Ru  Ru21  1  0.145304  0.142395  0.567389  1
  Ru  Ru22  1  0.145335  0.567450  0.142427  1
  Ru  Ru23  1  0.576228  0.147603  0.147588  1
