# generated using pymatgen
data_Ho20Si15Rh
_symmetry_space_group_name_H-M   'P 1'
_cell_length_a   7.39985555
_cell_length_b   7.64418707
_cell_length_c   14.50866388
_cell_angle_alpha   89.74088892
_cell_angle_beta   89.72422783
_cell_angle_gamma   90.18839897
_symmetry_Int_Tables_number   1
_chemical_formula_structural   Ho20Si15Rh
_chemical_formula_sum   'Ho20 Si15 Rh1'
_cell_volume   820.67294796
_cell_formula_units_Z   1
loop_
 _symmetry_equiv_pos_site_id
 _symmetry_equiv_pos_as_xyz
  1  'x, y, z'
loop_
 _atom_site_type_symbol
 _atom_site_label
 _atom_site_symmetry_multiplicity
 _atom_site_fract_x
 _atom_site_fract_y
 _atom_site_fract_z
 _atom_site_occupancy
  Ho  Ho0  1  0.649497  0.991717  0.248928  1
  Ho  Ho1  1  0.149287  0.510808  0.247706  1
  Ho  Ho2  1  0.847267  0.488650  0.757414  1
  Ho  Ho3  1  0.351020  0.010917  0.751682  1
  Ho  Ho4  1  0.974340  0.816396  0.097272  1
  Ho  Ho5  1  0.472917  0.682176  0.401970  1
  Ho  Ho6  1  0.528269  0.322795  0.901028  1
  Ho  Ho7  1  0.027547  0.183475  0.598882  1
  Ho  Ho8  1  0.026337  0.185026  0.902188  1
  Ho  Ho9  1  0.527861  0.318308  0.598360  1
  Ho  Ho10  1  0.475468  0.681035  0.098120  1
  Ho  Ho11  1  0.972189  0.817729  0.401464  1
  Ho  Ho12  1  0.682686  0.812364  0.881734  1
  Ho  Ho13  1  0.178886  0.680868  0.622197  1
  Ho  Ho14  1  0.818251  0.332323  0.118869  1
  Ho  Ho15  1  0.317837  0.178356  0.376152  1
  Ho  Ho16  1  0.321431  0.179094  0.123461  1
  Ho  Ho17  1  0.820090  0.319445  0.377240  1
  Ho  Ho18  1  0.175672  0.675652  0.878254  1
  Ho  Ho19  1  0.682036  0.819370  0.622793  1
  Si  Si20  1  0.766249  0.629010  0.251680  1
  Si  Si21  1  0.267662  0.871920  0.250681  1
  Si  Si22  1  0.731488  0.124995  0.748621  1
  Si  Si23  1  0.233327  0.372449  0.746914  1
  Si  Si24  1  0.021063  0.105538  0.249370  1
  Si  Si25  1  0.523692  0.396269  0.251301  1
  Si  Si26  1  0.472456  0.605315  0.746986  1
  Si  Si27  1  0.976666  0.897483  0.748532  1
  Si  Si28  1  0.352636  0.971310  0.539615  1
  Si  Si29  1  0.647677  0.028002  0.041378  1
  Si  Si30  1  0.148683  0.470228  0.460211  1
  Si  Si31  1  0.154902  0.471724  0.040974  1
  Si  Si32  1  0.645953  0.028722  0.459914  1
  Si  Si33  1  0.351956  0.969761  0.960727  1
  Si  Si34  1  0.853203  0.529026  0.538964  1
  Rh  Rh35  1  0.853499  0.521744  0.958419  1
