# generated using pymatgen
data_Tm5Mn2P12Ir17
_symmetry_space_group_name_H-M   'P 1'
_cell_length_a   12.70944553
_cell_length_b   12.70944469
_cell_length_c   3.95722400
_cell_angle_alpha   90.00000000
_cell_angle_beta   90.00000000
_cell_angle_gamma   120.52036939
_symmetry_Int_Tables_number   1
_chemical_formula_structural   Tm5Mn2P12Ir17
_chemical_formula_sum   'Tm5 Mn2 P12 Ir17'
_cell_volume   550.64692537
_cell_formula_units_Z   1
loop_
 _symmetry_equiv_pos_site_id
 _symmetry_equiv_pos_as_xyz
  1  'x, y, z'
loop_
 _atom_site_type_symbol
 _atom_site_label
 _atom_site_symmetry_multiplicity
 _atom_site_fract_x
 _atom_site_fract_y
 _atom_site_fract_z
 _atom_site_occupancy
  Tm  Tm0  1  0.330312  0.667636  0.000000  1
  Tm  Tm1  1  0.667636  0.330312  0.000000  1
  Tm  Tm2  1  0.812683  0.000095  0.500000  1
  Tm  Tm3  1  0.000095  0.812683  0.500000  1
  Tm  Tm4  1  0.185812  0.185812  0.500000  1
  Mn  Mn5  1  0.459244  0.001771  0.000000  1
  Mn  Mn6  1  0.001771  0.459244  0.000000  1
  P  P7  1  0.177255  0.000172  0.000000  1
  P  P8  1  0.000172  0.177255  0.000000  1
  P  P9  1  0.821527  0.821527  0.000000  1
  P  P10  1  0.168583  0.484514  0.500000  1
  P  P11  1  0.515218  0.690991  0.500000  1
  P  P12  1  0.314547  0.833365  0.500000  1
  P  P13  1  0.690991  0.515218  0.500000  1
  P  P14  1  0.833365  0.314547  0.500000  1
  P  P15  1  0.484514  0.168583  0.500000  1
  P  P16  1  0.635918  0.999495  0.000000  1
  P  P17  1  0.999495  0.635918  0.000000  1
  P  P18  1  0.355684  0.355684  0.000000  1
  Ir  Ir19  1  0.537300  0.537300  0.000000  1
  Ir  Ir20  1  0.359525  0.495218  0.500000  1
  Ir  Ir21  1  0.508615  0.870187  0.500000  1
  Ir  Ir22  1  0.134783  0.641978  0.500000  1
  Ir  Ir23  1  0.870187  0.508615  0.500000  1
  Ir  Ir24  1  0.641978  0.134783  0.500000  1
  Ir  Ir25  1  0.495218  0.359525  0.500000  1
  Ir  Ir26  1  0.181920  0.375747  0.000000  1
  Ir  Ir27  1  0.624955  0.803842  0.000000  1
  Ir  Ir28  1  0.192072  0.821148  0.000000  1
  Ir  Ir29  1  0.803842  0.624955  0.000000  1
  Ir  Ir30  1  0.821148  0.192072  0.000000  1
  Ir  Ir31  1  0.375747  0.181920  0.000000  1
  Ir  Ir32  1  0.284492  0.001663  0.500000  1
  Ir  Ir33  1  0.001663  0.284492  0.500000  1
  Ir  Ir34  1  0.712247  0.712247  0.500000  1
  Ir  Ir35  1  0.999484  0.999484  0.000000  1
