# generated using pymatgen
data_Dy4Ti3Mn7(Fe5P6)2
_symmetry_space_group_name_H-M   'P 1'
_cell_length_a   3.66310600
_cell_length_b   10.48294125
_cell_length_c   12.28404528
_cell_angle_alpha   90.02494225
_cell_angle_beta   90.00000000
_cell_angle_gamma   90.00000000
_symmetry_Int_Tables_number   1
_chemical_formula_structural   Dy4Ti3Mn7(Fe5P6)2
_chemical_formula_sum   'Dy4 Ti3 Mn7 Fe10 P12'
_cell_volume   471.70882979
_cell_formula_units_Z   1
loop_
 _symmetry_equiv_pos_site_id
 _symmetry_equiv_pos_as_xyz
  1  'x, y, z'
loop_
 _atom_site_type_symbol
 _atom_site_label
 _atom_site_symmetry_multiplicity
 _atom_site_fract_x
 _atom_site_fract_y
 _atom_site_fract_z
 _atom_site_occupancy
  Dy  Dy0  1  0.250000  0.585617  0.711923  1
  Dy  Dy1  1  0.250000  0.914586  0.211850  1
  Dy  Dy2  1  0.750000  0.423080  0.290278  1
  Dy  Dy3  1  0.750000  0.078110  0.788315  1
  Ti  Ti4  1  0.250000  0.697641  0.992096  1
  Ti  Ti5  1  0.750000  0.297511  0.010504  1
  Ti  Ti6  1  0.750000  0.202977  0.510187  1
  Mn  Mn7  1  0.250000  0.797225  0.492389  1
  Mn  Mn8  1  0.250000  0.417056  0.491856  1
  Mn  Mn9  1  0.250000  0.085237  0.991077  1
  Mn  Mn10  1  0.750000  0.601908  0.508679  1
  Mn  Mn11  1  0.750000  0.903242  0.007024  1
  Mn  Mn12  1  0.250000  0.215104  0.175983  1
  Mn  Mn13  1  0.250000  0.284706  0.675651  1
  Fe  Fe14  1  0.750000  0.781632  0.826799  1
  Fe  Fe15  1  0.750000  0.722387  0.331056  1
  Fe  Fe16  1  0.250000  0.876817  0.694522  1
  Fe  Fe17  1  0.250000  0.624880  0.199194  1
  Fe  Fe18  1  0.750000  0.125303  0.299465  1
  Fe  Fe19  1  0.750000  0.373843  0.798296  1
  Fe  Fe20  1  0.250000  0.461230  0.930773  1
  Fe  Fe21  1  0.250000  0.034693  0.432817  1
  Fe  Fe22  1  0.750000  0.535283  0.066354  1
  Fe  Fe23  1  0.750000  0.960379  0.563403  1
  P  P24  1  0.250000  0.430004  0.112384  1
  P  P25  1  0.250000  0.070920  0.611620  1
  P  P26  1  0.750000  0.572972  0.887216  1
  P  P27  1  0.750000  0.925747  0.386903  1
  P  P28  1  0.250000  0.263539  0.865872  1
  P  P29  1  0.250000  0.233811  0.365725  1
  P  P30  1  0.750000  0.726880  0.142689  1
  P  P31  1  0.750000  0.770776  0.638550  1
  P  P32  1  0.250000  0.606153  0.381777  1
  P  P33  1  0.250000  0.897705  0.877977  1
  P  P34  1  0.750000  0.412405  0.613766  1
  P  P35  1  0.750000  0.088639  0.115030  1
