# generated using pymatgen
data_Nd6Y4In8PtRh3
_symmetry_space_group_name_H-M   'P 1'
_cell_length_a   3.77496300
_cell_length_b   8.16976668
_cell_length_c   18.42415388
_cell_angle_alpha   90.04982180
_cell_angle_beta   90.00000000
_cell_angle_gamma   90.00000000
_symmetry_Int_Tables_number   1
_chemical_formula_structural   Nd6Y4In8PtRh3
_chemical_formula_sum   'Nd6 Y4 In8 Pt1 Rh3'
_cell_volume   568.21113602
_cell_formula_units_Z   1
loop_
 _symmetry_equiv_pos_site_id
 _symmetry_equiv_pos_as_xyz
  1  'x, y, z'
loop_
 _atom_site_type_symbol
 _atom_site_label
 _atom_site_symmetry_multiplicity
 _atom_site_fract_x
 _atom_site_fract_y
 _atom_site_fract_z
 _atom_site_occupancy
  Nd  Nd0  1  0.000000  0.235504  0.217424  1
  Nd  Nd1  1  0.000000  0.758755  0.783081  1
  Nd  Nd2  1  0.000000  0.258067  0.717785  1
  Nd  Nd3  1  0.000000  0.746109  0.283516  1
  Nd  Nd4  1  0.000000  0.999885  0.999479  1
  Nd  Nd5  1  0.000000  0.500522  0.500115  1
  Y  Y6  1  0.000000  0.115676  0.411711  1
  Y  Y7  1  0.000000  0.883522  0.589728  1
  Y  Y8  1  0.000000  0.384684  0.910206  1
  Y  Y9  1  0.000000  0.617187  0.087062  1
  In  In10  1  0.500000  0.417480  0.349112  1
  In  In11  1  0.500000  0.581110  0.652440  1
  In  In12  1  0.500000  0.081213  0.847935  1
  In  In13  1  0.500000  0.918937  0.151335  1
  In  In14  1  0.500000  0.300983  0.062371  1
  In  In15  1  0.500000  0.698129  0.935784  1
  In  In16  1  0.500000  0.198401  0.564103  1
  In  In17  1  0.500000  0.801526  0.436297  1
  Pt  Pt18  1  0.500000  0.524048  0.195131  1
  Rh  Rh19  1  0.500000  0.021330  0.305972  1
  Rh  Rh20  1  0.500000  0.979195  0.694101  1
  Rh  Rh21  1  0.500000  0.477737  0.805309  1
