# generated using pymatgen
data_Lu3ZrCdOs
_symmetry_space_group_name_H-M   'P 1'
_cell_length_a   9.34651575
_cell_length_b   9.34651659
_cell_length_c   9.34651600
_cell_angle_alpha   60.00000210
_cell_angle_beta   59.99999910
_cell_angle_gamma   60.00000035
_symmetry_Int_Tables_number   1
_chemical_formula_structural   Lu3ZrCdOs
_chemical_formula_sum   'Lu12 Zr4 Cd4 Os4'
_cell_volume   577.34350481
_cell_formula_units_Z   4
loop_
 _symmetry_equiv_pos_site_id
 _symmetry_equiv_pos_as_xyz
  1  'x, y, z'
loop_
 _atom_site_type_symbol
 _atom_site_label
 _atom_site_symmetry_multiplicity
 _atom_site_fract_x
 _atom_site_fract_y
 _atom_site_fract_z
 _atom_site_occupancy
  Lu  Lu0  1  0.808968  0.191032  0.191032  1
  Lu  Lu1  1  0.191032  0.808968  0.808968  1
  Lu  Lu2  1  0.191032  0.808968  0.191032  1
  Lu  Lu3  1  0.808968  0.191032  0.808968  1
  Lu  Lu4  1  0.191032  0.191032  0.808968  1
  Lu  Lu5  1  0.808968  0.808968  0.191032  1
  Lu  Lu6  1  0.944341  0.555659  0.555659  1
  Lu  Lu7  1  0.555659  0.944341  0.944341  1
  Lu  Lu8  1  0.555659  0.944341  0.555659  1
  Lu  Lu9  1  0.944341  0.555659  0.944341  1
  Lu  Lu10  1  0.555659  0.555659  0.944341  1
  Lu  Lu11  1  0.944341  0.944341  0.555659  1
  Zr  Zr12  1  0.348144  0.348144  0.348144  1
  Zr  Zr13  1  0.348144  0.348144  0.955567  1
  Zr  Zr14  1  0.348144  0.955567  0.348144  1
  Zr  Zr15  1  0.955567  0.348144  0.348144  1
  Cd  Cd16  1  0.580546  0.580546  0.580546  1
  Cd  Cd17  1  0.580546  0.580546  0.258362  1
  Cd  Cd18  1  0.580546  0.258362  0.580546  1
  Cd  Cd19  1  0.258362  0.580546  0.580546  1
  Os  Os20  1  0.144578  0.144578  0.144578  1
  Os  Os21  1  0.144578  0.144578  0.566266  1
  Os  Os22  1  0.144578  0.566266  0.144578  1
  Os  Os23  1  0.566266  0.144578  0.144578  1
