# generated using pymatgen
data_Tb8Ta11Si16Ag
_symmetry_space_group_name_H-M   'P 1'
_cell_length_a   7.06345969
_cell_length_b   7.06346015
_cell_length_c   13.03462603
_cell_angle_alpha   90.23173898
_cell_angle_beta   89.76826193
_cell_angle_gamma   89.65110462
_symmetry_Int_Tables_number   1
_chemical_formula_structural   Tb8Ta11Si16Ag
_chemical_formula_sum   'Tb8 Ta11 Si16 Ag1'
_cell_volume   650.30687560
_cell_formula_units_Z   1
loop_
 _symmetry_equiv_pos_site_id
 _symmetry_equiv_pos_as_xyz
  1  'x, y, z'
loop_
 _atom_site_type_symbol
 _atom_site_label
 _atom_site_symmetry_multiplicity
 _atom_site_fract_x
 _atom_site_fract_y
 _atom_site_fract_z
 _atom_site_occupancy
  Tb  Tb0  1  0.341160  0.002347  0.467435  1
  Tb  Tb1  1  0.496478  0.840668  0.717360  1
  Tb  Tb2  1  0.503231  0.158852  0.216252  1
  Tb  Tb3  1  0.840668  0.496478  0.282640  1
  Tb  Tb4  1  0.158852  0.503231  0.783748  1
  Tb  Tb5  1  0.655854  0.000987  0.967885  1
  Tb  Tb6  1  0.002347  0.341160  0.532565  1
  Tb  Tb7  1  0.000987  0.655854  0.032115  1
  Ta  Ta8  1  0.170796  0.827274  0.250040  1
  Ta  Ta9  1  0.827274  0.170796  0.749960  1
  Ta  Ta10  1  0.671175  0.671175  0.500000  1
  Ta  Ta11  1  0.150387  0.008697  0.876090  1
  Ta  Ta12  1  0.497443  0.652916  0.122934  1
  Ta  Ta13  1  0.505402  0.348503  0.623306  1
  Ta  Ta14  1  0.652916  0.497443  0.877066  1
  Ta  Ta15  1  0.348503  0.505402  0.376694  1
  Ta  Ta16  1  0.847053  0.991572  0.373468  1
  Ta  Ta17  1  0.008697  0.150387  0.123910  1
  Ta  Ta18  1  0.991572  0.847053  0.626532  1
  Si  Si19  1  0.201430  0.135328  0.683479  1
  Si  Si20  1  0.371056  0.718062  0.929329  1
  Si  Si21  1  0.634306  0.294880  0.432049  1
  Si  Si22  1  0.718062  0.371056  0.070671  1
  Si  Si23  1  0.294880  0.634306  0.567951  1
  Si  Si24  1  0.797015  0.866012  0.181372  1
  Si  Si25  1  0.135328  0.201430  0.316521  1
  Si  Si26  1  0.866012  0.797015  0.818628  1
  Si  Si27  1  0.289268  0.941161  0.065132  1
  Si  Si28  1  0.544053  0.793221  0.312660  1
  Si  Si29  1  0.456278  0.206483  0.810090  1
  Si  Si30  1  0.793221  0.544053  0.687340  1
  Si  Si31  1  0.206483  0.456278  0.189910  1
  Si  Si32  1  0.705752  0.045079  0.563441  1
  Si  Si33  1  0.941161  0.289268  0.934868  1
  Si  Si34  1  0.045079  0.705752  0.436559  1
  Ag  Ag35  1  0.329822  0.329822  0.000000  1
