# generated using pymatgen
data_La16Cd4FePd3
_symmetry_space_group_name_H-M   'P 1'
_cell_length_a   10.18689842
_cell_length_b   10.18689803
_cell_length_c   10.18689830
_cell_angle_alpha   59.67793255
_cell_angle_beta   59.67793548
_cell_angle_gamma   59.67792916
_symmetry_Int_Tables_number   1
_chemical_formula_structural   La16Cd4FePd3
_chemical_formula_sum   'La16 Cd4 Fe1 Pd3'
_cell_volume   742.03025241
_cell_formula_units_Z   1
loop_
 _symmetry_equiv_pos_site_id
 _symmetry_equiv_pos_as_xyz
  1  'x, y, z'
loop_
 _atom_site_type_symbol
 _atom_site_label
 _atom_site_symmetry_multiplicity
 _atom_site_fract_x
 _atom_site_fract_y
 _atom_site_fract_z
 _atom_site_occupancy
  La  La0  1  0.351576  0.351576  0.351576  1
  La  La1  1  0.342550  0.342550  0.955770  1
  La  La2  1  0.342550  0.955770  0.342550  1
  La  La3  1  0.955770  0.342550  0.342550  1
  La  La4  1  0.824476  0.188271  0.188271  1
  La  La5  1  0.192881  0.806110  0.806110  1
  La  La6  1  0.188271  0.824476  0.188271  1
  La  La7  1  0.806110  0.192881  0.806110  1
  La  La8  1  0.188271  0.188271  0.824476  1
  La  La9  1  0.806110  0.806110  0.192881  1
  La  La10  1  0.936918  0.563369  0.563369  1
  La  La11  1  0.559038  0.937117  0.937117  1
  La  La12  1  0.563369  0.936918  0.563369  1
  La  La13  1  0.937117  0.559038  0.937117  1
  La  La14  1  0.563369  0.563369  0.936918  1
  La  La15  1  0.937117  0.937117  0.559038  1
  Cd  Cd16  1  0.578820  0.578820  0.578820  1
  Cd  Cd17  1  0.579776  0.579776  0.261367  1
  Cd  Cd18  1  0.579776  0.261367  0.579776  1
  Cd  Cd19  1  0.261367  0.579776  0.579776  1
  Fe  Fe20  1  0.142138  0.142138  0.142138  1
  Pd  Pd21  1  0.144410  0.144410  0.573812  1
  Pd  Pd22  1  0.144410  0.573812  0.144410  1
  Pd  Pd23  1  0.573812  0.144410  0.144410  1
