# generated using pymatgen
data_Y4ErGa2Pb
_symmetry_space_group_name_H-M   'P 1'
_cell_length_a   7.87482000
_cell_length_b   7.87482000
_cell_length_c   13.94120800
_cell_angle_alpha   90.00000000
_cell_angle_beta   90.00000000
_cell_angle_gamma   90.00000000
_symmetry_Int_Tables_number   1
_chemical_formula_structural   Y4ErGa2Pb
_chemical_formula_sum   'Y16 Er4 Ga8 Pb4'
_cell_volume   864.53320450
_cell_formula_units_Z   4
loop_
 _symmetry_equiv_pos_site_id
 _symmetry_equiv_pos_as_xyz
  1  'x, y, z'
loop_
 _atom_site_type_symbol
 _atom_site_label
 _atom_site_symmetry_multiplicity
 _atom_site_fract_x
 _atom_site_fract_y
 _atom_site_fract_z
 _atom_site_occupancy
  Y  Y0  1  0.838620  0.836914  0.891731  1
  Y  Y1  1  0.163086  0.161380  0.608269  1
  Y  Y2  1  0.838620  0.163086  0.391731  1
  Y  Y3  1  0.161380  0.836914  0.391731  1
  Y  Y4  1  0.336914  0.338620  0.391731  1
  Y  Y5  1  0.836914  0.161380  0.108269  1
  Y  Y6  1  0.336914  0.661380  0.891731  1
  Y  Y7  1  0.163086  0.838620  0.108269  1
  Y  Y8  1  0.338620  0.663086  0.608269  1
  Y  Y9  1  0.661380  0.663086  0.108269  1
  Y  Y10  1  0.661380  0.336914  0.608269  1
  Y  Y11  1  0.836914  0.838620  0.608269  1
  Y  Y12  1  0.663086  0.338620  0.891731  1
  Y  Y13  1  0.161380  0.163086  0.891731  1
  Y  Y14  1  0.663086  0.661380  0.391731  1
  Y  Y15  1  0.338620  0.336914  0.108269  1
  Er  Er16  1  0.500000  0.000000  0.752018  1
  Er  Er17  1  0.000000  0.500000  0.247982  1
  Er  Er18  1  0.000000  0.500000  0.747982  1
  Er  Er19  1  0.500000  0.000000  0.252018  1
  Ga  Ga20  1  0.632180  0.367820  0.250000  1
  Ga  Ga21  1  0.367820  0.632180  0.250000  1
  Ga  Ga22  1  0.132180  0.132180  0.250000  1
  Ga  Ga23  1  0.367820  0.367820  0.750000  1
  Ga  Ga24  1  0.132180  0.867820  0.750000  1
  Ga  Ga25  1  0.867820  0.867820  0.250000  1
  Ga  Ga26  1  0.632180  0.632180  0.750000  1
  Ga  Ga27  1  0.867820  0.132180  0.750000  1
  Pb  Pb28  1  0.000000  0.500000  0.999797  1
  Pb  Pb29  1  0.500000  0.000000  0.000203  1
  Pb  Pb30  1  0.500000  0.000000  0.500203  1
  Pb  Pb31  1  0.000000  0.500000  0.499797  1
