# generated using pymatgen
data_Na4CeUS6
_symmetry_space_group_name_H-M   'P 1'
_cell_length_a   6.96302892
_cell_length_b   6.96302956
_cell_length_c   7.02845300
_cell_angle_alpha   80.38396564
_cell_angle_beta   80.38398143
_cell_angle_gamma   120.04488527
_symmetry_Int_Tables_number   1
_chemical_formula_structural   Na4CeUS6
_chemical_formula_sum   'Na4 Ce1 U1 S6'
_cell_volume   278.00565370
_cell_formula_units_Z   1
loop_
 _symmetry_equiv_pos_site_id
 _symmetry_equiv_pos_as_xyz
  1  'x, y, z'
loop_
 _atom_site_type_symbol
 _atom_site_label
 _atom_site_symmetry_multiplicity
 _atom_site_fract_x
 _atom_site_fract_y
 _atom_site_fract_z
 _atom_site_occupancy
  Na  Na0  1  0.000037  0.999963  0.000000  1
  Na  Na1  1  0.500633  0.499367  0.500000  1
  Na  Na2  1  0.838310  0.161690  0.500000  1
  Na  Na3  1  0.160642  0.839358  0.500000  1
  Ce  Ce4  1  0.667415  0.332585  0.000000  1
  U  U5  1  0.332793  0.667207  0.000000  1
  S  S6  1  0.268247  0.282607  0.231521  1
  S  S7  1  0.423023  0.062413  0.769686  1
  S  S8  1  0.091411  0.437491  0.772727  1
  S  S9  1  0.717393  0.731753  0.768479  1
  S  S10  1  0.562509  0.908589  0.227273  1
  S  S11  1  0.937587  0.576977  0.230314  1
