# generated using pymatgen
data_Ti2FeAs2Pt
_symmetry_space_group_name_H-M   'P 1'
_cell_length_a   7.07321213
_cell_length_b   7.07321145
_cell_length_c   5.86099400
_cell_angle_alpha   114.47581591
_cell_angle_beta   114.47581341
_cell_angle_gamma   48.95164219
_symmetry_Int_Tables_number   1
_chemical_formula_structural   Ti2FeAs2Pt
_chemical_formula_sum   'Ti4 Fe2 As4 Pt2'
_cell_volume   196.89800373
_cell_formula_units_Z   2
loop_
 _symmetry_equiv_pos_site_id
 _symmetry_equiv_pos_as_xyz
  1  'x, y, z'
loop_
 _atom_site_type_symbol
 _atom_site_label
 _atom_site_symmetry_multiplicity
 _atom_site_fract_x
 _atom_site_fract_y
 _atom_site_fract_z
 _atom_site_occupancy
  Ti  Ti0  1  0.641408  0.358591  0.000000  1
  Ti  Ti1  1  0.374999  0.125001  0.266410  1
  Ti  Ti2  1  0.108590  0.891410  0.499999  1
  Ti  Ti3  1  0.875000  0.625001  0.733591  1
  Fe  Fe4  1  0.000000  0.250001  0.375000  1
  Fe  Fe5  1  0.749999  0.000000  0.625001  1
  As  As6  1  0.101403  0.898597  0.000000  1
  As  As7  1  0.874999  0.625001  0.273596  1
  As  As8  1  0.648595  0.351405  0.499999  1
  As  As9  1  0.375000  0.125001  0.726405  1
  Pt  Pt10  1  0.249999  0.500000  0.124999  1
  Pt  Pt11  1  0.500000  0.750001  0.875001  1
