# generated using pymatgen
data_Dy3CdHgRu
_symmetry_space_group_name_H-M   'P 1'
_cell_length_a   3.53813000
_cell_length_b   3.53813000
_cell_length_c   11.51714400
_cell_angle_alpha   90.00000000
_cell_angle_beta   90.00000000
_cell_angle_gamma   90.00000000
_symmetry_Int_Tables_number   1
_chemical_formula_structural   Dy3CdHgRu
_chemical_formula_sum   'Dy3 Cd1 Hg1 Ru1'
_cell_volume   144.17579964
_cell_formula_units_Z   1
loop_
 _symmetry_equiv_pos_site_id
 _symmetry_equiv_pos_as_xyz
  1  'x, y, z'
loop_
 _atom_site_type_symbol
 _atom_site_label
 _atom_site_symmetry_multiplicity
 _atom_site_fract_x
 _atom_site_fract_y
 _atom_site_fract_z
 _atom_site_occupancy
  Dy  Dy0  1  0.000000  0.000000  0.977067  1
  Dy  Dy1  1  0.000000  0.000000  0.327320  1
  Dy  Dy2  1  0.000000  0.000000  0.696004  1
  Cd  Cd3  1  0.500000  0.500000  0.505706  1
  Hg  Hg4  1  0.500000  0.500000  0.157643  1
  Ru  Ru5  1  0.500000  0.500000  0.836258  1
