# generated using pymatgen
data_Hf4Ga3Si3Ir7
_symmetry_space_group_name_H-M   'P 1'
_cell_length_a   7.04108931
_cell_length_b   7.04109004
_cell_length_c   7.04108858
_cell_angle_alpha   109.25318104
_cell_angle_beta   109.25317973
_cell_angle_gamma   109.25318625
_symmetry_Int_Tables_number   1
_chemical_formula_structural   Hf4Ga3Si3Ir7
_chemical_formula_sum   'Hf4 Ga3 Si3 Ir7'
_cell_volume   270.86611582
_cell_formula_units_Z   1
loop_
 _symmetry_equiv_pos_site_id
 _symmetry_equiv_pos_as_xyz
  1  'x, y, z'
loop_
 _atom_site_type_symbol
 _atom_site_label
 _atom_site_symmetry_multiplicity
 _atom_site_fract_x
 _atom_site_fract_y
 _atom_site_fract_z
 _atom_site_occupancy
  Hf  Hf0  1  0.548007  0.548007  0.548007  1
  Hf  Hf1  1  0.004230  0.004230  0.525178  1
  Hf  Hf2  1  0.004230  0.525178  0.004230  1
  Hf  Hf3  1  0.525178  0.004230  0.004230  1
  Ga  Ga4  1  0.016775  0.301152  0.301152  1
  Ga  Ga5  1  0.301152  0.016775  0.301152  1
  Ga  Ga6  1  0.301152  0.301152  0.016775  1
  Si  Si7  1  0.006728  0.671810  0.671810  1
  Si  Si8  1  0.671810  0.006728  0.671810  1
  Si  Si9  1  0.671810  0.671810  0.006728  1
  Ir  Ir10  1  0.499629  0.751935  0.250273  1
  Ir  Ir11  1  0.250273  0.499629  0.751935  1
  Ir  Ir12  1  0.751935  0.250273  0.499629  1
  Ir  Ir13  1  0.751935  0.499629  0.250273  1
  Ir  Ir14  1  0.499629  0.250273  0.751935  1
  Ir  Ir15  1  0.250273  0.751935  0.499629  1
  Ir  Ir16  1  0.945254  0.945254  0.945254  1
