# generated using pymatgen
data_Tb2Mn2Co3P6Ir5
_symmetry_space_group_name_H-M   'P 1'
_cell_length_a   3.82106800
_cell_length_b   10.63950200
_cell_length_c   12.35783300
_cell_angle_alpha   90.00000000
_cell_angle_beta   90.00000000
_cell_angle_gamma   90.00000000
_symmetry_Int_Tables_number   1
_chemical_formula_structural   Tb2Mn2Co3P6Ir5
_chemical_formula_sum   'Tb4 Mn4 Co6 P12 Ir10'
_cell_volume   502.39856358
_cell_formula_units_Z   2
loop_
 _symmetry_equiv_pos_site_id
 _symmetry_equiv_pos_as_xyz
  1  'x, y, z'
loop_
 _atom_site_type_symbol
 _atom_site_label
 _atom_site_symmetry_multiplicity
 _atom_site_fract_x
 _atom_site_fract_y
 _atom_site_fract_z
 _atom_site_occupancy
  Tb  Tb0  1  0.250000  0.580065  0.711677  1
  Tb  Tb1  1  0.250000  0.919935  0.211677  1
  Tb  Tb2  1  0.750000  0.415446  0.291142  1
  Tb  Tb3  1  0.750000  0.084554  0.791142  1
  Mn  Mn4  1  0.250000  0.709698  0.982337  1
  Mn  Mn5  1  0.250000  0.790302  0.482337  1
  Mn  Mn6  1  0.750000  0.290797  0.011008  1
  Mn  Mn7  1  0.750000  0.209203  0.511008  1
  Co  Co8  1  0.750000  0.117326  0.306794  1
  Co  Co9  1  0.750000  0.382674  0.806794  1
  Co  Co10  1  0.250000  0.463464  0.934523  1
  Co  Co11  1  0.250000  0.036536  0.434523  1
  Co  Co12  1  0.750000  0.533813  0.062910  1
  Co  Co13  1  0.750000  0.966187  0.562910  1
  P  P14  1  0.250000  0.421462  0.106088  1
  P  P15  1  0.250000  0.078538  0.606088  1
  P  P16  1  0.750000  0.568470  0.889631  1
  P  P17  1  0.750000  0.931530  0.389631  1
  P  P18  1  0.250000  0.274439  0.868800  1
  P  P19  1  0.250000  0.225561  0.368800  1
  P  P20  1  0.750000  0.728294  0.127504  1
  P  P21  1  0.750000  0.771706  0.627504  1
  P  P22  1  0.250000  0.600518  0.389628  1
  P  P23  1  0.250000  0.899482  0.889628  1
  P  P24  1  0.750000  0.401335  0.619946  1
  P  P25  1  0.750000  0.098665  0.119946  1
  Ir  Ir26  1  0.250000  0.403361  0.479034  1
  Ir  Ir27  1  0.250000  0.096639  0.979034  1
  Ir  Ir28  1  0.750000  0.594083  0.520905  1
  Ir  Ir29  1  0.750000  0.905917  0.020905  1
  Ir  Ir30  1  0.250000  0.222679  0.179523  1
  Ir  Ir31  1  0.250000  0.277321  0.679523  1
  Ir  Ir32  1  0.750000  0.768681  0.822626  1
  Ir  Ir33  1  0.750000  0.731319  0.322626  1
  Ir  Ir34  1  0.250000  0.886548  0.695923  1
  Ir  Ir35  1  0.250000  0.613452  0.195923  1
