# generated using pymatgen
data_Hf4Sc3Ru8W
_symmetry_space_group_name_H-M   'P 1'
_cell_length_a   6.42486301
_cell_length_b   6.41892102
_cell_length_c   6.44373203
_cell_angle_alpha   90.00847232
_cell_angle_beta   90.00549435
_cell_angle_gamma   89.99705536
_symmetry_Int_Tables_number   1
_chemical_formula_structural   Hf4Sc3Ru8W
_chemical_formula_sum   'Hf4 Sc3 Ru8 W1'
_cell_volume   265.74393894
_cell_formula_units_Z   1
loop_
 _symmetry_equiv_pos_site_id
 _symmetry_equiv_pos_as_xyz
  1  'x, y, z'
loop_
 _atom_site_type_symbol
 _atom_site_label
 _atom_site_symmetry_multiplicity
 _atom_site_fract_x
 _atom_site_fract_y
 _atom_site_fract_z
 _atom_site_occupancy
  Hf  Hf0  1  0.749952  0.249992  0.999988  1
  Hf  Hf1  1  0.250046  0.750002  0.999974  1
  Hf  Hf2  1  0.249972  0.750008  0.499998  1
  Hf  Hf3  1  0.750038  0.249989  0.500032  1
  Sc  Sc4  1  0.250098  0.249988  0.499491  1
  Sc  Sc5  1  0.749927  0.750011  0.500630  1
  Sc  Sc6  1  0.249904  0.249987  0.999416  1
  Ru  Ru7  1  0.504613  0.504569  0.245951  1
  Ru  Ru8  1  0.504599  0.995449  0.245970  1
  Ru  Ru9  1  0.995438  0.504570  0.245968  1
  Ru  Ru10  1  0.995444  0.995465  0.245997  1
  Ru  Ru11  1  0.995474  0.504475  0.753983  1
  Ru  Ru12  1  0.995450  0.995470  0.754028  1
  Ru  Ru13  1  0.504500  0.504497  0.753981  1
  Ru  Ru14  1  0.504471  0.995528  0.753977  1
  W  W15  1  0.750078  0.749993  0.000617  1
