# generated using pymatgen
data_La8Pr2Sn6AuI
_symmetry_space_group_name_H-M   'P 1'
_cell_length_a   9.77499700
_cell_length_b   9.77499649
_cell_length_c   6.94636600
_cell_angle_alpha   90.00000000
_cell_angle_beta   90.00000000
_cell_angle_gamma   119.99999158
_symmetry_Int_Tables_number   1
_chemical_formula_structural   La8Pr2Sn6AuI
_chemical_formula_sum   'La8 Pr2 Sn6 Au1 I1'
_cell_volume   574.80637183
_cell_formula_units_Z   1
loop_
 _symmetry_equiv_pos_site_id
 _symmetry_equiv_pos_as_xyz
  1  'x, y, z'
loop_
 _atom_site_type_symbol
 _atom_site_label
 _atom_site_symmetry_multiplicity
 _atom_site_fract_x
 _atom_site_fract_y
 _atom_site_fract_z
 _atom_site_occupancy
  La  La0  1  0.271939  0.000000  0.758950  1
  La  La1  1  0.728061  0.000000  0.241050  1
  La  La2  1  0.000000  0.271939  0.758950  1
  La  La3  1  0.000000  0.728061  0.241050  1
  La  La4  1  0.728061  0.728061  0.758950  1
  La  La5  1  0.271939  0.271939  0.241050  1
  La  La6  1  0.333333  0.666667  0.500000  1
  La  La7  1  0.666667  0.333333  0.500000  1
  Pr  Pr8  1  0.666667  0.333333  0.000000  1
  Pr  Pr9  1  0.333333  0.666667  0.000000  1
  Sn  Sn10  1  0.616949  0.000000  0.751024  1
  Sn  Sn11  1  0.383051  0.000000  0.248976  1
  Sn  Sn12  1  0.000000  0.616949  0.751024  1
  Sn  Sn13  1  0.000000  0.383051  0.248976  1
  Sn  Sn14  1  0.383051  0.383051  0.751024  1
  Sn  Sn15  1  0.616949  0.616949  0.248976  1
  Au  Au16  1  0.000000  0.000000  0.000000  1
  I  I17  1  0.000000  0.000000  0.500000  1
