# generated using pymatgen
data_MgCo2(AsO4)2
_symmetry_space_group_name_H-M   'P 1'
_cell_length_a   5.35080101
_cell_length_b   7.97568382
_cell_length_c   8.57132124
_cell_angle_alpha   89.99985848
_cell_angle_beta   89.99628486
_cell_angle_gamma   96.63014274
_symmetry_Int_Tables_number   1
_chemical_formula_structural   MgCo2(AsO4)2
_chemical_formula_sum   'Mg2 Co4 As4 O16'
_cell_volume   363.34589107
_cell_formula_units_Z   2
loop_
 _symmetry_equiv_pos_site_id
 _symmetry_equiv_pos_as_xyz
  1  'x, y, z'
loop_
 _atom_site_type_symbol
 _atom_site_label
 _atom_site_symmetry_multiplicity
 _atom_site_fract_x
 _atom_site_fract_y
 _atom_site_fract_z
 _atom_site_occupancy
  Mg  Mg0  1  0.000005  0.500000  0.500003  1
  Mg  Mg1  1  0.500001  0.999997  0.999997  1
  Co  Co2  1  0.906452  0.390424  0.859087  1
  Co  Co3  1  0.093553  0.609579  0.140913  1
  Co  Co4  1  0.406551  0.890415  0.640923  1
  Co  Co5  1  0.593442  0.109584  0.359078  1
  As  As6  1  0.456513  0.302279  0.695623  1
  As  As7  1  0.956573  0.802284  0.804367  1
  As  As8  1  0.543496  0.697723  0.304377  1
  As  As9  1  0.043416  0.197714  0.195631  1
  O  O10  1  0.433538  0.133343  0.568463  1
  O  O11  1  0.933623  0.633352  0.931536  1
  O  O12  1  0.566455  0.866661  0.431536  1
  O  O13  1  0.066370  0.366651  0.068467  1
  O  O14  1  0.571452  0.240073  0.873629  1
  O  O15  1  0.071523  0.740068  0.626358  1
  O  O16  1  0.428554  0.759924  0.126368  1
  O  O17  1  0.928475  0.259929  0.373643  1
  O  O18  1  0.171624  0.381650  0.695184  1
  O  O19  1  0.671707  0.881676  0.804818  1
  O  O20  1  0.828388  0.618355  0.304821  1
  O  O21  1  0.328283  0.118324  0.195183  1
  O  O22  1  0.694005  0.455221  0.643864  1
  O  O23  1  0.194059  0.955209  0.856125  1
  O  O24  1  0.306008  0.544780  0.356138  1
  O  O25  1  0.805933  0.044787  0.143873  1
