# generated using pymatgen
data_Sc10Tl6S
_symmetry_space_group_name_H-M   'P 1'
_cell_length_a   6.19662603
_cell_length_b   8.58986117
_cell_length_c   8.59120810
_cell_angle_alpha   120.02164008
_cell_angle_beta   89.99454695
_cell_angle_gamma   89.99338151
_symmetry_Int_Tables_number   1
_chemical_formula_structural   Sc10Tl6S
_chemical_formula_sum   'Sc10 Tl6 S1'
_cell_volume   395.94197900
_cell_formula_units_Z   1
loop_
 _symmetry_equiv_pos_site_id
 _symmetry_equiv_pos_as_xyz
  1  'x, y, z'
loop_
 _atom_site_type_symbol
 _atom_site_label
 _atom_site_symmetry_multiplicity
 _atom_site_fract_x
 _atom_site_fract_y
 _atom_site_fract_z
 _atom_site_occupancy
  Sc  Sc0  1  0.500003  0.333329  0.666695  1
  Sc  Sc1  1  0.500002  0.666620  0.333379  1
  Sc  Sc2  1  0.000002  0.666656  0.333369  1
  Sc  Sc3  1  0.000000  0.333319  0.666703  1
  Sc  Sc4  1  0.748621  0.240171  0.999984  1
  Sc  Sc5  1  0.748632  0.759853  0.759791  1
  Sc  Sc6  1  0.748611  0.999999  0.240134  1
  Sc  Sc7  1  0.251369  0.759853  0.999982  1
  Sc  Sc8  1  0.251374  0.240201  0.240135  1
  Sc  Sc9  1  0.251372  0.000005  0.759817  1
  Tl  Tl10  1  0.752877  0.600784  0.999889  1
  Tl  Tl11  1  0.752892  0.399101  0.399191  1
  Tl  Tl12  1  0.752867  0.000114  0.600968  1
  Tl  Tl13  1  0.247131  0.399067  0.999887  1
  Tl  Tl14  1  0.247113  0.600814  0.600914  1
  Tl  Tl15  1  0.247131  0.000105  0.399188  1
  S  S16  1  0.500006  0.000010  0.999978  1
