# generated using pymatgen
data_Tb3HoTm4(B6Os)4
_symmetry_space_group_name_H-M   'P 1'
_cell_length_a   3.63809300
_cell_length_b   9.11347200
_cell_length_c   11.50518400
_cell_angle_alpha   90.00146134
_cell_angle_beta   90.00000000
_cell_angle_gamma   90.00000000
_symmetry_Int_Tables_number   1
_chemical_formula_structural   Tb3HoTm4(B6Os)4
_chemical_formula_sum   'Tb3 Ho1 Tm4 B24 Os4'
_cell_volume   381.46195379
_cell_formula_units_Z   1
loop_
 _symmetry_equiv_pos_site_id
 _symmetry_equiv_pos_as_xyz
  1  'x, y, z'
loop_
 _atom_site_type_symbol
 _atom_site_label
 _atom_site_symmetry_multiplicity
 _atom_site_fract_x
 _atom_site_fract_y
 _atom_site_fract_z
 _atom_site_occupancy
  Tb  Tb0  1  0.000000  0.321769  0.413952  1
  Tb  Tb1  1  0.000000  0.678216  0.586106  1
  Tb  Tb2  1  0.000000  0.821835  0.085981  1
  Ho  Ho3  1  0.000000  0.178423  0.914051  1
  Tm  Tm4  1  0.000000  0.944078  0.372921  1
  Tm  Tm5  1  0.000000  0.056021  0.627118  1
  Tm  Tm6  1  0.000000  0.443879  0.126805  1
  Tm  Tm7  1  0.000000  0.555861  0.873058  1
  B  B8  1  0.500000  0.554284  0.432678  1
  B  B9  1  0.500000  0.445598  0.567442  1
  B  B10  1  0.500000  0.054455  0.066863  1
  B  B11  1  0.500000  0.946194  0.932770  1
  B  B12  1  0.500000  0.749102  0.419385  1
  B  B13  1  0.500000  0.250879  0.580774  1
  B  B14  1  0.500000  0.248942  0.080060  1
  B  B15  1  0.500000  0.751072  0.919364  1
  B  B16  1  0.500000  0.791436  0.266332  1
  B  B17  1  0.500000  0.208323  0.734076  1
  B  B18  1  0.500000  0.291358  0.233411  1
  B  B19  1  0.500000  0.708685  0.766449  1
  B  B20  1  0.500000  0.630877  0.184836  1
  B  B21  1  0.500000  0.368647  0.815430  1
  B  B22  1  0.500000  0.130968  0.315006  1
  B  B23  1  0.500000  0.869214  0.685020  1
  B  B24  1  0.500000  0.983041  0.213423  1
  B  B25  1  0.500000  0.017603  0.786703  1
  B  B26  1  0.500000  0.482886  0.286358  1
  B  B27  1  0.500000  0.516884  0.713711  1
  B  B28  1  0.500000  0.604972  0.028964  1
  B  B29  1  0.500000  0.394222  0.970800  1
  B  B30  1  0.500000  0.104883  0.471069  1
  B  B31  1  0.500000  0.895170  0.528984  1
  Os  Os32  1  0.000000  0.637963  0.320571  1
  Os  Os33  1  0.000000  0.361777  0.679674  1
  Os  Os34  1  0.000000  0.137959  0.179044  1
  Os  Os35  1  0.000000  0.862521  0.820813  1
