# generated using pymatgen
data_Pr2NdY3RuI10
_symmetry_space_group_name_H-M   'P 1'
_cell_length_a   7.87885880
_cell_length_b   9.90749701
_cell_length_c   9.94324683
_cell_angle_alpha   107.15365121
_cell_angle_beta   96.09780599
_cell_angle_gamma   104.97605443
_symmetry_Int_Tables_number   1
_chemical_formula_structural   Pr2NdY3RuI10
_chemical_formula_sum   'Pr2 Nd1 Y3 Ru1 I10'
_cell_volume   702.31739208
_cell_formula_units_Z   1
loop_
 _symmetry_equiv_pos_site_id
 _symmetry_equiv_pos_as_xyz
  1  'x, y, z'
loop_
 _atom_site_type_symbol
 _atom_site_label
 _atom_site_symmetry_multiplicity
 _atom_site_fract_x
 _atom_site_fract_y
 _atom_site_fract_z
 _atom_site_occupancy
  Pr  Pr0  1  0.116679  0.042910  0.759039  1
  Pr  Pr1  1  0.881089  0.956482  0.239792  1
  Nd  Nd2  1  0.969137  0.283235  0.084043  1
  Y  Y3  1  0.648159  0.872036  0.832837  1
  Y  Y4  1  0.351817  0.124868  0.166729  1
  Y  Y5  1  0.031070  0.724163  0.917827  1
  Ru  Ru6  1  0.999437  0.001369  0.000224  1
  I  I7  1  0.355823  0.445203  0.271653  1
  I  I8  1  0.657336  0.555401  0.732356  1
  I  I9  1  0.732321  0.909723  0.544754  1
  I  I10  1  0.086784  0.377052  0.819244  1
  I  I11  1  0.916860  0.627975  0.174318  1
  I  I12  1  0.446629  0.816555  0.086052  1
  I  I13  1  0.547737  0.179280  0.910728  1
  I  I14  1  0.770652  0.257882  0.346275  1
  I  I15  1  0.223516  0.737939  0.659441  1
  I  I16  1  0.264955  0.087928  0.454687  1
