# generated using pymatgen
data_DyAg6NO11
_symmetry_space_group_name_H-M   'P 1'
_cell_length_a   7.08021235
_cell_length_b   7.08021236
_cell_length_c   7.08021142
_cell_angle_alpha   61.84945994
_cell_angle_beta   61.84945694
_cell_angle_gamma   61.84945414
_symmetry_Int_Tables_number   1
_chemical_formula_structural   DyAg6NO11
_chemical_formula_sum   'Dy1 Ag6 N1 O11'
_cell_volume   261.36456520
_cell_formula_units_Z   1
loop_
 _symmetry_equiv_pos_site_id
 _symmetry_equiv_pos_as_xyz
  1  'x, y, z'
loop_
 _atom_site_type_symbol
 _atom_site_label
 _atom_site_symmetry_multiplicity
 _atom_site_fract_x
 _atom_site_fract_y
 _atom_site_fract_z
 _atom_site_occupancy
  Dy  Dy0  1  0.998907  0.998907  0.998907  1
  Ag  Ag1  1  0.498010  0.001107  0.001107  1
  Ag  Ag2  1  0.500273  0.500273  0.000272  1
  Ag  Ag3  1  0.500273  0.000272  0.500273  1
  Ag  Ag4  1  0.001107  0.001107  0.498010  1
  Ag  Ag5  1  0.000272  0.500273  0.500273  1
  Ag  Ag6  1  0.001107  0.498010  0.001107  1
  N  N7  1  0.500115  0.500115  0.500115  1
  O  O8  1  0.587637  0.142745  0.142745  1
  O  O9  1  0.142745  0.587637  0.142745  1
  O  O10  1  0.138020  0.138020  0.138020  1
  O  O11  1  0.142745  0.142745  0.587637  1
  O  O12  1  0.600450  0.600450  0.299381  1
  O  O13  1  0.600450  0.299381  0.600450  1
  O  O14  1  0.299381  0.600450  0.600450  1
  O  O15  1  0.858337  0.858337  0.410394  1
  O  O16  1  0.858337  0.410394  0.858337  1
  O  O17  1  0.861437  0.861437  0.861437  1
  O  O18  1  0.410394  0.858337  0.858337  1
