# generated using pymatgen
data_RbPmSe2
_symmetry_space_group_name_H-M   'P 1'
_cell_length_a   8.69927159
_cell_length_b   8.59123000
_cell_length_c   7.63376620
_cell_angle_alpha   90.00000000
_cell_angle_beta   106.46279924
_cell_angle_gamma   90.00000000
_symmetry_Int_Tables_number   1
_chemical_formula_structural   RbPmSe2
_chemical_formula_sum   'Rb4 Pm4 Se8'
_cell_volume   547.13875797
_cell_formula_units_Z   4
loop_
 _symmetry_equiv_pos_site_id
 _symmetry_equiv_pos_as_xyz
  1  'x, y, z'
loop_
 _atom_site_type_symbol
 _atom_site_label
 _atom_site_symmetry_multiplicity
 _atom_site_fract_x
 _atom_site_fract_y
 _atom_site_fract_z
 _atom_site_occupancy
  Rb  Rb0  1  0.002438  0.750414  0.002240  1
  Rb  Rb1  1  0.997561  0.250415  0.497759  1
  Rb  Rb2  1  0.002439  0.749584  0.502239  1
  Rb  Rb3  1  0.997562  0.249585  0.997761  1
  Pm  Pm4  1  0.501737  0.627026  0.250822  1
  Pm  Pm5  1  0.498262  0.127027  0.249178  1
  Pm  Pm6  1  0.501738  0.872972  0.750822  1
  Pm  Pm7  1  0.498263  0.372973  0.749178  1
  Se  Se8  1  0.691597  0.379868  0.143152  1
  Se  Se9  1  0.308402  0.879869  0.356847  1
  Se  Se10  1  0.691598  0.120131  0.643152  1
  Se  Se11  1  0.308402  0.620131  0.856847  1
  Se  Se12  1  0.694302  0.881594  0.145411  1
  Se  Se13  1  0.305698  0.381595  0.354589  1
  Se  Se14  1  0.694302  0.618406  0.645411  1
  Se  Se15  1  0.305698  0.118406  0.854589  1
