# generated using pymatgen
data_YTh3(CoB4)4
_symmetry_space_group_name_H-M   'P 1'
_cell_length_a   6.90149666
_cell_length_b   6.90137172
_cell_length_c   6.90146524
_cell_angle_alpha   112.47287780
_cell_angle_beta   112.47167463
_cell_angle_gamma   103.62006145
_symmetry_Int_Tables_number   1
_chemical_formula_structural   YTh3(CoB4)4
_chemical_formula_sum   'Y1 Th3 Co4 B16'
_cell_volume   251.10253335
_cell_formula_units_Z   1
loop_
 _symmetry_equiv_pos_site_id
 _symmetry_equiv_pos_as_xyz
  1  'x, y, z'
loop_
 _atom_site_type_symbol
 _atom_site_label
 _atom_site_symmetry_multiplicity
 _atom_site_fract_x
 _atom_site_fract_y
 _atom_site_fract_z
 _atom_site_occupancy
  Y  Y0  1  0.249997  0.750000  0.500004  1
  Th  Th1  1  0.212874  0.212865  0.000009  1
  Th  Th2  1  0.787141  0.787131  0.000002  1
  Th  Th3  1  0.750003  0.250011  0.500000  1
  Co  Co4  1  0.500024  0.269940  0.769987  1
  Co  Co5  1  0.499982  0.730044  0.230035  1
  Co  Co6  1  0.730059  0.499987  0.230012  1
  Co  Co7  1  0.269947  0.500025  0.769963  1
  B  B8  1  0.111855  0.276460  0.388455  1
  B  B9  1  0.887993  0.723390  0.611524  1
  B  B10  1  0.887969  0.276453  0.164559  1
  B  B11  1  0.111888  0.723420  0.835438  1
  B  B12  1  0.723538  0.888140  0.611539  1
  B  B13  1  0.276608  0.112006  0.388476  1
  B  B14  1  0.723546  0.112026  0.835439  1
  B  B15  1  0.276582  0.888105  0.164559  1
  B  B16  1  0.417502  0.419553  0.536555  1
  B  B17  1  0.882996  0.880933  0.463434  1
  B  B18  1  0.580491  0.117056  0.997943  1
  B  B19  1  0.119091  0.582538  0.002065  1
  B  B20  1  0.580447  0.582505  0.463438  1
  B  B21  1  0.119055  0.116987  0.536556  1
  B  B22  1  0.882945  0.419511  0.002059  1
  B  B23  1  0.417466  0.880913  0.997948  1
