# generated using pymatgen
data_Zr10Sn2Bi4Se
_symmetry_space_group_name_H-M   'P 1'
_cell_length_a   5.92284185
_cell_length_b   8.73599010
_cell_length_c   8.71582816
_cell_angle_alpha   120.07682154
_cell_angle_beta   90.03075263
_cell_angle_gamma   89.93837325
_symmetry_Int_Tables_number   1
_chemical_formula_structural   Zr10Sn2Bi4Se
_chemical_formula_sum   'Zr10 Sn2 Bi4 Se1'
_cell_volume   390.25151657
_cell_formula_units_Z   1
loop_
 _symmetry_equiv_pos_site_id
 _symmetry_equiv_pos_as_xyz
  1  'x, y, z'
loop_
 _atom_site_type_symbol
 _atom_site_label
 _atom_site_symmetry_multiplicity
 _atom_site_fract_x
 _atom_site_fract_y
 _atom_site_fract_z
 _atom_site_occupancy
  Zr  Zr0  1  0.496478  0.332787  0.662730  1
  Zr  Zr1  1  0.496475  0.670057  0.337271  1
  Zr  Zr2  1  0.003734  0.669152  0.336529  1
  Zr  Zr3  1  0.003732  0.332622  0.663470  1
  Zr  Zr4  1  0.768952  0.253299  0.000000  1
  Zr  Zr5  1  0.769351  0.746541  0.745238  1
  Zr  Zr6  1  0.769352  0.001304  0.254762  1
  Zr  Zr7  1  0.230851  0.747070  0.000001  1
  Zr  Zr8  1  0.232175  0.253474  0.260124  1
  Zr  Zr9  1  0.232178  0.993350  0.739875  1
  Sn  Sn10  1  0.251438  0.608529  0.609397  1
  Sn  Sn11  1  0.251436  0.999128  0.390604  1
  Bi  Bi12  1  0.747450  0.607983  0.999998  1
  Bi  Bi13  1  0.747113  0.394136  0.392975  1
  Bi  Bi14  1  0.747115  0.001163  0.607025  1
  Bi  Bi15  1  0.252616  0.388923  0.999999  1
  Se  Se16  1  0.499554  0.000485  0.000001  1
