# generated using pymatgen
data_ErIn2Cl5
_symmetry_space_group_name_H-M   'P 1'
_cell_length_a   8.23992100
_cell_length_b   8.51968200
_cell_length_c   13.05197900
_cell_angle_alpha   90.00000000
_cell_angle_beta   90.00000000
_cell_angle_gamma   90.00000000
_symmetry_Int_Tables_number   1
_chemical_formula_structural   ErIn2Cl5
_chemical_formula_sum   'Er4 In8 Cl20'
_cell_volume   916.26859024
_cell_formula_units_Z   4
loop_
 _symmetry_equiv_pos_site_id
 _symmetry_equiv_pos_as_xyz
  1  'x, y, z'
loop_
 _atom_site_type_symbol
 _atom_site_label
 _atom_site_symmetry_multiplicity
 _atom_site_fract_x
 _atom_site_fract_y
 _atom_site_fract_z
 _atom_site_occupancy
  Er  Er0  1  0.928219  0.750000  0.503536  1
  Er  Er1  1  0.071781  0.250000  0.496464  1
  Er  Er2  1  0.428219  0.250000  0.996464  1
  Er  Er3  1  0.571781  0.750000  0.003536  1
  In  In4  1  0.947775  0.004032  0.827192  1
  In  In5  1  0.052225  0.995968  0.172808  1
  In  In6  1  0.447775  0.995968  0.672808  1
  In  In7  1  0.052225  0.504032  0.172808  1
  In  In8  1  0.552225  0.004032  0.327192  1
  In  In9  1  0.947775  0.495968  0.827192  1
  In  In10  1  0.552225  0.495968  0.327192  1
  In  In11  1  0.447775  0.504032  0.672808  1
  Cl  Cl12  1  0.105285  0.750000  0.674397  1
  Cl  Cl13  1  0.894715  0.250000  0.325603  1
  Cl  Cl14  1  0.605285  0.250000  0.825603  1
  Cl  Cl15  1  0.394715  0.750000  0.174397  1
  Cl  Cl16  1  0.841672  0.043895  0.569799  1
  Cl  Cl17  1  0.158328  0.956105  0.430201  1
  Cl  Cl18  1  0.341672  0.956105  0.930201  1
  Cl  Cl19  1  0.158328  0.543895  0.430201  1
  Cl  Cl20  1  0.658328  0.043895  0.069799  1
  Cl  Cl21  1  0.841672  0.456105  0.569799  1
  Cl  Cl22  1  0.658328  0.456105  0.069799  1
  Cl  Cl23  1  0.341672  0.543895  0.930201  1
  Cl  Cl24  1  0.598629  0.750000  0.511085  1
  Cl  Cl25  1  0.401371  0.250000  0.488915  1
  Cl  Cl26  1  0.098629  0.250000  0.988915  1
  Cl  Cl27  1  0.901371  0.750000  0.011085  1
  Cl  Cl28  1  0.654272  0.750000  0.805691  1
  Cl  Cl29  1  0.345728  0.250000  0.194309  1
  Cl  Cl30  1  0.154272  0.250000  0.694309  1
  Cl  Cl31  1  0.845728  0.750000  0.305691  1
