# generated using pymatgen
data_ErNi4P3Ru
_symmetry_space_group_name_H-M   'P 1'
_cell_length_a   3.69674700
_cell_length_b   10.53098700
_cell_length_c   11.80857600
_cell_angle_alpha   90.00000000
_cell_angle_beta   90.00000000
_cell_angle_gamma   90.00000000
_symmetry_Int_Tables_number   1
_chemical_formula_structural   ErNi4P3Ru
_chemical_formula_sum   'Er4 Ni16 P12 Ru4'
_cell_volume   459.71252334
_cell_formula_units_Z   4
loop_
 _symmetry_equiv_pos_site_id
 _symmetry_equiv_pos_as_xyz
  1  'x, y, z'
loop_
 _atom_site_type_symbol
 _atom_site_label
 _atom_site_symmetry_multiplicity
 _atom_site_fract_x
 _atom_site_fract_y
 _atom_site_fract_z
 _atom_site_occupancy
  Er  Er0  1  0.250000  0.589788  0.704513  1
  Er  Er1  1  0.250000  0.910212  0.204513  1
  Er  Er2  1  0.750000  0.410212  0.295487  1
  Er  Er3  1  0.750000  0.089788  0.795487  1
  Ni  Ni4  1  0.250000  0.410105  0.488905  1
  Ni  Ni5  1  0.250000  0.089895  0.988905  1
  Ni  Ni6  1  0.750000  0.589895  0.511095  1
  Ni  Ni7  1  0.750000  0.910105  0.011095  1
  Ni  Ni8  1  0.250000  0.219183  0.182049  1
  Ni  Ni9  1  0.250000  0.280817  0.682049  1
  Ni  Ni10  1  0.750000  0.780817  0.817951  1
  Ni  Ni11  1  0.750000  0.719183  0.317951  1
  Ni  Ni12  1  0.250000  0.890123  0.702154  1
  Ni  Ni13  1  0.250000  0.609877  0.202154  1
  Ni  Ni14  1  0.750000  0.109877  0.297846  1
  Ni  Ni15  1  0.750000  0.390123  0.797846  1
  Ni  Ni16  1  0.250000  0.467057  0.929653  1
  Ni  Ni17  1  0.250000  0.032943  0.429653  1
  Ni  Ni18  1  0.750000  0.532943  0.070347  1
  Ni  Ni19  1  0.750000  0.967057  0.570347  1
  P  P20  1  0.250000  0.414078  0.112180  1
  P  P21  1  0.250000  0.085922  0.612180  1
  P  P22  1  0.750000  0.585922  0.887820  1
  P  P23  1  0.750000  0.914078  0.387820  1
  P  P24  1  0.250000  0.269100  0.873958  1
  P  P25  1  0.250000  0.230900  0.373958  1
  P  P26  1  0.750000  0.730900  0.126042  1
  P  P27  1  0.750000  0.769100  0.626042  1
  P  P28  1  0.250000  0.594556  0.389047  1
  P  P29  1  0.250000  0.905444  0.889047  1
  P  P30  1  0.750000  0.405444  0.610953  1
  P  P31  1  0.750000  0.094556  0.110953  1
  Ru  Ru32  1  0.250000  0.714154  0.986359  1
  Ru  Ru33  1  0.250000  0.785846  0.486359  1
  Ru  Ru34  1  0.750000  0.285846  0.013641  1
  Ru  Ru35  1  0.750000  0.214154  0.513641  1
