# generated using pymatgen
data_Tb8Lu4Co4PbAu
_symmetry_space_group_name_H-M   'P 1'
_cell_length_a   8.33467466
_cell_length_b   8.33467362
_cell_length_c   8.33467543
_cell_angle_alpha   111.45062308
_cell_angle_beta   110.04460718
_cell_angle_gamma   106.95072862
_symmetry_Int_Tables_number   1
_chemical_formula_structural   Tb8Lu4Co4PbAu
_chemical_formula_sum   'Tb8 Lu4 Co4 Pb1 Au1'
_cell_volume   444.98784257
_cell_formula_units_Z   1
loop_
 _symmetry_equiv_pos_site_id
 _symmetry_equiv_pos_as_xyz
  1  'x, y, z'
loop_
 _atom_site_type_symbol
 _atom_site_label
 _atom_site_symmetry_multiplicity
 _atom_site_fract_x
 _atom_site_fract_y
 _atom_site_fract_z
 _atom_site_occupancy
  Tb  Tb0  1  0.425508  0.220768  0.204740  1
  Tb  Tb1  1  0.574492  0.779232  0.795260  1
  Tb  Tb2  1  0.016028  0.220768  0.795260  1
  Tb  Tb3  1  0.983972  0.779232  0.204740  1
  Tb  Tb4  1  0.184602  0.288664  0.473266  1
  Tb  Tb5  1  0.815398  0.711336  0.526734  1
  Tb  Tb6  1  0.184602  0.711336  0.895938  1
  Tb  Tb7  1  0.815398  0.288664  0.104062  1
  Lu  Lu8  1  0.316965  0.626750  0.309784  1
  Lu  Lu9  1  0.683035  0.373250  0.690216  1
  Lu  Lu10  1  0.316965  0.007180  0.690216  1
  Lu  Lu11  1  0.683035  0.992820  0.309784  1
  Co  Co12  1  0.378743  0.000000  0.378743  1
  Co  Co13  1  0.621257  0.000000  0.621257  1
  Co  Co14  1  0.113623  0.613623  0.500000  1
  Co  Co15  1  0.886377  0.386377  0.500000  1
  Pb  Pb16  1  0.500000  0.500000  0.000000  1
  Au  Au17  1  0.000000  0.000000  0.000000  1
