# generated using pymatgen
data_SmErCCl
_symmetry_space_group_name_H-M   'P 1'
_cell_length_a   3.65985900
_cell_length_b   3.65985986
_cell_length_c   13.79479100
_cell_angle_alpha   90.00000000
_cell_angle_beta   90.00000000
_cell_angle_gamma   120.00001931
_symmetry_Int_Tables_number   1
_chemical_formula_structural   SmErCCl
_chemical_formula_sum   'Sm2 Er2 C2 Cl2'
_cell_volume   160.02007988
_cell_formula_units_Z   2
loop_
 _symmetry_equiv_pos_site_id
 _symmetry_equiv_pos_as_xyz
  1  'x, y, z'
loop_
 _atom_site_type_symbol
 _atom_site_label
 _atom_site_symmetry_multiplicity
 _atom_site_fract_x
 _atom_site_fract_y
 _atom_site_fract_z
 _atom_site_occupancy
  Sm  Sm0  1  0.666667  0.333333  0.905313  1
  Sm  Sm1  1  0.333333  0.666667  0.405313  1
  Er  Er2  1  0.333333  0.666667  0.093983  1
  Er  Er3  1  0.666667  0.333333  0.593983  1
  C  C4  1  0.000000  0.000000  0.006904  1
  C  C5  1  0.000000  0.000000  0.506904  1
  Cl  Cl6  1  0.666667  0.333333  0.243800  1
  Cl  Cl7  1  0.333333  0.666667  0.743800  1
