# generated using pymatgen
data_LuMn12NbP7
_symmetry_space_group_name_H-M   'P 1'
_cell_length_a   9.16616301
_cell_length_b   9.16610855
_cell_length_c   3.55770700
_cell_angle_alpha   90.00000000
_cell_angle_beta   90.00000000
_cell_angle_gamma   119.99586641
_symmetry_Int_Tables_number   1
_chemical_formula_structural   LuMn12NbP7
_chemical_formula_sum   'Lu1 Mn12 Nb1 P7'
_cell_volume   258.87580985
_cell_formula_units_Z   1
loop_
 _symmetry_equiv_pos_site_id
 _symmetry_equiv_pos_as_xyz
  1  'x, y, z'
loop_
 _atom_site_type_symbol
 _atom_site_label
 _atom_site_symmetry_multiplicity
 _atom_site_fract_x
 _atom_site_fract_y
 _atom_site_fract_z
 _atom_site_occupancy
  Lu  Lu0  1  0.666686  0.333318  0.500000  1
  Mn  Mn1  1  0.425566  0.046797  0.000000  1
  Mn  Mn2  1  0.159871  0.281266  0.000000  1
  Mn  Mn3  1  0.953272  0.378838  0.000000  1
  Mn  Mn4  1  0.621111  0.574336  0.000000  1
  Mn  Mn5  1  0.121409  0.840168  0.000000  1
  Mn  Mn6  1  0.718782  0.878633  0.000000  1
  Mn  Mn7  1  0.229983  0.104480  0.500000  1
  Mn  Mn8  1  0.895668  0.125659  0.500000  1
  Mn  Mn9  1  0.391973  0.440655  0.500000  1
  Mn  Mn10  1  0.048677  0.607896  0.500000  1
  Mn  Mn11  1  0.874520  0.770015  0.500000  1
  Mn  Mn12  1  0.559268  0.951364  0.500000  1
  Nb  Nb13  1  0.333276  0.666603  0.000000  1
  P  P14  1  0.000146  0.000132  0.000000  1
  P  P15  1  0.709313  0.123132  0.000000  1
  P  P16  1  0.413681  0.290709  0.000000  1
  P  P17  1  0.876970  0.586219  0.000000  1
  P  P18  1  0.132247  0.414546  0.500000  1
  P  P19  1  0.585250  0.717493  0.500000  1
  P  P20  1  0.282330  0.867743  0.500000  1
