# generated using pymatgen
data_Er20Bi8Os3Pt
_symmetry_space_group_name_H-M   'P 1'
_cell_length_a   7.92910475
_cell_length_b   9.01327900
_cell_length_c   12.43170359
_cell_angle_alpha   90.00000000
_cell_angle_beta   89.87396329
_cell_angle_gamma   90.00000000
_symmetry_Int_Tables_number   1
_chemical_formula_structural   Er20Bi8Os3Pt
_chemical_formula_sum   'Er20 Bi8 Os3 Pt1'
_cell_volume   888.45731173
_cell_formula_units_Z   1
loop_
 _symmetry_equiv_pos_site_id
 _symmetry_equiv_pos_as_xyz
  1  'x, y, z'
loop_
 _atom_site_type_symbol
 _atom_site_label
 _atom_site_symmetry_multiplicity
 _atom_site_fract_x
 _atom_site_fract_y
 _atom_site_fract_z
 _atom_site_occupancy
  Er  Er0  1  0.661017  0.750000  0.706335  1
  Er  Er1  1  0.336837  0.250000  0.290920  1
  Er  Er2  1  0.163966  0.250000  0.791772  1
  Er  Er3  1  0.832478  0.750000  0.211518  1
  Er  Er4  1  0.131411  0.750000  0.808469  1
  Er  Er5  1  0.872693  0.250000  0.188949  1
  Er  Er6  1  0.625604  0.250000  0.690146  1
  Er  Er7  1  0.372458  0.750000  0.309299  1
  Er  Er8  1  0.552868  0.750000  0.997708  1
  Er  Er9  1  0.445903  0.250000  0.002904  1
  Er  Er10  1  0.060000  0.250000  0.504029  1
  Er  Er11  1  0.942856  0.750000  0.496753  1
  Er  Er12  1  0.825920  0.451395  0.932694  1
  Er  Er13  1  0.174125  0.537590  0.067287  1
  Er  Er14  1  0.327585  0.543020  0.565671  1
  Er  Er15  1  0.174125  0.962410  0.067287  1
  Er  Er16  1  0.671472  0.458763  0.434381  1
  Er  Er17  1  0.825920  0.048605  0.932694  1
  Er  Er18  1  0.671472  0.041237  0.434381  1
  Er  Er19  1  0.327585  0.956980  0.565671  1
  Bi  Bi20  1  0.936051  0.006998  0.673374  1
  Bi  Bi21  1  0.063274  0.992978  0.327514  1
  Bi  Bi22  1  0.436961  0.992342  0.827804  1
  Bi  Bi23  1  0.063274  0.507022  0.327514  1
  Bi  Bi24  1  0.564405  0.007363  0.172480  1
  Bi  Bi25  1  0.936051  0.493002  0.673374  1
  Bi  Bi26  1  0.564405  0.492637  0.172480  1
  Bi  Bi27  1  0.436961  0.507658  0.827804  1
  Os  Os28  1  0.075766  0.250000  0.009363  1
  Os  Os29  1  0.424904  0.250000  0.508903  1
  Os  Os30  1  0.575545  0.750000  0.489243  1
  Pt  Pt31  1  0.926106  0.750000  0.991280  1
