# generated using pymatgen
data_YTh3(SnPd2)2
_symmetry_space_group_name_H-M   'P 1'
_cell_length_a   7.86346412
_cell_length_b   7.86346376
_cell_length_c   3.84737700
_cell_angle_alpha   90.00000000
_cell_angle_beta   90.00000000
_cell_angle_gamma   90.39504354
_symmetry_Int_Tables_number   1
_chemical_formula_structural   YTh3(SnPd2)2
_chemical_formula_sum   'Y1 Th3 Sn2 Pd4'
_cell_volume   237.89330533
_cell_formula_units_Z   1
loop_
 _symmetry_equiv_pos_site_id
 _symmetry_equiv_pos_as_xyz
  1  'x, y, z'
loop_
 _atom_site_type_symbol
 _atom_site_label
 _atom_site_symmetry_multiplicity
 _atom_site_fract_x
 _atom_site_fract_y
 _atom_site_fract_z
 _atom_site_occupancy
  Y  Y0  1  0.824126  0.675874  0.500000  1
  Th  Th1  1  0.676645  0.174791  0.500000  1
  Th  Th2  1  0.325209  0.823355  0.500000  1
  Th  Th3  1  0.172528  0.327472  0.500000  1
  Sn  Sn4  1  0.507323  0.504156  0.000000  1
  Sn  Sn5  1  0.995844  0.992677  0.000000  1
  Pd  Pd6  1  0.129267  0.625764  0.000000  1
  Pd  Pd7  1  0.874236  0.370733  0.000000  1
  Pd  Pd8  1  0.624230  0.875770  0.000000  1
  Pd  Pd9  1  0.370590  0.129410  0.000000  1
