# generated using pymatgen
data_La(PrSn4)3
_symmetry_space_group_name_H-M   'P 1'
_cell_length_a   12.25118488
_cell_length_b   12.25118540
_cell_length_c   12.25118461
_cell_angle_alpha   31.47942662
_cell_angle_beta   31.47942950
_cell_angle_gamma   31.47943082
_symmetry_Int_Tables_number   1
_chemical_formula_structural   La(PrSn4)3
_chemical_formula_sum   'La1 Pr3 Sn12'
_cell_volume   445.13997805
_cell_formula_units_Z   1
loop_
 _symmetry_equiv_pos_site_id
 _symmetry_equiv_pos_as_xyz
  1  'x, y, z'
loop_
 _atom_site_type_symbol
 _atom_site_label
 _atom_site_symmetry_multiplicity
 _atom_site_fract_x
 _atom_site_fract_y
 _atom_site_fract_z
 _atom_site_occupancy
  La  La0  1  0.293107  0.293107  0.293107  1
  Pr  Pr1  1  0.878099  0.878099  0.878099  1
  Pr  Pr2  1  0.121803  0.121803  0.121803  1
  Pr  Pr3  1  0.706525  0.706525  0.706525  1
  Sn  Sn4  1  0.294019  0.791464  0.791464  1
  Sn  Sn5  1  0.791464  0.791464  0.294019  1
  Sn  Sn6  1  0.858109  0.384568  0.384568  1
  Sn  Sn7  1  0.384568  0.384568  0.858109  1
  Sn  Sn8  1  0.384568  0.858109  0.384568  1
  Sn  Sn9  1  0.616772  0.139491  0.616772  1
  Sn  Sn10  1  0.139491  0.616772  0.616772  1
  Sn  Sn11  1  0.616772  0.616772  0.139491  1
  Sn  Sn12  1  0.791464  0.294019  0.791464  1
  Sn  Sn13  1  0.208754  0.705736  0.208754  1
  Sn  Sn14  1  0.208754  0.208754  0.705736  1
  Sn  Sn15  1  0.705736  0.208754  0.208754  1
