# generated using pymatgen
data_HoTm7(Nb3Si4)4
_symmetry_space_group_name_H-M   'P 1'
_cell_length_a   7.03711000
_cell_length_b   7.03664221
_cell_length_c   12.96117334
_cell_angle_alpha   90.00366593
_cell_angle_beta   89.98061863
_cell_angle_gamma   89.99396683
_symmetry_Int_Tables_number   1
_chemical_formula_structural   HoTm7(Nb3Si4)4
_chemical_formula_sum   'Ho1 Tm7 Nb12 Si16'
_cell_volume   641.80648255
_cell_formula_units_Z   1
loop_
 _symmetry_equiv_pos_site_id
 _symmetry_equiv_pos_as_xyz
  1  'x, y, z'
loop_
 _atom_site_type_symbol
 _atom_site_label
 _atom_site_symmetry_multiplicity
 _atom_site_fract_x
 _atom_site_fract_y
 _atom_site_fract_z
 _atom_site_occupancy
  Ho  Ho0  1  0.658060  0.001582  0.282102  1
  Tm  Tm1  1  0.998856  0.342011  0.217893  1
  Tm  Tm2  1  0.001222  0.657930  0.718029  1
  Tm  Tm3  1  0.158043  0.499051  0.468297  1
  Tm  Tm4  1  0.501083  0.841939  0.031714  1
  Tm  Tm5  1  0.842285  0.501186  0.967976  1
  Tm  Tm6  1  0.498915  0.157976  0.532054  1
  Tm  Tm7  1  0.342220  0.998874  0.781982  1
  Nb  Nb8  1  0.171596  0.171438  0.999875  1
  Nb  Nb9  1  0.828819  0.828411  0.500260  1
  Nb  Nb10  1  0.328113  0.671100  0.249965  1
  Nb  Nb11  1  0.671528  0.328484  0.750031  1
  Nb  Nb12  1  0.152527  0.993342  0.376657  1
  Nb  Nb13  1  0.847785  0.006615  0.876346  1
  Nb  Nb14  1  0.506364  0.652478  0.626361  1
  Nb  Nb15  1  0.347768  0.493693  0.873777  1
  Nb  Nb16  1  0.492719  0.347698  0.125909  1
  Nb  Nb17  1  0.652425  0.506570  0.373936  1
  Nb  Nb18  1  0.993635  0.152532  0.623591  1
  Nb  Nb19  1  0.006326  0.847096  0.123230  1
  Si  Si20  1  0.293941  0.045660  0.186112  1
  Si  Si21  1  0.705275  0.954364  0.686356  1
  Si  Si22  1  0.453725  0.794195  0.436796  1
  Si  Si23  1  0.205353  0.545868  0.063586  1
  Si  Si24  1  0.545847  0.205396  0.936245  1
  Si  Si25  1  0.794703  0.454535  0.563704  1
  Si  Si26  1  0.045819  0.294891  0.813625  1
  Si  Si27  1  0.954575  0.704618  0.313638  1
  Si  Si28  1  0.364994  0.295437  0.318952  1
  Si  Si29  1  0.634486  0.704857  0.819057  1
  Si  Si30  1  0.204879  0.865834  0.569129  1
  Si  Si31  1  0.134359  0.795094  0.930932  1
  Si  Si32  1  0.795159  0.134358  0.068598  1
  Si  Si33  1  0.866380  0.205684  0.431484  1
  Si  Si34  1  0.295242  0.365666  0.681033  1
  Si  Si35  1  0.704971  0.633538  0.180765  1
