# generated using pymatgen
data_Nd7Pu3Si16Ge
_symmetry_space_group_name_H-M   'P 1'
_cell_length_a   11.26681351
_cell_length_b   11.26688057
_cell_length_c   11.26810300
_cell_angle_alpha   144.72119886
_cell_angle_beta   135.53301584
_cell_angle_gamma   57.99225945
_symmetry_Int_Tables_number   1
_chemical_formula_structural   Nd7Pu3Si16Ge
_chemical_formula_sum   'Nd7 Pu3 Si16 Ge1'
_cell_volume   573.79980889
_cell_formula_units_Z   1
loop_
 _symmetry_equiv_pos_site_id
 _symmetry_equiv_pos_as_xyz
  1  'x, y, z'
loop_
 _atom_site_type_symbol
 _atom_site_label
 _atom_site_symmetry_multiplicity
 _atom_site_fract_x
 _atom_site_fract_y
 _atom_site_fract_z
 _atom_site_occupancy
  Nd  Nd0  1  0.753030  0.762284  0.515236  1
  Nd  Nd1  1  0.448780  0.964131  0.013738  1
  Nd  Nd2  1  0.848931  0.366166  0.014269  1
  Nd  Nd3  1  0.951117  0.965468  0.516274  1
  Nd  Nd4  1  0.152165  0.166994  0.519741  1
  Nd  Nd5  1  0.351167  0.366135  0.517482  1
  Nd  Nd6  1  0.245814  0.760461  0.007708  1
  Pu  Pu7  1  0.549312  0.563445  0.508930  1
  Pu  Pu8  1  0.055437  0.561891  0.012582  1
  Pu  Pu9  1  0.647256  0.168112  0.018226  1
  Si  Si10  1  0.202654  0.589578  0.387761  1
  Si  Si11  1  0.993423  0.083204  0.082763  1
  Si  Si12  1  0.702385  0.297454  0.595053  1
  Si  Si13  1  0.796978  0.197497  0.390561  1
  Si  Si14  1  0.893997  0.506945  0.609536  1
  Si  Si15  1  0.414384  0.858668  0.453967  1
  Si  Si16  1  0.103073  0.703110  0.599369  1
  Si  Si17  1  0.302863  0.897121  0.599387  1
  Si  Si18  1  0.590075  0.037028  0.446056  1
  Si  Si19  1  0.994456  0.429284  0.427038  1
  Si  Si20  1  0.877159  0.839849  0.955759  1
  Si  Si21  1  0.401452  0.500460  0.104611  1
  Si  Si22  1  0.111055  0.059632  0.948737  1
  Si  Si23  1  0.290751  0.243464  0.954280  1
  Si  Si24  1  0.503843  0.402049  0.908735  1
  Si  Si25  1  0.599744  0.699049  0.098670  1
  Ge  Ge26  1  0.718698  0.672016  0.955031  1
