# generated using pymatgen
data_Nb4V4GeAs3
_symmetry_space_group_name_H-M   'P 1'
_cell_length_a   3.52214600
_cell_length_b   6.60818648
_cell_length_c   7.98624546
_cell_angle_alpha   89.80945038
_cell_angle_beta   90.00000000
_cell_angle_gamma   90.00000000
_symmetry_Int_Tables_number   1
_chemical_formula_structural   Nb4V4GeAs3
_chemical_formula_sum   'Nb4 V4 Ge1 As3'
_cell_volume   185.87881568
_cell_formula_units_Z   1
loop_
 _symmetry_equiv_pos_site_id
 _symmetry_equiv_pos_as_xyz
  1  'x, y, z'
loop_
 _atom_site_type_symbol
 _atom_site_label
 _atom_site_symmetry_multiplicity
 _atom_site_fract_x
 _atom_site_fract_y
 _atom_site_fract_z
 _atom_site_occupancy
  Nb  Nb0  1  0.250000  0.043869  0.832330  1
  Nb  Nb1  1  0.250000  0.545589  0.667424  1
  Nb  Nb2  1  0.750000  0.956216  0.167736  1
  Nb  Nb3  1  0.750000  0.454506  0.331024  1
  V  V4  1  0.250000  0.132261  0.443110  1
  V  V5  1  0.250000  0.630921  0.056984  1
  V  V6  1  0.750000  0.870159  0.559125  1
  V  V7  1  0.750000  0.366960  0.941564  1
  Ge  Ge8  1  0.250000  0.754071  0.360489  1
  As  As9  1  0.250000  0.254674  0.139736  1
  As  As10  1  0.750000  0.246705  0.639587  1
  As  As11  1  0.750000  0.744070  0.860895  1
