# generated using pymatgen
data_LaPr2Sn6Ru
_symmetry_space_group_name_H-M   'P 1'
_cell_length_a   8.77760198
_cell_length_b   8.77760246
_cell_length_c   13.52395922
_cell_angle_alpha   89.77427166
_cell_angle_beta   90.22572754
_cell_angle_gamma   148.55530801
_symmetry_Int_Tables_number   1
_chemical_formula_structural   LaPr2Sn6Ru
_chemical_formula_sum   'La2 Pr4 Sn12 Ru2'
_cell_volume   543.56595671
_cell_formula_units_Z   2
loop_
 _symmetry_equiv_pos_site_id
 _symmetry_equiv_pos_as_xyz
  1  'x, y, z'
loop_
 _atom_site_type_symbol
 _atom_site_label
 _atom_site_symmetry_multiplicity
 _atom_site_fract_x
 _atom_site_fract_y
 _atom_site_fract_z
 _atom_site_occupancy
  La  La0  1  0.399324  0.600676  0.404641  1
  La  La1  1  0.600676  0.399324  0.595359  1
  Pr  Pr2  1  0.602314  0.397686  0.250033  1
  Pr  Pr3  1  0.397686  0.602314  0.749967  1
  Pr  Pr4  1  0.399244  0.600756  0.094887  1
  Pr  Pr5  1  0.600756  0.399244  0.905113  1
  Sn  Sn6  1  0.927684  0.072316  0.924033  1
  Sn  Sn7  1  0.072316  0.927684  0.075967  1
  Sn  Sn8  1  0.927348  0.072652  0.577061  1
  Sn  Sn9  1  0.072652  0.927348  0.422939  1
  Sn  Sn10  1  0.959155  0.040845  0.249247  1
  Sn  Sn11  1  0.040845  0.959155  0.750753  1
  Sn  Sn12  1  0.745597  0.254404  0.432454  1
  Sn  Sn13  1  0.254404  0.745596  0.567546  1
  Sn  Sn14  1  0.745603  0.254398  0.067297  1
  Sn  Sn15  1  0.254398  0.745602  0.932703  1
  Sn  Sn16  1  0.234340  0.765660  0.249851  1
  Sn  Sn17  1  0.765660  0.234340  0.750149  1
  Ru  Ru18  1  0.801189  0.198811  0.249971  1
  Ru  Ru19  1  0.198811  0.801189  0.750029  1
