# generated using pymatgen
data_YbScFe3Co9P7
_symmetry_space_group_name_H-M   'P 1'
_cell_length_a   3.53402700
_cell_length_b   8.85512990
_cell_length_c   8.85513100
_cell_angle_alpha   119.99999289
_cell_angle_beta   90.00000000
_cell_angle_gamma   90.00000000
_symmetry_Int_Tables_number   1
_chemical_formula_structural   YbScFe3Co9P7
_chemical_formula_sum   'Yb1 Sc1 Fe3 Co9 P7'
_cell_volume   239.98851202
_cell_formula_units_Z   1
loop_
 _symmetry_equiv_pos_site_id
 _symmetry_equiv_pos_as_xyz
  1  'x, y, z'
loop_
 _atom_site_type_symbol
 _atom_site_label
 _atom_site_symmetry_multiplicity
 _atom_site_fract_x
 _atom_site_fract_y
 _atom_site_fract_z
 _atom_site_occupancy
  Yb  Yb0  1  0.000000  0.666667  0.333333  1
  Sc  Sc1  1  0.500000  0.333333  0.666667  1
  Fe  Fe2  1  0.500000  0.781507  0.905864  1
  Fe  Fe3  1  0.500000  0.124357  0.218493  1
  Fe  Fe4  1  0.500000  0.094136  0.875643  1
  Co  Co5  1  0.000000  0.565772  0.936428  1
  Co  Co6  1  0.000000  0.370657  0.434228  1
  Co  Co7  1  0.000000  0.063572  0.629343  1
  Co  Co8  1  0.000000  0.881757  0.158429  1
  Co  Co9  1  0.000000  0.276671  0.118243  1
  Co  Co10  1  0.000000  0.841571  0.723329  1
  Co  Co11  1  0.500000  0.952939  0.386979  1
  Co  Co12  1  0.500000  0.434041  0.047061  1
  Co  Co13  1  0.500000  0.613021  0.565959  1
  P  P14  1  0.000000  0.000000  0.000000  1
  P  P15  1  0.500000  0.710369  0.114474  1
  P  P16  1  0.500000  0.404106  0.289631  1
  P  P17  1  0.500000  0.885526  0.595894  1
  P  P18  1  0.000000  0.586787  0.704086  1
  P  P19  1  0.000000  0.117299  0.413213  1
  P  P20  1  0.000000  0.295914  0.882701  1
