# generated using pymatgen
data_Tb5Nd3CdHgPt2
_symmetry_space_group_name_H-M   'P 1'
_cell_length_a   9.80960083
_cell_length_b   9.80960071
_cell_length_c   9.77238300
_cell_angle_alpha   60.12542226
_cell_angle_beta   60.12542269
_cell_angle_gamma   60.21503784
_symmetry_Int_Tables_number   1
_chemical_formula_structural   Tb5Nd3CdHgPt2
_chemical_formula_sum   'Tb10 Nd6 Cd2 Hg2 Pt4'
_cell_volume   667.28654715
_cell_formula_units_Z   2
loop_
 _symmetry_equiv_pos_site_id
 _symmetry_equiv_pos_as_xyz
  1  'x, y, z'
loop_
 _atom_site_type_symbol
 _atom_site_label
 _atom_site_symmetry_multiplicity
 _atom_site_fract_x
 _atom_site_fract_y
 _atom_site_fract_z
 _atom_site_occupancy
  Tb  Tb0  1  0.350783  0.350783  0.349577  1
  Tb  Tb1  1  0.350783  0.350783  0.948857  1
  Tb  Tb2  1  0.352546  0.944404  0.351525  1
  Tb  Tb3  1  0.944404  0.352546  0.351525  1
  Tb  Tb4  1  0.810904  0.188702  0.190245  1
  Tb  Tb5  1  0.188702  0.810904  0.810149  1
  Tb  Tb6  1  0.188702  0.810904  0.190245  1
  Tb  Tb7  1  0.810904  0.188702  0.810149  1
  Tb  Tb8  1  0.188729  0.188729  0.811271  1
  Tb  Tb9  1  0.809321  0.809321  0.190679  1
  Nd  Nd10  1  0.938363  0.561122  0.562948  1
  Nd  Nd11  1  0.561122  0.938363  0.937567  1
  Nd  Nd12  1  0.561122  0.938363  0.562948  1
  Nd  Nd13  1  0.938363  0.561122  0.937567  1
  Nd  Nd14  1  0.561021  0.561021  0.938979  1
  Nd  Nd15  1  0.936983  0.936983  0.563017  1
  Cd  Cd16  1  0.579440  0.261651  0.579456  1
  Cd  Cd17  1  0.261651  0.579440  0.579456  1
  Hg  Hg18  1  0.583126  0.583126  0.584836  1
  Hg  Hg19  1  0.583126  0.583126  0.248914  1
  Pt  Pt20  1  0.142931  0.142931  0.143793  1
  Pt  Pt21  1  0.142931  0.142931  0.570345  1
  Pt  Pt22  1  0.142368  0.571683  0.142974  1
  Pt  Pt23  1  0.571683  0.142368  0.142974  1
