# generated using pymatgen
data_Tb10Sn6PH
_symmetry_space_group_name_H-M   'P 1'
_cell_length_a   9.06447000
_cell_length_b   9.06446975
_cell_length_c   6.61633700
_cell_angle_alpha   90.00000000
_cell_angle_beta   90.00000000
_cell_angle_gamma   120.00000092
_symmetry_Int_Tables_number   1
_chemical_formula_structural   Tb10Sn6PH
_chemical_formula_sum   'Tb10 Sn6 P1 H1'
_cell_volume   470.79632612
_cell_formula_units_Z   1
loop_
 _symmetry_equiv_pos_site_id
 _symmetry_equiv_pos_as_xyz
  1  'x, y, z'
loop_
 _atom_site_type_symbol
 _atom_site_label
 _atom_site_symmetry_multiplicity
 _atom_site_fract_x
 _atom_site_fract_y
 _atom_site_fract_z
 _atom_site_occupancy
  Tb  Tb0  1  0.242769  0.000000  0.751221  1
  Tb  Tb1  1  0.757231  0.000000  0.248779  1
  Tb  Tb2  1  0.000000  0.242769  0.751221  1
  Tb  Tb3  1  0.000000  0.757231  0.248779  1
  Tb  Tb4  1  0.757231  0.757231  0.751221  1
  Tb  Tb5  1  0.242769  0.242769  0.248779  1
  Tb  Tb6  1  0.333333  0.666667  0.500000  1
  Tb  Tb7  1  0.666667  0.333333  0.500000  1
  Tb  Tb8  1  0.666667  0.333333  0.000000  1
  Tb  Tb9  1  0.333333  0.666667  0.000000  1
  Sn  Sn10  1  0.604635  0.000000  0.750797  1
  Sn  Sn11  1  0.395365  0.000000  0.249203  1
  Sn  Sn12  1  0.000000  0.604635  0.750797  1
  Sn  Sn13  1  0.000000  0.395365  0.249203  1
  Sn  Sn14  1  0.395365  0.395365  0.750797  1
  Sn  Sn15  1  0.604635  0.604635  0.249203  1
  P  P16  1  0.000000  0.000000  0.500000  1
  H  H17  1  0.000000  0.000000  0.000000  1
