# generated using pymatgen
data_BaTbErSi3O10
_symmetry_space_group_name_H-M   'P 1'
_cell_length_a   5.45431556
_cell_length_b   12.34510300
_cell_length_c   6.91887468
_cell_angle_alpha   90.00000000
_cell_angle_beta   106.44847772
_cell_angle_gamma   90.00000000
_symmetry_Int_Tables_number   1
_chemical_formula_structural   BaTbErSi3O10
_chemical_formula_sum   'Ba2 Tb2 Er2 Si6 O20'
_cell_volume   446.81001245
_cell_formula_units_Z   2
loop_
 _symmetry_equiv_pos_site_id
 _symmetry_equiv_pos_as_xyz
  1  'x, y, z'
loop_
 _atom_site_type_symbol
 _atom_site_label
 _atom_site_symmetry_multiplicity
 _atom_site_fract_x
 _atom_site_fract_y
 _atom_site_fract_z
 _atom_site_occupancy
  Ba  Ba0  1  0.762404  0.250000  0.015732  1
  Ba  Ba1  1  0.237756  0.750000  0.984236  1
  Tb  Tb2  1  0.844407  0.597854  0.316725  1
  Tb  Tb3  1  0.844407  0.902146  0.316725  1
  Er  Er4  1  0.157517  0.100535  0.684148  1
  Er  Er5  1  0.157517  0.399465  0.684148  1
  Si  Si6  1  0.304616  0.062035  0.213784  1
  Si  Si7  1  0.304616  0.437966  0.213784  1
  Si  Si8  1  0.581920  0.250000  0.488135  1
  Si  Si9  1  0.420228  0.750000  0.511690  1
  Si  Si10  1  0.694006  0.559909  0.785480  1
  Si  Si11  1  0.694006  0.940090  0.785480  1
  O  O12  1  0.162664  0.121822  0.001436  1
  O  O13  1  0.162664  0.378179  0.001436  1
  O  O14  1  0.433684  0.554194  0.193363  1
  O  O15  1  0.433684  0.945807  0.193363  1
  O  O16  1  0.548759  0.143599  0.337076  1
  O  O17  1  0.548759  0.356401  0.337076  1
  O  O18  1  0.105057  0.052552  0.354376  1
  O  O19  1  0.105057  0.447449  0.354376  1
  O  O20  1  0.126137  0.750000  0.365056  1
  O  O21  1  0.631184  0.750000  0.385371  1
  O  O22  1  0.371383  0.250000  0.615616  1
  O  O23  1  0.876704  0.250000  0.634645  1
  O  O24  1  0.897427  0.546097  0.649192  1
  O  O25  1  0.897427  0.953902  0.649192  1
  O  O26  1  0.453564  0.642957  0.660844  1
  O  O27  1  0.453564  0.857043  0.660844  1
  O  O28  1  0.558193  0.054390  0.807584  1
  O  O29  1  0.558193  0.445609  0.807584  1
  O  O30  1  0.836249  0.621215  0.995756  1
  O  O31  1  0.836249  0.878784  0.995756  1
