# generated using pymatgen
data_TbY3Sn6Rh7
_symmetry_space_group_name_H-M   'P 1'
_cell_length_a   7.62994830
_cell_length_b   7.62994846
_cell_length_c   7.63073200
_cell_angle_alpha   109.47329826
_cell_angle_beta   109.47329867
_cell_angle_gamma   109.46914212
_symmetry_Int_Tables_number   1
_chemical_formula_structural   TbY3Sn6Rh7
_chemical_formula_sum   'Tb1 Y3 Sn6 Rh7'
_cell_volume   341.96084021
_cell_formula_units_Z   1
loop_
 _symmetry_equiv_pos_site_id
 _symmetry_equiv_pos_as_xyz
  1  'x, y, z'
loop_
 _atom_site_type_symbol
 _atom_site_label
 _atom_site_symmetry_multiplicity
 _atom_site_fract_x
 _atom_site_fract_y
 _atom_site_fract_z
 _atom_site_occupancy
  Tb  Tb0  1  0.000000  0.000000  0.500000  1
  Y  Y1  1  0.500000  0.000000  0.000000  1
  Y  Y2  1  0.000000  0.500000  0.000000  1
  Y  Y3  1  0.500000  0.500000  0.500000  1
  Sn  Sn4  1  0.000000  0.316723  0.316694  1
  Sn  Sn5  1  0.683277  0.000000  0.683306  1
  Sn  Sn6  1  0.683277  0.683277  0.999971  1
  Sn  Sn7  1  0.000000  0.683277  0.683306  1
  Sn  Sn8  1  0.316723  0.000000  0.316694  1
  Sn  Sn9  1  0.316723  0.316723  0.000029  1
  Rh  Rh10  1  0.000000  0.000000  0.000000  1
  Rh  Rh11  1  0.499999  0.749999  0.249999  1
  Rh  Rh12  1  0.749999  0.499999  0.249999  1
  Rh  Rh13  1  0.250001  0.749999  0.500000  1
  Rh  Rh14  1  0.250001  0.500001  0.750001  1
  Rh  Rh15  1  0.500001  0.250001  0.750001  1
  Rh  Rh16  1  0.749999  0.250001  0.500000  1
