# generated using pymatgen
data_KAsH6
_symmetry_space_group_name_H-M   'P 1'
_cell_length_a   4.55104228
_cell_length_b   6.90552830
_cell_length_c   7.25996533
_cell_angle_alpha   72.87234799
_cell_angle_beta   105.54901001
_cell_angle_gamma   130.43669491
_symmetry_Int_Tables_number   1
_chemical_formula_structural   KAsH6
_chemical_formula_sum   'K1 As1 H6'
_cell_volume   165.02370309
_cell_formula_units_Z   1
loop_
 _symmetry_equiv_pos_site_id
 _symmetry_equiv_pos_as_xyz
  1  'x, y, z'
loop_
 _atom_site_type_symbol
 _atom_site_label
 _atom_site_symmetry_multiplicity
 _atom_site_fract_x
 _atom_site_fract_y
 _atom_site_fract_z
 _atom_site_occupancy
  K  K0  1  0.199170  0.080841  0.417214  1
  As  As1  1  0.194256  0.583290  0.399367  1
  H  H2  1  0.720375  0.718710  0.751578  1
  H  H3  1  0.892165  0.602883  0.253805  1
  H  H4  1  0.823292  0.038833  0.995645  1
  H  H5  1  0.837478  0.146705  0.013664  1
  H  H6  1  0.854809  0.700215  0.826679  1
  H  H7  1  0.989434  0.516524  0.572954  1
