# generated using pymatgen
data_Ho5Th3(Pt2Pb)4
_symmetry_space_group_name_H-M   'P 1'
_cell_length_a   8.07050993
_cell_length_b   8.07050956
_cell_length_c   7.21386200
_cell_angle_alpha   90.00000000
_cell_angle_beta   90.00000000
_cell_angle_gamma   90.15797353
_symmetry_Int_Tables_number   1
_chemical_formula_structural   Ho5Th3(Pt2Pb)4
_chemical_formula_sum   'Ho5 Th3 Pt8 Pb4'
_cell_volume   469.85960773
_cell_formula_units_Z   1
loop_
 _symmetry_equiv_pos_site_id
 _symmetry_equiv_pos_as_xyz
  1  'x, y, z'
loop_
 _atom_site_type_symbol
 _atom_site_label
 _atom_site_symmetry_multiplicity
 _atom_site_fract_x
 _atom_site_fract_y
 _atom_site_fract_z
 _atom_site_occupancy
  Ho  Ho0  1  0.339306  0.342542  0.500000  1
  Ho  Ho1  1  0.657458  0.660694  0.500000  1
  Ho  Ho2  1  0.172449  0.827551  0.500000  1
  Ho  Ho3  1  0.841608  0.158392  0.000000  1
  Ho  Ho4  1  0.160229  0.839771  0.000000  1
  Th  Th5  1  0.674613  0.673702  0.000000  1
  Th  Th6  1  0.828009  0.171991  0.500000  1
  Th  Th7  1  0.326298  0.325387  0.000000  1
  Pt  Pt8  1  0.871277  0.871443  0.736482  1
  Pt  Pt9  1  0.128557  0.128723  0.736482  1
  Pt  Pt10  1  0.630122  0.369878  0.762180  1
  Pt  Pt11  1  0.630122  0.369878  0.237820  1
  Pt  Pt12  1  0.372647  0.627353  0.236955  1
  Pt  Pt13  1  0.128557  0.128723  0.263518  1
  Pt  Pt14  1  0.871277  0.871443  0.263518  1
  Pt  Pt15  1  0.372647  0.627353  0.763045  1
  Pb  Pb16  1  0.494466  0.997054  0.745470  1
  Pb  Pb17  1  0.494466  0.997054  0.254530  1
  Pb  Pb18  1  0.002946  0.505534  0.745470  1
  Pb  Pb19  1  0.002946  0.505534  0.254530  1
