# generated using pymatgen
data_SmPu(BC)4
_symmetry_space_group_name_H-M   'P 1'
_cell_length_a   5.37467500
_cell_length_b   5.37467500
_cell_length_c   3.67801100
_cell_angle_alpha   90.00000000
_cell_angle_beta   90.00000000
_cell_angle_gamma   90.00000000
_symmetry_Int_Tables_number   1
_chemical_formula_structural   SmPu(BC)4
_chemical_formula_sum   'Sm1 Pu1 B4 C4'
_cell_volume   106.24718688
_cell_formula_units_Z   1
loop_
 _symmetry_equiv_pos_site_id
 _symmetry_equiv_pos_as_xyz
  1  'x, y, z'
loop_
 _atom_site_type_symbol
 _atom_site_label
 _atom_site_symmetry_multiplicity
 _atom_site_fract_x
 _atom_site_fract_y
 _atom_site_fract_z
 _atom_site_occupancy
  Sm  Sm0  1  0.000000  0.000000  0.000000  1
  Pu  Pu1  1  0.500000  0.500000  0.000000  1
  B  B2  1  0.138056  0.636280  0.500000  1
  B  B3  1  0.636280  0.861944  0.500000  1
  B  B4  1  0.363720  0.138056  0.500000  1
  B  B5  1  0.861944  0.363720  0.500000  1
  C  C6  1  0.837348  0.660645  0.500000  1
  C  C7  1  0.339355  0.837348  0.500000  1
  C  C8  1  0.162652  0.339355  0.500000  1
  C  C9  1  0.660645  0.162652  0.500000  1
