# generated using pymatgen
data_Li3Tb4MgPb4
_symmetry_space_group_name_H-M   'P 1'
_cell_length_a   7.41149628
_cell_length_b   4.81089100
_cell_length_c   8.38447444
_cell_angle_alpha   90.00000000
_cell_angle_beta   90.27317603
_cell_angle_gamma   90.00000000
_symmetry_Int_Tables_number   1
_chemical_formula_structural   Li3Tb4MgPb4
_chemical_formula_sum   'Li3 Tb4 Mg1 Pb4'
_cell_volume   298.95259057
_cell_formula_units_Z   1
loop_
 _symmetry_equiv_pos_site_id
 _symmetry_equiv_pos_as_xyz
  1  'x, y, z'
loop_
 _atom_site_type_symbol
 _atom_site_label
 _atom_site_symmetry_multiplicity
 _atom_site_fract_x
 _atom_site_fract_y
 _atom_site_fract_z
 _atom_site_occupancy
  Li  Li0  1  0.683876  0.249999  0.077999  1
  Li  Li1  1  0.181153  0.249999  0.424603  1
  Li  Li2  1  0.815746  0.750000  0.578064  1
  Tb  Tb3  1  0.991810  0.750000  0.226262  1
  Tb  Tb4  1  0.500431  0.750000  0.279509  1
  Tb  Tb5  1  0.510794  0.249999  0.715636  1
  Tb  Tb6  1  0.003751  0.249999  0.775760  1
  Mg  Mg7  1  0.307927  0.750000  0.919115  1
  Pb  Pb8  1  0.259691  0.249999  0.102058  1
  Pb  Pb9  1  0.767200  0.249999  0.409681  1
  Pb  Pb10  1  0.237114  0.750000  0.582356  1
  Pb  Pb11  1  0.740507  0.750000  0.908958  1
