# generated using pymatgen
data_YbTm5NpO12
_symmetry_space_group_name_H-M   'P 1'
_cell_length_a   6.50541251
_cell_length_b   6.47299829
_cell_length_c   6.47921346
_cell_angle_alpha   98.95783612
_cell_angle_beta   98.98105742
_cell_angle_gamma   98.49170239
_symmetry_Int_Tables_number   1
_chemical_formula_structural   YbTm5NpO12
_chemical_formula_sum   'Yb1 Tm5 Np1 O12'
_cell_volume   262.03699656
_cell_formula_units_Z   1
loop_
 _symmetry_equiv_pos_site_id
 _symmetry_equiv_pos_as_xyz
  1  'x, y, z'
loop_
 _atom_site_type_symbol
 _atom_site_label
 _atom_site_symmetry_multiplicity
 _atom_site_fract_x
 _atom_site_fract_y
 _atom_site_fract_z
 _atom_site_occupancy
  Yb  Yb0  1  0.854234  0.390601  0.676006  1
  Tm  Tm1  1  0.612730  0.330454  0.150339  1
  Tm  Tm2  1  0.332710  0.152561  0.610657  1
  Tm  Tm3  1  0.669538  0.853780  0.388964  1
  Tm  Tm4  1  0.389533  0.668456  0.850908  1
  Tm  Tm5  1  0.145976  0.609940  0.329660  1
  Np  Np6  1  0.000860  0.998751  0.000225  1
  O  O7  1  0.917908  0.030415  0.695821  1
  O  O8  1  0.959220  0.303538  0.082941  1
  O  O9  1  0.580710  0.173570  0.419356  1
  O  O10  1  0.823003  0.577727  0.395205  1
  O  O11  1  0.304429  0.081279  0.957172  1
  O  O12  1  0.565938  0.406343  0.827012  1
  O  O13  1  0.424422  0.593140  0.178737  1
  O  O14  1  0.694058  0.917314  0.041778  1
  O  O15  1  0.183719  0.429365  0.585922  1
  O  O16  1  0.410287  0.823732  0.575482  1
  O  O17  1  0.049526  0.697835  0.926930  1
  O  O18  1  0.081198  0.961202  0.306885  1
