# generated using pymatgen
data_Rb4PaAsI12
_symmetry_space_group_name_H-M   'P 1'
_cell_length_a   8.31775500
_cell_length_b   8.31775500
_cell_length_c   12.36258300
_cell_angle_alpha   90.00000000
_cell_angle_beta   90.00000000
_cell_angle_gamma   90.00000000
_symmetry_Int_Tables_number   1
_chemical_formula_structural   Rb4PaAsI12
_chemical_formula_sum   'Rb4 Pa1 As1 I12'
_cell_volume   855.30590123
_cell_formula_units_Z   1
loop_
 _symmetry_equiv_pos_site_id
 _symmetry_equiv_pos_as_xyz
  1  'x, y, z'
loop_
 _atom_site_type_symbol
 _atom_site_label
 _atom_site_symmetry_multiplicity
 _atom_site_fract_x
 _atom_site_fract_y
 _atom_site_fract_z
 _atom_site_occupancy
  Rb  Rb0  1  0.000000  0.500000  0.207928  1
  Rb  Rb1  1  0.500000  0.000000  0.207928  1
  Rb  Rb2  1  0.000000  0.500000  0.792072  1
  Rb  Rb3  1  0.500000  0.000000  0.792072  1
  Pa  Pa4  1  0.500000  0.500000  0.500000  1
  As  As5  1  0.000000  0.000000  0.000000  1
  I  I6  1  0.000000  0.000000  0.235249  1
  I  I7  1  0.500000  0.500000  0.259466  1
  I  I8  1  0.000000  0.000000  0.764750  1
  I  I9  1  0.500000  0.500000  0.740534  1
  I  I10  1  0.227843  0.263050  0.000000  1
  I  I11  1  0.736950  0.227843  0.000000  1
  I  I12  1  0.263050  0.772157  0.000000  1
  I  I13  1  0.689216  0.199275  0.500000  1
  I  I14  1  0.310784  0.800725  0.500000  1
  I  I15  1  0.772157  0.736950  0.000000  1
  I  I16  1  0.800725  0.689216  0.500000  1
  I  I17  1  0.199275  0.310784  0.500000  1
