# generated using pymatgen
data_Ta6TiCo8Si14Tc
_symmetry_space_group_name_H-M   'P 1'
_cell_length_a   9.20790034
_cell_length_b   9.20786976
_cell_length_c   9.21372409
_cell_angle_alpha   94.17831934
_cell_angle_beta   94.22791484
_cell_angle_gamma   148.58647470
_symmetry_Int_Tables_number   1
_chemical_formula_structural   Ta6TiCo8Si14Tc
_chemical_formula_sum   'Ta6 Ti1 Co8 Si14 Tc1'
_cell_volume   391.95703304
_cell_formula_units_Z   1
loop_
 _symmetry_equiv_pos_site_id
 _symmetry_equiv_pos_as_xyz
  1  'x, y, z'
loop_
 _atom_site_type_symbol
 _atom_site_label
 _atom_site_symmetry_multiplicity
 _atom_site_fract_x
 _atom_site_fract_y
 _atom_site_fract_z
 _atom_site_occupancy
  Ta  Ta0  1  0.867777  0.867502  0.735328  1
  Ta  Ta1  1  0.865850  0.133075  0.998798  1
  Ta  Ta2  1  0.132494  0.864243  0.996842  1
  Ta  Ta3  1  0.497844  0.692604  0.190362  1
  Ta  Ta4  1  0.500417  0.313002  0.813135  1
  Ta  Ta5  1  0.311057  0.499634  0.810915  1
  Ti  Ti6  1  0.691689  0.498587  0.190543  1
  Co  Co7  1  0.399002  0.898837  0.797254  1
  Co  Co8  1  0.101729  0.601617  0.202453  1
  Co  Co9  1  0.101008  0.900498  0.500370  1
  Co  Co10  1  0.399689  0.600329  0.500013  1
  Co  Co11  1  0.600093  0.399545  0.500507  1
  Co  Co12  1  0.899512  0.100265  0.500105  1
  Co  Co13  1  0.898506  0.398322  0.797322  1
  Co  Co14  1  0.600978  0.100855  0.202685  1
  Si  Si15  1  0.291154  0.291176  0.582459  1
  Si  Si16  1  0.706381  0.705318  0.411621  1
  Si  Si17  1  0.707890  0.292847  0.001118  1
  Si  Si18  1  0.291121  0.708734  0.999411  1
  Si  Si19  1  0.003101  0.293648  0.296710  1
  Si  Si20  1  0.999388  0.701671  0.700706  1
  Si  Si21  1  0.702469  0.999146  0.701911  1
  Si  Si22  1  0.293345  0.002687  0.296078  1
  Si  Si23  1  0.499837  0.906890  0.407223  1
  Si  Si24  1  0.499460  0.094321  0.593737  1
  Si  Si25  1  0.093132  0.499303  0.592316  1
  Si  Si26  1  0.905231  0.500113  0.404943  1
  Si  Si27  1  0.753552  0.752934  0.005992  1
  Si  Si28  1  0.253049  0.252413  0.005982  1
  Tc  Tc29  1  0.133245  0.129886  0.263160  1
