# generated using pymatgen
data_Tb3In3HgPdPt
_symmetry_space_group_name_H-M   'P 1'
_cell_length_a   7.78619700
_cell_length_b   7.78619827
_cell_length_c   3.96937900
_cell_angle_alpha   90.00000000
_cell_angle_beta   90.00000000
_cell_angle_gamma   120.00000735
_symmetry_Int_Tables_number   1
_chemical_formula_structural   Tb3In3HgPdPt
_chemical_formula_sum   'Tb3 In3 Hg1 Pd1 Pt1'
_cell_volume   208.40302253
_cell_formula_units_Z   1
loop_
 _symmetry_equiv_pos_site_id
 _symmetry_equiv_pos_as_xyz
  1  'x, y, z'
loop_
 _atom_site_type_symbol
 _atom_site_label
 _atom_site_symmetry_multiplicity
 _atom_site_fract_x
 _atom_site_fract_y
 _atom_site_fract_z
 _atom_site_occupancy
  Tb  Tb0  1  0.582853  0.979940  0.500000  1
  Tb  Tb1  1  0.397086  0.417147  0.500000  1
  Tb  Tb2  1  0.020060  0.602914  0.500000  1
  In  In3  1  0.746347  0.749643  0.000000  1
  In  In4  1  0.250357  0.996704  0.000000  1
  In  In5  1  0.003296  0.253653  0.000000  1
  Hg  Hg6  1  0.666667  0.333333  0.000000  1
  Pd  Pd7  1  0.000000  0.000000  0.500000  1
  Pt  Pt8  1  0.333333  0.666667  0.000000  1
