# generated using pymatgen
data_Hf8CoTcBi4
_symmetry_space_group_name_H-M   'P 1'
_cell_length_a   8.28060974
_cell_length_b   8.28054062
_cell_length_c   8.28060994
_cell_angle_alpha   96.03611362
_cell_angle_beta   96.03721523
_cell_angle_gamma   142.15539074
_symmetry_Int_Tables_number   1
_chemical_formula_structural   Hf8CoTcBi4
_chemical_formula_sum   'Hf8 Co1 Tc1 Bi4'
_cell_volume   329.52180459
_cell_formula_units_Z   1
loop_
 _symmetry_equiv_pos_site_id
 _symmetry_equiv_pos_as_xyz
  1  'x, y, z'
loop_
 _atom_site_type_symbol
 _atom_site_label
 _atom_site_symmetry_multiplicity
 _atom_site_fract_x
 _atom_site_fract_y
 _atom_site_fract_z
 _atom_site_occupancy
  Hf  Hf0  1  0.698687  0.584653  0.278124  1
  Hf  Hf1  1  0.584662  0.306543  0.885983  1
  Hf  Hf2  1  0.079439  0.193457  0.278119  1
  Hf  Hf3  1  0.915342  0.801313  0.721883  1
  Hf  Hf4  1  0.193471  0.915347  0.114033  1
  Hf  Hf5  1  0.801324  0.079445  0.885979  1
  Hf  Hf6  1  0.306533  0.420555  0.721879  1
  Hf  Hf7  1  0.420570  0.698687  0.114027  1
  Co  Co8  1  0.749984  0.750000  0.999984  1
  Tc  Tc9  1  0.250015  0.250000  0.000015  1
  Bi  Bi10  1  0.138559  0.638574  0.777135  1
  Bi  Bi11  1  0.361422  0.138558  0.499990  1
  Bi  Bi12  1  0.638560  0.861426  0.499985  1
  Bi  Bi13  1  0.861432  0.361442  0.222863  1
