# generated using pymatgen
data_Yb8Cu6SbPd18
_symmetry_space_group_name_H-M   'P 1'
_cell_length_a   8.26353600
_cell_length_b   8.28253400
_cell_length_c   8.19226300
_cell_angle_alpha   90.00000000
_cell_angle_beta   90.00000000
_cell_angle_gamma   90.00000000
_symmetry_Int_Tables_number   1
_chemical_formula_structural   Yb8Cu6SbPd18
_chemical_formula_sum   'Yb8 Cu6 Sb1 Pd18'
_cell_volume   560.70320299
_cell_formula_units_Z   1
loop_
 _symmetry_equiv_pos_site_id
 _symmetry_equiv_pos_as_xyz
  1  'x, y, z'
loop_
 _atom_site_type_symbol
 _atom_site_label
 _atom_site_symmetry_multiplicity
 _atom_site_fract_x
 _atom_site_fract_y
 _atom_site_fract_z
 _atom_site_occupancy
  Yb  Yb0  1  0.748496  0.745049  0.252387  1
  Yb  Yb1  1  0.748496  0.254951  0.747613  1
  Yb  Yb2  1  0.252357  0.747734  0.750851  1
  Yb  Yb3  1  0.748496  0.745049  0.747613  1
  Yb  Yb4  1  0.748496  0.254951  0.252387  1
  Yb  Yb5  1  0.252357  0.252266  0.750851  1
  Yb  Yb6  1  0.252357  0.747734  0.249149  1
  Yb  Yb7  1  0.252357  0.252266  0.249149  1
  Cu  Cu8  1  0.716185  0.000000  0.500000  1
  Cu  Cu9  1  0.725758  0.500000  0.000000  1
  Cu  Cu10  1  0.504329  0.000000  0.729531  1
  Cu  Cu11  1  0.003070  0.728877  0.500000  1
  Cu  Cu12  1  0.504329  0.000000  0.270469  1
  Cu  Cu13  1  0.003070  0.271123  0.500000  1
  Sb  Sb14  1  0.008876  0.000000  0.000000  1
  Pd  Pd15  1  0.985069  0.000000  0.325222  1
  Pd  Pd16  1  0.507012  0.727713  0.000000  1
  Pd  Pd17  1  0.257180  0.500000  0.500000  1
  Pd  Pd18  1  0.503531  0.500000  0.742790  1
  Pd  Pd19  1  0.503531  0.500000  0.257210  1
  Pd  Pd20  1  0.504976  0.244952  0.500000  1
  Pd  Pd21  1  0.504976  0.755048  0.500000  1
  Pd  Pd22  1  0.747807  0.500000  0.500000  1
  Pd  Pd23  1  0.326521  0.000000  0.000000  1
  Pd  Pd24  1  0.985069  0.000000  0.674778  1
  Pd  Pd25  1  0.002037  0.500000  0.276419  1
  Pd  Pd26  1  0.985572  0.315377  0.000000  1
  Pd  Pd27  1  0.985572  0.684623  0.000000  1
  Pd  Pd28  1  0.690600  0.000000  0.000000  1
  Pd  Pd29  1  0.261720  0.500000  0.000000  1
  Pd  Pd30  1  0.270745  0.000000  0.500000  1
  Pd  Pd31  1  0.002037  0.500000  0.723581  1
  Pd  Pd32  1  0.507012  0.272287  0.000000  1
