# generated using pymatgen
data_Tb4HoPb4
_symmetry_space_group_name_H-M   'P 1'
_cell_length_a   8.21958500
_cell_length_b   15.70893700
_cell_length_c   8.31019200
_cell_angle_alpha   90.00000000
_cell_angle_beta   90.00000000
_cell_angle_gamma   90.00000000
_symmetry_Int_Tables_number   1
_chemical_formula_structural   Tb4HoPb4
_chemical_formula_sum   'Tb16 Ho4 Pb16'
_cell_volume   1073.01982698
_cell_formula_units_Z   4
loop_
 _symmetry_equiv_pos_site_id
 _symmetry_equiv_pos_as_xyz
  1  'x, y, z'
loop_
 _atom_site_type_symbol
 _atom_site_label
 _atom_site_symmetry_multiplicity
 _atom_site_fract_x
 _atom_site_fract_y
 _atom_site_fract_z
 _atom_site_occupancy
  Tb  Tb0  1  0.622781  0.620199  0.159578  1
  Tb  Tb1  1  0.122781  0.879801  0.340422  1
  Tb  Tb2  1  0.377219  0.120199  0.840422  1
  Tb  Tb3  1  0.877219  0.379801  0.659578  1
  Tb  Tb4  1  0.377219  0.379801  0.840422  1
  Tb  Tb5  1  0.877219  0.120199  0.659578  1
  Tb  Tb6  1  0.622781  0.879801  0.159578  1
  Tb  Tb7  1  0.122781  0.620199  0.340422  1
  Tb  Tb8  1  0.466597  0.600148  0.677078  1
  Tb  Tb9  1  0.966597  0.899852  0.822922  1
  Tb  Tb10  1  0.533403  0.100148  0.322922  1
  Tb  Tb11  1  0.033403  0.399852  0.177078  1
  Tb  Tb12  1  0.533403  0.399852  0.322922  1
  Tb  Tb13  1  0.033403  0.100148  0.177078  1
  Tb  Tb14  1  0.466597  0.899852  0.677078  1
  Tb  Tb15  1  0.966597  0.600148  0.822922  1
  Ho  Ho16  1  0.791238  0.750000  0.496581  1
  Ho  Ho17  1  0.291238  0.750000  0.003419  1
  Ho  Ho18  1  0.208762  0.250000  0.503419  1
  Ho  Ho19  1  0.708762  0.250000  0.996581  1
  Pb  Pb20  1  0.718936  0.457137  0.967206  1
  Pb  Pb21  1  0.218936  0.042863  0.532794  1
  Pb  Pb22  1  0.281064  0.957137  0.032794  1
  Pb  Pb23  1  0.781064  0.542863  0.467206  1
  Pb  Pb24  1  0.281064  0.542863  0.032794  1
  Pb  Pb25  1  0.781064  0.957137  0.467206  1
  Pb  Pb26  1  0.718936  0.042863  0.967206  1
  Pb  Pb27  1  0.218936  0.457137  0.532794  1
  Pb  Pb28  1  0.427616  0.750000  0.373210  1
  Pb  Pb29  1  0.927616  0.750000  0.126790  1
  Pb  Pb30  1  0.572384  0.250000  0.626790  1
  Pb  Pb31  1  0.072384  0.250000  0.873210  1
  Pb  Pb32  1  0.654927  0.750000  0.848210  1
  Pb  Pb33  1  0.154927  0.750000  0.651790  1
  Pb  Pb34  1  0.345073  0.250000  0.151790  1
  Pb  Pb35  1  0.845073  0.250000  0.348210  1
