# generated using pymatgen
data_CaCe(ZnSi)2
_symmetry_space_group_name_H-M   'P 1'
_cell_length_a   4.21313600
_cell_length_b   4.21313530
_cell_length_c   8.34051800
_cell_angle_alpha   90.00000000
_cell_angle_beta   90.00000000
_cell_angle_gamma   120.00000548
_symmetry_Int_Tables_number   1
_chemical_formula_structural   CaCe(ZnSi)2
_chemical_formula_sum   'Ca1 Ce1 Zn2 Si2'
_cell_volume   128.21372458
_cell_formula_units_Z   1
loop_
 _symmetry_equiv_pos_site_id
 _symmetry_equiv_pos_as_xyz
  1  'x, y, z'
loop_
 _atom_site_type_symbol
 _atom_site_label
 _atom_site_symmetry_multiplicity
 _atom_site_fract_x
 _atom_site_fract_y
 _atom_site_fract_z
 _atom_site_occupancy
  Ca  Ca0  1  0.000000  0.000000  0.000000  1
  Ce  Ce1  1  0.000000  0.000000  0.500000  1
  Zn  Zn2  1  0.333333  0.666667  0.260941  1
  Zn  Zn3  1  0.666667  0.333333  0.739059  1
  Si  Si4  1  0.666667  0.333333  0.260413  1
  Si  Si5  1  0.333333  0.666667  0.739587  1
