# generated using pymatgen
data_TbEr7Ga3Os
_symmetry_space_group_name_H-M   'P 1'
_cell_length_a   9.95813700
_cell_length_b   9.95813808
_cell_length_c   7.01814400
_cell_angle_alpha   90.00000000
_cell_angle_beta   90.00000000
_cell_angle_gamma   120.00000637
_symmetry_Int_Tables_number   1
_chemical_formula_structural   TbEr7Ga3Os
_chemical_formula_sum   'Tb2 Er14 Ga6 Os2'
_cell_volume   602.71100251
_cell_formula_units_Z   2
loop_
 _symmetry_equiv_pos_site_id
 _symmetry_equiv_pos_as_xyz
  1  'x, y, z'
loop_
 _atom_site_type_symbol
 _atom_site_label
 _atom_site_symmetry_multiplicity
 _atom_site_fract_x
 _atom_site_fract_y
 _atom_site_fract_z
 _atom_site_occupancy
  Tb  Tb0  1  0.000000  0.000000  0.266697  1
  Tb  Tb1  1  0.000000  0.000000  0.766697  1
  Er  Er2  1  0.171857  0.828143  0.990942  1
  Er  Er3  1  0.828143  0.171857  0.490942  1
  Er  Er4  1  0.171857  0.343714  0.990942  1
  Er  Er5  1  0.656286  0.828143  0.990942  1
  Er  Er6  1  0.343714  0.171857  0.490942  1
  Er  Er7  1  0.828143  0.656286  0.490942  1
  Er  Er8  1  0.333333  0.666667  0.660557  1
  Er  Er9  1  0.666667  0.333333  0.160557  1
  Er  Er10  1  0.465896  0.534104  0.295443  1
  Er  Er11  1  0.534104  0.465896  0.795443  1
  Er  Er12  1  0.465896  0.931792  0.295443  1
  Er  Er13  1  0.068208  0.534104  0.295443  1
  Er  Er14  1  0.931792  0.465896  0.795443  1
  Er  Er15  1  0.534104  0.068208  0.795443  1
  Ga  Ga16  1  0.164050  0.835950  0.543454  1
  Ga  Ga17  1  0.835950  0.164050  0.043454  1
  Ga  Ga18  1  0.164050  0.328100  0.543454  1
  Ga  Ga19  1  0.671900  0.835950  0.543454  1
  Ga  Ga20  1  0.328100  0.164050  0.043454  1
  Ga  Ga21  1  0.835950  0.671900  0.043454  1
  Os  Os22  1  0.333333  0.666667  0.056293  1
  Os  Os23  1  0.666667  0.333333  0.556293  1
