# generated using pymatgen
data_SrCa2(AgPb)3
_symmetry_space_group_name_H-M   'P 1'
_cell_length_a   4.97541200
_cell_length_b   4.97541270
_cell_length_c   11.70580600
_cell_angle_alpha   90.00000000
_cell_angle_beta   90.00000000
_cell_angle_gamma   119.99999531
_symmetry_Int_Tables_number   1
_chemical_formula_structural   SrCa2(AgPb)3
_chemical_formula_sum   'Sr1 Ca2 Ag3 Pb3'
_cell_volume   250.95169569
_cell_formula_units_Z   1
loop_
 _symmetry_equiv_pos_site_id
 _symmetry_equiv_pos_as_xyz
  1  'x, y, z'
loop_
 _atom_site_type_symbol
 _atom_site_label
 _atom_site_symmetry_multiplicity
 _atom_site_fract_x
 _atom_site_fract_y
 _atom_site_fract_z
 _atom_site_occupancy
  Sr  Sr0  1  0.666667  0.333333  0.831606  1
  Ca  Ca1  1  0.666667  0.333333  0.492654  1
  Ca  Ca2  1  0.666667  0.333333  0.172239  1
  Ag  Ag3  1  0.333333  0.666667  0.018547  1
  Ag  Ag4  1  0.000000  0.000000  0.661546  1
  Ag  Ag5  1  0.000000  0.000000  0.296512  1
  Pb  Pb6  1  0.333333  0.666667  0.635170  1
  Pb  Pb7  1  0.333333  0.666667  0.349849  1
  Pb  Pb8  1  0.000000  0.000000  0.019778  1
