# generated using pymatgen
data_SrU3(Al3Ir)6
_symmetry_space_group_name_H-M   'P 1'
_cell_length_a   7.60344902
_cell_length_b   7.63332052
_cell_length_c   9.47159800
_cell_angle_alpha   90.00000000
_cell_angle_beta   90.00000000
_cell_angle_gamma   119.43563646
_symmetry_Int_Tables_number   1
_chemical_formula_structural   SrU3(Al3Ir)6
_chemical_formula_sum   'Sr1 U3 Al18 Ir6'
_cell_volume   478.76217415
_cell_formula_units_Z   1
loop_
 _symmetry_equiv_pos_site_id
 _symmetry_equiv_pos_as_xyz
  1  'x, y, z'
loop_
 _atom_site_type_symbol
 _atom_site_label
 _atom_site_symmetry_multiplicity
 _atom_site_fract_x
 _atom_site_fract_y
 _atom_site_fract_z
 _atom_site_occupancy
  Sr  Sr0  1  0.995761  0.670408  0.750000  1
  U  U1  1  0.003648  0.328218  0.250000  1
  U  U2  1  0.670704  0.996687  0.750000  1
  U  U3  1  0.329128  0.003488  0.250000  1
  Al  Al4  1  0.127241  0.131489  0.750000  1
  Al  Al5  1  0.868825  0.870443  0.250000  1
  Al  Al6  1  0.003171  0.335267  0.572701  1
  Al  Al7  1  0.997498  0.664513  0.422533  1
  Al  Al8  1  0.997498  0.664513  0.077467  1
  Al  Al9  1  0.335887  0.002659  0.926867  1
  Al  Al10  1  0.003171  0.335267  0.927299  1
  Al  Al11  1  0.663436  0.997303  0.074462  1
  Al  Al12  1  0.663436  0.997303  0.425538  1
  Al  Al13  1  0.335887  0.002659  0.573133  1
  Al  Al14  1  0.334805  0.334932  0.054085  1
  Al  Al15  1  0.665660  0.665700  0.948301  1
  Al  Al16  1  0.665660  0.665700  0.551699  1
  Al  Al17  1  0.334805  0.334932  0.445915  1
  Al  Al18  1  0.345927  0.549657  0.750000  1
  Al  Al19  1  0.659261  0.453593  0.250000  1
  Al  Al20  1  0.544832  0.334223  0.750000  1
  Al  Al21  1  0.450594  0.659719  0.250000  1
  Ir  Ir22  1  0.671125  0.326138  0.497174  1
  Ir  Ir23  1  0.329310  0.671824  0.497283  1
  Ir  Ir24  1  0.329310  0.671824  0.002717  1
  Ir  Ir25  1  0.671125  0.326138  0.002826  1
  Ir  Ir26  1  0.001147  0.002702  0.496442  1
  Ir  Ir27  1  0.001147  0.002702  0.003558  1
