# generated using pymatgen
data_Ce3Nd4Dy9(CdRu)4
_symmetry_space_group_name_H-M   'P 1'
_cell_length_a   9.74566248
_cell_length_b   9.74566263
_cell_length_c   9.67722987
_cell_angle_alpha   59.61737219
_cell_angle_beta   59.61737311
_cell_angle_gamma   59.80919666
_symmetry_Int_Tables_number   1
_chemical_formula_structural   Ce3Nd4Dy9(CdRu)4
_chemical_formula_sum   'Ce3 Nd4 Dy9 Cd4 Ru4'
_cell_volume   645.20822795
_cell_formula_units_Z   1
loop_
 _symmetry_equiv_pos_site_id
 _symmetry_equiv_pos_as_xyz
  1  'x, y, z'
loop_
 _atom_site_type_symbol
 _atom_site_label
 _atom_site_symmetry_multiplicity
 _atom_site_fract_x
 _atom_site_fract_y
 _atom_site_fract_z
 _atom_site_occupancy
  Ce  Ce0  1  0.345637  0.966849  0.342618  1
  Ce  Ce1  1  0.966849  0.345637  0.342618  1
  Ce  Ce2  1  0.344983  0.344983  0.341927  1
  Nd  Nd3  1  0.561911  0.561911  0.937467  1
  Nd  Nd4  1  0.939957  0.558159  0.939902  1
  Nd  Nd5  1  0.558159  0.939957  0.939902  1
  Nd  Nd6  1  0.939474  0.939474  0.558940  1
  Dy  Dy7  1  0.560053  0.940158  0.556935  1
  Dy  Dy8  1  0.940158  0.560053  0.556935  1
  Dy  Dy9  1  0.188293  0.188293  0.811479  1
  Dy  Dy10  1  0.812443  0.188169  0.813929  1
  Dy  Dy11  1  0.188168  0.812444  0.813929  1
  Dy  Dy12  1  0.811603  0.811604  0.190279  1
  Dy  Dy13  1  0.185559  0.811965  0.190004  1
  Dy  Dy14  1  0.811965  0.185560  0.190005  1
  Dy  Dy15  1  0.350641  0.350641  0.950555  1
  Cd  Cd16  1  0.579065  0.579065  0.261695  1
  Cd  Cd17  1  0.578976  0.259836  0.577971  1
  Cd  Cd18  1  0.259836  0.578976  0.577971  1
  Cd  Cd19  1  0.581947  0.581947  0.577238  1
  Ru  Ru20  1  0.145925  0.145925  0.567347  1
  Ru  Ru21  1  0.138337  0.569880  0.155474  1
  Ru  Ru22  1  0.569880  0.138337  0.155474  1
  Ru  Ru23  1  0.140179  0.140179  0.149405  1
