# generated using pymatgen
data_CePrFe2(SiPd)2
_symmetry_space_group_name_H-M   'P 1'
_cell_length_a   9.07470010
_cell_length_b   9.07470040
_cell_length_c   4.06905900
_cell_angle_alpha   90.00000000
_cell_angle_beta   90.00000000
_cell_angle_gamma   154.41775576
_symmetry_Int_Tables_number   1
_chemical_formula_structural   CePrFe2(SiPd)2
_chemical_formula_sum   'Ce1 Pr1 Fe2 Si2 Pd2'
_cell_volume   144.69299028
_cell_formula_units_Z   1
loop_
 _symmetry_equiv_pos_site_id
 _symmetry_equiv_pos_as_xyz
  1  'x, y, z'
loop_
 _atom_site_type_symbol
 _atom_site_label
 _atom_site_symmetry_multiplicity
 _atom_site_fract_x
 _atom_site_fract_y
 _atom_site_fract_z
 _atom_site_occupancy
  Ce  Ce0  1  0.381068  0.618932  0.750000  1
  Pr  Pr1  1  0.611334  0.388666  0.250000  1
  Fe  Fe2  1  0.252965  0.747035  0.250000  1
  Fe  Fe3  1  0.752405  0.247595  0.750000  1
  Si  Si4  1  0.812168  0.187832  0.250000  1
  Si  Si5  1  0.190881  0.809119  0.750000  1
  Pd  Pd6  1  0.949585  0.050415  0.250000  1
  Pd  Pd7  1  0.049594  0.950406  0.750000  1
