# generated using pymatgen
data_PrSm4(B3Ru)2
_symmetry_space_group_name_H-M   'P 1'
_cell_length_a   5.58504971
_cell_length_b   5.58505005
_cell_length_c   8.70131060
_cell_angle_alpha   71.28074107
_cell_angle_beta   71.28073775
_cell_angle_gamma   60.00000744
_symmetry_Int_Tables_number   1
_chemical_formula_structural   PrSm4(B3Ru)2
_chemical_formula_sum   'Pr1 Sm4 B6 Ru2'
_cell_volume   218.31922261
_cell_formula_units_Z   1
loop_
 _symmetry_equiv_pos_site_id
 _symmetry_equiv_pos_as_xyz
  1  'x, y, z'
loop_
 _atom_site_type_symbol
 _atom_site_label
 _atom_site_symmetry_multiplicity
 _atom_site_fract_x
 _atom_site_fract_y
 _atom_site_fract_z
 _atom_site_occupancy
  Pr  Pr0  1  0.000000  0.000000  0.000000  1
  Sm  Sm1  1  0.751210  0.751210  0.746371  1
  Sm  Sm2  1  0.248790  0.248790  0.253629  1
  Sm  Sm3  1  0.581857  0.581857  0.254430  1
  Sm  Sm4  1  0.418143  0.418143  0.745570  1
  B  B5  1  0.500000  0.172729  0.500000  1
  B  B6  1  0.827271  0.500000  0.500000  1
  B  B7  1  0.172729  0.827272  0.500000  1
  B  B8  1  0.172729  0.500000  0.500000  1
  B  B9  1  0.827271  0.172729  0.500000  1
  B  B10  1  0.500000  0.827271  0.500000  1
  Ru  Ru11  1  0.884530  0.884530  0.346410  1
  Ru  Ru12  1  0.115470  0.115470  0.653590  1
