# generated using pymatgen
data_Lu8Nb5Ge16Mo7
_symmetry_space_group_name_H-M   'P 1'
_cell_length_a   6.84060313
_cell_length_b   7.07218117
_cell_length_c   13.32342440
_cell_angle_alpha   90.02212189
_cell_angle_beta   90.01802195
_cell_angle_gamma   89.98859101
_symmetry_Int_Tables_number   1
_chemical_formula_structural   Lu8Nb5Ge16Mo7
_chemical_formula_sum   'Lu8 Nb5 Ge16 Mo7'
_cell_volume   644.56032766
_cell_formula_units_Z   1
loop_
 _symmetry_equiv_pos_site_id
 _symmetry_equiv_pos_as_xyz
  1  'x, y, z'
loop_
 _atom_site_type_symbol
 _atom_site_label
 _atom_site_symmetry_multiplicity
 _atom_site_fract_x
 _atom_site_fract_y
 _atom_site_fract_z
 _atom_site_occupancy
  Lu  Lu0  1  0.493099  0.325405  0.092161  1
  Lu  Lu1  1  0.992858  0.173617  0.408058  1
  Lu  Lu2  1  0.506781  0.674115  0.592074  1
  Lu  Lu3  1  0.007973  0.826123  0.907674  1
  Lu  Lu4  1  0.507780  0.672813  0.908368  1
  Lu  Lu5  1  0.007886  0.827645  0.592063  1
  Lu  Lu6  1  0.492903  0.325468  0.408572  1
  Lu  Lu7  1  0.992908  0.173460  0.091205  1
  Nb  Nb8  1  0.832386  0.337812  0.627648  1
  Nb  Nb9  1  0.333586  0.161410  0.873515  1
  Nb  Nb10  1  0.166306  0.661667  0.125597  1
  Nb  Nb11  1  0.667416  0.837903  0.373160  1
  Nb  Nb12  1  0.168655  0.662935  0.374525  1
  Ge  Ge13  1  0.671324  0.041047  0.546047  1
  Ge  Ge14  1  0.171238  0.458411  0.953837  1
  Ge  Ge15  1  0.328433  0.958486  0.045209  1
  Ge  Ge16  1  0.824804  0.540648  0.455825  1
  Ge  Ge17  1  0.325130  0.959756  0.457278  1
  Ge  Ge18  1  0.823931  0.543438  0.044065  1
  Ge  Ge19  1  0.676166  0.043506  0.955019  1
  Ge  Ge20  1  0.177126  0.455823  0.546056  1
  Ge  Ge21  1  0.528375  0.375282  0.748974  1
  Ge  Ge22  1  0.028928  0.124585  0.751109  1
  Ge  Ge23  1  0.472780  0.623540  0.248059  1
  Ge  Ge24  1  0.969005  0.878059  0.248848  1
  Ge  Ge25  1  0.807330  0.647285  0.750268  1
  Ge  Ge26  1  0.307922  0.852488  0.749934  1
  Ge  Ge27  1  0.193790  0.351161  0.249980  1
  Ge  Ge28  1  0.692685  0.147447  0.249957  1
  Mo  Mo29  1  0.670402  0.840104  0.124295  1
  Mo  Mo30  1  0.829149  0.339995  0.875371  1
  Mo  Mo31  1  0.329539  0.159542  0.626176  1
  Mo  Mo32  1  0.662539  0.006138  0.750629  1
  Mo  Mo33  1  0.161718  0.493466  0.750039  1
  Mo  Mo34  1  0.338304  0.991922  0.249486  1
  Mo  Mo35  1  0.838844  0.507496  0.248919  1
