# generated using pymatgen
data_Ta6V6Si9Ge
_symmetry_space_group_name_H-M   'P 1'
_cell_length_a   4.95063592
_cell_length_b   7.79442782
_cell_length_c   9.42574519
_cell_angle_alpha   64.98215782
_cell_angle_beta   74.77485228
_cell_angle_gamma   89.99998699
_symmetry_Int_Tables_number   1
_chemical_formula_structural   Ta6V6Si9Ge
_chemical_formula_sum   'Ta6 V6 Si9 Ge1'
_cell_volume   315.44572451
_cell_formula_units_Z   1
loop_
 _symmetry_equiv_pos_site_id
 _symmetry_equiv_pos_as_xyz
  1  'x, y, z'
loop_
 _atom_site_type_symbol
 _atom_site_label
 _atom_site_symmetry_multiplicity
 _atom_site_fract_x
 _atom_site_fract_y
 _atom_site_fract_z
 _atom_site_occupancy
  Ta  Ta0  1  0.357426  0.742365  0.285149  1
  Ta  Ta1  1  0.642021  0.259664  0.715959  1
  Ta  Ta2  1  0.140111  0.028771  0.719779  1
  Ta  Ta3  1  0.859792  0.970728  0.280417  1
  Ta  Ta4  1  0.064380  0.320252  0.871240  1
  Ta  Ta5  1  0.935565  0.680444  0.128870  1
  V  V6  1  0.943195  0.687946  0.618031  1
  V  V7  1  0.558461  0.311698  0.380255  1
  V  V8  1  0.061284  0.311698  0.380255  1
  V  V9  1  0.438774  0.687946  0.618031  1
  V  V10  1  0.438200  0.189731  0.123600  1
  V  V11  1  0.560245  0.809501  0.879508  1
  Si  Si12  1  0.436091  0.515005  0.127818  1
  Si  Si13  1  0.563860  0.485790  0.872281  1
  Si  Si14  1  0.067393  0.654111  0.865215  1
  Si  Si15  1  0.932692  0.346191  0.134616  1
  Si  Si16  1  0.256522  0.000410  0.000109  1
  Si  Si17  1  0.743369  0.000410  0.000109  1
  Si  Si18  1  0.217212  0.422129  0.565578  1
  Si  Si19  1  0.782729  0.576749  0.434541  1
  Si  Si20  1  0.288639  0.992997  0.422723  1
  Ge  Ge21  1  0.712041  0.005462  0.575918  1
