# generated using pymatgen
data_TbHo5Co8(P6Ru5)2
_symmetry_space_group_name_H-M   'P 1'
_cell_length_a   3.84835100
_cell_length_b   10.65770600
_cell_length_c   12.53954800
_cell_angle_alpha   90.00000000
_cell_angle_beta   90.00000000
_cell_angle_gamma   90.00000000
_symmetry_Int_Tables_number   1
_chemical_formula_structural   TbHo5Co8(P6Ru5)2
_chemical_formula_sum   'Tb1 Ho5 Co8 P12 Ru10'
_cell_volume   514.30446443
_cell_formula_units_Z   1
loop_
 _symmetry_equiv_pos_site_id
 _symmetry_equiv_pos_as_xyz
  1  'x, y, z'
loop_
 _atom_site_type_symbol
 _atom_site_label
 _atom_site_symmetry_multiplicity
 _atom_site_fract_x
 _atom_site_fract_y
 _atom_site_fract_z
 _atom_site_occupancy
  Tb  Tb0  1  0.000000  0.500000  0.526868  1
  Ho  Ho1  1  0.500000  0.000000  0.472985  1
  Ho  Ho2  1  0.500000  0.821468  0.200694  1
  Ho  Ho3  1  0.500000  0.178532  0.200694  1
  Ho  Ho4  1  0.000000  0.678626  0.799364  1
  Ho  Ho5  1  0.000000  0.321374  0.799364  1
  Co  Co6  1  0.000000  0.500000  0.983785  1
  Co  Co7  1  0.500000  0.000000  0.016250  1
  Co  Co8  1  0.500000  0.332325  0.988849  1
  Co  Co9  1  0.500000  0.667675  0.988849  1
  Co  Co10  1  0.000000  0.167641  0.011162  1
  Co  Co11  1  0.000000  0.832359  0.011162  1
  Co  Co12  1  0.500000  0.500000  0.702990  1
  Co  Co13  1  0.000000  0.000000  0.297481  1
  P  P14  1  0.500000  0.314113  0.618250  1
  P  P15  1  0.500000  0.685887  0.618250  1
  P  P16  1  0.000000  0.185273  0.381909  1
  P  P17  1  0.000000  0.814727  0.381909  1
  P  P18  1  0.500000  0.500000  0.881230  1
  P  P19  1  0.000000  0.000000  0.118865  1
  P  P20  1  0.500000  0.845955  0.900928  1
  P  P21  1  0.500000  0.154045  0.900928  1
  P  P22  1  0.000000  0.654092  0.099031  1
  P  P23  1  0.000000  0.345908  0.099031  1
  P  P24  1  0.500000  0.500000  0.336110  1
  P  P25  1  0.000000  0.000000  0.663561  1
  Ru  Ru26  1  0.500000  0.297401  0.427318  1
  Ru  Ru27  1  0.500000  0.702599  0.427318  1
  Ru  Ru28  1  0.000000  0.201551  0.572518  1
  Ru  Ru29  1  0.000000  0.798449  0.572518  1
  Ru  Ru30  1  0.500000  0.874800  0.719278  1
  Ru  Ru31  1  0.500000  0.125200  0.719278  1
  Ru  Ru32  1  0.000000  0.625334  0.280680  1
  Ru  Ru33  1  0.000000  0.374666  0.280680  1
  Ru  Ru34  1  0.500000  0.500000  0.146289  1
  Ru  Ru35  1  0.000000  0.000000  0.853626  1
