# generated using pymatgen
data_LiNd3(Co4P3)2
_symmetry_space_group_name_H-M   'P 1'
_cell_length_a   3.76787100
_cell_length_b   10.66672400
_cell_length_c   12.37952900
_cell_angle_alpha   90.00000000
_cell_angle_beta   90.00000000
_cell_angle_gamma   90.00000000
_symmetry_Int_Tables_number   1
_chemical_formula_structural   LiNd3(Co4P3)2
_chemical_formula_sum   'Li2 Nd6 Co16 P12'
_cell_volume   497.54366962
_cell_formula_units_Z   2
loop_
 _symmetry_equiv_pos_site_id
 _symmetry_equiv_pos_as_xyz
  1  'x, y, z'
loop_
 _atom_site_type_symbol
 _atom_site_label
 _atom_site_symmetry_multiplicity
 _atom_site_fract_x
 _atom_site_fract_y
 _atom_site_fract_z
 _atom_site_occupancy
  Li  Li0  1  0.500000  0.500000  0.150947  1
  Li  Li1  1  0.000000  0.000000  0.849053  1
  Nd  Nd2  1  0.000000  0.500000  0.522433  1
  Nd  Nd3  1  0.500000  0.000000  0.477567  1
  Nd  Nd4  1  0.500000  0.817975  0.206638  1
  Nd  Nd5  1  0.500000  0.182025  0.206638  1
  Nd  Nd6  1  0.000000  0.682025  0.793362  1
  Nd  Nd7  1  0.000000  0.317975  0.793362  1
  Co  Co8  1  0.500000  0.500000  0.705727  1
  Co  Co9  1  0.000000  0.000000  0.294273  1
  Co  Co10  1  0.000000  0.500000  0.986953  1
  Co  Co11  1  0.500000  0.000000  0.013047  1
  Co  Co12  1  0.500000  0.333238  0.997148  1
  Co  Co13  1  0.500000  0.666762  0.997148  1
  Co  Co14  1  0.000000  0.166762  0.002852  1
  Co  Co15  1  0.000000  0.833238  0.002852  1
  Co  Co16  1  0.500000  0.297087  0.430886  1
  Co  Co17  1  0.500000  0.702913  0.430886  1
  Co  Co18  1  0.000000  0.202913  0.569114  1
  Co  Co19  1  0.000000  0.797087  0.569114  1
  Co  Co20  1  0.500000  0.880593  0.706419  1
  Co  Co21  1  0.500000  0.119407  0.706419  1
  Co  Co22  1  0.000000  0.619407  0.293581  1
  Co  Co23  1  0.000000  0.380593  0.293581  1
  P  P24  1  0.500000  0.500000  0.887395  1
  P  P25  1  0.000000  0.000000  0.112605  1
  P  P26  1  0.500000  0.500000  0.342033  1
  P  P27  1  0.000000  0.000000  0.657967  1
  P  P28  1  0.500000  0.305153  0.613594  1
  P  P29  1  0.500000  0.694847  0.613594  1
  P  P30  1  0.000000  0.194847  0.386406  1
  P  P31  1  0.000000  0.805153  0.386406  1
  P  P32  1  0.500000  0.845219  0.896887  1
  P  P33  1  0.500000  0.154781  0.896887  1
  P  P34  1  0.000000  0.654781  0.103113  1
  P  P35  1  0.000000  0.345219  0.103113  1
