# generated using pymatgen
data_NdTh3Cu6(NiP4)2
_symmetry_space_group_name_H-M   'P 1'
_cell_length_a   3.84018900
_cell_length_b   8.94973935
_cell_length_c   9.83197037
_cell_angle_alpha   89.75753921
_cell_angle_beta   90.00000000
_cell_angle_gamma   90.00000000
_symmetry_Int_Tables_number   1
_chemical_formula_structural   NdTh3Cu6(NiP4)2
_chemical_formula_sum   'Nd1 Th3 Cu6 Ni2 P8'
_cell_volume   337.90892207
_cell_formula_units_Z   1
loop_
 _symmetry_equiv_pos_site_id
 _symmetry_equiv_pos_as_xyz
  1  'x, y, z'
loop_
 _atom_site_type_symbol
 _atom_site_label
 _atom_site_symmetry_multiplicity
 _atom_site_fract_x
 _atom_site_fract_y
 _atom_site_fract_z
 _atom_site_occupancy
  Nd  Nd0  1  0.250000  0.249726  0.681034  1
  Th  Th1  1  0.750000  0.749349  0.318556  1
  Th  Th2  1  0.250000  0.750564  0.816598  1
  Th  Th3  1  0.750000  0.250989  0.184446  1
  Cu  Cu4  1  0.750000  0.080359  0.458523  1
  Cu  Cu5  1  0.250000  0.918511  0.543354  1
  Cu  Cu6  1  0.750000  0.572905  0.049626  1
  Cu  Cu7  1  0.250000  0.426378  0.949171  1
  Cu  Cu8  1  0.250000  0.947364  0.102209  1
  Cu  Cu9  1  0.750000  0.055585  0.896091  1
  Ni  Ni10  1  0.250000  0.455286  0.406823  1
  Ni  Ni11  1  0.750000  0.542920  0.592410  1
  P  P12  1  0.250000  0.171385  0.969709  1
  P  P13  1  0.750000  0.829038  0.031837  1
  P  P14  1  0.250000  0.658946  0.536885  1
  P  P15  1  0.750000  0.338961  0.461140  1
  P  P16  1  0.250000  0.520998  0.184002  1
  P  P17  1  0.750000  0.485933  0.817194  1
  P  P18  1  0.250000  0.027980  0.323464  1
  P  P19  1  0.750000  0.966823  0.676928  1
