# generated using pymatgen
data_Tm6CrFe7(Co5P6)2
_symmetry_space_group_name_H-M   'P 1'
_cell_length_a   3.68005500
_cell_length_b   10.54667800
_cell_length_c   12.03673700
_cell_angle_alpha   90.00000000
_cell_angle_beta   90.00000000
_cell_angle_gamma   90.00000000
_symmetry_Int_Tables_number   1
_chemical_formula_structural   Tm6CrFe7(Co5P6)2
_chemical_formula_sum   'Tm6 Cr1 Fe7 Co10 P12'
_cell_volume   467.17411078
_cell_formula_units_Z   1
loop_
 _symmetry_equiv_pos_site_id
 _symmetry_equiv_pos_as_xyz
  1  'x, y, z'
loop_
 _atom_site_type_symbol
 _atom_site_label
 _atom_site_symmetry_multiplicity
 _atom_site_fract_x
 _atom_site_fract_y
 _atom_site_fract_z
 _atom_site_occupancy
  Tm  Tm0  1  0.000000  0.500000  0.524915  1
  Tm  Tm1  1  0.500000  0.000000  0.476217  1
  Tm  Tm2  1  0.500000  0.819988  0.203487  1
  Tm  Tm3  1  0.500000  0.180012  0.203487  1
  Tm  Tm4  1  0.000000  0.679550  0.796050  1
  Tm  Tm5  1  0.000000  0.320450  0.796050  1
  Cr  Cr6  1  0.500000  0.500000  0.154024  1
  Fe  Fe7  1  0.000000  0.000000  0.844083  1
  Fe  Fe8  1  0.000000  0.500000  0.987440  1
  Fe  Fe9  1  0.500000  0.000000  0.010299  1
  Fe  Fe10  1  0.000000  0.168022  0.004707  1
  Fe  Fe11  1  0.000000  0.831978  0.004707  1
  Fe  Fe12  1  0.000000  0.202671  0.570661  1
  Fe  Fe13  1  0.000000  0.797329  0.570661  1
  Co  Co14  1  0.500000  0.500000  0.699815  1
  Co  Co15  1  0.000000  0.000000  0.299327  1
  Co  Co16  1  0.500000  0.332343  0.993170  1
  Co  Co17  1  0.500000  0.667657  0.993170  1
  Co  Co18  1  0.500000  0.296940  0.429653  1
  Co  Co19  1  0.500000  0.703060  0.429653  1
  Co  Co20  1  0.500000  0.880290  0.710539  1
  Co  Co21  1  0.500000  0.119710  0.710539  1
  Co  Co22  1  0.000000  0.620752  0.291724  1
  Co  Co23  1  0.000000  0.379248  0.291724  1
  P  P24  1  0.500000  0.500000  0.882988  1
  P  P25  1  0.000000  0.000000  0.115380  1
  P  P26  1  0.500000  0.500000  0.347151  1
  P  P27  1  0.000000  0.000000  0.655747  1
  P  P28  1  0.500000  0.308715  0.616729  1
  P  P29  1  0.500000  0.691285  0.616729  1
  P  P30  1  0.000000  0.189102  0.384840  1
  P  P31  1  0.000000  0.810898  0.384840  1
  P  P32  1  0.500000  0.846443  0.893515  1
  P  P33  1  0.500000  0.153557  0.893515  1
  P  P34  1  0.000000  0.654524  0.106232  1
  P  P35  1  0.000000  0.345476  0.106232  1
