# generated using pymatgen
data_Ce3Lu(MgIr)4
_symmetry_space_group_name_H-M   'P 1'
_cell_length_a   7.07310297
_cell_length_b   4.07879000
_cell_length_c   8.68276481
_cell_angle_alpha   90.00000000
_cell_angle_beta   90.15504894
_cell_angle_gamma   90.00000000
_symmetry_Int_Tables_number   1
_chemical_formula_structural   Ce3Lu(MgIr)4
_chemical_formula_sum   'Ce3 Lu1 Mg4 Ir4'
_cell_volume   250.49425739
_cell_formula_units_Z   1
loop_
 _symmetry_equiv_pos_site_id
 _symmetry_equiv_pos_as_xyz
  1  'x, y, z'
loop_
 _atom_site_type_symbol
 _atom_site_label
 _atom_site_symmetry_multiplicity
 _atom_site_fract_x
 _atom_site_fract_y
 _atom_site_fract_z
 _atom_site_occupancy
  Ce  Ce0  1  0.463522  0.250000  0.313351  1
  Ce  Ce1  1  0.035104  0.750000  0.824823  1
  Ce  Ce2  1  0.535534  0.750000  0.681254  1
  Lu  Lu3  1  0.958842  0.250000  0.178653  1
  Mg  Mg4  1  0.866069  0.250000  0.556334  1
  Mg  Mg5  1  0.364475  0.250000  0.944782  1
  Mg  Mg6  1  0.130930  0.750000  0.437922  1
  Mg  Mg7  1  0.640263  0.750000  0.059510  1
  Ir  Ir8  1  0.758692  0.250000  0.867006  1
  Ir  Ir9  1  0.259008  0.250000  0.633748  1
  Ir  Ir10  1  0.245160  0.750000  0.132954  1
  Ir  Ir11  1  0.742404  0.750000  0.369663  1
