# generated using pymatgen
data_Er3Al3CoSiGe
_symmetry_space_group_name_H-M   'P 1'
_cell_length_a   6.84697600
_cell_length_b   6.84697673
_cell_length_c   4.13357100
_cell_angle_alpha   90.00000000
_cell_angle_beta   90.00000000
_cell_angle_gamma   119.99999646
_symmetry_Int_Tables_number   1
_chemical_formula_structural   Er3Al3CoSiGe
_chemical_formula_sum   'Er3 Al3 Co1 Si1 Ge1'
_cell_volume   167.82386024
_cell_formula_units_Z   1
loop_
 _symmetry_equiv_pos_site_id
 _symmetry_equiv_pos_as_xyz
  1  'x, y, z'
loop_
 _atom_site_type_symbol
 _atom_site_label
 _atom_site_symmetry_multiplicity
 _atom_site_fract_x
 _atom_site_fract_y
 _atom_site_fract_z
 _atom_site_occupancy
  Er  Er0  1  0.404599  0.001922  0.000000  1
  Er  Er1  1  0.998078  0.402677  0.000000  1
  Er  Er2  1  0.597324  0.595402  0.000000  1
  Al  Al3  1  0.772006  0.002489  0.500001  1
  Al  Al4  1  0.230482  0.227993  0.500001  1
  Al  Al5  1  0.997511  0.769517  0.500001  1
  Co  Co6  1  0.000000  0.000000  0.000000  1
  Si  Si7  1  0.666666  0.333333  0.500001  1
  Ge  Ge8  1  0.333333  0.666666  0.500001  1
