# generated using pymatgen
data_Tm9Lu(GeB4)4
_symmetry_space_group_name_H-M   'P 1'
_cell_length_a   7.17257500
_cell_length_b   7.17257500
_cell_length_c   7.98818000
_cell_angle_alpha   90.00000000
_cell_angle_beta   90.00000000
_cell_angle_gamma   90.00000000
_symmetry_Int_Tables_number   1
_chemical_formula_structural   Tm9Lu(GeB4)4
_chemical_formula_sum   'Tm9 Lu1 Ge4 B16'
_cell_volume   410.95856731
_cell_formula_units_Z   1
loop_
 _symmetry_equiv_pos_site_id
 _symmetry_equiv_pos_as_xyz
  1  'x, y, z'
loop_
 _atom_site_type_symbol
 _atom_site_label
 _atom_site_symmetry_multiplicity
 _atom_site_fract_x
 _atom_site_fract_y
 _atom_site_fract_z
 _atom_site_occupancy
  Tm  Tm0  1  0.680363  0.180111  0.220985  1
  Tm  Tm1  1  0.319637  0.819889  0.779015  1
  Tm  Tm2  1  0.319637  0.819889  0.220985  1
  Tm  Tm3  1  0.819889  0.680363  0.220985  1
  Tm  Tm4  1  0.819889  0.680363  0.779015  1
  Tm  Tm5  1  0.680363  0.180111  0.779015  1
  Tm  Tm6  1  0.180111  0.319637  0.779015  1
  Tm  Tm7  1  0.180111  0.319637  0.220985  1
  Tm  Tm8  1  0.500000  0.500000  0.500000  1
  Lu  Lu9  1  0.000000  0.000000  0.500000  1
  Ge  Ge10  1  0.120400  0.622655  0.500000  1
  Ge  Ge11  1  0.879600  0.377345  0.500000  1
  Ge  Ge12  1  0.377345  0.120400  0.500000  1
  Ge  Ge13  1  0.622655  0.879600  0.500000  1
  B  B14  1  0.172548  0.039280  0.000000  1
  B  B15  1  0.827452  0.960720  0.000000  1
  B  B16  1  0.960720  0.172548  0.000000  1
  B  B17  1  0.327486  0.539295  0.000000  1
  B  B18  1  0.039280  0.827452  0.000000  1
  B  B19  1  0.672514  0.460705  0.000000  1
  B  B20  1  0.539295  0.672514  0.000000  1
  B  B21  1  0.460705  0.327486  0.000000  1
  B  B22  1  0.089555  0.589509  0.000000  1
  B  B23  1  0.910445  0.410491  0.000000  1
  B  B24  1  0.410491  0.089555  0.000000  1
  B  B25  1  0.589509  0.910445  0.000000  1
  B  B26  1  0.000000  0.000000  0.165880  1
  B  B27  1  0.000000  0.000000  0.834120  1
  B  B28  1  0.500000  0.500000  0.834328  1
  B  B29  1  0.500000  0.500000  0.165672  1
