# generated using pymatgen
data_Tb6CoSi4Ni
_symmetry_space_group_name_H-M   'P 1'
_cell_length_a   4.13841300
_cell_length_b   11.22305000
_cell_length_c   11.38576400
_cell_angle_alpha   90.00000000
_cell_angle_beta   90.00000000
_cell_angle_gamma   90.00000000
_symmetry_Int_Tables_number   1
_chemical_formula_structural   Tb6CoSi4Ni
_chemical_formula_sum   'Tb12 Co2 Si8 Ni2'
_cell_volume   528.81882283
_cell_formula_units_Z   2
loop_
 _symmetry_equiv_pos_site_id
 _symmetry_equiv_pos_as_xyz
  1  'x, y, z'
loop_
 _atom_site_type_symbol
 _atom_site_label
 _atom_site_symmetry_multiplicity
 _atom_site_fract_x
 _atom_site_fract_y
 _atom_site_fract_z
 _atom_site_occupancy
  Tb  Tb0  1  0.250000  0.060526  0.882589  1
  Tb  Tb1  1  0.250000  0.439474  0.382589  1
  Tb  Tb2  1  0.750000  0.941953  0.118618  1
  Tb  Tb3  1  0.750000  0.558047  0.618618  1
  Tb  Tb4  1  0.250000  0.126447  0.558187  1
  Tb  Tb5  1  0.250000  0.373553  0.058187  1
  Tb  Tb6  1  0.750000  0.875741  0.442604  1
  Tb  Tb7  1  0.750000  0.624259  0.942604  1
  Tb  Tb8  1  0.250000  0.804344  0.714617  1
  Tb  Tb9  1  0.250000  0.695656  0.214617  1
  Tb  Tb10  1  0.750000  0.197698  0.283383  1
  Tb  Tb11  1  0.750000  0.302302  0.783383  1
  Co  Co12  1  0.250000  0.364435  0.630447  1
  Co  Co13  1  0.250000  0.135565  0.130447  1
  Si  Si14  1  0.250000  0.814608  0.973772  1
  Si  Si15  1  0.250000  0.685392  0.473772  1
  Si  Si16  1  0.750000  0.184020  0.026256  1
  Si  Si17  1  0.750000  0.315980  0.526256  1
  Si  Si18  1  0.250000  0.494921  0.801462  1
  Si  Si19  1  0.250000  0.005079  0.301462  1
  Si  Si20  1  0.750000  0.504644  0.197132  1
  Si  Si21  1  0.750000  0.995356  0.697132  1
  Ni  Ni22  1  0.750000  0.634175  0.370935  1
  Ni  Ni23  1  0.750000  0.865825  0.870935  1
