# generated using pymatgen
data_Tb7TmSc12(Ga3Si)4
_symmetry_space_group_name_H-M   'P 1'
_cell_length_a   7.23892918
_cell_length_b   7.50378258
_cell_length_c   14.41298680
_cell_angle_alpha   89.96215097
_cell_angle_beta   89.99529604
_cell_angle_gamma   90.02486519
_symmetry_Int_Tables_number   1
_chemical_formula_structural   Tb7TmSc12(Ga3Si)4
_chemical_formula_sum   'Tb7 Tm1 Sc12 Ga12 Si4'
_cell_volume   782.90383728
_cell_formula_units_Z   1
loop_
 _symmetry_equiv_pos_site_id
 _symmetry_equiv_pos_as_xyz
  1  'x, y, z'
loop_
 _atom_site_type_symbol
 _atom_site_label
 _atom_site_symmetry_multiplicity
 _atom_site_fract_x
 _atom_site_fract_y
 _atom_site_fract_z
 _atom_site_occupancy
  Tb  Tb0  1  0.988568  0.822382  0.903449  1
  Tb  Tb1  1  0.488280  0.677781  0.903238  1
  Tb  Tb2  1  0.988589  0.822153  0.596876  1
  Tb  Tb3  1  0.511357  0.321764  0.096894  1
  Tb  Tb4  1  0.011325  0.177822  0.403296  1
  Tb  Tb5  1  0.511414  0.322063  0.403033  1
  Tb  Tb6  1  0.488670  0.677799  0.596964  1
  Tm  Tm7  1  0.011455  0.178609  0.097017  1
  Sc  Sc8  1  0.162134  0.506179  0.750049  1
  Sc  Sc9  1  0.838104  0.493065  0.249712  1
  Sc  Sc10  1  0.337541  0.006795  0.249728  1
  Sc  Sc11  1  0.662208  0.993704  0.750026  1
  Sc  Sc12  1  0.329588  0.172682  0.622727  1
  Sc  Sc13  1  0.670500  0.827464  0.377149  1
  Sc  Sc14  1  0.170433  0.672528  0.377161  1
  Sc  Sc15  1  0.670877  0.827617  0.122609  1
  Sc  Sc16  1  0.829585  0.327454  0.622782  1
  Sc  Sc17  1  0.329502  0.172860  0.877424  1
  Sc  Sc18  1  0.829775  0.327195  0.877456  1
  Sc  Sc19  1  0.170168  0.672842  0.122717  1
  Ga  Ga20  1  0.033137  0.115593  0.750002  1
  Ga  Ga21  1  0.966915  0.885005  0.249602  1
  Ga  Ga22  1  0.466573  0.615381  0.249946  1
  Ga  Ga23  1  0.533246  0.384431  0.750049  1
  Ga  Ga24  1  0.159813  0.464500  0.541148  1
  Ga  Ga25  1  0.840227  0.535685  0.458844  1
  Ga  Ga26  1  0.340130  0.964485  0.458846  1
  Ga  Ga27  1  0.840503  0.534518  0.041401  1
  Ga  Ga28  1  0.659888  0.035577  0.541130  1
  Ga  Ga29  1  0.159650  0.463750  0.959127  1
  Ga  Ga30  1  0.660311  0.035591  0.958977  1
  Ga  Ga31  1  0.339072  0.965125  0.041359  1
  Si  Si32  1  0.285118  0.875850  0.750082  1
  Si  Si33  1  0.715771  0.124409  0.249626  1
  Si  Si34  1  0.214503  0.375382  0.249522  1
  Si  Si35  1  0.785069  0.623962  0.750030  1
