# generated using pymatgen
data_LiDy16In3Rh4
_symmetry_space_group_name_H-M   'P 1'
_cell_length_a   9.65234136
_cell_length_b   9.65234098
_cell_length_c   9.65234112
_cell_angle_alpha   59.89786892
_cell_angle_beta   59.89786703
_cell_angle_gamma   59.89787558
_symmetry_Int_Tables_number   1
_chemical_formula_structural   LiDy16In3Rh4
_chemical_formula_sum   'Li1 Dy16 In3 Rh4'
_cell_volume   634.41808979
_cell_formula_units_Z   1
loop_
 _symmetry_equiv_pos_site_id
 _symmetry_equiv_pos_as_xyz
  1  'x, y, z'
loop_
 _atom_site_type_symbol
 _atom_site_label
 _atom_site_symmetry_multiplicity
 _atom_site_fract_x
 _atom_site_fract_y
 _atom_site_fract_z
 _atom_site_occupancy
  Li  Li0  1  0.822023  0.822023  0.822023  1
  Dy  Dy1  1  0.187858  0.187858  0.812336  1
  Dy  Dy2  1  0.599765  0.599765  0.201918  1
  Dy  Dy3  1  0.441157  0.059147  0.441157  1
  Dy  Dy4  1  0.441157  0.441157  0.059147  1
  Dy  Dy5  1  0.813257  0.186136  0.813257  1
  Dy  Dy6  1  0.187858  0.812336  0.187858  1
  Dy  Dy7  1  0.436383  0.063007  0.063007  1
  Dy  Dy8  1  0.186136  0.813257  0.813257  1
  Dy  Dy9  1  0.063007  0.436383  0.063007  1
  Dy  Dy10  1  0.813257  0.813257  0.186136  1
  Dy  Dy11  1  0.201918  0.599765  0.599765  1
  Dy  Dy12  1  0.059147  0.441157  0.441157  1
  Dy  Dy13  1  0.063007  0.063007  0.436383  1
  Dy  Dy14  1  0.812336  0.187858  0.187858  1
  Dy  Dy15  1  0.599765  0.201918  0.599765  1
  Dy  Dy16  1  0.600023  0.600023  0.600023  1
  In  In17  1  0.832969  0.832969  0.503774  1
  In  In18  1  0.503774  0.832969  0.832969  1
  In  In19  1  0.832969  0.503774  0.832969  1
  Rh  Rh20  1  0.392857  0.823344  0.392857  1
  Rh  Rh21  1  0.393177  0.393177  0.393177  1
  Rh  Rh22  1  0.823344  0.392857  0.392857  1
  Rh  Rh23  1  0.392857  0.392857  0.823344  1
