# generated using pymatgen
data_La4ZnGa3Pt3Rh
_symmetry_space_group_name_H-M   'P 1'
_cell_length_a   4.53441700
_cell_length_b   7.18475463
_cell_length_c   7.98018425
_cell_angle_alpha   89.59079378
_cell_angle_beta   90.00000000
_cell_angle_gamma   90.00000000
_symmetry_Int_Tables_number   1
_chemical_formula_structural   La4ZnGa3Pt3Rh
_chemical_formula_sum   'La4 Zn1 Ga3 Pt3 Rh1'
_cell_volume   259.97718702
_cell_formula_units_Z   1
loop_
 _symmetry_equiv_pos_site_id
 _symmetry_equiv_pos_as_xyz
  1  'x, y, z'
loop_
 _atom_site_type_symbol
 _atom_site_label
 _atom_site_symmetry_multiplicity
 _atom_site_fract_x
 _atom_site_fract_y
 _atom_site_fract_z
 _atom_site_occupancy
  La  La0  1  0.250000  0.026116  0.691744  1
  La  La1  1  0.250000  0.532422  0.807948  1
  La  La2  1  0.750000  0.968034  0.312671  1
  La  La3  1  0.750000  0.470157  0.189804  1
  Zn  Zn4  1  0.250000  0.155483  0.072029  1
  Ga  Ga5  1  0.250000  0.659152  0.432094  1
  Ga  Ga6  1  0.750000  0.844708  0.928151  1
  Ga  Ga7  1  0.750000  0.348591  0.569670  1
  Pt  Pt8  1  0.250000  0.279895  0.394782  1
  Pt  Pt9  1  0.250000  0.773089  0.108038  1
  Pt  Pt10  1  0.750000  0.220016  0.887513  1
  Rh  Rh11  1  0.750000  0.722336  0.605556  1
