# generated using pymatgen
data_Dy8TaTi10Si16Hg
_symmetry_space_group_name_H-M   'P 1'
_cell_length_a   7.08486265
_cell_length_b   7.08486256
_cell_length_c   12.94408199
_cell_angle_alpha   89.83155355
_cell_angle_beta   90.16844703
_cell_angle_gamma   89.64254059
_symmetry_Int_Tables_number   1
_chemical_formula_structural   Dy8TaTi10Si16Hg
_chemical_formula_sum   'Dy8 Ta1 Ti10 Si16 Hg1'
_cell_volume   649.71349956
_cell_formula_units_Z   1
loop_
 _symmetry_equiv_pos_site_id
 _symmetry_equiv_pos_as_xyz
  1  'x, y, z'
loop_
 _atom_site_type_symbol
 _atom_site_label
 _atom_site_symmetry_multiplicity
 _atom_site_fract_x
 _atom_site_fract_y
 _atom_site_fract_z
 _atom_site_occupancy
  Dy  Dy0  1  0.998160  0.658644  0.032724  1
  Dy  Dy1  1  0.999551  0.342967  0.531391  1
  Dy  Dy2  1  0.658644  0.998160  0.967276  1
  Dy  Dy3  1  0.160145  0.502029  0.784096  1
  Dy  Dy4  1  0.842521  0.498656  0.284987  1
  Dy  Dy5  1  0.502029  0.160145  0.215904  1
  Dy  Dy6  1  0.498656  0.842521  0.715013  1
  Dy  Dy7  1  0.342967  0.999551  0.468609  1
  Ta  Ta8  1  0.326763  0.326763  0.000000  1
  Ti  Ti9  1  0.349978  0.504746  0.376122  1
  Ti  Ti10  1  0.852560  0.991368  0.377153  1
  Ti  Ti11  1  0.009172  0.151879  0.125065  1
  Ti  Ti12  1  0.991368  0.852560  0.622847  1
  Ti  Ti13  1  0.504746  0.349978  0.623878  1
  Ti  Ti14  1  0.151879  0.009172  0.874935  1
  Ti  Ti15  1  0.826307  0.173734  0.750498  1
  Ti  Ti16  1  0.173734  0.826307  0.249502  1
  Ti  Ti17  1  0.492101  0.648411  0.124104  1
  Ti  Ti18  1  0.648411  0.492101  0.875896  1
  Si  Si19  1  0.067198  0.714182  0.432435  1
  Si  Si20  1  0.952608  0.290180  0.936055  1
  Si  Si21  1  0.714182  0.067198  0.567565  1
  Si  Si22  1  0.208368  0.453660  0.185932  1
  Si  Si23  1  0.794458  0.541267  0.694297  1
  Si  Si24  1  0.453660  0.208368  0.814068  1
  Si  Si25  1  0.541267  0.794458  0.305703  1
  Si  Si26  1  0.290180  0.952608  0.063945  1
  Si  Si27  1  0.798386  0.868425  0.184444  1
  Si  Si28  1  0.275423  0.625809  0.572269  1
  Si  Si29  1  0.705485  0.368873  0.066714  1
  Si  Si30  1  0.625809  0.275423  0.427731  1
  Si  Si31  1  0.368873  0.705485  0.933286  1
  Si  Si32  1  0.132293  0.201510  0.316769  1
  Si  Si33  1  0.201510  0.132293  0.683231  1
  Si  Si34  1  0.868425  0.798386  0.815556  1
  Hg  Hg35  1  0.672183  0.672183  0.500000  1
