# generated using pymatgen
data_Er2Th2As4PdPt3
_symmetry_space_group_name_H-M   'P 1'
_cell_length_a   4.31984700
_cell_length_b   4.31984654
_cell_length_c   15.49255800
_cell_angle_alpha   90.00000000
_cell_angle_beta   90.00000000
_cell_angle_gamma   119.99999586
_symmetry_Int_Tables_number   1
_chemical_formula_structural   Er2Th2As4PdPt3
_chemical_formula_sum   'Er2 Th2 As4 Pd1 Pt3'
_cell_volume   250.37471319
_cell_formula_units_Z   1
loop_
 _symmetry_equiv_pos_site_id
 _symmetry_equiv_pos_as_xyz
  1  'x, y, z'
loop_
 _atom_site_type_symbol
 _atom_site_label
 _atom_site_symmetry_multiplicity
 _atom_site_fract_x
 _atom_site_fract_y
 _atom_site_fract_z
 _atom_site_occupancy
  Er  Er0  1  0.000000  0.000000  0.249230  1
  Er  Er1  1  0.000000  0.000000  0.749599  1
  Th  Th2  1  0.000000  0.000000  0.500086  1
  Th  Th3  1  0.000000  0.000000  0.999742  1
  As  As4  1  0.333333  0.666667  0.882263  1
  As  As5  1  0.666667  0.333333  0.118673  1
  As  As6  1  0.666667  0.333333  0.382747  1
  As  As7  1  0.333333  0.666667  0.617218  1
  Pd  Pd8  1  0.333333  0.666667  0.355399  1
  Pt  Pt9  1  0.666667  0.333333  0.644722  1
  Pt  Pt10  1  0.666667  0.333333  0.855737  1
  Pt  Pt11  1  0.333333  0.666667  0.144585  1
