# generated using pymatgen
data_Pr8Cu(Si4Pd)3
_symmetry_space_group_name_H-M   'P 1'
_cell_length_a   8.26349600
_cell_length_b   8.26349697
_cell_length_c   8.62310300
_cell_angle_alpha   90.00000000
_cell_angle_beta   90.00000000
_cell_angle_gamma   120.00000413
_symmetry_Int_Tables_number   1
_chemical_formula_structural   Pr8Cu(Si4Pd)3
_chemical_formula_sum   'Pr8 Cu1 Si12 Pd3'
_cell_volume   509.94328875
_cell_formula_units_Z   1
loop_
 _symmetry_equiv_pos_site_id
 _symmetry_equiv_pos_as_xyz
  1  'x, y, z'
loop_
 _atom_site_type_symbol
 _atom_site_label
 _atom_site_symmetry_multiplicity
 _atom_site_fract_x
 _atom_site_fract_y
 _atom_site_fract_z
 _atom_site_occupancy
  Pr  Pr0  1  0.499718  0.500282  0.750092  1
  Pr  Pr1  1  0.501150  0.498850  0.250092  1
  Pr  Pr2  1  0.000564  0.500282  0.750092  1
  Pr  Pr3  1  0.997699  0.498850  0.250092  1
  Pr  Pr4  1  0.499718  0.999436  0.750092  1
  Pr  Pr5  1  0.501150  0.002301  0.250092  1
  Pr  Pr6  1  0.000000  0.000000  0.750512  1
  Pr  Pr7  1  0.000000  0.000000  0.249553  1
  Cu  Cu8  1  0.666667  0.333333  0.996324  1
  Si  Si9  1  0.831485  0.168515  0.000232  1
  Si  Si10  1  0.165750  0.834250  0.999626  1
  Si  Si11  1  0.337029  0.168515  0.000232  1
  Si  Si12  1  0.166114  0.833886  0.500251  1
  Si  Si13  1  0.668500  0.834250  0.999626  1
  Si  Si14  1  0.834292  0.165708  0.499867  1
  Si  Si15  1  0.831485  0.662971  0.000232  1
  Si  Si16  1  0.667772  0.833886  0.500251  1
  Si  Si17  1  0.165750  0.331500  0.999626  1
  Si  Si18  1  0.331415  0.165708  0.499867  1
  Si  Si19  1  0.166114  0.332228  0.500251  1
  Si  Si20  1  0.834292  0.668585  0.499867  1
  Pd  Pd21  1  0.333333  0.666667  0.002971  1
  Pd  Pd22  1  0.333333  0.666667  0.497208  1
  Pd  Pd23  1  0.666667  0.333333  0.502951  1
