# generated using pymatgen
data_Li2Pr3Dy3(Co4P3)4
_symmetry_space_group_name_H-M   'P 1'
_cell_length_a   3.74837700
_cell_length_b   10.63894996
_cell_length_c   12.27384863
_cell_angle_alpha   90.09920870
_cell_angle_beta   90.00000000
_cell_angle_gamma   90.00000000
_symmetry_Int_Tables_number   1
_chemical_formula_structural   Li2Pr3Dy3(Co4P3)4
_chemical_formula_sum   'Li2 Pr3 Dy3 Co16 P12'
_cell_volume   489.46556378
_cell_formula_units_Z   1
loop_
 _symmetry_equiv_pos_site_id
 _symmetry_equiv_pos_as_xyz
  1  'x, y, z'
loop_
 _atom_site_type_symbol
 _atom_site_label
 _atom_site_symmetry_multiplicity
 _atom_site_fract_x
 _atom_site_fract_y
 _atom_site_fract_z
 _atom_site_occupancy
  Li  Li0  1  0.500000  0.499282  0.150846  1
  Li  Li1  1  0.000000  0.000224  0.849217  1
  Pr  Pr2  1  0.000000  0.499774  0.524003  1
  Pr  Pr3  1  0.500000  0.000273  0.476776  1
  Pr  Pr4  1  0.500000  0.819855  0.206256  1
  Dy  Dy5  1  0.500000  0.182293  0.204952  1
  Dy  Dy6  1  0.000000  0.680009  0.795081  1
  Dy  Dy7  1  0.000000  0.319382  0.794177  1
  Co  Co8  1  0.500000  0.499409  0.708207  1
  Co  Co9  1  0.000000  0.004734  0.291919  1
  Co  Co10  1  0.000000  0.498184  0.985855  1
  Co  Co11  1  0.500000  0.001827  0.010368  1
  Co  Co12  1  0.500000  0.332861  0.996776  1
  Co  Co13  1  0.500000  0.665730  0.994926  1
  Co  Co14  1  0.000000  0.168826  0.001542  1
  Co  Co15  1  0.000000  0.833007  0.000773  1
  Co  Co16  1  0.500000  0.296461  0.429719  1
  Co  Co17  1  0.500000  0.702318  0.432776  1
  Co  Co18  1  0.000000  0.204209  0.570619  1
  Co  Co19  1  0.000000  0.796175  0.572974  1
  Co  Co20  1  0.500000  0.878972  0.710168  1
  Co  Co21  1  0.500000  0.120933  0.709458  1
  Co  Co22  1  0.000000  0.618268  0.292956  1
  Co  Co23  1  0.000000  0.378480  0.290210  1
  P  P24  1  0.500000  0.498770  0.885530  1
  P  P25  1  0.000000  0.003617  0.111104  1
  P  P26  1  0.500000  0.499559  0.341814  1
  P  P27  1  0.000000  0.000024  0.658938  1
  P  P28  1  0.500000  0.305856  0.617412  1
  P  P29  1  0.500000  0.693372  0.619020  1
  P  P30  1  0.000000  0.194860  0.382796  1
  P  P31  1  0.000000  0.803924  0.387973  1
  P  P32  1  0.500000  0.842813  0.894037  1
  P  P33  1  0.500000  0.158125  0.893355  1
  P  P34  1  0.000000  0.654282  0.102068  1
  P  P35  1  0.000000  0.343309  0.105399  1
