# generated using pymatgen
data_Sc6Zn21Pt2Se
_symmetry_space_group_name_H-M   'P 1'
_cell_length_a   8.74452647
_cell_length_b   8.77825628
_cell_length_c   8.77820900
_cell_angle_alpha   59.95244035
_cell_angle_beta   60.12698849
_cell_angle_gamma   60.12688085
_symmetry_Int_Tables_number   1
_chemical_formula_structural   Sc6Zn21Pt2Se
_chemical_formula_sum   'Sc6 Zn21 Pt2 Se1'
_cell_volume   477.20954263
_cell_formula_units_Z   1
loop_
 _symmetry_equiv_pos_site_id
 _symmetry_equiv_pos_as_xyz
  1  'x, y, z'
loop_
 _atom_site_type_symbol
 _atom_site_label
 _atom_site_symmetry_multiplicity
 _atom_site_fract_x
 _atom_site_fract_y
 _atom_site_fract_z
 _atom_site_occupancy
  Sc  Sc0  1  0.713895  0.286102  0.286102  1
  Sc  Sc1  1  0.286102  0.713896  0.713890  1
  Sc  Sc2  1  0.284079  0.711552  0.288478  1
  Sc  Sc3  1  0.715882  0.288493  0.711541  1
  Sc  Sc4  1  0.284102  0.288484  0.711547  1
  Sc  Sc5  1  0.715861  0.711548  0.288484  1
  Zn  Zn6  1  0.121230  0.121934  0.121885  1
  Zn  Zn7  1  0.878804  0.878047  0.878096  1
  Zn  Zn8  1  0.121269  0.123556  0.633966  1
  Zn  Zn9  1  0.121217  0.633961  0.123559  1
  Zn  Zn10  1  0.878752  0.876406  0.366041  1
  Zn  Zn11  1  0.878807  0.366035  0.876410  1
  Zn  Zn12  1  0.634950  0.121886  0.121937  1
  Zn  Zn13  1  0.365053  0.878097  0.878050  1
  Zn  Zn14  1  0.500004  0.999993  0.999999  1
  Zn  Zn15  1  0.000016  0.500008  0.999987  1
  Zn  Zn16  1  0.499996  0.999981  0.500011  1
  Zn  Zn17  1  0.000019  0.999983  0.500008  1
  Zn  Zn18  1  0.499994  0.500010  0.999986  1
  Zn  Zn19  1  0.336474  0.331660  0.331693  1
  Zn  Zn20  1  0.663503  0.668334  0.668307  1
  Zn  Zn21  1  0.333570  0.332725  0.000106  1
  Zn  Zn22  1  0.333597  0.000114  0.332724  1
  Zn  Zn23  1  0.666437  0.667298  0.999861  1
  Zn  Zn24  1  0.666405  0.999867  0.667298  1
  Zn  Zn25  1  0.000173  0.331691  0.331666  1
  Zn  Zn26  1  0.999854  0.668307  0.668337  1
  Pt  Pt27  1  0.999995  0.500004  0.500006  1
  Pt  Pt28  1  0.999992  0.000002  0.000005  1
  Se  Se29  1  0.499969  0.500026  0.500019  1
