# generated using pymatgen
data_ZrBr14
_symmetry_space_group_name_H-M   'P 1'
_cell_length_a   13.62882435
_cell_length_b   16.57743092
_cell_length_c   10.59199698
_cell_angle_alpha   77.01450380
_cell_angle_beta   118.51663638
_cell_angle_gamma   130.38152058
_symmetry_Int_Tables_number   1
_chemical_formula_structural   ZrBr14
_chemical_formula_sum   'Zr2 Br28'
_cell_volume   1588.90286136
_cell_formula_units_Z   2
loop_
 _symmetry_equiv_pos_site_id
 _symmetry_equiv_pos_as_xyz
  1  'x, y, z'
loop_
 _atom_site_type_symbol
 _atom_site_label
 _atom_site_symmetry_multiplicity
 _atom_site_fract_x
 _atom_site_fract_y
 _atom_site_fract_z
 _atom_site_occupancy
  Zr  Zr0  1  0.969184  0.892995  0.881010  1
  Zr  Zr1  1  0.030816  0.107005  0.118990  1
  Br  Br2  1  0.875667  0.991474  0.648745  1
  Br  Br3  1  0.124333  0.008526  0.351255  1
  Br  Br4  1  0.374400  0.349204  0.821385  1
  Br  Br5  1  0.625600  0.650796  0.178615  1
  Br  Br6  1  0.664173  0.236585  0.700624  1
  Br  Br7  1  0.335827  0.763415  0.299376  1
  Br  Br8  1  0.987548  0.206192  0.911863  1
  Br  Br9  1  0.012452  0.793808  0.088137  1
  Br  Br10  1  0.180560  0.094523  0.017967  1
  Br  Br11  1  0.819440  0.905477  0.982033  1
  Br  Br12  1  0.965864  0.639048  0.668174  1
  Br  Br13  1  0.034136  0.360952  0.331826  1
  Br  Br14  1  0.717876  0.719858  0.704911  1
  Br  Br15  1  0.282124  0.280142  0.295089  1
  Br  Br16  1  0.353179  0.749072  0.034079  1
  Br  Br17  1  0.646821  0.250928  0.965921  1
  Br  Br18  1  0.807083  0.437911  0.673877  1
  Br  Br19  1  0.192917  0.562089  0.326123  1
  Br  Br20  1  0.814301  0.657452  0.429370  1
  Br  Br21  1  0.185699  0.342548  0.570630  1
  Br  Br22  1  0.119495  0.920537  0.778267  1
  Br  Br23  1  0.880505  0.079463  0.221733  1
  Br  Br24  1  0.562649  0.532860  0.794968  1
  Br  Br25  1  0.437351  0.467140  0.205032  1
  Br  Br26  1  0.371780  0.737202  0.829987  1
  Br  Br27  1  0.628220  0.262798  0.170013  1
  Br  Br28  1  0.607573  0.873241  0.483344  1
  Br  Br29  1  0.392427  0.126759  0.516656  1
