# generated using pymatgen
data_LuTh6FeCo2
_symmetry_space_group_name_H-M   'P 1'
_cell_length_a   9.73681447
_cell_length_b   9.72412627
_cell_length_c   6.13508180
_cell_angle_alpha   89.94511538
_cell_angle_beta   90.10962038
_cell_angle_gamma   120.04316557
_symmetry_Int_Tables_number   1
_chemical_formula_structural   LuTh6FeCo2
_chemical_formula_sum   'Lu2 Th12 Fe2 Co4'
_cell_volume   502.83860327
_cell_formula_units_Z   2
loop_
 _symmetry_equiv_pos_site_id
 _symmetry_equiv_pos_as_xyz
  1  'x, y, z'
loop_
 _atom_site_type_symbol
 _atom_site_label
 _atom_site_symmetry_multiplicity
 _atom_site_fract_x
 _atom_site_fract_y
 _atom_site_fract_z
 _atom_site_occupancy
  Lu  Lu0  1  0.333356  0.666553  0.046372  1
  Lu  Lu1  1  0.666805  0.333447  0.546372  1
  Th  Th2  1  0.127950  0.872678  0.238907  1
  Th  Th3  1  0.255273  0.127322  0.738907  1
  Th  Th4  1  0.871248  0.746472  0.740372  1
  Th  Th5  1  0.124775  0.253528  0.240372  1
  Th  Th6  1  0.746542  0.875573  0.238920  1
  Th  Th7  1  0.870971  0.124427  0.738920  1
  Th  Th8  1  0.543310  0.458012  0.066343  1
  Th  Th9  1  0.085297  0.541988  0.566343  1
  Th  Th10  1  0.458791  0.913055  0.566630  1
  Th  Th11  1  0.545737  0.086945  0.066630  1
  Th  Th12  1  0.912590  0.454413  0.064802  1
  Th  Th13  1  0.458176  0.545587  0.564802  1
  Fe  Fe14  1  0.817503  0.184220  0.285928  1
  Fe  Fe15  1  0.633284  0.815780  0.785928  1
  Co  Co16  1  0.183320  0.366764  0.790525  1
  Co  Co17  1  0.816555  0.633236  0.290525  1
  Co  Co18  1  0.366160  0.183805  0.291201  1
  Co  Co19  1  0.182356  0.816195  0.791201  1
