# generated using pymatgen
data_Pr2Nd6Ho10ScSi16Tc
_symmetry_space_group_name_H-M   'P 1'
_cell_length_a   7.35781431
_cell_length_b   7.76432446
_cell_length_c   14.63872408
_cell_angle_alpha   89.99691510
_cell_angle_beta   90.02668184
_cell_angle_gamma   89.97899426
_symmetry_Int_Tables_number   1
_chemical_formula_structural   Pr2Nd6Ho10ScSi16Tc
_chemical_formula_sum   'Pr2 Nd6 Ho10 Sc1 Si16 Tc1'
_cell_volume   836.28757945
_cell_formula_units_Z   1
loop_
 _symmetry_equiv_pos_site_id
 _symmetry_equiv_pos_as_xyz
  1  'x, y, z'
loop_
 _atom_site_type_symbol
 _atom_site_label
 _atom_site_symmetry_multiplicity
 _atom_site_fract_x
 _atom_site_fract_y
 _atom_site_fract_z
 _atom_site_occupancy
  Pr  Pr0  1  0.521307  0.319425  0.091774  1
  Pr  Pr1  1  0.021954  0.182277  0.094605  1
  Nd  Nd2  1  0.022782  0.182798  0.405306  1
  Nd  Nd3  1  0.521932  0.318564  0.408238  1
  Nd  Nd4  1  0.485716  0.685857  0.895559  1
  Nd  Nd5  1  0.485338  0.685912  0.603870  1
  Nd  Nd6  1  0.976373  0.823803  0.601150  1
  Nd  Nd7  1  0.976673  0.823795  0.898338  1
  Ho  Ho8  1  0.319360  0.170806  0.629482  1
  Ho  Ho9  1  0.678335  0.823352  0.381141  1
  Ho  Ho10  1  0.179892  0.678667  0.379265  1
  Ho  Ho11  1  0.819726  0.317555  0.870778  1
  Ho  Ho12  1  0.819536  0.317395  0.628885  1
  Ho  Ho13  1  0.847676  0.486604  0.250306  1
  Ho  Ho14  1  0.347002  0.012740  0.250167  1
  Ho  Ho15  1  0.319643  0.170600  0.870165  1
  Ho  Ho16  1  0.180064  0.678442  0.121280  1
  Ho  Ho17  1  0.678563  0.823443  0.119557  1
  Sc  Sc18  1  0.154276  0.516710  0.749849  1
  Si  Si19  1  0.283121  0.871222  0.749722  1
  Si  Si20  1  0.474353  0.613539  0.250593  1
  Si  Si21  1  0.006520  0.090835  0.749836  1
  Si  Si22  1  0.518813  0.393479  0.749766  1
  Si  Si23  1  0.149525  0.469881  0.544222  1
  Si  Si24  1  0.971094  0.883909  0.250548  1
  Si  Si25  1  0.729723  0.119069  0.251033  1
  Si  Si26  1  0.854470  0.533330  0.034075  1
  Si  Si27  1  0.351979  0.966658  0.034602  1
  Si  Si28  1  0.149863  0.470684  0.955442  1
  Si  Si29  1  0.646142  0.028870  0.551293  1
  Si  Si30  1  0.351185  0.968260  0.464861  1
  Si  Si31  1  0.854017  0.531649  0.465331  1
  Si  Si32  1  0.779908  0.631110  0.749743  1
  Si  Si33  1  0.233065  0.380013  0.250983  1
  Si  Si34  1  0.646523  0.028386  0.948603  1
  Tc  Tc35  1  0.643554  0.000365  0.749633  1
