# generated using pymatgen
data_TbY3(Co5As3)4
_symmetry_space_group_name_H-M   'P 1'
_cell_length_a   3.79110200
_cell_length_b   12.18838000
_cell_length_c   10.68528400
_cell_angle_alpha   90.00023284
_cell_angle_beta   90.00000000
_cell_angle_gamma   90.00000000
_symmetry_Int_Tables_number   1
_chemical_formula_structural   TbY3(Co5As3)4
_chemical_formula_sum   'Tb1 Y3 Co20 As12'
_cell_volume   493.73910422
_cell_formula_units_Z   1
loop_
 _symmetry_equiv_pos_site_id
 _symmetry_equiv_pos_as_xyz
  1  'x, y, z'
loop_
 _atom_site_type_symbol
 _atom_site_label
 _atom_site_symmetry_multiplicity
 _atom_site_fract_x
 _atom_site_fract_y
 _atom_site_fract_z
 _atom_site_occupancy
  Tb  Tb0  1  0.750000  0.701875  0.081684  1
  Y  Y1  1  0.250000  0.298137  0.918309  1
  Y  Y2  1  0.250000  0.798151  0.581651  1
  Y  Y3  1  0.750000  0.201867  0.418299  1
  Co  Co4  1  0.750000  0.696887  0.383593  1
  Co  Co5  1  0.250000  0.303114  0.616447  1
  Co  Co6  1  0.250000  0.803174  0.883473  1
  Co  Co7  1  0.750000  0.196863  0.116513  1
  Co  Co8  1  0.750000  0.990963  0.211810  1
  Co  Co9  1  0.250000  0.008970  0.788107  1
  Co  Co10  1  0.250000  0.508899  0.711861  1
  Co  Co11  1  0.750000  0.491041  0.288150  1
  Co  Co12  1  0.750000  0.677325  0.783649  1
  Co  Co13  1  0.250000  0.322630  0.216297  1
  Co  Co14  1  0.250000  0.822706  0.283808  1
  Co  Co15  1  0.750000  0.177358  0.716272  1
  Co  Co16  1  0.750000  0.932260  0.969150  1
  Co  Co17  1  0.250000  0.067922  0.030802  1
  Co  Co18  1  0.250000  0.567770  0.469333  1
  Co  Co19  1  0.750000  0.432102  0.530829  1
  Co  Co20  1  0.750000  0.988189  0.592920  1
  Co  Co21  1  0.250000  0.011838  0.407028  1
  Co  Co22  1  0.250000  0.511768  0.092930  1
  Co  Co23  1  0.750000  0.488127  0.907032  1
  As  As24  1  0.750000  0.613796  0.584408  1
  As  As25  1  0.250000  0.386167  0.415620  1
  As  As26  1  0.250000  0.886322  0.084399  1
  As  As27  1  0.750000  0.113869  0.915590  1
  As  As28  1  0.750000  0.890719  0.399066  1
  As  As29  1  0.250000  0.109276  0.600894  1
  As  As30  1  0.250000  0.609206  0.898912  1
  As  As31  1  0.750000  0.390724  0.100910  1
  As  As32  1  0.750000  0.870261  0.769213  1
  As  As33  1  0.250000  0.129735  0.230820  1
  As  As34  1  0.250000  0.629734  0.269436  1
  As  As35  1  0.750000  0.370252  0.730785  1
