# generated using pymatgen
data_Pr6GdY(WO6)4
_symmetry_space_group_name_H-M   'P 1'
_cell_length_a   5.42684533
_cell_length_b   9.41849313
_cell_length_c   10.30806513
_cell_angle_alpha   90.60714228
_cell_angle_beta   90.03392899
_cell_angle_gamma   89.97841034
_symmetry_Int_Tables_number   1
_chemical_formula_structural   Pr6GdY(WO6)4
_chemical_formula_sum   'Pr6 Gd1 Y1 W4 O24'
_cell_volume   526.84338786
_cell_formula_units_Z   1
loop_
 _symmetry_equiv_pos_site_id
 _symmetry_equiv_pos_as_xyz
  1  'x, y, z'
loop_
 _atom_site_type_symbol
 _atom_site_label
 _atom_site_symmetry_multiplicity
 _atom_site_fract_x
 _atom_site_fract_y
 _atom_site_fract_z
 _atom_site_occupancy
  Pr  Pr0  1  0.478008  0.602537  0.536135  1
  Pr  Pr1  1  0.978163  0.897530  0.464210  1
  Pr  Pr2  1  0.520552  0.104696  0.963800  1
  Pr  Pr3  1  0.021304  0.395420  0.035635  1
  Pr  Pr4  1  0.967528  0.782833  0.867458  1
  Pr  Pr5  1  0.467560  0.716792  0.132124  1
  Gd  Gd6  1  0.538587  0.218989  0.372661  1
  Y  Y7  1  0.038818  0.281213  0.627501  1
  W  W8  1  0.459631  0.002306  0.647737  1
  W  W9  1  0.959864  0.498293  0.352683  1
  W  W10  1  0.541149  0.493556  0.847426  1
  W  W11  1  0.041248  0.005635  0.151815  1
  O  O12  1  0.255669  0.095821  0.507751  1
  O  O13  1  0.758631  0.405061  0.493757  1
  O  O14  1  0.749925  0.587255  0.987548  1
  O  O15  1  0.249929  0.912060  0.011953  1
  O  O16  1  0.730259  0.116715  0.568870  1
  O  O17  1  0.228288  0.383707  0.433633  1
  O  O18  1  0.276996  0.610886  0.931773  1
  O  O19  1  0.776740  0.888734  0.067699  1
  O  O20  1  0.190286  0.869920  0.678062  1
  O  O21  1  0.689400  0.629874  0.322444  1
  O  O22  1  0.810429  0.363330  0.811532  1
  O  O23  1  0.309892  0.136346  0.186405  1
  O  O24  1  0.180350  0.861613  0.260600  1
  O  O25  1  0.679087  0.638147  0.739211  1
  O  O26  1  0.807789  0.358397  0.241798  1
  O  O27  1  0.305787  0.142618  0.757718  1
  O  O28  1  0.826077  0.053351  0.290845  1
  O  O29  1  0.324415  0.445317  0.708980  1
  O  O30  1  0.168017  0.545822  0.212184  1
  O  O31  1  0.666771  0.954209  0.788463  1
  O  O32  1  0.930572  0.149890  0.027427  1
  O  O33  1  0.431878  0.350036  0.972361  1
  O  O34  1  0.070562  0.648384  0.473737  1
  O  O35  1  0.569843  0.852709  0.526062  1
