# generated using pymatgen
data_Yb2H6PdPt
_symmetry_space_group_name_H-M   'P 1'
_cell_length_a   5.24907326
_cell_length_b   5.24907419
_cell_length_c   5.24907300
_cell_angle_alpha   120.00001140
_cell_angle_beta   120.00001726
_cell_angle_gamma   60.00000163
_symmetry_Int_Tables_number   1
_chemical_formula_structural   Yb2H6PdPt
_chemical_formula_sum   'Yb2 H6 Pd1 Pt1'
_cell_volume   102.26637726
_cell_formula_units_Z   1
loop_
 _symmetry_equiv_pos_site_id
 _symmetry_equiv_pos_as_xyz
  1  'x, y, z'
loop_
 _atom_site_type_symbol
 _atom_site_label
 _atom_site_symmetry_multiplicity
 _atom_site_fract_x
 _atom_site_fract_y
 _atom_site_fract_z
 _atom_site_occupancy
  Yb  Yb0  1  0.250002  0.249998  0.249998  1
  Yb  Yb1  1  0.750002  0.749998  0.750002  1
  H  H2  1  0.753666  0.246334  0.253664  1
  H  H3  1  0.246334  0.753666  0.253666  1
  H  H4  1  0.753667  0.753667  0.253666  1
  H  H5  1  0.246333  0.246333  0.746333  1
  H  H6  1  0.246334  0.753666  0.746333  1
  H  H7  1  0.753666  0.246334  0.746336  1
  Pd  Pd8  1  0.500000  0.500000  0.000000  1
  Pt  Pt9  1  0.000000  0.000000  0.500001  1
