# generated using pymatgen
data_Ce6TmMgSb10
_symmetry_space_group_name_H-M   'P 1'
_cell_length_a   9.46340200
_cell_length_b   9.46340277
_cell_length_c   6.37659500
_cell_angle_alpha   90.00000000
_cell_angle_beta   90.00000000
_cell_angle_gamma   119.99999033
_symmetry_Int_Tables_number   1
_chemical_formula_structural   Ce6TmMgSb10
_chemical_formula_sum   'Ce6 Tm1 Mg1 Sb10'
_cell_volume   494.55445864
_cell_formula_units_Z   1
loop_
 _symmetry_equiv_pos_site_id
 _symmetry_equiv_pos_as_xyz
  1  'x, y, z'
loop_
 _atom_site_type_symbol
 _atom_site_label
 _atom_site_symmetry_multiplicity
 _atom_site_fract_x
 _atom_site_fract_y
 _atom_site_fract_z
 _atom_site_occupancy
  Ce  Ce0  1  0.616020  0.000000  0.252221  1
  Ce  Ce1  1  0.383980  0.000000  0.747779  1
  Ce  Ce2  1  0.000000  0.616020  0.252221  1
  Ce  Ce3  1  0.000000  0.383980  0.747779  1
  Ce  Ce4  1  0.383980  0.383980  0.252221  1
  Ce  Ce5  1  0.616020  0.616020  0.747779  1
  Tm  Tm6  1  0.000000  0.000000  0.000000  1
  Mg  Mg7  1  0.000000  0.000000  0.500000  1
  Sb  Sb8  1  0.268968  0.000000  0.253817  1
  Sb  Sb9  1  0.731032  0.000000  0.746183  1
  Sb  Sb10  1  0.000000  0.268968  0.253817  1
  Sb  Sb11  1  0.000000  0.731032  0.746183  1
  Sb  Sb12  1  0.731032  0.731032  0.253817  1
  Sb  Sb13  1  0.268968  0.268968  0.746183  1
  Sb  Sb14  1  0.333333  0.666667  0.000000  1
  Sb  Sb15  1  0.666667  0.333333  0.000000  1
  Sb  Sb16  1  0.666667  0.333333  0.500000  1
  Sb  Sb17  1  0.333333  0.666667  0.500000  1
