# generated using pymatgen
data_TbPr15InHg3Ir4
_symmetry_space_group_name_H-M   'P 1'
_cell_length_a   9.97745886
_cell_length_b   10.01858210
_cell_length_c   9.99008174
_cell_angle_alpha   60.10232486
_cell_angle_beta   60.04179776
_cell_angle_gamma   60.13568524
_symmetry_Int_Tables_number   1
_chemical_formula_structural   TbPr15InHg3Ir4
_chemical_formula_sum   'Tb1 Pr15 In1 Hg3 Ir4'
_cell_volume   707.61417356
_cell_formula_units_Z   1
loop_
 _symmetry_equiv_pos_site_id
 _symmetry_equiv_pos_as_xyz
  1  'x, y, z'
loop_
 _atom_site_type_symbol
 _atom_site_label
 _atom_site_symmetry_multiplicity
 _atom_site_fract_x
 _atom_site_fract_y
 _atom_site_fract_z
 _atom_site_occupancy
  Tb  Tb0  1  0.559268  0.941974  0.939489  1
  Pr  Pr1  1  0.099343  0.701591  0.099723  1
  Pr  Pr2  1  0.938939  0.939633  0.561370  1
  Pr  Pr3  1  0.940999  0.560151  0.939932  1
  Pr  Pr4  1  0.312213  0.692104  0.307228  1
  Pr  Pr5  1  0.940709  0.559056  0.559526  1
  Pr  Pr6  1  0.312428  0.309249  0.689394  1
  Pr  Pr7  1  0.101609  0.098321  0.098255  1
  Pr  Pr8  1  0.558917  0.560151  0.939932  1
  Pr  Pr9  1  0.099661  0.100205  0.700474  1
  Pr  Pr10  1  0.688928  0.309249  0.689394  1
  Pr  Pr11  1  0.688454  0.692104  0.307228  1
  Pr  Pr12  1  0.690257  0.310520  0.308965  1
  Pr  Pr13  1  0.310697  0.690973  0.687634  1
  Pr  Pr14  1  0.560058  0.939633  0.561370  1
  Pr  Pr15  1  0.701816  0.098321  0.098255  1
  In  In16  1  0.330860  0.328262  0.010018  1
  Hg  Hg17  1  0.333593  0.333810  0.333364  1
  Hg  Hg18  1  0.999233  0.333810  0.333364  1
  Hg  Hg19  1  0.334642  0.998403  0.332314  1
  Ir  Ir20  1  0.886167  0.893079  0.893087  1
  Ir  Ir21  1  0.891821  0.891918  0.324440  1
  Ir  Ir22  1  0.327666  0.893079  0.893087  1
  Ir  Ir23  1  0.891721  0.324403  0.892155  1
