# generated using pymatgen
data_Ho4TaPd8Pt7
_symmetry_space_group_name_H-M   'P 1'
_cell_length_a   4.11230000
_cell_length_b   4.09757600
_cell_length_c   20.52554400
_cell_angle_alpha   90.00000000
_cell_angle_beta   90.00000000
_cell_angle_gamma   90.00000000
_symmetry_Int_Tables_number   1
_chemical_formula_structural   Ho4TaPd8Pt7
_chemical_formula_sum   'Ho4 Ta1 Pd8 Pt7'
_cell_volume   345.86489478
_cell_formula_units_Z   1
loop_
 _symmetry_equiv_pos_site_id
 _symmetry_equiv_pos_as_xyz
  1  'x, y, z'
loop_
 _atom_site_type_symbol
 _atom_site_label
 _atom_site_symmetry_multiplicity
 _atom_site_fract_x
 _atom_site_fract_y
 _atom_site_fract_z
 _atom_site_occupancy
  Ho  Ho0  1  0.000000  0.000000  0.199349  1
  Ho  Ho1  1  0.000000  0.000000  0.398926  1
  Ho  Ho2  1  0.000000  0.000000  0.601113  1
  Ho  Ho3  1  0.000000  0.000000  0.800927  1
  Ta  Ta4  1  0.000000  0.000000  0.000345  1
  Pd  Pd5  1  0.500000  0.500000  0.193901  1
  Pd  Pd6  1  0.500000  0.500000  0.398125  1
  Pd  Pd7  1  0.500000  0.500000  0.601812  1
  Pd  Pd8  1  0.500000  0.500000  0.806191  1
  Pd  Pd9  1  0.000000  0.500000  0.296712  1
  Pd  Pd10  1  0.000000  0.500000  0.499992  1
  Pd  Pd11  1  0.000000  0.500000  0.703334  1
  Pd  Pd12  1  0.000000  0.500000  0.907700  1
  Pt  Pt13  1  0.500000  0.500000  0.999826  1
  Pt  Pt14  1  0.500000  0.000000  0.091711  1
  Pt  Pt15  1  0.500000  0.000000  0.297049  1
  Pt  Pt16  1  0.500000  0.000000  0.499981  1
  Pt  Pt17  1  0.500000  0.000000  0.703148  1
  Pt  Pt18  1  0.500000  0.000000  0.908373  1
  Pt  Pt19  1  0.000000  0.500000  0.091481  1
