# generated using pymatgen
data_Tm12ZnFe4Bi
_symmetry_space_group_name_H-M   'P 1'
_cell_length_a   8.28129465
_cell_length_b   8.28129469
_cell_length_c   8.28129351
_cell_angle_alpha   110.61618601
_cell_angle_beta   111.08851005
_cell_angle_gamma   106.74329491
_symmetry_Int_Tables_number   1
_chemical_formula_structural   Tm12ZnFe4Bi
_chemical_formula_sum   'Tm12 Zn1 Fe4 Bi1'
_cell_volume   436.44594540
_cell_formula_units_Z   1
loop_
 _symmetry_equiv_pos_site_id
 _symmetry_equiv_pos_as_xyz
  1  'x, y, z'
loop_
 _atom_site_type_symbol
 _atom_site_label
 _atom_site_symmetry_multiplicity
 _atom_site_fract_x
 _atom_site_fract_y
 _atom_site_fract_z
 _atom_site_occupancy
  Tm  Tm0  1  0.284980  0.183948  0.468928  1
  Tm  Tm1  1  0.715020  0.816052  0.531072  1
  Tm  Tm2  1  0.284980  0.816052  0.101032  1
  Tm  Tm3  1  0.715020  0.183948  0.898968  1
  Tm  Tm4  1  0.614790  0.311023  0.303767  1
  Tm  Tm5  1  0.385210  0.688977  0.696233  1
  Tm  Tm6  1  0.007255  0.311023  0.696233  1
  Tm  Tm7  1  0.992745  0.688977  0.303767  1
  Tm  Tm8  1  0.220494  0.429381  0.208887  1
  Tm  Tm9  1  0.779506  0.570619  0.791113  1
  Tm  Tm10  1  0.220494  0.011607  0.791113  1
  Tm  Tm11  1  0.779506  0.988393  0.208887  1
  Zn  Zn12  1  0.000000  0.000000  0.000000  1
  Fe  Fe13  1  0.000000  0.383485  0.383485  1
  Fe  Fe14  1  0.000000  0.616515  0.616515  1
  Fe  Fe15  1  0.391404  0.891404  0.500000  1
  Fe  Fe16  1  0.608596  0.108596  0.500000  1
  Bi  Bi17  1  0.500000  0.500000  0.000000  1
