# generated using pymatgen
data_Ce4CrB16W3
_symmetry_space_group_name_H-M   'P 1'
_cell_length_a   3.66052700
_cell_length_b   6.04792675
_cell_length_c   11.69812532
_cell_angle_alpha   89.89076329
_cell_angle_beta   90.00000000
_cell_angle_gamma   90.00000000
_symmetry_Int_Tables_number   1
_chemical_formula_structural   Ce4CrB16W3
_chemical_formula_sum   'Ce4 Cr1 B16 W3'
_cell_volume   258.97963653
_cell_formula_units_Z   1
loop_
 _symmetry_equiv_pos_site_id
 _symmetry_equiv_pos_as_xyz
  1  'x, y, z'
loop_
 _atom_site_type_symbol
 _atom_site_label
 _atom_site_symmetry_multiplicity
 _atom_site_fract_x
 _atom_site_fract_y
 _atom_site_fract_z
 _atom_site_occupancy
  Ce  Ce0  1  0.000000  0.624439  0.351421  1
  Ce  Ce1  1  0.000000  0.377965  0.649282  1
  Ce  Ce2  1  0.000000  0.124199  0.151971  1
  Ce  Ce3  1  0.000000  0.875222  0.845693  1
  Cr  Cr4  1  0.000000  0.873158  0.583305  1
  B  B5  1  0.500000  0.784958  0.186583  1
  B  B6  1  0.500000  0.214019  0.812792  1
  B  B7  1  0.500000  0.284666  0.315465  1
  B  B8  1  0.500000  0.720412  0.681953  1
  B  B9  1  0.500000  0.864448  0.031949  1
  B  B10  1  0.500000  0.135373  0.967146  1
  B  B11  1  0.500000  0.363622  0.469300  1
  B  B12  1  0.500000  0.639350  0.533907  1
  B  B13  1  0.500000  0.884143  0.456344  1
  B  B14  1  0.500000  0.110272  0.548572  1
  B  B15  1  0.500000  0.385683  0.046222  1
  B  B16  1  0.500000  0.614633  0.952734  1
  B  B17  1  0.500000  0.972678  0.309791  1
  B  B18  1  0.500000  0.022895  0.689887  1
  B  B19  1  0.500000  0.473078  0.192478  1
  B  B20  1  0.500000  0.528200  0.806747  1
  W  W21  1  0.000000  0.630513  0.085697  1
  W  W22  1  0.000000  0.369417  0.913194  1
  W  W23  1  0.000000  0.126655  0.417568  1
