# generated using pymatgen
data_Zr5Mn16(MoP4)3
_symmetry_space_group_name_H-M   'P 1'
_cell_length_a   12.43778300
_cell_length_b   12.43778358
_cell_length_c   3.54922700
_cell_angle_alpha   90.00000000
_cell_angle_beta   90.00000000
_cell_angle_gamma   119.99999581
_symmetry_Int_Tables_number   1
_chemical_formula_structural   Zr5Mn16(MoP4)3
_chemical_formula_sum   'Zr5 Mn16 Mo3 P12'
_cell_volume   475.49986484
_cell_formula_units_Z   1
loop_
 _symmetry_equiv_pos_site_id
 _symmetry_equiv_pos_as_xyz
  1  'x, y, z'
loop_
 _atom_site_type_symbol
 _atom_site_label
 _atom_site_symmetry_multiplicity
 _atom_site_fract_x
 _atom_site_fract_y
 _atom_site_fract_z
 _atom_site_occupancy
  Zr  Zr0  1  0.666667  0.333333  0.000000  1
  Zr  Zr1  1  0.333333  0.666667  0.000000  1
  Zr  Zr2  1  0.822953  0.822953  0.500000  1
  Zr  Zr3  1  0.177047  0.000000  0.500000  1
  Zr  Zr4  1  0.000000  0.177047  0.500000  1
  Mn  Mn5  1  0.200287  0.375104  0.000000  1
  Mn  Mn6  1  0.174817  0.799713  0.000000  1
  Mn  Mn7  1  0.825183  0.624896  0.000000  1
  Mn  Mn8  1  0.799713  0.174817  0.000000  1
  Mn  Mn9  1  0.375104  0.200287  0.000000  1
  Mn  Mn10  1  0.127839  0.472266  0.500000  1
  Mn  Mn11  1  0.344427  0.872161  0.500000  1
  Mn  Mn12  1  0.527734  0.655573  0.500000  1
  Mn  Mn13  1  0.655573  0.527734  0.500000  1
  Mn  Mn14  1  0.872161  0.344427  0.500000  1
  Mn  Mn15  1  0.472266  0.127839  0.500000  1
  Mn  Mn16  1  0.000000  0.000000  0.000000  1
  Mn  Mn17  1  0.714123  0.000000  0.500000  1
  Mn  Mn18  1  0.000000  0.714123  0.500000  1
  Mn  Mn19  1  0.624896  0.825183  0.000000  1
  Mn  Mn20  1  0.285877  0.285877  0.500000  1
  Mo  Mo21  1  0.455880  0.455880  0.000000  1
  Mo  Mo22  1  0.544120  0.000000  0.000000  1
  Mo  Mo23  1  0.000000  0.544120  0.000000  1
  P  P24  1  0.653559  0.653559  0.000000  1
  P  P25  1  0.346441  0.000000  0.000000  1
  P  P26  1  0.000000  0.346441  0.000000  1
  P  P27  1  0.490475  0.325380  0.500000  1
  P  P28  1  0.674620  0.165096  0.500000  1
  P  P29  1  0.834904  0.509525  0.500000  1
  P  P30  1  0.509525  0.834904  0.500000  1
  P  P31  1  0.165096  0.674620  0.500000  1
  P  P32  1  0.826212  0.000000  0.000000  1
  P  P33  1  0.000000  0.826212  0.000000  1
  P  P34  1  0.325380  0.490475  0.500000  1
  P  P35  1  0.173788  0.173788  0.000000  1
