# generated using pymatgen
data_Tb12Os3Pd
_symmetry_space_group_name_H-M   'P 1'
_cell_length_a   6.44066223
_cell_length_b   7.39169561
_cell_length_c   9.17922000
_cell_angle_alpha   90.00000000
_cell_angle_beta   90.00000000
_cell_angle_gamma   90.23388782
_symmetry_Int_Tables_number   1
_chemical_formula_structural   Tb12Os3Pd
_chemical_formula_sum   'Tb12 Os3 Pd1'
_cell_volume   436.99529252
_cell_formula_units_Z   1
loop_
 _symmetry_equiv_pos_site_id
 _symmetry_equiv_pos_as_xyz
  1  'x, y, z'
loop_
 _atom_site_type_symbol
 _atom_site_label
 _atom_site_symmetry_multiplicity
 _atom_site_fract_x
 _atom_site_fract_y
 _atom_site_fract_z
 _atom_site_occupancy
  Tb  Tb0  1  0.338213  0.670153  0.058834  1
  Tb  Tb1  1  0.170636  0.184034  0.440730  1
  Tb  Tb2  1  0.671662  0.323004  0.564021  1
  Tb  Tb3  1  0.823769  0.823833  0.931446  1
  Tb  Tb4  1  0.671662  0.323004  0.935979  1
  Tb  Tb5  1  0.823769  0.823833  0.568554  1
  Tb  Tb6  1  0.338213  0.670153  0.441166  1
  Tb  Tb7  1  0.170636  0.184034  0.059270  1
  Tb  Tb8  1  0.866652  0.531607  0.250000  1
  Tb  Tb9  1  0.624762  0.041650  0.250000  1
  Tb  Tb10  1  0.128206  0.461797  0.750000  1
  Tb  Tb11  1  0.365816  0.962417  0.750000  1
  Os  Os12  1  0.457767  0.384067  0.250000  1
  Os  Os13  1  0.960414  0.115077  0.750000  1
  Os  Os14  1  0.537332  0.615252  0.750000  1
  Pd  Pd15  1  0.050491  0.886087  0.250000  1
