# generated using pymatgen
data_La5Nd11Cd4TcPt3
_symmetry_space_group_name_H-M   'P 1'
_cell_length_a   10.06891598
_cell_length_b   10.12110286
_cell_length_c   10.12110184
_cell_angle_alpha   59.42837078
_cell_angle_beta   59.53658519
_cell_angle_gamma   59.53659807
_symmetry_Int_Tables_number   1
_chemical_formula_structural   La5Nd11Cd4TcPt3
_chemical_formula_sum   'La5 Nd11 Cd4 Tc1 Pt3'
_cell_volume   721.04221353
_cell_formula_units_Z   1
loop_
 _symmetry_equiv_pos_site_id
 _symmetry_equiv_pos_as_xyz
  1  'x, y, z'
loop_
 _atom_site_type_symbol
 _atom_site_label
 _atom_site_symmetry_multiplicity
 _atom_site_fract_x
 _atom_site_fract_y
 _atom_site_fract_z
 _atom_site_occupancy
  La  La0  1  0.350512  0.351748  0.351748  1
  La  La1  1  0.345851  0.345782  0.954937  1
  La  La2  1  0.345851  0.954937  0.345782  1
  La  La3  1  0.954241  0.347132  0.347132  1
  La  La4  1  0.822203  0.186134  0.186134  1
  Nd  Nd5  1  0.188917  0.808582  0.808582  1
  Nd  Nd6  1  0.190054  0.814455  0.187759  1
  Nd  Nd7  1  0.808138  0.188615  0.807329  1
  Nd  Nd8  1  0.190054  0.187759  0.814455  1
  Nd  Nd9  1  0.808138  0.807329  0.188615  1
  Nd  Nd10  1  0.934312  0.565888  0.565888  1
  Nd  Nd11  1  0.558109  0.936644  0.936644  1
  Nd  Nd12  1  0.564359  0.934901  0.565848  1
  Nd  Nd13  1  0.937664  0.559014  0.935938  1
  Nd  Nd14  1  0.564359  0.565848  0.934901  1
  Nd  Nd15  1  0.937664  0.935938  0.559014  1
  Cd  Cd16  1  0.580042  0.580154  0.580154  1
  Cd  Cd17  1  0.579924  0.582326  0.256073  1
  Cd  Cd18  1  0.579924  0.256073  0.582326  1
  Cd  Cd19  1  0.256184  0.580743  0.580743  1
  Tc  Tc20  1  0.137113  0.145128  0.145128  1
  Pt  Pt21  1  0.145338  0.144372  0.575007  1
  Pt  Pt22  1  0.145338  0.575007  0.144372  1
  Pt  Pt23  1  0.575710  0.145492  0.145492  1
