# generated using pymatgen
data_Ho2Th(ZnPd)3
_symmetry_space_group_name_H-M   'P 1'
_cell_length_a   7.38047934
_cell_length_b   7.38047935
_cell_length_c   3.86349300
_cell_angle_alpha   90.00000000
_cell_angle_beta   90.00000000
_cell_angle_gamma   119.79912505
_symmetry_Int_Tables_number   1
_chemical_formula_structural   Ho2Th(ZnPd)3
_chemical_formula_sum   'Ho2 Th1 Zn3 Pd3'
_cell_volume   182.62297884
_cell_formula_units_Z   1
loop_
 _symmetry_equiv_pos_site_id
 _symmetry_equiv_pos_as_xyz
  1  'x, y, z'
loop_
 _atom_site_type_symbol
 _atom_site_label
 _atom_site_symmetry_multiplicity
 _atom_site_fract_x
 _atom_site_fract_y
 _atom_site_fract_z
 _atom_site_occupancy
  Ho  Ho0  1  0.595975  0.996286  0.000000  1
  Ho  Ho1  1  0.996286  0.595975  0.000000  1
  Th  Th2  1  0.410186  0.410186  0.000000  1
  Zn  Zn3  1  0.757287  0.757287  0.500000  1
  Zn  Zn4  1  0.251687  0.990364  0.500000  1
  Zn  Zn5  1  0.990364  0.251687  0.500000  1
  Pd  Pd6  1  0.003540  0.003540  0.000000  1
  Pd  Pd7  1  0.662633  0.332042  0.500000  1
  Pd  Pd8  1  0.332042  0.662633  0.500000  1
