# generated using pymatgen
data_Y4Er4Os3RuC8
_symmetry_space_group_name_H-M   'P 1'
_cell_length_a   5.09711900
_cell_length_b   6.45714744
_cell_length_c   9.73417770
_cell_angle_alpha   89.86137557
_cell_angle_beta   90.00000000
_cell_angle_gamma   90.00000000
_symmetry_Int_Tables_number   1
_chemical_formula_structural   Y4Er4Os3RuC8
_chemical_formula_sum   'Y4 Er4 Os3 Ru1 C8'
_cell_volume   320.37858215
_cell_formula_units_Z   1
loop_
 _symmetry_equiv_pos_site_id
 _symmetry_equiv_pos_as_xyz
  1  'x, y, z'
loop_
 _atom_site_type_symbol
 _atom_site_label
 _atom_site_symmetry_multiplicity
 _atom_site_fract_x
 _atom_site_fract_y
 _atom_site_fract_z
 _atom_site_occupancy
  Y  Y0  1  0.250000  0.528538  0.216285  1
  Y  Y1  1  0.750000  0.471926  0.783600  1
  Y  Y2  1  0.750000  0.972152  0.716868  1
  Y  Y3  1  0.250000  0.028098  0.282248  1
  Er  Er4  1  0.250000  0.679919  0.553951  1
  Er  Er5  1  0.750000  0.320268  0.446612  1
  Er  Er6  1  0.750000  0.821312  0.054475  1
  Er  Er7  1  0.250000  0.176487  0.946404  1
  Os  Os8  1  0.750000  0.276678  0.134021  1
  Os  Os9  1  0.750000  0.775811  0.366242  1
  Os  Os10  1  0.250000  0.223379  0.634251  1
  Ru  Ru11  1  0.250000  0.723011  0.866188  1
  C  C12  1  0.250000  0.457470  0.756939  1
  C  C13  1  0.750000  0.541357  0.241913  1
  C  C14  1  0.750000  0.041834  0.258986  1
  C  C15  1  0.250000  0.959060  0.740274  1
  C  C16  1  0.250000  0.830593  0.053929  1
  C  C17  1  0.750000  0.171814  0.946799  1
  C  C18  1  0.750000  0.671780  0.553666  1
  C  C19  1  0.250000  0.328513  0.446352  1
