# generated using pymatgen
data_Hf18FeCuRe5Mo3
_symmetry_space_group_name_H-M   'P 1'
_cell_length_a   8.46093400
_cell_length_b   8.64210093
_cell_length_c   8.63993010
_cell_angle_alpha   120.00685666
_cell_angle_beta   90.00000000
_cell_angle_gamma   90.00000000
_symmetry_Int_Tables_number   1
_chemical_formula_structural   Hf18FeCuRe5Mo3
_chemical_formula_sum   'Hf18 Fe1 Cu1 Re5 Mo3'
_cell_volume   547.07704352
_cell_formula_units_Z   1
loop_
 _symmetry_equiv_pos_site_id
 _symmetry_equiv_pos_as_xyz
  1  'x, y, z'
loop_
 _atom_site_type_symbol
 _atom_site_label
 _atom_site_symmetry_multiplicity
 _atom_site_fract_x
 _atom_site_fract_y
 _atom_site_fract_z
 _atom_site_occupancy
  Hf  Hf0  1  0.554582  0.803941  0.607890  1
  Hf  Hf1  1  0.553510  0.803016  0.196083  1
  Hf  Hf2  1  0.553499  0.393033  0.196066  1
  Hf  Hf3  1  0.440352  0.201637  0.403273  1
  Hf  Hf4  1  0.441041  0.201435  0.798347  1
  Hf  Hf5  1  0.441052  0.596921  0.798336  1
  Hf  Hf6  1  0.059648  0.201637  0.403273  1
  Hf  Hf7  1  0.058959  0.201435  0.798347  1
  Hf  Hf8  1  0.058948  0.596921  0.798336  1
  Hf  Hf9  1  0.945418  0.803941  0.607890  1
  Hf  Hf10  1  0.946490  0.803016  0.196083  1
  Hf  Hf11  1  0.946501  0.393033  0.196066  1
  Hf  Hf12  1  0.750000  0.458604  0.917229  1
  Hf  Hf13  1  0.750000  0.460106  0.542655  1
  Hf  Hf14  1  0.750000  0.082544  0.542660  1
  Hf  Hf15  1  0.250000  0.540683  0.081335  1
  Hf  Hf16  1  0.250000  0.541241  0.459668  1
  Hf  Hf17  1  0.250000  0.918439  0.459666  1
  Fe  Fe18  1  0.250000  0.333799  0.667510  1
  Cu  Cu19  1  0.750000  0.666658  0.333376  1
  Re  Re20  1  0.750000  0.111284  0.887146  1
  Re  Re21  1  0.750000  0.775850  0.887144  1
  Re  Re22  1  0.250000  0.888979  0.777935  1
  Re  Re23  1  0.250000  0.888451  0.111187  1
  Re  Re24  1  0.250000  0.222746  0.111164  1
  Mo  Mo25  1  0.750000  0.111038  0.222115  1
  Mo  Mo26  1  0.499840  0.999804  0.999609  1
  Mo  Mo27  1  0.000160  0.999804  0.999609  1
