# generated using pymatgen
data_GdTeBrO3
_symmetry_space_group_name_H-M   'P 1'
_cell_length_a   7.26996700
_cell_length_b   8.08786643
_cell_length_c   8.59308927
_cell_angle_alpha   73.56337671
_cell_angle_beta   90.00000000
_cell_angle_gamma   90.00000000
_symmetry_Int_Tables_number   1
_chemical_formula_structural   GdTeBrO3
_chemical_formula_sum   'Gd4 Te4 Br4 O12'
_cell_volume   484.61260470
_cell_formula_units_Z   4
loop_
 _symmetry_equiv_pos_site_id
 _symmetry_equiv_pos_as_xyz
  1  'x, y, z'
loop_
 _atom_site_type_symbol
 _atom_site_label
 _atom_site_symmetry_multiplicity
 _atom_site_fract_x
 _atom_site_fract_y
 _atom_site_fract_z
 _atom_site_occupancy
  Gd  Gd0  1  0.752911  0.283440  0.390877  1
  Gd  Gd1  1  0.252911  0.216560  0.609123  1
  Gd  Gd2  1  0.247089  0.716560  0.609123  1
  Gd  Gd3  1  0.747089  0.783440  0.390877  1
  Te  Te4  1  0.199151  0.571068  0.270278  1
  Te  Te5  1  0.699151  0.928932  0.729722  1
  Te  Te6  1  0.800849  0.428932  0.729722  1
  Te  Te7  1  0.300849  0.071068  0.270278  1
  Br  Br8  1  0.692748  0.614382  0.123664  1
  Br  Br9  1  0.192748  0.885618  0.876336  1
  Br  Br10  1  0.307252  0.385618  0.876336  1
  Br  Br11  1  0.807252  0.114382  0.123664  1
  O  O12  1  0.307659  0.504681  0.483157  1
  O  O13  1  0.807659  0.995319  0.516843  1
  O  O14  1  0.692341  0.495319  0.516843  1
  O  O15  1  0.192341  0.004681  0.483157  1
  O  O16  1  0.053206  0.734701  0.336795  1
  O  O17  1  0.553206  0.765299  0.663205  1
  O  O18  1  0.946794  0.265299  0.663205  1
  O  O19  1  0.446794  0.234701  0.336795  1
  O  O20  1  0.055823  0.365485  0.327459  1
  O  O21  1  0.555823  0.134515  0.672541  1
  O  O22  1  0.944177  0.634515  0.672541  1
  O  O23  1  0.444177  0.865485  0.327459  1
