# generated using pymatgen
data_YbPa3(FeB4)4
_symmetry_space_group_name_H-M   'P 1'
_cell_length_a   3.43100700
_cell_length_b   5.89905576
_cell_length_c   11.43929447
_cell_angle_alpha   90.05814021
_cell_angle_beta   90.00000000
_cell_angle_gamma   90.00000000
_symmetry_Int_Tables_number   1
_chemical_formula_structural   YbPa3(FeB4)4
_chemical_formula_sum   'Yb1 Pa3 Fe4 B16'
_cell_volume   231.52778747
_cell_formula_units_Z   1
loop_
 _symmetry_equiv_pos_site_id
 _symmetry_equiv_pos_as_xyz
  1  'x, y, z'
loop_
 _atom_site_type_symbol
 _atom_site_label
 _atom_site_symmetry_multiplicity
 _atom_site_fract_x
 _atom_site_fract_y
 _atom_site_fract_z
 _atom_site_occupancy
  Yb  Yb0  1  0.000000  0.373171  0.149924  1
  Pa  Pa1  1  0.000000  0.126304  0.650267  1
  Pa  Pa2  1  0.000000  0.873422  0.347667  1
  Pa  Pa3  1  0.000000  0.625894  0.851847  1
  Fe  Fe4  1  0.000000  0.135874  0.907207  1
  Fe  Fe5  1  0.000000  0.864247  0.087996  1
  Fe  Fe6  1  0.000000  0.636744  0.592943  1
  Fe  Fe7  1  0.000000  0.365588  0.411062  1
  B  B8  1  0.500000  0.359929  0.968111  1
  B  B9  1  0.500000  0.640153  0.033829  1
  B  B10  1  0.500000  0.860244  0.533557  1
  B  B11  1  0.500000  0.138067  0.465202  1
  B  B12  1  0.500000  0.475349  0.690087  1
  B  B13  1  0.500000  0.522492  0.309683  1
  B  B14  1  0.500000  0.974657  0.810666  1
  B  B15  1  0.500000  0.024515  0.188429  1
  B  B16  1  0.500000  0.280660  0.815611  1
  B  B17  1  0.500000  0.719345  0.183910  1
  B  B18  1  0.500000  0.781489  0.686137  1
  B  B19  1  0.500000  0.219970  0.314738  1
  B  B20  1  0.500000  0.387978  0.544774  1
  B  B21  1  0.500000  0.610196  0.453476  1
  B  B22  1  0.500000  0.889744  0.956271  1
  B  B23  1  0.500000  0.113966  0.046606  1
