# generated using pymatgen
data_Tm2Lu8(BiSb)3
_symmetry_space_group_name_H-M   'P 1'
_cell_length_a   8.05075837
_cell_length_b   9.29695313
_cell_length_c   11.73745331
_cell_angle_alpha   89.89253073
_cell_angle_beta   89.82177790
_cell_angle_gamma   90.09212162
_symmetry_Int_Tables_number   1
_chemical_formula_structural   Tm2Lu8(BiSb)3
_chemical_formula_sum   'Tm4 Lu16 Bi6 Sb6'
_cell_volume   878.51236967
_cell_formula_units_Z   2
loop_
 _symmetry_equiv_pos_site_id
 _symmetry_equiv_pos_as_xyz
  1  'x, y, z'
loop_
 _atom_site_type_symbol
 _atom_site_label
 _atom_site_symmetry_multiplicity
 _atom_site_fract_x
 _atom_site_fract_y
 _atom_site_fract_z
 _atom_site_occupancy
  Tm  Tm0  1  0.181783  0.246995  0.781981  1
  Tm  Tm1  1  0.818217  0.753005  0.218019  1
  Tm  Tm2  1  0.312769  0.754211  0.283790  1
  Tm  Tm3  1  0.687231  0.245789  0.716210  1
  Lu  Lu4  1  0.027594  0.244820  0.510695  1
  Lu  Lu5  1  0.972406  0.755180  0.489305  1
  Lu  Lu6  1  0.472931  0.750176  0.011199  1
  Lu  Lu7  1  0.527069  0.249824  0.988801  1
  Lu  Lu8  1  0.350391  0.246642  0.285632  1
  Lu  Lu9  1  0.649609  0.753358  0.714368  1
  Lu  Lu10  1  0.142068  0.753903  0.783319  1
  Lu  Lu11  1  0.857932  0.246097  0.216681  1
  Lu  Lu12  1  0.187536  0.064644  0.061799  1
  Lu  Lu13  1  0.812464  0.935356  0.938201  1
  Lu  Lu14  1  0.306856  0.936467  0.557536  1
  Lu  Lu15  1  0.810861  0.565773  0.941087  1
  Lu  Lu16  1  0.693144  0.063533  0.442464  1
  Lu  Lu17  1  0.189139  0.434227  0.058913  1
  Lu  Lu18  1  0.690841  0.434145  0.441195  1
  Lu  Lu19  1  0.309159  0.565855  0.558805  1
  Bi  Bi20  1  0.432932  0.996079  0.825367  1
  Bi  Bi21  1  0.933909  0.503559  0.673338  1
  Bi  Bi22  1  0.567068  0.003921  0.174633  1
  Bi  Bi23  1  0.066091  0.496441  0.326662  1
  Bi  Bi24  1  0.566511  0.495936  0.175505  1
  Bi  Bi25  1  0.433489  0.504064  0.824495  1
  Sb  Sb26  1  0.406477  0.250587  0.541537  1
  Sb  Sb27  1  0.593523  0.749413  0.458463  1
  Sb  Sb28  1  0.095576  0.749754  0.040629  1
  Sb  Sb29  1  0.904424  0.250246  0.959371  1
  Sb  Sb30  1  0.065983  0.004524  0.326998  1
  Sb  Sb31  1  0.934017  0.995476  0.673002  1
