# generated using pymatgen
data_CeThFe12P7
_symmetry_space_group_name_H-M   'P 1'
_cell_length_a   9.02142100
_cell_length_b   9.02142009
_cell_length_c   3.68643300
_cell_angle_alpha   90.00000000
_cell_angle_beta   90.00000000
_cell_angle_gamma   119.99999968
_symmetry_Int_Tables_number   1
_chemical_formula_structural   CeThFe12P7
_chemical_formula_sum   'Ce1 Th1 Fe12 P7'
_cell_volume   259.82852930
_cell_formula_units_Z   1
loop_
 _symmetry_equiv_pos_site_id
 _symmetry_equiv_pos_as_xyz
  1  'x, y, z'
loop_
 _atom_site_type_symbol
 _atom_site_label
 _atom_site_symmetry_multiplicity
 _atom_site_fract_x
 _atom_site_fract_y
 _atom_site_fract_z
 _atom_site_occupancy
  Ce  Ce0  1  0.000000  0.000000  0.500000  1
  Th  Th1  1  0.333333  0.666667  0.000000  1
  Fe  Fe2  1  0.728785  0.967720  0.000000  1
  Fe  Fe3  1  0.238936  0.271215  0.000000  1
  Fe  Fe4  1  0.032280  0.761064  0.000000  1
  Fe  Fe5  1  0.938990  0.454008  0.000000  1
  Fe  Fe6  1  0.515019  0.061010  0.000000  1
  Fe  Fe7  1  0.545992  0.484981  0.000000  1
  Fe  Fe8  1  0.099860  0.383478  0.500000  1
  Fe  Fe9  1  0.283618  0.900140  0.500000  1
  Fe  Fe10  1  0.616522  0.716382  0.500000  1
  Fe  Fe11  1  0.764993  0.217499  0.500000  1
  Fe  Fe12  1  0.452506  0.235007  0.500000  1
  Fe  Fe13  1  0.782501  0.547494  0.500000  1
  P  P14  1  0.968732  0.227804  0.000000  1
  P  P15  1  0.259073  0.031268  0.000000  1
  P  P16  1  0.772196  0.740927  0.000000  1
  P  P17  1  0.060072  0.623597  0.500000  1
  P  P18  1  0.563525  0.939928  0.500000  1
  P  P19  1  0.376403  0.436475  0.500000  1
  P  P20  1  0.666667  0.333333  0.000000  1
