# generated using pymatgen
data_Tb6Tm10Cd4Ir3Pt
_symmetry_space_group_name_H-M   'P 1'
_cell_length_a   9.57049767
_cell_length_b   9.57049789
_cell_length_c   9.57049806
_cell_angle_alpha   60.12868867
_cell_angle_beta   60.12869016
_cell_angle_gamma   60.12869574
_symmetry_Int_Tables_number   1
_chemical_formula_structural   Tb6Tm10Cd4Ir3Pt
_chemical_formula_sum   'Tb6 Tm10 Cd4 Ir3 Pt1'
_cell_volume   621.65994817
_cell_formula_units_Z   1
loop_
 _symmetry_equiv_pos_site_id
 _symmetry_equiv_pos_as_xyz
  1  'x, y, z'
loop_
 _atom_site_type_symbol
 _atom_site_label
 _atom_site_symmetry_multiplicity
 _atom_site_fract_x
 _atom_site_fract_y
 _atom_site_fract_z
 _atom_site_occupancy
  Tb  Tb0  1  0.190068  0.810951  0.810951  1
  Tb  Tb1  1  0.811900  0.189190  0.189190  1
  Tb  Tb2  1  0.810951  0.190068  0.810951  1
  Tb  Tb3  1  0.189190  0.811900  0.189190  1
  Tb  Tb4  1  0.810951  0.810951  0.190068  1
  Tb  Tb5  1  0.189190  0.189190  0.811900  1
  Tm  Tm6  1  0.597840  0.597840  0.597840  1
  Tm  Tm7  1  0.601465  0.601465  0.200917  1
  Tm  Tm8  1  0.601465  0.200917  0.601465  1
  Tm  Tm9  1  0.200917  0.601465  0.601465  1
  Tm  Tm10  1  0.056718  0.439656  0.439656  1
  Tm  Tm11  1  0.436154  0.061548  0.061548  1
  Tm  Tm12  1  0.439656  0.056718  0.439656  1
  Tm  Tm13  1  0.061548  0.436154  0.061548  1
  Tm  Tm14  1  0.439656  0.439656  0.056718  1
  Tm  Tm15  1  0.061548  0.061548  0.436154  1
  Cd  Cd16  1  0.830315  0.830315  0.830315  1
  Cd  Cd17  1  0.830816  0.830816  0.507531  1
  Cd  Cd18  1  0.830816  0.507531  0.830816  1
  Cd  Cd19  1  0.507531  0.830816  0.830816  1
  Ir  Ir20  1  0.392398  0.392398  0.824105  1
  Ir  Ir21  1  0.392398  0.824105  0.392398  1
  Ir  Ir22  1  0.824105  0.392398  0.392398  1
  Pt  Pt23  1  0.392405  0.392405  0.392405  1
