# generated using pymatgen
data_Sc10MnHg3
_symmetry_space_group_name_H-M   'P 1'
_cell_length_a   8.90105900
_cell_length_b   8.90105943
_cell_length_c   9.09429400
_cell_angle_alpha   90.00000000
_cell_angle_beta   90.00000000
_cell_angle_gamma   119.99999468
_symmetry_Int_Tables_number   1
_chemical_formula_structural   Sc10MnHg3
_chemical_formula_sum   'Sc20 Mn2 Hg6'
_cell_volume   623.99775237
_cell_formula_units_Z   2
loop_
 _symmetry_equiv_pos_site_id
 _symmetry_equiv_pos_as_xyz
  1  'x, y, z'
loop_
 _atom_site_type_symbol
 _atom_site_label
 _atom_site_symmetry_multiplicity
 _atom_site_fract_x
 _atom_site_fract_y
 _atom_site_fract_z
 _atom_site_occupancy
  Sc  Sc0  1  0.000000  0.000000  0.500000  1
  Sc  Sc1  1  0.000000  0.000000  0.000000  1
  Sc  Sc2  1  0.539711  0.460289  0.250000  1
  Sc  Sc3  1  0.539711  0.079423  0.250000  1
  Sc  Sc4  1  0.920577  0.460289  0.250000  1
  Sc  Sc5  1  0.460289  0.539711  0.750000  1
  Sc  Sc6  1  0.460289  0.920577  0.750000  1
  Sc  Sc7  1  0.079423  0.539711  0.750000  1
  Sc  Sc8  1  0.212375  0.787625  0.438046  1
  Sc  Sc9  1  0.212375  0.424752  0.438046  1
  Sc  Sc10  1  0.575248  0.787625  0.438046  1
  Sc  Sc11  1  0.787625  0.212375  0.561954  1
  Sc  Sc12  1  0.787625  0.575248  0.561954  1
  Sc  Sc13  1  0.424752  0.212375  0.561954  1
  Sc  Sc14  1  0.787625  0.212375  0.938046  1
  Sc  Sc15  1  0.787625  0.575248  0.938046  1
  Sc  Sc16  1  0.424752  0.212375  0.938046  1
  Sc  Sc17  1  0.212375  0.787625  0.061954  1
  Sc  Sc18  1  0.212375  0.424752  0.061954  1
  Sc  Sc19  1  0.575248  0.787625  0.061954  1
  Mn  Mn20  1  0.333333  0.666667  0.250000  1
  Mn  Mn21  1  0.666667  0.333333  0.750000  1
  Hg  Hg22  1  0.882100  0.117900  0.250000  1
  Hg  Hg23  1  0.882100  0.764201  0.250000  1
  Hg  Hg24  1  0.235799  0.117900  0.250000  1
  Hg  Hg25  1  0.117900  0.882100  0.750000  1
  Hg  Hg26  1  0.117900  0.235799  0.750000  1
  Hg  Hg27  1  0.764201  0.882100  0.750000  1
