# generated using pymatgen
data_Sr5YbPr2(Si3Au)4
_symmetry_space_group_name_H-M   'P 1'
_cell_length_a   8.40422500
_cell_length_b   8.38885683
_cell_length_c   8.98189700
_cell_angle_alpha   90.00000000
_cell_angle_beta   90.00000000
_cell_angle_gamma   120.06062371
_symmetry_Int_Tables_number   1
_chemical_formula_structural   Sr5YbPr2(Si3Au)4
_chemical_formula_sum   'Sr5 Yb1 Pr2 Si12 Au4'
_cell_volume   548.06684101
_cell_formula_units_Z   1
loop_
 _symmetry_equiv_pos_site_id
 _symmetry_equiv_pos_as_xyz
  1  'x, y, z'
loop_
 _atom_site_type_symbol
 _atom_site_label
 _atom_site_symmetry_multiplicity
 _atom_site_fract_x
 _atom_site_fract_y
 _atom_site_fract_z
 _atom_site_occupancy
  Sr  Sr0  1  0.499539  0.500350  0.750000  1
  Sr  Sr1  1  0.500588  0.499505  0.250000  1
  Sr  Sr2  1  0.000812  0.500350  0.750000  1
  Sr  Sr3  1  0.998916  0.499505  0.250000  1
  Sr  Sr4  1  0.499599  0.999197  0.750000  1
  Yb  Yb5  1  0.500403  0.000808  0.250000  1
  Pr  Pr6  1  0.000008  0.000014  0.750000  1
  Pr  Pr7  1  0.999990  0.999980  0.250000  1
  Si  Si8  1  0.837334  0.161261  0.003616  1
  Si  Si9  1  0.162621  0.838753  0.003488  1
  Si  Si10  1  0.323927  0.161261  0.003616  1
  Si  Si11  1  0.162621  0.838753  0.496512  1
  Si  Si12  1  0.676132  0.838753  0.003488  1
  Si  Si13  1  0.837334  0.161261  0.496384  1
  Si  Si14  1  0.838125  0.676250  0.000712  1
  Si  Si15  1  0.676132  0.838753  0.496512  1
  Si  Si16  1  0.161887  0.323775  0.000941  1
  Si  Si17  1  0.323927  0.161261  0.496384  1
  Si  Si18  1  0.161887  0.323775  0.499059  1
  Si  Si19  1  0.838125  0.676250  0.499288  1
  Au  Au20  1  0.665042  0.330082  0.003784  1
  Au  Au21  1  0.335003  0.670007  0.006641  1
  Au  Au22  1  0.335003  0.670007  0.493359  1
  Au  Au23  1  0.665042  0.330082  0.496216  1
