# generated using pymatgen
data_GdHoTc2F14
_symmetry_space_group_name_H-M   'P 1'
_cell_length_a   5.64136300
_cell_length_b   9.02540008
_cell_length_c   12.16956400
_cell_angle_alpha   62.45909030
_cell_angle_beta   90.00000000
_cell_angle_gamma   90.00000000
_symmetry_Int_Tables_number   1
_chemical_formula_structural   GdHoTc2F14
_chemical_formula_sum   'Gd2 Ho2 Tc4 F28'
_cell_volume   549.40535487
_cell_formula_units_Z   2
loop_
 _symmetry_equiv_pos_site_id
 _symmetry_equiv_pos_as_xyz
  1  'x, y, z'
loop_
 _atom_site_type_symbol
 _atom_site_label
 _atom_site_symmetry_multiplicity
 _atom_site_fract_x
 _atom_site_fract_y
 _atom_site_fract_z
 _atom_site_occupancy
  Gd  Gd0  1  0.759388  0.812248  0.764637  1
  Gd  Gd1  1  0.259388  0.187752  0.735363  1
  Ho  Ho2  1  0.241169  0.184940  0.235802  1
  Ho  Ho3  1  0.741169  0.815060  0.264198  1
  Tc  Tc4  1  0.756717  0.270814  0.960998  1
  Tc  Tc5  1  0.256717  0.729186  0.539002  1
  Tc  Tc6  1  0.241173  0.724296  0.047360  1
  Tc  Tc7  1  0.741173  0.275704  0.452640  1
  F  F8  1  0.442141  0.706727  0.922378  1
  F  F9  1  0.942141  0.293273  0.577622  1
  F  F10  1  0.555279  0.290510  0.084827  1
  F  F11  1  0.055279  0.709490  0.415173  1
  F  F12  1  0.451256  0.279762  0.542250  1
  F  F13  1  0.951256  0.720238  0.957750  1
  F  F14  1  0.549278  0.725253  0.450124  1
  F  F15  1  0.049278  0.274747  0.049876  1
  F  F16  1  0.773651  0.515969  0.863864  1
  F  F17  1  0.273651  0.484031  0.636136  1
  F  F18  1  0.229188  0.478465  0.143057  1
  F  F19  1  0.729188  0.521535  0.356943  1
  F  F20  1  0.754829  0.026547  0.055915  1
  F  F21  1  0.254829  0.973453  0.444085  1
  F  F22  1  0.242779  0.968095  0.950182  1
  F  F23  1  0.742779  0.031905  0.549818  1
  F  F24  1  0.974007  0.729669  0.633484  1
  F  F25  1  0.474007  0.270331  0.866516  1
  F  F26  1  0.020566  0.269817  0.357261  1
  F  F27  1  0.520566  0.730183  0.142739  1
  F  F28  1  0.042627  0.745626  0.173721  1
  F  F29  1  0.542627  0.254374  0.326279  1
  F  F30  1  0.951455  0.252112  0.832543  1
  F  F31  1  0.451455  0.747888  0.667457  1
  F  F32  1  0.425551  0.974636  0.233384  1
  F  F33  1  0.925551  0.025364  0.266616  1
  F  F34  1  0.588947  0.031946  0.768827  1
  F  F35  1  0.088947  0.968054  0.731173  1
