# generated using pymatgen
data_ScNb3B4(Ru5W)2
_symmetry_space_group_name_H-M   'P 1'
_cell_length_a   9.48229105
_cell_length_b   9.48229105
_cell_length_c   2.99700300
_cell_angle_alpha   90.00000000
_cell_angle_beta   90.00000000
_cell_angle_gamma   89.94595679
_symmetry_Int_Tables_number   1
_chemical_formula_structural   ScNb3B4(Ru5W)2
_chemical_formula_sum   'Sc1 Nb3 B4 Ru10 W2'
_cell_volume   269.47193927
_cell_formula_units_Z   1
loop_
 _symmetry_equiv_pos_site_id
 _symmetry_equiv_pos_as_xyz
  1  'x, y, z'
loop_
 _atom_site_type_symbol
 _atom_site_label
 _atom_site_symmetry_multiplicity
 _atom_site_fract_x
 _atom_site_fract_y
 _atom_site_fract_z
 _atom_site_occupancy
  Sc  Sc0  1  0.823939  0.676061  0.000000  1
  Nb  Nb1  1  0.175887  0.324113  0.000000  1
  Nb  Nb2  1  0.324195  0.822153  0.000000  1
  Nb  Nb3  1  0.677847  0.175805  0.000000  1
  B  B4  1  0.621682  0.878318  0.000000  1
  B  B5  1  0.379186  0.120814  0.000000  1
  B  B6  1  0.119430  0.620771  0.000000  1
  B  B7  1  0.879229  0.380570  0.000000  1
  Ru  Ru8  1  0.565760  0.719799  0.500000  1
  Ru  Ru9  1  0.427359  0.282841  0.500000  1
  Ru  Ru10  1  0.076733  0.783947  0.500000  1
  Ru  Ru11  1  0.930034  0.217003  0.500000  1
  Ru  Ru12  1  0.282997  0.569966  0.500000  1
  Ru  Ru13  1  0.716053  0.423267  0.500000  1
  Ru  Ru14  1  0.217159  0.072641  0.500000  1
  Ru  Ru15  1  0.780201  0.934240  0.500000  1
  Ru  Ru16  1  0.498679  0.001321  0.500000  1
  Ru  Ru17  1  0.002951  0.497049  0.500000  1
  W  W18  1  0.501729  0.501049  0.000000  1
  W  W19  1  0.998951  0.998271  0.000000  1
