# generated using pymatgen
data_Os4N(OF4)3
_symmetry_space_group_name_H-M   'P 1'
_cell_length_a   6.70698867
_cell_length_b   7.51982203
_cell_length_c   8.36623968
_cell_angle_alpha   99.24463950
_cell_angle_beta   108.78262728
_cell_angle_gamma   110.94604918
_symmetry_Int_Tables_number   1
_chemical_formula_structural   Os4N(OF4)3
_chemical_formula_sum   'Os4 N1 O3 F12'
_cell_volume   354.47683918
_cell_formula_units_Z   1
loop_
 _symmetry_equiv_pos_site_id
 _symmetry_equiv_pos_as_xyz
  1  'x, y, z'
loop_
 _atom_site_type_symbol
 _atom_site_label
 _atom_site_symmetry_multiplicity
 _atom_site_fract_x
 _atom_site_fract_y
 _atom_site_fract_z
 _atom_site_occupancy
  Os  Os0  1  0.999349  0.005434  0.196991  1
  Os  Os1  1  0.858734  0.613146  0.396131  1
  Os  Os2  1  0.143455  0.382624  0.605059  1
  Os  Os3  1  0.000363  0.996417  0.797575  1
  N  N4  1  0.067630  0.183374  0.696251  1
  O  O5  1  0.931365  0.814980  0.301514  1
  O  O6  1  0.071095  0.211949  0.384185  1
  O  O7  1  0.930225  0.787258  0.613376  1
  F  F8  1  0.057076  0.182918  0.039348  1
  F  F9  1  0.682877  0.958278  0.082071  1
  F  F10  1  0.786826  0.414617  0.189575  1
  F  F11  1  0.319476  0.054026  0.266761  1
  F  F12  1  0.534861  0.551680  0.313844  1
  F  F13  1  0.184642  0.615460  0.484971  1
  F  F14  1  0.814300  0.389217  0.508845  1
  F  F15  1  0.467394  0.444943  0.688676  1
  F  F16  1  0.680310  0.947701  0.737166  1
  F  F17  1  0.212140  0.586539  0.807084  1
  F  F18  1  0.316753  0.045294  0.923434  1
  F  F19  1  0.941127  0.814146  0.967141  1
