# generated using pymatgen
data_Tb2Er3(In2Au)2
_symmetry_space_group_name_H-M   'P 1'
_cell_length_a   3.66400400
_cell_length_b   8.20742208
_cell_length_c   18.38773659
_cell_angle_alpha   89.76573157
_cell_angle_beta   90.00000000
_cell_angle_gamma   90.00000000
_symmetry_Int_Tables_number   1
_chemical_formula_structural   Tb2Er3(In2Au)2
_chemical_formula_sum   'Tb4 Er6 In8 Au4'
_cell_volume   552.95189503
_cell_formula_units_Z   2
loop_
 _symmetry_equiv_pos_site_id
 _symmetry_equiv_pos_as_xyz
  1  'x, y, z'
loop_
 _atom_site_type_symbol
 _atom_site_label
 _atom_site_symmetry_multiplicity
 _atom_site_fract_x
 _atom_site_fract_y
 _atom_site_fract_z
 _atom_site_occupancy
  Tb  Tb0  1  0.000000  0.500000  0.500000  1
  Tb  Tb1  1  0.000000  0.000000  0.000000  1
  Tb  Tb2  1  0.000000  0.736013  0.283982  1
  Tb  Tb3  1  0.000000  0.263987  0.716018  1
  Er  Er4  1  0.000000  0.764052  0.784197  1
  Er  Er5  1  0.000000  0.235948  0.215803  1
  Er  Er6  1  0.000000  0.619546  0.080297  1
  Er  Er7  1  0.000000  0.380454  0.919703  1
  Er  Er8  1  0.000000  0.879666  0.580171  1
  Er  Er9  1  0.000000  0.120334  0.419829  1
  In  In10  1  0.500000  0.708071  0.934135  1
  In  In11  1  0.500000  0.291929  0.065865  1
  In  In12  1  0.500000  0.793757  0.434659  1
  In  In13  1  0.500000  0.206243  0.565341  1
  In  In14  1  0.500000  0.584562  0.647788  1
  In  In15  1  0.500000  0.415438  0.352212  1
  In  In16  1  0.500000  0.918484  0.147570  1
  In  In17  1  0.500000  0.081516  0.852430  1
  Au  Au18  1  0.500000  0.524728  0.195970  1
  Au  Au19  1  0.500000  0.475272  0.804030  1
  Au  Au20  1  0.500000  0.968976  0.696647  1
  Au  Au21  1  0.500000  0.031024  0.303353  1
