# generated using pymatgen
data_CaTb3Er4(B6Os)4
_symmetry_space_group_name_H-M   'P 1'
_cell_length_a   3.64640600
_cell_length_b   9.14191714
_cell_length_c   11.53943700
_cell_angle_alpha   89.90716232
_cell_angle_beta   90.00000000
_cell_angle_gamma   90.00000000
_symmetry_Int_Tables_number   1
_chemical_formula_structural   CaTb3Er4(B6Os)4
_chemical_formula_sum   'Ca1 Tb3 Er4 B24 Os4'
_cell_volume   384.66826051
_cell_formula_units_Z   1
loop_
 _symmetry_equiv_pos_site_id
 _symmetry_equiv_pos_as_xyz
  1  'x, y, z'
loop_
 _atom_site_type_symbol
 _atom_site_label
 _atom_site_symmetry_multiplicity
 _atom_site_fract_x
 _atom_site_fract_y
 _atom_site_fract_z
 _atom_site_occupancy
  Ca  Ca0  1  0.000000  0.322034  0.413894  1
  Tb  Tb1  1  0.000000  0.676518  0.585101  1
  Tb  Tb2  1  0.000000  0.822117  0.086447  1
  Tb  Tb3  1  0.000000  0.178345  0.914452  1
  Er  Er4  1  0.000000  0.944362  0.371679  1
  Er  Er5  1  0.000000  0.057575  0.627485  1
  Er  Er6  1  0.000000  0.443293  0.128965  1
  Er  Er7  1  0.000000  0.555833  0.872688  1
  B  B8  1  0.500000  0.554534  0.432310  1
  B  B9  1  0.500000  0.445845  0.567920  1
  B  B10  1  0.500000  0.053674  0.066925  1
  B  B11  1  0.500000  0.945456  0.932120  1
  B  B12  1  0.500000  0.749042  0.418607  1
  B  B13  1  0.500000  0.251623  0.581583  1
  B  B14  1  0.500000  0.248298  0.081039  1
  B  B15  1  0.500000  0.751030  0.919027  1
  B  B16  1  0.500000  0.791653  0.266094  1
  B  B17  1  0.500000  0.209406  0.734151  1
  B  B18  1  0.500000  0.290320  0.233464  1
  B  B19  1  0.500000  0.709009  0.766352  1
  B  B20  1  0.500000  0.631505  0.185770  1
  B  B21  1  0.500000  0.368901  0.815346  1
  B  B22  1  0.500000  0.130783  0.313993  1
  B  B23  1  0.500000  0.868925  0.685018  1
  B  B24  1  0.500000  0.983371  0.212301  1
  B  B25  1  0.500000  0.016509  0.786716  1
  B  B26  1  0.500000  0.483772  0.287190  1
  B  B27  1  0.500000  0.516389  0.713346  1
  B  B28  1  0.500000  0.605722  0.029396  1
  B  B29  1  0.500000  0.394406  0.971343  1
  B  B30  1  0.500000  0.102831  0.471520  1
  B  B31  1  0.500000  0.896298  0.528545  1
  Os  Os32  1  0.000000  0.639965  0.320083  1
  Os  Os33  1  0.000000  0.361868  0.680809  1
  Os  Os34  1  0.000000  0.136816  0.177756  1
  Os  Os35  1  0.000000  0.861967  0.820563  1
