# generated using pymatgen
data_GdY(GaCu)2
_symmetry_space_group_name_H-M   'P 1'
_cell_length_a   5.70370283
_cell_length_b   5.52541698
_cell_length_c   5.52541620
_cell_angle_alpha   133.30345202
_cell_angle_beta   101.16184339
_cell_angle_gamma   96.35782696
_symmetry_Int_Tables_number   1
_chemical_formula_structural   GdY(GaCu)2
_chemical_formula_sum   'Gd1 Y1 Ga2 Cu2'
_cell_volume   116.87212475
_cell_formula_units_Z   1
loop_
 _symmetry_equiv_pos_site_id
 _symmetry_equiv_pos_as_xyz
  1  'x, y, z'
loop_
 _atom_site_type_symbol
 _atom_site_label
 _atom_site_symmetry_multiplicity
 _atom_site_fract_x
 _atom_site_fract_y
 _atom_site_fract_z
 _atom_site_occupancy
  Gd  Gd0  1  0.454596  0.459621  0.994975  1
  Y  Y1  1  0.044634  0.538815  0.505819  1
  Ga  Ga2  1  0.635714  0.833393  0.802321  1
  Ga  Ga3  1  0.865467  0.167538  0.697929  1
  Cu  Cu4  1  0.465954  0.165968  0.299986  1
  Cu  Cu5  1  0.033946  0.834977  0.198970  1
