# generated using pymatgen
data_TbGd(HoB5)2
_symmetry_space_group_name_H-M   'P 1'
_cell_length_a   7.10551000
_cell_length_b   7.09692281
_cell_length_c   7.12838775
_cell_angle_alpha   76.68680616
_cell_angle_beta   90.00000000
_cell_angle_gamma   90.00000000
_symmetry_Int_Tables_number   1
_chemical_formula_structural   TbGd(HoB5)2
_chemical_formula_sum   'Tb2 Gd2 Ho4 B20'
_cell_volume   349.80472433
_cell_formula_units_Z   2
loop_
 _symmetry_equiv_pos_site_id
 _symmetry_equiv_pos_as_xyz
  1  'x, y, z'
loop_
 _atom_site_type_symbol
 _atom_site_label
 _atom_site_symmetry_multiplicity
 _atom_site_fract_x
 _atom_site_fract_y
 _atom_site_fract_z
 _atom_site_occupancy
  Tb  Tb0  1  0.692140  0.769514  0.626486  1
  Tb  Tb1  1  0.192140  0.230486  0.873514  1
  Gd  Gd2  1  0.308327  0.228177  0.374249  1
  Gd  Gd3  1  0.808327  0.771823  0.125751  1
  Ho  Ho4  1  0.315116  0.755501  0.252936  1
  Ho  Ho5  1  0.815116  0.244499  0.247064  1
  Ho  Ho6  1  0.684890  0.244447  0.746985  1
  Ho  Ho7  1  0.184890  0.755553  0.753015  1
  B  B8  1  0.502751  0.313814  0.041007  1
  B  B9  1  0.002751  0.686186  0.458993  1
  B  B10  1  0.497317  0.686275  0.958769  1
  B  B11  1  0.997317  0.313725  0.541231  1
  B  B12  1  0.488317  0.926601  0.924209  1
  B  B13  1  0.988317  0.073399  0.575791  1
  B  B14  1  0.511149  0.073671  0.075085  1
  B  B15  1  0.011149  0.926329  0.424915  1
  B  B16  1  0.326143  0.496521  0.039764  1
  B  B17  1  0.826143  0.503479  0.460236  1
  B  B18  1  0.673839  0.503719  0.960048  1
  B  B19  1  0.173839  0.496281  0.539952  1
  B  B20  1  0.910865  0.498456  0.910841  1
  B  B21  1  0.410865  0.501544  0.589159  1
  B  B22  1  0.089236  0.501301  0.088965  1
  B  B23  1  0.589236  0.498699  0.411035  1
  B  B24  1  0.961575  0.496677  0.674356  1
  B  B25  1  0.461575  0.503323  0.825644  1
  B  B26  1  0.038335  0.503455  0.325733  1
  B  B27  1  0.538335  0.496545  0.174267  1
