# generated using pymatgen
data_Ta4Ti9CrP8
_symmetry_space_group_name_H-M   'P 1'
_cell_length_a   7.50410723
_cell_length_b   7.50410799
_cell_length_c   13.61412832
_cell_angle_alpha   76.26599192
_cell_angle_beta   76.26599148
_cell_angle_gamma   26.01877907
_symmetry_Int_Tables_number   1
_chemical_formula_structural   Ta4Ti9CrP8
_chemical_formula_sum   'Ta4 Ti9 Cr1 P8'
_cell_volume   326.15946829
_cell_formula_units_Z   1
loop_
 _symmetry_equiv_pos_site_id
 _symmetry_equiv_pos_as_xyz
  1  'x, y, z'
loop_
 _atom_site_type_symbol
 _atom_site_label
 _atom_site_symmetry_multiplicity
 _atom_site_fract_x
 _atom_site_fract_y
 _atom_site_fract_z
 _atom_site_occupancy
  Ta  Ta0  1  0.000263  0.000263  0.998806  1
  Ta  Ta1  1  0.499558  0.499558  0.502204  1
  Ta  Ta2  1  0.428539  0.428539  0.173338  1
  Ta  Ta3  1  0.574921  0.574921  0.819588  1
  Ti  Ti4  1  0.802134  0.802134  0.310399  1
  Ti  Ti5  1  0.208148  0.208148  0.206618  1
  Ti  Ti6  1  0.790207  0.790207  0.789998  1
  Ti  Ti7  1  0.339486  0.339486  0.968621  1
  Ti  Ti8  1  0.661085  0.661085  0.029415  1
  Ti  Ti9  1  0.002925  0.002925  0.336803  1
  Ti  Ti10  1  0.997579  0.997579  0.664263  1
  Ti  Ti11  1  0.176937  0.176937  0.463489  1
  Ti  Ti12  1  0.821123  0.821123  0.542840  1
  Cr  Cr13  1  0.198532  0.198532  0.689037  1
  P  P14  1  0.180048  0.180048  0.888173  1
  P  P15  1  0.819635  0.819635  0.110216  1
  P  P16  1  0.372560  0.372560  0.396408  1
  P  P17  1  0.630038  0.630038  0.609081  1
  P  P18  1  0.365987  0.365987  0.660760  1
  P  P19  1  0.630261  0.630261  0.340939  1
  P  P20  1  0.064782  0.064782  0.153308  1
  P  P21  1  0.935253  0.935253  0.845695  1
