# generated using pymatgen
data_ErTmInNi7B2
_symmetry_space_group_name_H-M   'P 1'
_cell_length_a   4.99400100
_cell_length_b   4.99400012
_cell_length_c   14.28251400
_cell_angle_alpha   90.00000000
_cell_angle_beta   90.00000000
_cell_angle_gamma   119.99999923
_symmetry_Int_Tables_number   1
_chemical_formula_structural   ErTmInNi7B2
_chemical_formula_sum   'Er2 Tm2 In2 Ni14 B4'
_cell_volume   308.48387423
_cell_formula_units_Z   2
loop_
 _symmetry_equiv_pos_site_id
 _symmetry_equiv_pos_as_xyz
  1  'x, y, z'
loop_
 _atom_site_type_symbol
 _atom_site_label
 _atom_site_symmetry_multiplicity
 _atom_site_fract_x
 _atom_site_fract_y
 _atom_site_fract_z
 _atom_site_occupancy
  Er  Er0  1  0.666667  0.333333  0.754587  1
  Er  Er1  1  0.333333  0.666667  0.254587  1
  Tm  Tm2  1  0.666667  0.333333  0.531291  1
  Tm  Tm3  1  0.333333  0.666667  0.031291  1
  In  In4  1  0.333333  0.666667  0.468801  1
  In  In5  1  0.666667  0.333333  0.968801  1
  Ni  Ni6  1  0.833907  0.166093  0.352683  1
  Ni  Ni7  1  0.833907  0.667815  0.352683  1
  Ni  Ni8  1  0.000000  0.000000  0.998667  1
  Ni  Ni9  1  0.000000  0.000000  0.498667  1
  Ni  Ni10  1  0.833712  0.667425  0.147087  1
  Ni  Ni11  1  0.166288  0.833712  0.647087  1
  Ni  Ni12  1  0.667425  0.833712  0.647087  1
  Ni  Ni13  1  0.332575  0.166288  0.147087  1
  Ni  Ni14  1  0.833712  0.166288  0.147087  1
  Ni  Ni15  1  0.166093  0.332185  0.852683  1
  Ni  Ni16  1  0.166093  0.833907  0.852683  1
  Ni  Ni17  1  0.166288  0.332575  0.647087  1
  Ni  Ni18  1  0.667815  0.833907  0.852683  1
  Ni  Ni19  1  0.332185  0.166093  0.352683  1
  B  B20  1  0.666667  0.333333  0.249643  1
  B  B21  1  0.333333  0.666667  0.749643  1
  B  B22  1  0.000000  0.000000  0.747703  1
  B  B23  1  0.000000  0.000000  0.247703  1
