# generated using pymatgen
data_Ba2Mg2CdGa5
_symmetry_space_group_name_H-M   'P 1'
_cell_length_a   4.66408200
_cell_length_b   4.66408200
_cell_length_c   11.50074300
_cell_angle_alpha   90.00000000
_cell_angle_beta   90.00000000
_cell_angle_gamma   90.00000000
_symmetry_Int_Tables_number   1
_chemical_formula_structural   Ba2Mg2CdGa5
_chemical_formula_sum   'Ba2 Mg2 Cd1 Ga5'
_cell_volume   250.18326335
_cell_formula_units_Z   1
loop_
 _symmetry_equiv_pos_site_id
 _symmetry_equiv_pos_as_xyz
  1  'x, y, z'
loop_
 _atom_site_type_symbol
 _atom_site_label
 _atom_site_symmetry_multiplicity
 _atom_site_fract_x
 _atom_site_fract_y
 _atom_site_fract_z
 _atom_site_occupancy
  Ba  Ba0  1  0.500000  0.000000  0.756487  1
  Ba  Ba1  1  0.000000  0.500000  0.243513  1
  Mg  Mg2  1  0.000000  0.000000  0.500000  1
  Mg  Mg3  1  0.000000  0.000000  0.000000  1
  Cd  Cd4  1  0.500000  0.500000  0.500000  1
  Ga  Ga5  1  0.500000  0.500000  0.000000  1
  Ga  Ga6  1  0.500000  0.000000  0.133132  1
  Ga  Ga7  1  0.000000  0.500000  0.640287  1
  Ga  Ga8  1  0.000000  0.500000  0.866868  1
  Ga  Ga9  1  0.500000  0.000000  0.359713  1
