# generated using pymatgen
data_ErCoH6
_symmetry_space_group_name_H-M   'P 1'
_cell_length_a   4.64436429
_cell_length_b   4.64528869
_cell_length_c   4.65454793
_cell_angle_alpha   120.03353038
_cell_angle_beta   90.03661862
_cell_angle_gamma   119.88630577
_symmetry_Int_Tables_number   1
_chemical_formula_structural   ErCoH6
_chemical_formula_sum   'Er1 Co1 H6'
_cell_volume   71.07024636
_cell_formula_units_Z   1
loop_
 _symmetry_equiv_pos_site_id
 _symmetry_equiv_pos_as_xyz
  1  'x, y, z'
loop_
 _atom_site_type_symbol
 _atom_site_label
 _atom_site_symmetry_multiplicity
 _atom_site_fract_x
 _atom_site_fract_y
 _atom_site_fract_z
 _atom_site_occupancy
  Er  Er0  1  0.377663  0.033202  0.893301  1
  Co  Co1  1  0.127523  0.534365  0.144013  1
  H  H2  1  0.355410  0.526005  0.375010  1
  H  H3  1  0.895634  0.543073  0.378879  1
  H  H4  1  0.353474  0.524705  0.903110  1
  H  H5  1  0.891499  0.067140  0.910452  1
  H  H6  1  0.895123  0.544658  0.919682  1
  H  H7  1  0.373397  0.000892  0.377281  1
