# generated using pymatgen
data_Hf10Pb6Se
_symmetry_space_group_name_H-M   'P 1'
_cell_length_a   8.65045900
_cell_length_b   8.65046040
_cell_length_c   5.88444100
_cell_angle_alpha   90.00000000
_cell_angle_beta   90.00000000
_cell_angle_gamma   120.00000611
_symmetry_Int_Tables_number   1
_chemical_formula_structural   Hf10Pb6Se
_chemical_formula_sum   'Hf10 Pb6 Se1'
_cell_volume   381.34160684
_cell_formula_units_Z   1
loop_
 _symmetry_equiv_pos_site_id
 _symmetry_equiv_pos_as_xyz
  1  'x, y, z'
loop_
 _atom_site_type_symbol
 _atom_site_label
 _atom_site_symmetry_multiplicity
 _atom_site_fract_x
 _atom_site_fract_y
 _atom_site_fract_z
 _atom_site_occupancy
  Hf  Hf0  1  0.000000  0.745153  0.230343  1
  Hf  Hf1  1  0.254847  0.254847  0.230343  1
  Hf  Hf2  1  0.745153  0.000000  0.230343  1
  Hf  Hf3  1  0.000000  0.254847  0.769657  1
  Hf  Hf4  1  0.745153  0.745153  0.769657  1
  Hf  Hf5  1  0.254847  0.000000  0.769657  1
  Hf  Hf6  1  0.333333  0.666667  0.500000  1
  Hf  Hf7  1  0.666667  0.333333  0.500000  1
  Hf  Hf8  1  0.666667  0.333333  0.000000  1
  Hf  Hf9  1  0.333333  0.666667  0.000000  1
  Pb  Pb10  1  0.000000  0.391359  0.254297  1
  Pb  Pb11  1  0.608641  0.608641  0.254297  1
  Pb  Pb12  1  0.391359  0.000000  0.254297  1
  Pb  Pb13  1  0.000000  0.608641  0.745703  1
  Pb  Pb14  1  0.391359  0.391359  0.745703  1
  Pb  Pb15  1  0.608641  0.000000  0.745703  1
  Se  Se16  1  0.000000  0.000000  0.500000  1
