# generated using pymatgen
data_Yb2Tm2MnFe3B16
_symmetry_space_group_name_H-M   'P 1'
_cell_length_a   3.33532700
_cell_length_b   5.87519441
_cell_length_c   11.36021746
_cell_angle_alpha   89.88640430
_cell_angle_beta   90.00000000
_cell_angle_gamma   90.00000000
_symmetry_Int_Tables_number   1
_chemical_formula_structural   Yb2Tm2MnFe3B16
_chemical_formula_sum   'Yb2 Tm2 Mn1 Fe3 B16'
_cell_volume   222.61091370
_cell_formula_units_Z   1
loop_
 _symmetry_equiv_pos_site_id
 _symmetry_equiv_pos_as_xyz
  1  'x, y, z'
loop_
 _atom_site_type_symbol
 _atom_site_label
 _atom_site_symmetry_multiplicity
 _atom_site_fract_x
 _atom_site_fract_y
 _atom_site_fract_z
 _atom_site_occupancy
  Yb  Yb0  1  0.000000  0.626611  0.849301  1
  Yb  Yb1  1  0.000000  0.374494  0.151175  1
  Tm  Tm2  1  0.000000  0.127217  0.649869  1
  Tm  Tm3  1  0.000000  0.873095  0.349351  1
  Mn  Mn4  1  0.000000  0.128715  0.915804  1
  Fe  Fe5  1  0.000000  0.872440  0.085054  1
  Fe  Fe6  1  0.000000  0.633561  0.585956  1
  Fe  Fe7  1  0.000000  0.365989  0.413211  1
  B  B8  1  0.500000  0.362870  0.968101  1
  B  B9  1  0.500000  0.638055  0.033088  1
  B  B10  1  0.500000  0.861505  0.531260  1
  B  B11  1  0.500000  0.138294  0.468315  1
  B  B12  1  0.500000  0.475485  0.690055  1
  B  B13  1  0.500000  0.525058  0.309480  1
  B  B14  1  0.500000  0.974887  0.808479  1
  B  B15  1  0.500000  0.023168  0.191398  1
  B  B16  1  0.500000  0.283166  0.815435  1
  B  B17  1  0.500000  0.718760  0.183297  1
  B  B18  1  0.500000  0.780895  0.683219  1
  B  B19  1  0.500000  0.218744  0.316369  1
  B  B20  1  0.500000  0.388511  0.546399  1
  B  B21  1  0.500000  0.611731  0.453201  1
  B  B22  1  0.500000  0.885398  0.954663  1
  B  B23  1  0.500000  0.111351  0.047520  1
