# generated using pymatgen
data_La4Nd12Cd4RuPt3
_symmetry_space_group_name_H-M   'P 1'
_cell_length_a   10.05960050
_cell_length_b   10.05960119
_cell_length_c   10.05960047
_cell_angle_alpha   59.73993321
_cell_angle_beta   59.73993263
_cell_angle_gamma   59.73993758
_symmetry_Int_Tables_number   1
_chemical_formula_structural   La4Nd12Cd4RuPt3
_chemical_formula_sum   'La4 Nd12 Cd4 Ru1 Pt3'
_cell_volume   715.57428510
_cell_formula_units_Z   1
loop_
 _symmetry_equiv_pos_site_id
 _symmetry_equiv_pos_as_xyz
  1  'x, y, z'
loop_
 _atom_site_type_symbol
 _atom_site_label
 _atom_site_symmetry_multiplicity
 _atom_site_fract_x
 _atom_site_fract_y
 _atom_site_fract_z
 _atom_site_occupancy
  La  La0  1  0.351084  0.351084  0.351084  1
  La  La1  1  0.346734  0.346734  0.952357  1
  La  La2  1  0.346734  0.952357  0.346734  1
  La  La3  1  0.952357  0.346734  0.346734  1
  Nd  Nd4  1  0.816652  0.188565  0.188565  1
  Nd  Nd5  1  0.189778  0.809283  0.809283  1
  Nd  Nd6  1  0.188565  0.816652  0.188565  1
  Nd  Nd7  1  0.809283  0.189778  0.809283  1
  Nd  Nd8  1  0.188565  0.188565  0.816652  1
  Nd  Nd9  1  0.809283  0.809283  0.189778  1
  Nd  Nd10  1  0.936062  0.564458  0.564458  1
  Nd  Nd11  1  0.560413  0.936255  0.936255  1
  Nd  Nd12  1  0.564458  0.936062  0.564458  1
  Nd  Nd13  1  0.936255  0.560413  0.936255  1
  Nd  Nd14  1  0.564458  0.564458  0.936062  1
  Nd  Nd15  1  0.936255  0.936255  0.560413  1
  Cd  Cd16  1  0.579971  0.579971  0.579971  1
  Cd  Cd17  1  0.580397  0.580397  0.257785  1
  Cd  Cd18  1  0.580397  0.257785  0.580397  1
  Cd  Cd19  1  0.257785  0.580397  0.580397  1
  Ru  Ru20  1  0.143537  0.143537  0.143537  1
  Pt  Pt21  1  0.143789  0.143789  0.573399  1
  Pt  Pt22  1  0.143789  0.573399  0.143789  1
  Pt  Pt23  1  0.573399  0.143789  0.143789  1
