# generated using pymatgen
data_DyY2(Ga2Ni3)3
_symmetry_space_group_name_H-M   'P 1'
_cell_length_a   4.09921500
_cell_length_b   8.76457669
_cell_length_c   8.76457726
_cell_angle_alpha   59.86298499
_cell_angle_beta   90.00000000
_cell_angle_gamma   90.00000000
_symmetry_Int_Tables_number   1
_chemical_formula_structural   DyY2(Ga2Ni3)3
_chemical_formula_sum   'Dy1 Y2 Ga6 Ni9'
_cell_volume   272.32780188
_cell_formula_units_Z   1
loop_
 _symmetry_equiv_pos_site_id
 _symmetry_equiv_pos_as_xyz
  1  'x, y, z'
loop_
 _atom_site_type_symbol
 _atom_site_label
 _atom_site_symmetry_multiplicity
 _atom_site_fract_x
 _atom_site_fract_y
 _atom_site_fract_z
 _atom_site_occupancy
  Dy  Dy0  1  0.000000  0.999753  0.000247  1
  Y  Y1  1  0.500000  0.333278  0.333279  1
  Y  Y2  1  0.500000  0.666721  0.666722  1
  Ga  Ga3  1  0.000000  0.518546  0.481454  1
  Ga  Ga4  1  0.000000  0.481601  0.999917  1
  Ga  Ga5  1  0.000000  0.000083  0.518399  1
  Ga  Ga6  1  0.500000  0.270693  0.729307  1
  Ga  Ga7  1  0.500000  0.729146  0.999990  1
  Ga  Ga8  1  0.500000  0.000010  0.270854  1
  Ni  Ni9  1  0.000000  0.173991  0.198309  1
  Ni  Ni10  1  0.000000  0.198264  0.627682  1
  Ni  Ni11  1  0.000000  0.627485  0.173989  1
  Ni  Ni12  1  0.000000  0.801691  0.826009  1
  Ni  Ni13  1  0.000000  0.372318  0.801736  1
  Ni  Ni14  1  0.000000  0.826011  0.372515  1
  Ni  Ni15  1  0.500000  0.706813  0.293187  1
  Ni  Ni16  1  0.500000  0.293438  0.999943  1
  Ni  Ni17  1  0.500000  0.000057  0.706562  1
