# generated using pymatgen
data_Dy9ScPd18
_symmetry_space_group_name_H-M   'P 1'
_cell_length_a   9.74398100
_cell_length_b   9.74398104
_cell_length_c   5.76164200
_cell_angle_alpha   90.00000000
_cell_angle_beta   90.00000000
_cell_angle_gamma   90.30608523
_symmetry_Int_Tables_number   1
_chemical_formula_structural   Dy9ScPd18
_chemical_formula_sum   'Dy9 Sc1 Pd18'
_cell_volume   547.03225091
_cell_formula_units_Z   1
loop_
 _symmetry_equiv_pos_site_id
 _symmetry_equiv_pos_as_xyz
  1  'x, y, z'
loop_
 _atom_site_type_symbol
 _atom_site_label
 _atom_site_symmetry_multiplicity
 _atom_site_fract_x
 _atom_site_fract_y
 _atom_site_fract_z
 _atom_site_occupancy
  Dy  Dy0  1  0.453315  0.807589  0.000000  1
  Dy  Dy1  1  0.546685  0.192411  0.000000  1
  Dy  Dy2  1  0.192411  0.546685  0.000000  1
  Dy  Dy3  1  0.807589  0.453315  0.000000  1
  Dy  Dy4  1  0.309050  0.046854  0.500000  1
  Dy  Dy5  1  0.690950  0.953146  0.500000  1
  Dy  Dy6  1  0.953146  0.690950  0.500000  1
  Dy  Dy7  1  0.046854  0.309050  0.500000  1
  Dy  Dy8  1  0.000000  0.000000  0.000000  1
  Sc  Sc9  1  0.500000  0.500000  0.500000  1
  Pd  Pd10  1  0.191926  0.808074  0.250671  1
  Pd  Pd11  1  0.808074  0.191926  0.749329  1
  Pd  Pd12  1  0.808074  0.191926  0.250671  1
  Pd  Pd13  1  0.191926  0.808074  0.749329  1
  Pd  Pd14  1  0.441045  0.773620  0.500000  1
  Pd  Pd15  1  0.558955  0.226380  0.500000  1
  Pd  Pd16  1  0.226380  0.558955  0.500000  1
  Pd  Pd17  1  0.773620  0.441045  0.500000  1
  Pd  Pd18  1  0.311310  0.311310  0.251457  1
  Pd  Pd19  1  0.688690  0.688690  0.748543  1
  Pd  Pd20  1  0.688690  0.688690  0.251457  1
  Pd  Pd21  1  0.311310  0.311310  0.748543  1
  Pd  Pd22  1  0.281313  0.060865  0.000000  1
  Pd  Pd23  1  0.718687  0.939135  0.000000  1
  Pd  Pd24  1  0.939135  0.718687  0.000000  1
  Pd  Pd25  1  0.060865  0.281313  0.000000  1
  Pd  Pd26  1  0.000000  0.000000  0.500000  1
  Pd  Pd27  1  0.500000  0.500000  0.000000  1
