# generated using pymatgen
data_Tb5Ho11(In3Ir)2
_symmetry_space_group_name_H-M   'P 1'
_cell_length_a   10.41604507
_cell_length_b   10.41604494
_cell_length_c   7.05557603
_cell_angle_alpha   89.99126255
_cell_angle_beta   90.00874177
_cell_angle_gamma   119.99050558
_symmetry_Int_Tables_number   1
_chemical_formula_structural   Tb5Ho11(In3Ir)2
_chemical_formula_sum   'Tb5 Ho11 In6 Ir2'
_cell_volume   662.99512953
_cell_formula_units_Z   1
loop_
 _symmetry_equiv_pos_site_id
 _symmetry_equiv_pos_as_xyz
  1  'x, y, z'
loop_
 _atom_site_type_symbol
 _atom_site_label
 _atom_site_symmetry_multiplicity
 _atom_site_fract_x
 _atom_site_fract_y
 _atom_site_fract_z
 _atom_site_occupancy
  Tb  Tb0  1  0.533167  0.066337  0.506584  1
  Tb  Tb1  1  0.933663  0.466833  0.506584  1
  Tb  Tb2  1  0.533098  0.466902  0.506599  1
  Tb  Tb3  1  0.466809  0.933572  0.006547  1
  Tb  Tb4  1  0.066428  0.533191  0.006547  1
  Ho  Ho5  1  0.466646  0.533354  0.006594  1
  Ho  Ho6  1  0.176662  0.353135  0.713333  1
  Ho  Ho7  1  0.646865  0.823338  0.713333  1
  Ho  Ho8  1  0.176466  0.823534  0.713197  1
  Ho  Ho9  1  0.823295  0.646911  0.213058  1
  Ho  Ho10  1  0.353089  0.176705  0.213058  1
  Ho  Ho11  1  0.823487  0.176513  0.213183  1
  Ho  Ho12  1  0.666589  0.333411  0.888091  1
  Ho  Ho13  1  0.333429  0.666571  0.387927  1
  Ho  Ho14  1  0.000025  0.999975  0.493455  1
  Ho  Ho15  1  0.999996  0.000004  0.993507  1
  In  In16  1  0.837366  0.674788  0.751978  1
  In  In17  1  0.325212  0.162634  0.751978  1
  In  In18  1  0.837395  0.162605  0.751898  1
  In  In19  1  0.162775  0.325325  0.251790  1
  In  In20  1  0.674675  0.837225  0.251790  1
  In  In21  1  0.162593  0.837407  0.251936  1
  Ir  Ir22  1  0.666675  0.333325  0.282367  1
  Ir  Ir23  1  0.333594  0.666406  0.782707  1
