# generated using pymatgen
data_La4NdZr3(Ni4P3)4
_symmetry_space_group_name_H-M   'P 1'
_cell_length_a   12.52594742
_cell_length_b   12.52594739
_cell_length_c   3.90557600
_cell_angle_alpha   90.00000000
_cell_angle_beta   90.00000000
_cell_angle_gamma   119.97016072
_symmetry_Int_Tables_number   1
_chemical_formula_structural   La4NdZr3(Ni4P3)4
_chemical_formula_sum   'La4 Nd1 Zr3 Ni16 P12'
_cell_volume   530.84459319
_cell_formula_units_Z   1
loop_
 _symmetry_equiv_pos_site_id
 _symmetry_equiv_pos_as_xyz
  1  'x, y, z'
loop_
 _atom_site_type_symbol
 _atom_site_label
 _atom_site_symmetry_multiplicity
 _atom_site_fract_x
 _atom_site_fract_y
 _atom_site_fract_z
 _atom_site_occupancy
  La  La0  1  0.811638  0.000304  0.500000  1
  La  La1  1  0.000304  0.811638  0.500000  1
  La  La2  1  0.333173  0.666871  0.000000  1
  La  La3  1  0.666871  0.333173  0.000000  1
  Nd  Nd4  1  0.190047  0.190047  0.500000  1
  Zr  Zr5  1  0.567928  0.567928  0.000000  1
  Zr  Zr6  1  0.431036  0.000261  0.000000  1
  Zr  Zr7  1  0.000261  0.431036  0.000000  1
  Ni  Ni8  1  0.726529  0.726529  0.500000  1
  Ni  Ni9  1  0.273368  0.002057  0.500000  1
  Ni  Ni10  1  0.002057  0.273368  0.500000  1
  Ni  Ni11  1  0.189148  0.378823  0.000000  1
  Ni  Ni12  1  0.619598  0.809126  0.000000  1
  Ni  Ni13  1  0.190561  0.810611  0.000000  1
  Ni  Ni14  1  0.809126  0.619598  0.000000  1
  Ni  Ni15  1  0.810611  0.190561  0.000000  1
  Ni  Ni16  1  0.378823  0.189148  0.000000  1
  Ni  Ni17  1  0.365195  0.486209  0.500000  1
  Ni  Ni18  1  0.512407  0.878787  0.500000  1
  Ni  Ni19  1  0.121027  0.634130  0.500000  1
  Ni  Ni20  1  0.878787  0.512407  0.500000  1
  Ni  Ni21  1  0.634130  0.121027  0.500000  1
  Ni  Ni22  1  0.486209  0.365195  0.500000  1
  Ni  Ni23  1  0.000611  0.000611  0.000000  1
  P  P24  1  0.818594  0.818594  0.000000  1
  P  P25  1  0.181606  0.002565  0.000000  1
  P  P26  1  0.002565  0.181606  0.000000  1
  P  P27  1  0.170077  0.469665  0.500000  1
  P  P28  1  0.530216  0.699900  0.500000  1
  P  P29  1  0.299103  0.830888  0.500000  1
  P  P30  1  0.699900  0.530216  0.500000  1
  P  P31  1  0.830888  0.299103  0.500000  1
  P  P32  1  0.469665  0.170077  0.500000  1
  P  P33  1  0.364101  0.364101  0.000000  1
  P  P34  1  0.633984  0.999855  0.000000  1
  P  P35  1  0.999855  0.633984  0.000000  1
