# generated using pymatgen
data_TbDyBr6
_symmetry_space_group_name_H-M   'P 1'
_cell_length_a   7.28315863
_cell_length_b   7.28315862
_cell_length_c   7.49552227
_cell_angle_alpha   99.16560364
_cell_angle_beta   99.16560273
_cell_angle_gamma   119.95216992
_symmetry_Int_Tables_number   1
_chemical_formula_structural   TbDyBr6
_chemical_formula_sum   'Tb1 Dy1 Br6'
_cell_volume   326.57108586
_cell_formula_units_Z   1
loop_
 _symmetry_equiv_pos_site_id
 _symmetry_equiv_pos_as_xyz
  1  'x, y, z'
loop_
 _atom_site_type_symbol
 _atom_site_label
 _atom_site_symmetry_multiplicity
 _atom_site_fract_x
 _atom_site_fract_y
 _atom_site_fract_z
 _atom_site_occupancy
  Tb  Tb0  1  0.166628  0.833372  0.000000  1
  Dy  Dy1  1  0.833272  0.166728  0.000000  1
  Br  Br2  1  0.939652  0.572561  0.226757  1
  Br  Br3  1  0.575505  0.940924  0.226540  1
  Br  Br4  1  0.203221  0.204793  0.230064  1
  Br  Br5  1  0.795207  0.796779  0.769937  1
  Br  Br6  1  0.427438  0.060348  0.773243  1
  Br  Br7  1  0.059076  0.424494  0.773460  1
