# generated using pymatgen
data_Y12InCo3Cu2
_symmetry_space_group_name_H-M   'P 1'
_cell_length_a   8.38444968
_cell_length_b   8.38444825
_cell_length_c   8.38444881
_cell_angle_alpha   109.76442966
_cell_angle_beta   111.34459245
_cell_angle_gamma   107.32971085
_symmetry_Int_Tables_number   1
_chemical_formula_structural   Y12InCo3Cu2
_chemical_formula_sum   'Y12 In1 Co3 Cu2'
_cell_volume   453.17149417
_cell_formula_units_Z   1
loop_
 _symmetry_equiv_pos_site_id
 _symmetry_equiv_pos_as_xyz
  1  'x, y, z'
loop_
 _atom_site_type_symbol
 _atom_site_label
 _atom_site_symmetry_multiplicity
 _atom_site_fract_x
 _atom_site_fract_y
 _atom_site_fract_z
 _atom_site_occupancy
  Y  Y0  1  0.292004  0.181562  0.473564  1
  Y  Y1  1  0.711744  0.815467  0.527211  1
  Y  Y2  1  0.288256  0.815467  0.103724  1
  Y  Y3  1  0.707996  0.181562  0.889557  1
  Y  Y4  1  0.622813  0.320463  0.309782  1
  Y  Y5  1  0.377187  0.686970  0.697651  1
  Y  Y6  1  0.010681  0.320463  0.697651  1
  Y  Y7  1  0.989319  0.686970  0.309782  1
  Y  Y8  1  0.225773  0.419575  0.193803  1
  Y  Y9  1  0.781844  0.586028  0.804184  1
  Y  Y10  1  0.218156  0.022340  0.804184  1
  Y  Y11  1  0.774227  0.968030  0.193803  1
  In  In12  1  0.500000  0.498359  0.998359  1
  Co  Co13  1  0.000000  0.634803  0.634803  1
  Co  Co14  1  0.386943  0.884744  0.497801  1
  Co  Co15  1  0.613057  0.110858  0.497801  1
  Cu  Cu16  1  0.000000  0.364885  0.364885  1
  Cu  Cu17  1  0.000000  0.001456  0.001456  1
