# generated using pymatgen
data_PrYRh2O7
_symmetry_space_group_name_H-M   'P 1'
_cell_length_a   7.33236613
_cell_length_b   7.33236753
_cell_length_c   7.33236604
_cell_angle_alpha   119.67632716
_cell_angle_beta   120.36540005
_cell_angle_gamma   89.96490147
_symmetry_Int_Tables_number   1
_chemical_formula_structural   PrYRh2O7
_chemical_formula_sum   'Pr2 Y2 Rh4 O14'
_cell_volume   278.65112712
_cell_formula_units_Z   2
loop_
 _symmetry_equiv_pos_site_id
 _symmetry_equiv_pos_as_xyz
  1  'x, y, z'
loop_
 _atom_site_type_symbol
 _atom_site_label
 _atom_site_symmetry_multiplicity
 _atom_site_fract_x
 _atom_site_fract_y
 _atom_site_fract_z
 _atom_site_occupancy
  Pr  Pr0  1  0.000000  0.500000  0.000000  1
  Pr  Pr1  1  0.000000  0.000000  0.500000  1
  Y  Y2  1  0.000000  0.500000  0.500000  1
  Y  Y3  1  0.500000  0.500000  0.000000  1
  Rh  Rh4  1  0.500000  0.000000  0.000000  1
  Rh  Rh5  1  0.500000  0.500000  0.500000  1
  Rh  Rh6  1  0.500000  0.000000  0.500000  1
  Rh  Rh7  1  0.000000  0.000000  0.000000  1
  O  O8  1  0.866302  0.616302  0.250000  1
  O  O9  1  0.133698  0.383698  0.750000  1
  O  O10  1  0.832779  0.082779  0.750000  1
  O  O11  1  0.416955  0.666955  0.750000  1
  O  O12  1  0.833135  0.665738  0.742547  1
  O  O13  1  0.423192  0.090589  0.757453  1
  O  O14  1  0.833135  0.090589  0.167398  1
  O  O15  1  0.423192  0.665738  0.332602  1
  O  O16  1  0.167221  0.917221  0.250000  1
  O  O17  1  0.583045  0.333045  0.250000  1
  O  O18  1  0.166865  0.334262  0.257453  1
  O  O19  1  0.576808  0.909411  0.242547  1
  O  O20  1  0.166865  0.909411  0.832602  1
  O  O21  1  0.576808  0.334262  0.667398  1
