# generated using pymatgen
data_Yb9SmPb6F2
_symmetry_space_group_name_H-M   'P 1'
_cell_length_a   9.39398411
_cell_length_b   9.39398403
_cell_length_c   9.39398361
_cell_angle_alpha   127.82175639
_cell_angle_beta   127.82175745
_cell_angle_gamma   76.91395352
_symmetry_Int_Tables_number   1
_chemical_formula_structural   Yb9SmPb6F2
_chemical_formula_sum   'Yb9 Sm1 Pb6 F2'
_cell_volume   502.18246876
_cell_formula_units_Z   1
loop_
 _symmetry_equiv_pos_site_id
 _symmetry_equiv_pos_as_xyz
  1  'x, y, z'
loop_
 _atom_site_type_symbol
 _atom_site_label
 _atom_site_symmetry_multiplicity
 _atom_site_fract_x
 _atom_site_fract_y
 _atom_site_fract_z
 _atom_site_occupancy
  Yb  Yb0  1  0.000000  0.000000  0.000000  1
  Yb  Yb1  1  0.502524  0.001900  0.812004  1
  Yb  Yb2  1  0.189895  0.690520  0.187996  1
  Yb  Yb3  1  0.001900  0.189895  0.499375  1
  Yb  Yb4  1  0.690520  0.502524  0.500625  1
  Yb  Yb5  1  0.497476  0.998100  0.187996  1
  Yb  Yb6  1  0.810105  0.309480  0.812004  1
  Yb  Yb7  1  0.998100  0.810105  0.500625  1
  Yb  Yb8  1  0.309480  0.497476  0.499375  1
  Sm  Sm9  1  0.500000  0.500000  0.000000  1
  Pb  Pb10  1  0.250433  0.250433  0.000000  1
  Pb  Pb11  1  0.749567  0.749567  0.000000  1
  Pb  Pb12  1  0.864854  0.365538  0.230393  1
  Pb  Pb13  1  0.135146  0.634462  0.769608  1
  Pb  Pb14  1  0.365538  0.135146  0.500684  1
  Pb  Pb15  1  0.634462  0.864854  0.499316  1
  F  F16  1  0.250000  0.750000  0.500000  1
  F  F17  1  0.750000  0.250000  0.500000  1
