# generated using pymatgen
data_Nd2Dy4IrI10
_symmetry_space_group_name_H-M   'P 1'
_cell_length_a   7.82832684
_cell_length_b   9.85422527
_cell_length_c   9.84627775
_cell_angle_alpha   107.39695722
_cell_angle_beta   96.79836733
_cell_angle_gamma   103.78291524
_symmetry_Int_Tables_number   1
_chemical_formula_structural   Nd2Dy4IrI10
_chemical_formula_sum   'Nd2 Dy4 Ir1 I10'
_cell_volume   689.05656911
_cell_formula_units_Z   1
loop_
 _symmetry_equiv_pos_site_id
 _symmetry_equiv_pos_as_xyz
  1  'x, y, z'
loop_
 _atom_site_type_symbol
 _atom_site_label
 _atom_site_symmetry_multiplicity
 _atom_site_fract_x
 _atom_site_fract_y
 _atom_site_fract_z
 _atom_site_occupancy
  Nd  Nd0  1  0.533732  0.717802  0.414061  1
  Nd  Nd1  1  0.466268  0.282198  0.585939  1
  Dy  Dy2  1  0.153554  0.878048  0.333597  1
  Dy  Dy3  1  0.846446  0.121952  0.666403  1
  Dy  Dy4  1  0.614136  0.040692  0.257979  1
  Dy  Dy5  1  0.385864  0.959308  0.742021  1
  Ir  Ir6  1  0.500000  0.000000  0.500000  1
  I  I7  1  0.732525  0.752128  0.150599  1
  I  I8  1  0.267475  0.247872  0.849401  1
  I  I9  1  0.038949  0.179523  0.407522  1
  I  I10  1  0.961051  0.820477  0.592478  1
  I  I11  1  0.588105  0.364766  0.313381  1
  I  I12  1  0.411895  0.635234  0.686619  1
  I  I13  1  0.141861  0.554968  0.228259  1
  I  I14  1  0.858139  0.445032  0.771741  1
  I  I15  1  0.752946  0.086132  0.959432  1
  I  I16  1  0.247054  0.913868  0.040568  1
