# generated using pymatgen
data_Tb4VTcOs6
_symmetry_space_group_name_H-M   'P 1'
_cell_length_a   5.22818892
_cell_length_b   5.22818968
_cell_length_c   8.94886400
_cell_angle_alpha   90.00000000
_cell_angle_beta   90.00000000
_cell_angle_gamma   116.71883991
_symmetry_Int_Tables_number   1
_chemical_formula_structural   Tb4VTcOs6
_chemical_formula_sum   'Tb4 V1 Tc1 Os6'
_cell_volume   218.48956648
_cell_formula_units_Z   1
loop_
 _symmetry_equiv_pos_site_id
 _symmetry_equiv_pos_as_xyz
  1  'x, y, z'
loop_
 _atom_site_type_symbol
 _atom_site_label
 _atom_site_symmetry_multiplicity
 _atom_site_fract_x
 _atom_site_fract_y
 _atom_site_fract_z
 _atom_site_occupancy
  Tb  Tb0  1  0.330332  0.669668  0.436323  1
  Tb  Tb1  1  0.668263  0.331737  0.564253  1
  Tb  Tb2  1  0.668263  0.331737  0.935747  1
  Tb  Tb3  1  0.330332  0.669668  0.063677  1
  V  V4  1  0.835625  0.164375  0.250000  1
  Tc  Tc5  1  0.170575  0.829425  0.750000  1
  Os  Os6  1  0.997263  0.002737  0.498815  1
  Os  Os7  1  0.997263  0.002737  0.001185  1
  Os  Os8  1  0.823883  0.651342  0.250000  1
  Os  Os9  1  0.348658  0.176117  0.250000  1
  Os  Os10  1  0.172593  0.343049  0.750000  1
  Os  Os11  1  0.656951  0.827407  0.750000  1
