# generated using pymatgen
data_Cs2Mg(GeO3)2
_symmetry_space_group_name_H-M   'P 1'
_cell_length_a   6.17820445
_cell_length_b   6.17820366
_cell_length_c   11.26325500
_cell_angle_alpha   90.00000000
_cell_angle_beta   90.00000000
_cell_angle_gamma   110.17742463
_symmetry_Int_Tables_number   1
_chemical_formula_structural   Cs2Mg(GeO3)2
_chemical_formula_sum   'Cs4 Mg2 Ge4 O12'
_cell_volume   403.53609000
_cell_formula_units_Z   2
loop_
 _symmetry_equiv_pos_site_id
 _symmetry_equiv_pos_as_xyz
  1  'x, y, z'
loop_
 _atom_site_type_symbol
 _atom_site_label
 _atom_site_symmetry_multiplicity
 _atom_site_fract_x
 _atom_site_fract_y
 _atom_site_fract_z
 _atom_site_occupancy
  Cs  Cs0  1  0.779645  0.436313  0.921006  1
  Cs  Cs1  1  0.563687  0.220355  0.578994  1
  Cs  Cs2  1  0.220355  0.563687  0.421006  1
  Cs  Cs3  1  0.436313  0.779645  0.078994  1
  Mg  Mg4  1  0.687991  0.312009  0.250000  1
  Mg  Mg5  1  0.312009  0.687991  0.750000  1
  Ge  Ge6  1  0.828886  0.868699  0.358789  1
  Ge  Ge7  1  0.131301  0.171114  0.141211  1
  Ge  Ge8  1  0.171114  0.131301  0.858789  1
  Ge  Ge9  1  0.868699  0.828886  0.641211  1
  O  O10  1  0.634133  0.011772  0.331601  1
  O  O11  1  0.566778  0.713342  0.638056  1
  O  O12  1  0.713342  0.566778  0.361944  1
  O  O13  1  0.365867  0.988228  0.831601  1
  O  O14  1  0.974405  0.974405  0.500000  1
  O  O15  1  0.433222  0.286658  0.138056  1
  O  O16  1  0.058629  0.941371  0.250000  1
  O  O17  1  0.286658  0.433222  0.861944  1
  O  O18  1  0.025595  0.025595  0.000000  1
  O  O19  1  0.941371  0.058629  0.750000  1
  O  O20  1  0.988228  0.365867  0.168399  1
  O  O21  1  0.011772  0.634133  0.668399  1
