# generated using pymatgen
data_CeNi6(BIr)6
_symmetry_space_group_name_H-M   'P 1'
_cell_length_a   6.31554145
_cell_length_b   6.31554209
_cell_length_c   6.31554176
_cell_angle_alpha   103.68749082
_cell_angle_beta   103.68748804
_cell_angle_gamma   103.68749460
_symmetry_Int_Tables_number   1
_chemical_formula_structural   CeNi6(BIr)6
_chemical_formula_sum   'Ce1 Ni6 B6 Ir6'
_cell_volume   226.08494339
_cell_formula_units_Z   1
loop_
 _symmetry_equiv_pos_site_id
 _symmetry_equiv_pos_as_xyz
  1  'x, y, z'
loop_
 _atom_site_type_symbol
 _atom_site_label
 _atom_site_symmetry_multiplicity
 _atom_site_fract_x
 _atom_site_fract_y
 _atom_site_fract_z
 _atom_site_occupancy
  Ce  Ce0  1  0.000000  0.000000  0.000000  1
  Ni  Ni1  1  0.799923  0.545635  0.545635  1
  Ni  Ni2  1  0.545635  0.545635  0.799923  1
  Ni  Ni3  1  0.545635  0.799923  0.545635  1
  Ni  Ni4  1  0.200077  0.454365  0.454365  1
  Ni  Ni5  1  0.454365  0.454365  0.200077  1
  Ni  Ni6  1  0.454365  0.200077  0.454365  1
  B  B7  1  0.348418  0.768337  0.768337  1
  B  B8  1  0.768337  0.768337  0.348418  1
  B  B9  1  0.768337  0.348418  0.768337  1
  B  B10  1  0.651582  0.231663  0.231663  1
  B  B11  1  0.231663  0.231663  0.651582  1
  B  B12  1  0.231663  0.651582  0.231663  1
  Ir  Ir13  1  0.861874  0.138126  0.500000  1
  Ir  Ir14  1  0.138126  0.500000  0.861874  1
  Ir  Ir15  1  0.500000  0.861874  0.138126  1
  Ir  Ir16  1  0.861874  0.500000  0.138126  1
  Ir  Ir17  1  0.500000  0.138126  0.861874  1
  Ir  Ir18  1  0.138126  0.861874  0.500000  1
