# generated using pymatgen
data_TbDy(SnIr)2
_symmetry_space_group_name_H-M   'P 1'
_cell_length_a   7.48574595
_cell_length_b   7.48983413
_cell_length_c   7.96407300
_cell_angle_alpha   90.00000000
_cell_angle_beta   90.00000000
_cell_angle_gamma   120.09189536
_symmetry_Int_Tables_number   1
_chemical_formula_structural   TbDy(SnIr)2
_chemical_formula_sum   'Tb3 Dy3 Sn6 Ir6'
_cell_volume   386.34050776
_cell_formula_units_Z   3
loop_
 _symmetry_equiv_pos_site_id
 _symmetry_equiv_pos_as_xyz
  1  'x, y, z'
loop_
 _atom_site_type_symbol
 _atom_site_label
 _atom_site_symmetry_multiplicity
 _atom_site_fract_x
 _atom_site_fract_y
 _atom_site_fract_z
 _atom_site_occupancy
  Tb  Tb0  1  0.406664  0.000873  0.250000  1
  Tb  Tb1  1  0.594374  0.593006  0.750000  1
  Tb  Tb2  1  0.003008  0.407713  0.750000  1
  Dy  Dy3  1  0.593901  0.595102  0.250000  1
  Dy  Dy4  1  0.997276  0.403979  0.250000  1
  Dy  Dy5  1  0.405346  0.999886  0.750000  1
  Sn  Sn6  1  0.258419  0.258408  0.498689  1
  Sn  Sn7  1  0.258419  0.258408  0.001311  1
  Sn  Sn8  1  0.741584  0.999760  0.998156  1
  Sn  Sn9  1  0.000121  0.742011  0.498882  1
  Sn  Sn10  1  0.741584  0.999760  0.501844  1
  Sn  Sn11  1  0.000121  0.742011  0.001118  1
  Ir  Ir12  1  0.667046  0.333140  0.500490  1
  Ir  Ir13  1  0.667046  0.333140  0.999510  1
  Ir  Ir14  1  0.332700  0.666427  0.001773  1
  Ir  Ir15  1  0.332700  0.666427  0.498227  1
  Ir  Ir16  1  0.002013  0.000127  0.750000  1
  Ir  Ir17  1  0.997676  0.999821  0.250000  1
