# generated using pymatgen
data_Ti3VGaN3
_symmetry_space_group_name_H-M   'P 1'
_cell_length_a   2.98918100
_cell_length_b   2.98917966
_cell_length_c   22.87027300
_cell_angle_alpha   90.00000000
_cell_angle_beta   90.00000000
_cell_angle_gamma   119.99998164
_symmetry_Int_Tables_number   1
_chemical_formula_structural   Ti3VGaN3
_chemical_formula_sum   'Ti6 V2 Ga2 N6'
_cell_volume   176.97270627
_cell_formula_units_Z   2
loop_
 _symmetry_equiv_pos_site_id
 _symmetry_equiv_pos_as_xyz
  1  'x, y, z'
loop_
 _atom_site_type_symbol
 _atom_site_label
 _atom_site_symmetry_multiplicity
 _atom_site_fract_x
 _atom_site_fract_y
 _atom_site_fract_z
 _atom_site_occupancy
  Ti  Ti0  1  0.000000  0.000000  0.841982  1
  Ti  Ti1  1  0.000000  0.000000  0.158018  1
  Ti  Ti2  1  0.333333  0.666667  0.444103  1
  Ti  Ti3  1  0.666667  0.333333  0.555897  1
  Ti  Ti4  1  0.666667  0.333333  0.944908  1
  Ti  Ti5  1  0.333333  0.666667  0.055092  1
  V  V6  1  0.000000  0.000000  0.346551  1
  V  V7  1  0.000000  0.000000  0.653449  1
  Ga  Ga8  1  0.333333  0.666667  0.253940  1
  Ga  Ga9  1  0.666667  0.333333  0.746060  1
  N  N10  1  0.000000  0.000000  0.500000  1
  N  N11  1  0.000000  0.000000  0.000000  1
  N  N12  1  0.666667  0.333333  0.391485  1
  N  N13  1  0.333333  0.666667  0.608515  1
  N  N14  1  0.333333  0.666667  0.891762  1
  N  N15  1  0.666667  0.333333  0.108238  1
