# generated using pymatgen
data_Y9Tm11Pt16
_symmetry_space_group_name_H-M   'P 1'
_cell_length_a   7.45383112
_cell_length_b   7.53031743
_cell_length_c   14.65311572
_cell_angle_alpha   89.96549595
_cell_angle_beta   90.01032126
_cell_angle_gamma   90.01723152
_symmetry_Int_Tables_number   1
_chemical_formula_structural   Y9Tm11Pt16
_chemical_formula_sum   'Y9 Tm11 Pt16'
_cell_volume   822.47500004
_cell_formula_units_Z   1
loop_
 _symmetry_equiv_pos_site_id
 _symmetry_equiv_pos_as_xyz
  1  'x, y, z'
loop_
 _atom_site_type_symbol
 _atom_site_label
 _atom_site_symmetry_multiplicity
 _atom_site_fract_x
 _atom_site_fract_y
 _atom_site_fract_z
 _atom_site_occupancy
  Y  Y0  1  0.656114  0.832234  0.877839  1
  Y  Y1  1  0.998708  0.820423  0.406960  1
  Y  Y2  1  0.498361  0.679215  0.093585  1
  Y  Y3  1  0.501264  0.320490  0.592794  1
  Y  Y4  1  0.001725  0.180241  0.907085  1
  Y  Y5  1  0.001254  0.179406  0.592922  1
  Y  Y6  1  0.500997  0.320671  0.907037  1
  Y  Y7  1  0.498621  0.679432  0.406952  1
  Y  Y8  1  0.998789  0.820340  0.093081  1
  Tm  Tm9  1  0.681082  0.989882  0.250046  1
  Tm  Tm10  1  0.181085  0.510065  0.250065  1
  Tm  Tm11  1  0.819197  0.489388  0.749587  1
  Tm  Tm12  1  0.318477  0.010603  0.749638  1
  Tm  Tm13  1  0.656054  0.832404  0.622426  1
  Tm  Tm14  1  0.156253  0.667521  0.877367  1
  Tm  Tm15  1  0.843943  0.332451  0.377383  1
  Tm  Tm16  1  0.343773  0.167729  0.122700  1
  Tm  Tm17  1  0.343827  0.167628  0.377428  1
  Tm  Tm18  1  0.844081  0.332500  0.122892  1
  Tm  Tm19  1  0.156143  0.667565  0.622364  1
  Pt  Pt20  1  0.816421  0.641285  0.250060  1
  Pt  Pt21  1  0.316320  0.858794  0.250080  1
  Pt  Pt22  1  0.683867  0.142566  0.749107  1
  Pt  Pt23  1  0.183240  0.358456  0.749883  1
  Pt  Pt24  1  0.546216  0.384245  0.250097  1
  Pt  Pt25  1  0.046314  0.115796  0.250100  1
  Pt  Pt26  1  0.955428  0.884942  0.748945  1
  Pt  Pt27  1  0.452736  0.614014  0.748978  1
  Pt  Pt28  1  0.817988  0.533990  0.542173  1
  Pt  Pt29  1  0.315705  0.966929  0.958375  1
  Pt  Pt30  1  0.682018  0.033951  0.457780  1
  Pt  Pt31  1  0.182292  0.466080  0.042260  1
  Pt  Pt32  1  0.182004  0.466041  0.457774  1
  Pt  Pt33  1  0.681960  0.035540  0.043667  1
  Pt  Pt34  1  0.318033  0.966049  0.542158  1
  Pt  Pt35  1  0.819706  0.531133  0.958413  1
