# generated using pymatgen
data_Er4Sc6Sn7Ir
_symmetry_space_group_name_H-M   'P 1'
_cell_length_a   7.54656111
_cell_length_b   7.91677021
_cell_length_c   14.69039200
_cell_angle_alpha   90.00000000
_cell_angle_beta   90.00000000
_cell_angle_gamma   89.37731031
_symmetry_Int_Tables_number   1
_chemical_formula_structural   Er4Sc6Sn7Ir
_chemical_formula_sum   'Er8 Sc12 Sn14 Ir2'
_cell_volume   877.61667978
_cell_formula_units_Z   2
loop_
 _symmetry_equiv_pos_site_id
 _symmetry_equiv_pos_as_xyz
  1  'x, y, z'
loop_
 _atom_site_type_symbol
 _atom_site_label
 _atom_site_symmetry_multiplicity
 _atom_site_fract_x
 _atom_site_fract_y
 _atom_site_fract_z
 _atom_site_occupancy
  Er  Er0  1  0.993777  0.168672  0.095893  1
  Er  Er1  1  0.006223  0.831328  0.904107  1
  Er  Er2  1  0.506041  0.681031  0.907117  1
  Er  Er3  1  0.006223  0.831328  0.595893  1
  Er  Er4  1  0.493959  0.318969  0.092883  1
  Er  Er5  1  0.993777  0.168672  0.404107  1
  Er  Er6  1  0.493959  0.318969  0.407117  1
  Er  Er7  1  0.506041  0.681031  0.592883  1
  Sc  Sc8  1  0.171931  0.491678  0.750000  1
  Sc  Sc9  1  0.828069  0.508322  0.250000  1
  Sc  Sc10  1  0.308973  0.993643  0.250000  1
  Sc  Sc11  1  0.691027  0.006357  0.750000  1
  Sc  Sc12  1  0.309042  0.160196  0.631380  1
  Sc  Sc13  1  0.690958  0.839804  0.368620  1
  Sc  Sc14  1  0.133821  0.683981  0.366354  1
  Sc  Sc15  1  0.690958  0.839804  0.131380  1
  Sc  Sc16  1  0.866179  0.316019  0.633646  1
  Sc  Sc17  1  0.309042  0.160196  0.868620  1
  Sc  Sc18  1  0.866179  0.316019  0.866354  1
  Sc  Sc19  1  0.133821  0.683981  0.133646  1
  Sn  Sn20  1  0.465433  0.623144  0.250000  1
  Sn  Sn21  1  0.534567  0.376856  0.750000  1
  Sn  Sn22  1  0.304839  0.853340  0.750000  1
  Sn  Sn23  1  0.695161  0.146660  0.250000  1
  Sn  Sn24  1  0.194833  0.357796  0.250000  1
  Sn  Sn25  1  0.805167  0.642204  0.750000  1
  Sn  Sn26  1  0.184984  0.465509  0.537360  1
  Sn  Sn27  1  0.815016  0.534491  0.462640  1
  Sn  Sn28  1  0.324926  0.957520  0.457244  1
  Sn  Sn29  1  0.815016  0.534491  0.037360  1
  Sn  Sn30  1  0.675074  0.042480  0.542756  1
  Sn  Sn31  1  0.184984  0.465509  0.962640  1
  Sn  Sn32  1  0.675074  0.042480  0.957244  1
  Sn  Sn33  1  0.324926  0.957520  0.042756  1
  Ir  Ir34  1  0.034077  0.109820  0.750000  1
  Ir  Ir35  1  0.965923  0.890180  0.250000  1
