# generated using pymatgen
data_Sc2Pa(GaPt)3
_symmetry_space_group_name_H-M   'P 1'
_cell_length_a   7.23189302
_cell_length_b   7.23189485
_cell_length_c   3.72292900
_cell_angle_alpha   90.00000000
_cell_angle_beta   90.00000000
_cell_angle_gamma   120.54665652
_symmetry_Int_Tables_number   1
_chemical_formula_structural   Sc2Pa(GaPt)3
_chemical_formula_sum   'Sc2 Pa1 Ga3 Pt3'
_cell_volume   167.68751482
_cell_formula_units_Z   1
loop_
 _symmetry_equiv_pos_site_id
 _symmetry_equiv_pos_as_xyz
  1  'x, y, z'
loop_
 _atom_site_type_symbol
 _atom_site_label
 _atom_site_symmetry_multiplicity
 _atom_site_fract_x
 _atom_site_fract_y
 _atom_site_fract_z
 _atom_site_occupancy
  Sc  Sc0  1  0.402297  0.000926  0.500000  1
  Sc  Sc1  1  0.000926  0.402297  0.500000  1
  Pa  Pa2  1  0.590250  0.590250  0.500000  1
  Ga  Ga3  1  0.742302  0.015693  0.000000  1
  Ga  Ga4  1  0.015693  0.742302  0.000000  1
  Ga  Ga5  1  0.245901  0.245901  0.000000  1
  Pt  Pt6  1  0.339438  0.668057  0.000000  1
  Pt  Pt7  1  0.668057  0.339438  0.000000  1
  Pt  Pt8  1  0.995136  0.995136  0.500000  1
