# generated using pymatgen
data_Sm4Ga4PdRh3
_symmetry_space_group_name_H-M   'P 1'
_cell_length_a   4.41245900
_cell_length_b   7.05032852
_cell_length_c   7.79454610
_cell_angle_alpha   90.09954057
_cell_angle_beta   90.00000000
_cell_angle_gamma   90.00000000
_symmetry_Int_Tables_number   1
_chemical_formula_structural   Sm4Ga4PdRh3
_chemical_formula_sum   'Sm4 Ga4 Pd1 Rh3'
_cell_volume   242.48239426
_cell_formula_units_Z   1
loop_
 _symmetry_equiv_pos_site_id
 _symmetry_equiv_pos_as_xyz
  1  'x, y, z'
loop_
 _atom_site_type_symbol
 _atom_site_label
 _atom_site_symmetry_multiplicity
 _atom_site_fract_x
 _atom_site_fract_y
 _atom_site_fract_z
 _atom_site_occupancy
  Sm  Sm0  1  0.250000  0.024645  0.313607  1
  Sm  Sm1  1  0.250000  0.530987  0.190071  1
  Sm  Sm2  1  0.750000  0.974843  0.691601  1
  Sm  Sm3  1  0.750000  0.477352  0.804920  1
  Ga  Ga4  1  0.250000  0.659752  0.573280  1
  Ga  Ga5  1  0.250000  0.158252  0.924714  1
  Ga  Ga6  1  0.750000  0.344013  0.428645  1
  Ga  Ga7  1  0.750000  0.833298  0.073460  1
  Pd  Pd8  1  0.750000  0.216552  0.105148  1
  Rh  Rh9  1  0.250000  0.277626  0.603951  1
  Rh  Rh10  1  0.250000  0.777514  0.895237  1
  Rh  Rh11  1  0.750000  0.725165  0.395366  1
