# generated using pymatgen
data_TmSc(TaN2)2
_symmetry_space_group_name_H-M   'P 1'
_cell_length_a   3.11987600
_cell_length_b   3.11987561
_cell_length_c   10.80999100
_cell_angle_alpha   90.00000000
_cell_angle_beta   90.00000000
_cell_angle_gamma   119.99998293
_symmetry_Int_Tables_number   1
_chemical_formula_structural   TmSc(TaN2)2
_chemical_formula_sum   'Tm1 Sc1 Ta2 N4'
_cell_volume   91.12355427
_cell_formula_units_Z   1
loop_
 _symmetry_equiv_pos_site_id
 _symmetry_equiv_pos_as_xyz
  1  'x, y, z'
loop_
 _atom_site_type_symbol
 _atom_site_label
 _atom_site_symmetry_multiplicity
 _atom_site_fract_x
 _atom_site_fract_y
 _atom_site_fract_z
 _atom_site_occupancy
  Tm  Tm0  1  0.000000  0.000000  0.000000  1
  Sc  Sc1  1  0.000000  0.000000  0.500000  1
  Ta  Ta2  1  0.333333  0.666667  0.255251  1
  Ta  Ta3  1  0.666667  0.333333  0.744749  1
  N  N4  1  0.333333  0.666667  0.621578  1
  N  N5  1  0.666667  0.333333  0.378422  1
  N  N6  1  0.666667  0.333333  0.133891  1
  N  N7  1  0.333333  0.666667  0.866109  1
