# generated using pymatgen
data_Th14Tc3Pd2Rh
_symmetry_space_group_name_H-M   'P 1'
_cell_length_a   10.02098009
_cell_length_b   10.02098023
_cell_length_c   6.32985854
_cell_angle_alpha   90.08870422
_cell_angle_beta   89.91129290
_cell_angle_gamma   119.87366783
_symmetry_Int_Tables_number   1
_chemical_formula_structural   Th14Tc3Pd2Rh
_chemical_formula_sum   'Th14 Tc3 Pd2 Rh1'
_cell_volume   551.18298067
_cell_formula_units_Z   1
loop_
 _symmetry_equiv_pos_site_id
 _symmetry_equiv_pos_as_xyz
  1  'x, y, z'
loop_
 _atom_site_type_symbol
 _atom_site_label
 _atom_site_symmetry_multiplicity
 _atom_site_fract_x
 _atom_site_fract_y
 _atom_site_fract_z
 _atom_site_occupancy
  Th  Th0  1  0.668405  0.331595  0.601703  1
  Th  Th1  1  0.333346  0.666654  0.030396  1
  Th  Th2  1  0.876631  0.753173  0.759073  1
  Th  Th3  1  0.246827  0.123369  0.759073  1
  Th  Th4  1  0.875303  0.124697  0.749749  1
  Th  Th5  1  0.123422  0.254563  0.248961  1
  Th  Th6  1  0.745437  0.876578  0.248961  1
  Th  Th7  1  0.128401  0.871599  0.247422  1
  Th  Th8  1  0.456630  0.913519  0.541428  1
  Th  Th9  1  0.086481  0.543370  0.541428  1
  Th  Th10  1  0.456726  0.543274  0.540620  1
  Th  Th11  1  0.541418  0.074015  0.035928  1
  Th  Th12  1  0.925985  0.458582  0.035928  1
  Th  Th13  1  0.535189  0.464811  0.029506  1
  Tc  Tc14  1  0.183156  0.365194  0.798169  1
  Tc  Tc15  1  0.634806  0.816844  0.798169  1
  Tc  Tc16  1  0.182393  0.817607  0.800293  1
  Pd  Pd17  1  0.807071  0.618232  0.307616  1
  Pd  Pd18  1  0.381768  0.192929  0.307616  1
  Rh  Rh19  1  0.810605  0.189395  0.300467  1
