# generated using pymatgen
data_Hf6Tc5As6Ru
_symmetry_space_group_name_H-M   'P 1'
_cell_length_a   7.73471846
_cell_length_b   7.77859681
_cell_length_c   7.75751860
_cell_angle_alpha   127.51052288
_cell_angle_beta   122.94941570
_cell_angle_gamma   81.12767419
_symmetry_Int_Tables_number   1
_chemical_formula_structural   Hf6Tc5As6Ru
_chemical_formula_sum   'Hf6 Tc5 As6 Ru1'
_cell_volume   299.50222327
_cell_formula_units_Z   1
loop_
 _symmetry_equiv_pos_site_id
 _symmetry_equiv_pos_as_xyz
  1  'x, y, z'
loop_
 _atom_site_type_symbol
 _atom_site_label
 _atom_site_symmetry_multiplicity
 _atom_site_fract_x
 _atom_site_fract_y
 _atom_site_fract_z
 _atom_site_occupancy
  Hf  Hf0  1  0.461909  0.685628  0.720208  1
  Hf  Hf1  1  0.535069  0.254444  0.218208  1
  Hf  Hf2  1  0.750003  0.839074  0.593449  1
  Hf  Hf3  1  0.247698  0.837944  0.085665  1
  Hf  Hf4  1  0.052886  0.256098  0.703289  1
  Hf  Hf5  1  0.947452  0.655676  0.209843  1
  Tc  Tc6  1  0.480822  0.497432  0.978904  1
  Tc  Tc7  1  0.013645  0.499813  0.515795  1
  Tc  Tc8  1  0.098888  0.253487  0.102830  1
  Tc  Tc9  1  0.899099  0.006219  0.156846  1
  Tc  Tc10  1  0.349147  0.006845  0.602714  1
  As  As11  1  0.278488  0.259843  0.483271  1
  As  As12  1  0.731169  0.237185  0.008079  1
  As  As13  1  0.329563  0.586889  0.250139  1
  As  As14  1  0.668355  0.921196  0.258310  1
  As  As15  1  0.163416  0.922989  0.751684  1
  As  As16  1  0.833895  0.586280  0.757844  1
  Ru  Ru17  1  0.658496  0.252559  0.662523  1
