# generated using pymatgen
data_La6As2P11Rh20
_symmetry_space_group_name_H-M   'P 1'
_cell_length_a   13.64029043
_cell_length_b   13.66517426
_cell_length_c   3.99479447
_cell_angle_alpha   90.07143834
_cell_angle_beta   90.08132695
_cell_angle_gamma   119.93715512
_symmetry_Int_Tables_number   1
_chemical_formula_structural   La6As2P11Rh20
_chemical_formula_sum   'La6 As2 P11 Rh20'
_cell_volume   645.26334753
_cell_formula_units_Z   1
loop_
 _symmetry_equiv_pos_site_id
 _symmetry_equiv_pos_as_xyz
  1  'x, y, z'
loop_
 _atom_site_type_symbol
 _atom_site_label
 _atom_site_symmetry_multiplicity
 _atom_site_fract_x
 _atom_site_fract_y
 _atom_site_fract_z
 _atom_site_occupancy
  La  La0  1  0.528705  0.717055  0.246952  1
  La  La1  1  0.281941  0.810968  0.247164  1
  La  La2  1  0.188533  0.470419  0.247365  1
  La  La3  1  0.468924  0.283866  0.752760  1
  La  La4  1  0.722095  0.189207  0.752237  1
  La  La5  1  0.812348  0.530820  0.753004  1
  As  As6  1  0.524476  0.137046  0.250142  1
  As  As7  1  0.999497  0.999802  0.003650  1
  P  P8  1  0.869186  0.389244  0.250327  1
  P  P9  1  0.613181  0.481156  0.251002  1
  P  P10  1  0.949545  0.720842  0.254559  1
  P  P11  1  0.277721  0.228286  0.253009  1
  P  P12  1  0.770727  0.048862  0.253824  1
  P  P13  1  0.387071  0.519791  0.749009  1
  P  P14  1  0.479061  0.865470  0.748985  1
  P  P15  1  0.133729  0.613019  0.749455  1
  P  P16  1  0.720952  0.771253  0.746802  1
  P  P17  1  0.227624  0.949549  0.746226  1
  P  P18  1  0.050144  0.279092  0.745407  1
  Rh  Rh19  1  0.333120  0.665215  0.751366  1
  Rh  Rh20  1  0.923035  0.250102  0.253388  1
  Rh  Rh21  1  0.749940  0.674568  0.254550  1
  Rh  Rh22  1  0.322494  0.077024  0.252482  1
  Rh  Rh23  1  0.432267  0.016570  0.750960  1
  Rh  Rh24  1  0.976124  0.415747  0.751292  1
  Rh  Rh25  1  0.584650  0.559637  0.751977  1
  Rh  Rh26  1  0.673661  0.342610  0.248039  1
  Rh  Rh27  1  0.093291  0.191782  0.250896  1
  Rh  Rh28  1  0.809142  0.902530  0.254034  1
  Rh  Rh29  1  0.096625  0.904892  0.253088  1
  Rh  Rh30  1  0.026592  0.585385  0.248700  1
  Rh  Rh31  1  0.414778  0.440127  0.248242  1
  Rh  Rh32  1  0.560867  0.970912  0.248335  1
  Rh  Rh33  1  0.673860  0.921305  0.746820  1
  Rh  Rh34  1  0.077195  0.750238  0.746613  1
  Rh  Rh35  1  0.249311  0.326385  0.745696  1
  Rh  Rh36  1  0.905577  0.807810  0.749679  1
  Rh  Rh37  1  0.189175  0.096825  0.745335  1
  Rh  Rh38  1  0.902836  0.094590  0.746628  1
