# generated using pymatgen
data_La3Dy5(Si3Pt)4
_symmetry_space_group_name_H-M   'P 1'
_cell_length_a   8.19267000
_cell_length_b   8.20371237
_cell_length_c   8.47001000
_cell_angle_alpha   90.00000000
_cell_angle_beta   90.00000000
_cell_angle_gamma   120.04437974
_symmetry_Int_Tables_number   1
_chemical_formula_structural   La3Dy5(Si3Pt)4
_chemical_formula_sum   'La3 Dy5 Si12 Pt4'
_cell_volume   492.78337951
_cell_formula_units_Z   1
loop_
 _symmetry_equiv_pos_site_id
 _symmetry_equiv_pos_as_xyz
  1  'x, y, z'
loop_
 _atom_site_type_symbol
 _atom_site_label
 _atom_site_symmetry_multiplicity
 _atom_site_fract_x
 _atom_site_fract_y
 _atom_site_fract_z
 _atom_site_occupancy
  La  La0  1  0.999934  0.999963  0.250000  1
  La  La1  1  0.999936  0.999970  0.750000  1
  La  La2  1  0.000716  0.500355  0.250000  1
  Dy  Dy3  1  0.499862  0.500256  0.250000  1
  Dy  Dy4  1  0.500290  0.000594  0.750000  1
  Dy  Dy5  1  0.499860  0.999605  0.250000  1
  Dy  Dy6  1  0.500289  0.499697  0.750000  1
  Dy  Dy7  1  0.999362  0.499682  0.750000  1
  Si  Si8  1  0.167858  0.333500  0.996818  1
  Si  Si9  1  0.666424  0.833214  0.999565  1
  Si  Si10  1  0.167858  0.333500  0.503182  1
  Si  Si11  1  0.333511  0.166754  0.000470  1
  Si  Si12  1  0.167854  0.834362  0.996816  1
  Si  Si13  1  0.666424  0.833214  0.500435  1
  Si  Si14  1  0.832143  0.666475  0.997827  1
  Si  Si15  1  0.333511  0.166754  0.499530  1
  Si  Si16  1  0.167854  0.834362  0.503184  1
  Si  Si17  1  0.832143  0.666475  0.502173  1
  Si  Si18  1  0.832143  0.165664  0.997826  1
  Si  Si19  1  0.832143  0.165664  0.502174  1
  Pt  Pt20  1  0.335261  0.667637  0.993670  1
  Pt  Pt21  1  0.335261  0.667637  0.506330  1
  Pt  Pt22  1  0.664678  0.332334  0.994781  1
  Pt  Pt23  1  0.664678  0.332334  0.505219  1
