# generated using pymatgen
data_SrCeCo9Mo3As7
_symmetry_space_group_name_H-M   'P 1'
_cell_length_a   3.88315000
_cell_length_b   9.47225608
_cell_length_c   9.47225500
_cell_angle_alpha   119.99999273
_cell_angle_beta   90.00000000
_cell_angle_gamma   90.00000000
_symmetry_Int_Tables_number   1
_chemical_formula_structural   SrCeCo9Mo3As7
_chemical_formula_sum   'Sr1 Ce1 Co9 Mo3 As7'
_cell_volume   301.73218816
_cell_formula_units_Z   1
loop_
 _symmetry_equiv_pos_site_id
 _symmetry_equiv_pos_as_xyz
  1  'x, y, z'
loop_
 _atom_site_type_symbol
 _atom_site_label
 _atom_site_symmetry_multiplicity
 _atom_site_fract_x
 _atom_site_fract_y
 _atom_site_fract_z
 _atom_site_occupancy
  Sr  Sr0  1  0.500000  0.333333  0.666667  1
  Ce  Ce1  1  0.000000  0.666667  0.333333  1
  Co  Co2  1  0.000000  0.573363  0.946654  1
  Co  Co3  1  0.000000  0.373290  0.426637  1
  Co  Co4  1  0.000000  0.053346  0.626710  1
  Co  Co5  1  0.000000  0.875990  0.156717  1
  Co  Co6  1  0.000000  0.280726  0.124010  1
  Co  Co7  1  0.000000  0.843283  0.719274  1
  Co  Co8  1  0.500000  0.942687  0.375800  1
  Co  Co9  1  0.500000  0.433112  0.057313  1
  Co  Co10  1  0.500000  0.624200  0.566888  1
  Mo  Mo11  1  0.500000  0.783732  0.900737  1
  Mo  Mo12  1  0.500000  0.117005  0.216268  1
  Mo  Mo13  1  0.500000  0.099263  0.882995  1
  As  As14  1  0.000000  0.000000  0.000000  1
  As  As15  1  0.500000  0.704543  0.112681  1
  As  As16  1  0.500000  0.408140  0.295457  1
  As  As17  1  0.500000  0.887319  0.591860  1
  As  As18  1  0.000000  0.589502  0.699844  1
  As  As19  1  0.000000  0.110342  0.410498  1
  As  As20  1  0.000000  0.300156  0.889658  1
