# generated using pymatgen
data_CdNi21SnP6
_symmetry_space_group_name_H-M   'P 1'
_cell_length_a   7.85332800
_cell_length_b   7.85332837
_cell_length_c   7.85332800
_cell_angle_alpha   119.99999846
_cell_angle_beta   90.00000000
_cell_angle_gamma   119.99999846
_symmetry_Int_Tables_number   1
_chemical_formula_structural   CdNi21SnP6
_chemical_formula_sum   'Cd1 Ni21 Sn1 P6'
_cell_volume   342.48870385
_cell_formula_units_Z   1
loop_
 _symmetry_equiv_pos_site_id
 _symmetry_equiv_pos_as_xyz
  1  'x, y, z'
loop_
 _atom_site_type_symbol
 _atom_site_label
 _atom_site_symmetry_multiplicity
 _atom_site_fract_x
 _atom_site_fract_y
 _atom_site_fract_z
 _atom_site_occupancy
  Cd  Cd0  1  0.750001  0.500001  0.250000  1
  Ni  Ni1  1  0.000000  0.000000  0.000000  1
  Ni  Ni2  1  0.346882  0.999128  0.999564  1
  Ni  Ni3  1  0.652246  0.999128  0.999564  1
  Ni  Ni4  1  0.000436  0.347318  0.999564  1
  Ni  Ni5  1  0.346882  0.347318  0.999564  1
  Ni  Ni6  1  0.000436  0.652682  0.999564  1
  Ni  Ni7  1  0.652246  0.652682  0.999564  1
  Ni  Ni8  1  0.382813  0.765626  0.148439  1
  Ni  Ni9  1  0.000436  0.000872  0.347754  1
  Ni  Ni10  1  0.000436  0.347318  0.347754  1
  Ni  Ni11  1  0.346882  0.347318  0.347754  1
  Ni  Ni12  1  0.613331  0.226661  0.386669  1
  Ni  Ni13  1  0.160008  0.773339  0.386669  1
  Ni  Ni14  1  0.613331  0.773339  0.386669  1
  Ni  Ni15  1  0.382813  0.234374  0.617187  1
  Ni  Ni16  1  0.851561  0.234374  0.617187  1
  Ni  Ni17  1  0.382813  0.765626  0.617187  1
  Ni  Ni18  1  0.000436  0.000872  0.653118  1
  Ni  Ni19  1  0.000436  0.652682  0.653118  1
  Ni  Ni20  1  0.652246  0.652682  0.653118  1
  Ni  Ni21  1  0.613331  0.226661  0.839992  1
  Sn  Sn22  1  0.250000  0.500001  0.750001  1
  P  P23  1  0.737251  0.000000  0.262749  1
  P  P24  1  0.262749  0.000000  0.262749  1
  P  P25  1  0.262749  0.525497  0.262749  1
  P  P26  1  0.262749  0.000000  0.737251  1
  P  P27  1  0.737251  0.474503  0.737251  1
  P  P28  1  0.737251  0.000000  0.737251  1
