# generated using pymatgen
data_Lu5P12Ru6Rh13
_symmetry_space_group_name_H-M   'P 1'
_cell_length_a   12.59946417
_cell_length_b   12.60549735
_cell_length_c   3.91222500
_cell_angle_alpha   90.00000000
_cell_angle_beta   90.00000000
_cell_angle_gamma   120.07841506
_symmetry_Int_Tables_number   1
_chemical_formula_structural   Lu5P12Ru6Rh13
_chemical_formula_sum   'Lu5 P12 Ru6 Rh13'
_cell_volume   537.67867391
_cell_formula_units_Z   1
loop_
 _symmetry_equiv_pos_site_id
 _symmetry_equiv_pos_as_xyz
  1  'x, y, z'
loop_
 _atom_site_type_symbol
 _atom_site_label
 _atom_site_symmetry_multiplicity
 _atom_site_fract_x
 _atom_site_fract_y
 _atom_site_fract_z
 _atom_site_occupancy
  Lu  Lu0  1  0.668808  0.332097  0.000000  1
  Lu  Lu1  1  0.332720  0.667347  0.000000  1
  Lu  Lu2  1  0.814505  0.001587  0.500000  1
  Lu  Lu3  1  0.184369  0.186738  0.500000  1
  Lu  Lu4  1  0.999601  0.813930  0.500000  1
  P  P5  1  0.636875  0.999644  0.000000  1
  P  P6  1  0.363726  0.364150  0.000000  1
  P  P7  1  0.000298  0.634298  0.000000  1
  P  P8  1  0.687783  0.518104  0.500000  1
  P  P9  1  0.832213  0.310612  0.500000  1
  P  P10  1  0.316663  0.833584  0.500000  1
  P  P11  1  0.517856  0.690223  0.500000  1
  P  P12  1  0.179663  0.999770  0.000000  1
  P  P13  1  0.819545  0.818984  0.000000  1
  P  P14  1  0.996365  0.177988  0.000000  1
  P  P15  1  0.479766  0.168185  0.500000  1
  P  P16  1  0.165424  0.480927  0.500000  1
  Ru  Ru17  1  0.512759  0.872570  0.500000  1
  Ru  Ru18  1  0.716596  0.716004  0.500000  1
  Ru  Ru19  1  0.000702  0.283424  0.500000  1
  Ru  Ru20  1  0.003676  0.452403  0.000000  1
  Ru  Ru21  1  0.817662  0.194259  0.000000  1
  Ru  Ru22  1  0.280760  0.999200  0.500000  1
  Rh  Rh23  1  0.624847  0.805836  0.000000  1
  Rh  Rh24  1  0.182069  0.373598  0.000000  1
  Rh  Rh25  1  0.374510  0.182286  0.000000  1
  Rh  Rh26  1  0.193602  0.817276  0.000000  1
  Rh  Rh27  1  0.805499  0.621921  0.000000  1
  Rh  Rh28  1  0.871375  0.508811  0.500000  1
  Rh  Rh29  1  0.491773  0.359298  0.500000  1
  Rh  Rh30  1  0.638056  0.131562  0.500000  1
  Rh  Rh31  1  0.130818  0.641218  0.500000  1
  Rh  Rh32  1  0.358209  0.493745  0.500000  1
  Rh  Rh33  1  0.999544  0.998777  0.000000  1
  Rh  Rh34  1  0.454418  0.002172  0.000000  1
  Rh  Rh35  1  0.546944  0.547469  0.000000  1
