# generated using pymatgen
data_Sr4TbNp3O12
_symmetry_space_group_name_H-M   'P 1'
_cell_length_a   6.00558975
_cell_length_b   6.14201466
_cell_length_c   8.56550744
_cell_angle_alpha   89.89584497
_cell_angle_beta   90.15516066
_cell_angle_gamma   89.97060726
_symmetry_Int_Tables_number   1
_chemical_formula_structural   Sr4TbNp3O12
_chemical_formula_sum   'Sr4 Tb1 Np3 O12'
_cell_volume   315.94918461
_cell_formula_units_Z   1
loop_
 _symmetry_equiv_pos_site_id
 _symmetry_equiv_pos_as_xyz
  1  'x, y, z'
loop_
 _atom_site_type_symbol
 _atom_site_label
 _atom_site_symmetry_multiplicity
 _atom_site_fract_x
 _atom_site_fract_y
 _atom_site_fract_z
 _atom_site_occupancy
  Sr  Sr0  1  0.988797  0.041645  0.254049  1
  Sr  Sr1  1  0.485549  0.455344  0.746455  1
  Sr  Sr2  1  0.514451  0.544656  0.253545  1
  Sr  Sr3  1  0.011203  0.958355  0.745951  1
  Tb  Tb4  1  0.500000  0.000000  0.500000  1
  Np  Np5  1  0.500000  0.000000  0.000000  1
  Np  Np6  1  0.000000  0.500000  0.000000  1
  Np  Np7  1  0.000000  0.500000  0.500000  1
  O  O8  1  0.199016  0.214208  0.553493  1
  O  O9  1  0.714795  0.299066  0.448348  1
  O  O10  1  0.289238  0.704259  0.943261  1
  O  O11  1  0.791748  0.794375  0.055357  1
  O  O12  1  0.800984  0.785792  0.446507  1
  O  O13  1  0.285205  0.700934  0.551652  1
  O  O14  1  0.710762  0.295741  0.056739  1
  O  O15  1  0.208252  0.205625  0.944643  1
  O  O16  1  0.101932  0.463204  0.244815  1
  O  O17  1  0.598489  0.036574  0.758621  1
  O  O18  1  0.401511  0.963426  0.241379  1
  O  O19  1  0.898068  0.536796  0.755185  1
