# generated using pymatgen
data_Tb7Ce4Sm5(CdRu)4
_symmetry_space_group_name_H-M   'P 1'
_cell_length_a   9.69895525
_cell_length_b   9.70271681
_cell_length_c   9.70271734
_cell_angle_alpha   59.99342758
_cell_angle_beta   60.01283053
_cell_angle_gamma   60.01282671
_symmetry_Int_Tables_number   1
_chemical_formula_structural   Tb7Ce4Sm5(CdRu)4
_chemical_formula_sum   'Tb7 Ce4 Sm5 Cd4 Ru4'
_cell_volume   645.74238397
_cell_formula_units_Z   1
loop_
 _symmetry_equiv_pos_site_id
 _symmetry_equiv_pos_as_xyz
  1  'x, y, z'
loop_
 _atom_site_type_symbol
 _atom_site_label
 _atom_site_symmetry_multiplicity
 _atom_site_fract_x
 _atom_site_fract_y
 _atom_site_fract_z
 _atom_site_occupancy
  Tb  Tb0  1  0.939879  0.560121  0.560121  1
  Tb  Tb1  1  0.188207  0.189264  0.811034  1
  Tb  Tb2  1  0.811495  0.189264  0.811034  1
  Tb  Tb3  1  0.188513  0.811487  0.811486  1
  Tb  Tb4  1  0.811495  0.811035  0.189264  1
  Tb  Tb5  1  0.188206  0.811034  0.189263  1
  Tb  Tb6  1  0.811447  0.188553  0.188553  1
  Ce  Ce7  1  0.345345  0.345549  0.963761  1
  Ce  Ce8  1  0.345345  0.963761  0.345549  1
  Ce  Ce9  1  0.963550  0.345591  0.345591  1
  Ce  Ce10  1  0.345269  0.345591  0.345591  1
  Sm  Sm11  1  0.561151  0.560401  0.938842  1
  Sm  Sm12  1  0.939606  0.560401  0.938842  1
  Sm  Sm13  1  0.560473  0.939527  0.939527  1
  Sm  Sm14  1  0.939606  0.938842  0.560401  1
  Sm  Sm15  1  0.561151  0.938842  0.560401  1
  Cd  Cd16  1  0.580158  0.580224  0.259459  1
  Cd  Cd17  1  0.580158  0.259459  0.580224  1
  Cd  Cd18  1  0.258545  0.580117  0.580117  1
  Cd  Cd19  1  0.581220  0.580117  0.580117  1
  Ru  Ru20  1  0.144280  0.145757  0.565683  1
  Ru  Ru21  1  0.144280  0.565683  0.145757  1
  Ru  Ru22  1  0.565869  0.144690  0.144690  1
  Ru  Ru23  1  0.144749  0.144690  0.144690  1
