# generated using pymatgen
data_DyY2MgCd2Ga3
_symmetry_space_group_name_H-M   'P 1'
_cell_length_a   7.25493402
_cell_length_b   7.25654804
_cell_length_c   4.44391700
_cell_angle_alpha   90.00000000
_cell_angle_beta   90.00000000
_cell_angle_gamma   120.02518848
_symmetry_Int_Tables_number   1
_chemical_formula_structural   DyY2MgCd2Ga3
_chemical_formula_sum   'Dy1 Y2 Mg1 Cd2 Ga3'
_cell_volume   202.55819833
_cell_formula_units_Z   1
loop_
 _symmetry_equiv_pos_site_id
 _symmetry_equiv_pos_as_xyz
  1  'x, y, z'
loop_
 _atom_site_type_symbol
 _atom_site_label
 _atom_site_symmetry_multiplicity
 _atom_site_fract_x
 _atom_site_fract_y
 _atom_site_fract_z
 _atom_site_occupancy
  Dy  Dy0  1  0.001248  0.573244  0.500000  1
  Y  Y1  1  0.424094  0.424088  0.500000  1
  Y  Y2  1  0.573194  0.001208  0.500000  1
  Mg  Mg3  1  0.759652  0.759495  0.000000  1
  Cd  Cd4  1  0.246731  0.998135  0.000000  1
  Cd  Cd5  1  0.998228  0.246960  0.000000  1
  Ga  Ga6  1  0.665757  0.337381  0.000000  1
  Ga  Ga7  1  0.336772  0.665431  0.000000  1
  Ga  Ga8  1  0.994322  0.994058  0.500000  1
