# generated using pymatgen
data_Pr3Sn3Rh2Au
_symmetry_space_group_name_H-M   'P 1'
_cell_length_a   7.67608300
_cell_length_b   7.67608335
_cell_length_c   4.17463700
_cell_angle_alpha   90.00000000
_cell_angle_beta   90.00000000
_cell_angle_gamma   120.00000278
_symmetry_Int_Tables_number   1
_chemical_formula_structural   Pr3Sn3Rh2Au
_chemical_formula_sum   'Pr3 Sn3 Rh2 Au1'
_cell_volume   213.02407177
_cell_formula_units_Z   1
loop_
 _symmetry_equiv_pos_site_id
 _symmetry_equiv_pos_as_xyz
  1  'x, y, z'
loop_
 _atom_site_type_symbol
 _atom_site_label
 _atom_site_symmetry_multiplicity
 _atom_site_fract_x
 _atom_site_fract_y
 _atom_site_fract_z
 _atom_site_occupancy
  Pr  Pr0  1  0.594078  0.011857  0.500000  1
  Pr  Pr1  1  0.417778  0.405922  0.500000  1
  Pr  Pr2  1  0.988143  0.582222  0.500000  1
  Sn  Sn3  1  0.249846  0.007327  0.000000  1
  Sn  Sn4  1  0.757481  0.750154  0.000000  1
  Sn  Sn5  1  0.992673  0.242519  0.000000  1
  Rh  Rh6  1  0.000000  0.000000  0.500000  1
  Rh  Rh7  1  0.666667  0.333333  0.000000  1
  Au  Au8  1  0.333333  0.666667  0.000000  1
