# generated using pymatgen
data_HfTa4NbC5
_symmetry_space_group_name_H-M   'P 1'
_cell_length_a   5.52076500
_cell_length_b   5.51805098
_cell_length_c   5.50439353
_cell_angle_alpha   80.69513113
_cell_angle_beta   80.37314201
_cell_angle_gamma   120.19038580
_symmetry_Int_Tables_number   1
_chemical_formula_structural   HfTa4NbC5
_chemical_formula_sum   'Hf1 Ta4 Nb1 C5'
_cell_volume   136.82662239
_cell_formula_units_Z   1
loop_
 _symmetry_equiv_pos_site_id
 _symmetry_equiv_pos_as_xyz
  1  'x, y, z'
loop_
 _atom_site_type_symbol
 _atom_site_label
 _atom_site_symmetry_multiplicity
 _atom_site_fract_x
 _atom_site_fract_y
 _atom_site_fract_z
 _atom_site_occupancy
  Hf  Hf0  1  0.741952  0.743029  0.741276  1
  Ta  Ta1  1  0.262600  0.261251  0.262461  1
  Ta  Ta2  1  0.082284  0.437087  0.746353  1
  Ta  Ta3  1  0.564372  0.916599  0.251692  1
  Ta  Ta4  1  0.915609  0.562980  0.253510  1
  Nb  Nb5  1  0.434896  0.082015  0.747423  1
  C  C6  1  0.498261  0.501225  0.497317  1
  C  C7  1  0.665416  0.331650  0.005109  1
  C  C8  1  0.328268  0.660100  0.004871  1
  C  C9  1  0.837353  0.171838  0.494867  1
  C  C10  1  0.168989  0.832227  0.495120  1
