# generated using pymatgen
data_Dy8Ho3Er5(In3Co)2
_symmetry_space_group_name_H-M   'P 1'
_cell_length_a   10.34185502
_cell_length_b   10.34185514
_cell_length_c   6.97890500
_cell_angle_alpha   90.00381952
_cell_angle_beta   89.99618076
_cell_angle_gamma   120.00332701
_symmetry_Int_Tables_number   1
_chemical_formula_structural   Dy8Ho3Er5(In3Co)2
_chemical_formula_sum   'Dy8 Ho3 Er5 In6 Co2'
_cell_volume   646.39836831
_cell_formula_units_Z   1
loop_
 _symmetry_equiv_pos_site_id
 _symmetry_equiv_pos_as_xyz
  1  'x, y, z'
loop_
 _atom_site_type_symbol
 _atom_site_label
 _atom_site_symmetry_multiplicity
 _atom_site_fract_x
 _atom_site_fract_y
 _atom_site_fract_z
 _atom_site_occupancy
  Dy  Dy0  1  0.534530  0.069595  0.504142  1
  Dy  Dy1  1  0.930405  0.465470  0.504142  1
  Dy  Dy2  1  0.535032  0.464968  0.504009  1
  Dy  Dy3  1  0.465139  0.930907  0.004708  1
  Dy  Dy4  1  0.069093  0.534861  0.004708  1
  Dy  Dy5  1  0.465512  0.534488  0.005061  1
  Dy  Dy6  1  0.178121  0.356110  0.712849  1
  Dy  Dy7  1  0.643890  0.821879  0.712849  1
  Ho  Ho8  1  0.333130  0.666870  0.394693  1
  Ho  Ho9  1  0.000109  0.999891  0.493295  1
  Ho  Ho10  1  0.000222  0.999778  0.994789  1
  Er  Er11  1  0.178229  0.821771  0.712866  1
  Er  Er12  1  0.821747  0.643499  0.212468  1
  Er  Er13  1  0.356501  0.178253  0.212468  1
  Er  Er14  1  0.821736  0.178264  0.212561  1
  Er  Er15  1  0.666686  0.333314  0.896104  1
  In  In16  1  0.837771  0.674324  0.752684  1
  In  In17  1  0.325676  0.162229  0.752684  1
  In  In18  1  0.836940  0.163060  0.752599  1
  In  In19  1  0.162405  0.324872  0.251542  1
  In  In20  1  0.675128  0.837595  0.251542  1
  In  In21  1  0.162410  0.837590  0.252372  1
  Co  Co22  1  0.666661  0.333339  0.281271  1
  Co  Co23  1  0.332925  0.667075  0.781635  1
