# generated using pymatgen
data_HoLu4(In2Pt)2
_symmetry_space_group_name_H-M   'P 1'
_cell_length_a   3.58709800
_cell_length_b   8.04251700
_cell_length_c   18.02108000
_cell_angle_alpha   90.00000000
_cell_angle_beta   90.00000000
_cell_angle_gamma   90.00000000
_symmetry_Int_Tables_number   1
_chemical_formula_structural   HoLu4(In2Pt)2
_chemical_formula_sum   'Ho2 Lu8 In8 Pt4'
_cell_volume   519.89548280
_cell_formula_units_Z   2
loop_
 _symmetry_equiv_pos_site_id
 _symmetry_equiv_pos_as_xyz
  1  'x, y, z'
loop_
 _atom_site_type_symbol
 _atom_site_label
 _atom_site_symmetry_multiplicity
 _atom_site_fract_x
 _atom_site_fract_y
 _atom_site_fract_z
 _atom_site_occupancy
  Ho  Ho0  1  0.000000  0.000000  0.000000  1
  Ho  Ho1  1  0.000000  0.500000  0.500000  1
  Lu  Lu2  1  0.000000  0.116464  0.413986  1
  Lu  Lu3  1  0.000000  0.883536  0.586014  1
  Lu  Lu4  1  0.000000  0.383536  0.913986  1
  Lu  Lu5  1  0.000000  0.616464  0.086014  1
  Lu  Lu6  1  0.000000  0.244443  0.221210  1
  Lu  Lu7  1  0.000000  0.755557  0.778790  1
  Lu  Lu8  1  0.000000  0.255557  0.721210  1
  Lu  Lu9  1  0.000000  0.744443  0.278790  1
  In  In10  1  0.500000  0.423822  0.351781  1
  In  In11  1  0.500000  0.576178  0.648219  1
  In  In12  1  0.500000  0.076178  0.851781  1
  In  In13  1  0.500000  0.923822  0.148219  1
  In  In14  1  0.500000  0.293468  0.066323  1
  In  In15  1  0.500000  0.706532  0.933677  1
  In  In16  1  0.500000  0.206532  0.566323  1
  In  In17  1  0.500000  0.793468  0.433677  1
  Pt  Pt18  1  0.500000  0.025834  0.303873  1
  Pt  Pt19  1  0.500000  0.974166  0.696127  1
  Pt  Pt20  1  0.500000  0.474166  0.803873  1
  Pt  Pt21  1  0.500000  0.525834  0.196127  1
