# generated using pymatgen
data_RbNaTcH9
_symmetry_space_group_name_H-M   'P 1'
_cell_length_a   9.22321000
_cell_length_b   9.22320936
_cell_length_c   5.62283900
_cell_angle_alpha   90.00000000
_cell_angle_beta   90.00000000
_cell_angle_gamma   119.99999513
_symmetry_Int_Tables_number   1
_chemical_formula_structural   RbNaTcH9
_chemical_formula_sum   'Rb3 Na3 Tc3 H27'
_cell_volume   414.23850460
_cell_formula_units_Z   3
loop_
 _symmetry_equiv_pos_site_id
 _symmetry_equiv_pos_as_xyz
  1  'x, y, z'
loop_
 _atom_site_type_symbol
 _atom_site_label
 _atom_site_symmetry_multiplicity
 _atom_site_fract_x
 _atom_site_fract_y
 _atom_site_fract_z
 _atom_site_occupancy
  Rb  Rb0  1  0.589145  0.000000  0.000000  1
  Rb  Rb1  1  0.000000  0.589145  0.000000  1
  Rb  Rb2  1  0.410855  0.410855  0.000000  1
  Na  Na3  1  0.266535  0.000000  0.500000  1
  Na  Na4  1  0.000000  0.266535  0.500000  1
  Na  Na5  1  0.733465  0.733465  0.500000  1
  Tc  Tc6  1  0.000000  0.000000  0.000000  1
  Tc  Tc7  1  0.333333  0.666667  0.500000  1
  Tc  Tc8  1  0.666667  0.333333  0.500000  1
  H  H9  1  0.871560  0.000000  0.215986  1
  H  H10  1  0.000000  0.871560  0.215986  1
  H  H11  1  0.871560  0.000000  0.784014  1
  H  H12  1  0.000000  0.871560  0.784014  1
  H  H13  1  0.128440  0.128440  0.215986  1
  H  H14  1  0.128440  0.128440  0.784014  1
  H  H15  1  0.180602  0.000000  0.000000  1
  H  H16  1  0.000000  0.180602  0.000000  1
  H  H17  1  0.819398  0.819398  0.000000  1
  H  H18  1  0.219852  0.525585  0.286710  1
  H  H19  1  0.474415  0.694266  0.286710  1
  H  H20  1  0.219852  0.525585  0.713290  1
  H  H21  1  0.525585  0.219852  0.713290  1
  H  H22  1  0.305734  0.780148  0.286710  1
  H  H23  1  0.474415  0.694266  0.713290  1
  H  H24  1  0.694266  0.474415  0.713290  1
  H  H25  1  0.525585  0.219852  0.286710  1
  H  H26  1  0.305734  0.780148  0.713290  1
  H  H27  1  0.694266  0.474415  0.286710  1
  H  H28  1  0.780148  0.305734  0.713290  1
  H  H29  1  0.780148  0.305734  0.286710  1
  H  H30  1  0.370541  0.508445  0.500000  1
  H  H31  1  0.491555  0.862097  0.500000  1
  H  H32  1  0.508445  0.370541  0.500000  1
  H  H33  1  0.137903  0.629459  0.500000  1
  H  H34  1  0.862097  0.491555  0.500000  1
  H  H35  1  0.629459  0.137903  0.500000  1
