# generated using pymatgen
data_Gd7Th3(Al2Ru3)2
_symmetry_space_group_name_H-M   'P 1'
_cell_length_a   8.46941316
_cell_length_b   8.46941281
_cell_length_c   8.46941400
_cell_angle_alpha   109.70898295
_cell_angle_beta   109.70898929
_cell_angle_gamma   109.70899030
_symmetry_Int_Tables_number   1
_chemical_formula_structural   Gd7Th3(Al2Ru3)2
_chemical_formula_sum   'Gd7 Th3 Al4 Ru6'
_cell_volume   463.50584866
_cell_formula_units_Z   1
loop_
 _symmetry_equiv_pos_site_id
 _symmetry_equiv_pos_as_xyz
  1  'x, y, z'
loop_
 _atom_site_type_symbol
 _atom_site_label
 _atom_site_symmetry_multiplicity
 _atom_site_fract_x
 _atom_site_fract_y
 _atom_site_fract_z
 _atom_site_occupancy
  Gd  Gd0  1  0.781193  0.781193  0.781193  1
  Gd  Gd1  1  0.312943  0.565215  0.749065  1
  Gd  Gd2  1  0.749065  0.312943  0.565215  1
  Gd  Gd3  1  0.565215  0.749065  0.312943  1
  Gd  Gd4  1  0.717072  0.503651  0.994811  1
  Gd  Gd5  1  0.994811  0.717072  0.503651  1
  Gd  Gd6  1  0.503651  0.994811  0.717072  1
  Th  Th7  1  0.253458  0.192943  0.941219  1
  Th  Th8  1  0.941219  0.253458  0.192943  1
  Th  Th9  1  0.192943  0.941219  0.253458  1
  Al  Al10  1  0.413623  0.413623  0.413623  1
  Al  Al11  1  0.094020  0.500100  0.997644  1
  Al  Al12  1  0.997644  0.094020  0.500100  1
  Al  Al13  1  0.500100  0.997644  0.094020  1
  Ru  Ru14  1  0.890873  0.123552  0.756311  1
  Ru  Ru15  1  0.756311  0.890873  0.123552  1
  Ru  Ru16  1  0.123552  0.756311  0.890873  1
  Ru  Ru17  1  0.235392  0.611106  0.365808  1
  Ru  Ru18  1  0.365808  0.235392  0.611106  1
  Ru  Ru19  1  0.611106  0.365808  0.235392  1
