# generated using pymatgen
data_Dy2Sc2PtAu
_symmetry_space_group_name_H-M   'P 1'
_cell_length_a   4.70483100
_cell_length_b   7.03086400
_cell_length_c   8.46030200
_cell_angle_alpha   90.00000000
_cell_angle_beta   90.00000000
_cell_angle_gamma   90.00000000
_symmetry_Int_Tables_number   1
_chemical_formula_structural   Dy2Sc2PtAu
_chemical_formula_sum   'Dy4 Sc4 Pt2 Au2'
_cell_volume   279.85855747
_cell_formula_units_Z   2
loop_
 _symmetry_equiv_pos_site_id
 _symmetry_equiv_pos_as_xyz
  1  'x, y, z'
loop_
 _atom_site_type_symbol
 _atom_site_label
 _atom_site_symmetry_multiplicity
 _atom_site_fract_x
 _atom_site_fract_y
 _atom_site_fract_z
 _atom_site_occupancy
  Dy  Dy0  1  0.250000  0.011548  0.324495  1
  Dy  Dy1  1  0.250000  0.511548  0.175505  1
  Dy  Dy2  1  0.750000  0.980141  0.678374  1
  Dy  Dy3  1  0.750000  0.480141  0.821626  1
  Sc  Sc4  1  0.250000  0.145492  0.931905  1
  Sc  Sc5  1  0.250000  0.645492  0.568095  1
  Sc  Sc6  1  0.750000  0.861759  0.083671  1
  Sc  Sc7  1  0.750000  0.361759  0.416329  1
  Pt  Pt8  1  0.750000  0.745005  0.404894  1
  Pt  Pt9  1  0.750000  0.245005  0.095106  1
  Au  Au10  1  0.250000  0.256055  0.603522  1
  Au  Au11  1  0.250000  0.756055  0.896478  1
