# generated using pymatgen
data_Pr3Nd7C4Br15
_symmetry_space_group_name_H-M   'P 1'
_cell_length_a   9.27190457
_cell_length_b   10.22906177
_cell_length_c   11.30061445
_cell_angle_alpha   93.82370671
_cell_angle_beta   114.45494337
_cell_angle_gamma   109.48662837
_symmetry_Int_Tables_number   1
_chemical_formula_structural   Pr3Nd7C4Br15
_chemical_formula_sum   'Pr3 Nd7 C4 Br15'
_cell_volume   893.17316599
_cell_formula_units_Z   1
loop_
 _symmetry_equiv_pos_site_id
 _symmetry_equiv_pos_as_xyz
  1  'x, y, z'
loop_
 _atom_site_type_symbol
 _atom_site_label
 _atom_site_symmetry_multiplicity
 _atom_site_fract_x
 _atom_site_fract_y
 _atom_site_fract_z
 _atom_site_occupancy
  Pr  Pr0  1  0.715991  0.570935  0.046382  1
  Pr  Pr1  1  0.284076  0.429395  0.953609  1
  Pr  Pr2  1  0.667618  0.250371  0.832147  1
  Nd  Nd3  1  0.602080  0.539838  0.352297  1
  Nd  Nd4  1  0.334591  0.749400  0.167697  1
  Nd  Nd5  1  0.790058  0.894244  0.264046  1
  Nd  Nd6  1  0.530048  0.179010  0.108769  1
  Nd  Nd7  1  0.210833  0.105356  0.736422  1
  Nd  Nd8  1  0.397250  0.460255  0.647637  1
  Nd  Nd9  1  0.469483  0.821199  0.891101  1
  C  C10  1  0.482434  0.295796  0.937839  1
  C  C11  1  0.517560  0.704738  0.062261  1
  C  C12  1  0.450894  0.360237  0.829012  1
  C  C13  1  0.548869  0.639945  0.170987  1
  Br  Br14  1  0.208979  0.906739  0.938216  1
  Br  Br15  1  0.105972  0.187033  0.473172  1
  Br  Br16  1  0.158683  0.558365  0.704006  1
  Br  Br17  1  0.403031  0.971649  0.649470  1
  Br  Br18  1  0.704077  0.731379  0.818303  1
  Br  Br19  1  0.295229  0.268859  0.181283  1
  Br  Br20  1  0.840692  0.441456  0.296030  1
  Br  Br21  1  0.893776  0.812627  0.527430  1
  Br  Br22  1  0.361798  0.629226  0.410046  1
  Br  Br23  1  0.053346  0.834497  0.220585  1
  Br  Br24  1  0.791200  0.092571  0.063656  1
  Br  Br25  1  0.637322  0.371906  0.588147  1
  Br  Br26  1  0.947442  0.165102  0.779372  1
  Br  Br27  1  0.594823  0.026235  0.349244  1
  Br  Br28  1  0.001844  0.501634  0.000835  1
