# generated using pymatgen
data_K2Rb6NbAs4
_symmetry_space_group_name_H-M   'P 1'
_cell_length_a   11.24009628
_cell_length_b   11.24009597
_cell_length_c   11.24009800
_cell_angle_alpha   59.99999992
_cell_angle_beta   60.00000082
_cell_angle_gamma   60.00000135
_symmetry_Int_Tables_number   1
_chemical_formula_structural   K2Rb6NbAs4
_chemical_formula_sum   'K4 Rb12 Nb2 As8'
_cell_volume   1004.14205771
_cell_formula_units_Z   2
loop_
 _symmetry_equiv_pos_site_id
 _symmetry_equiv_pos_as_xyz
  1  'x, y, z'
loop_
 _atom_site_type_symbol
 _atom_site_label
 _atom_site_symmetry_multiplicity
 _atom_site_fract_x
 _atom_site_fract_y
 _atom_site_fract_z
 _atom_site_occupancy
  K  K0  1  0.625000  0.625000  0.125000  1
  K  K1  1  0.625000  0.125000  0.625000  1
  K  K2  1  0.125000  0.625000  0.625000  1
  K  K3  1  0.625000  0.625000  0.625000  1
  Rb  Rb4  1  0.033914  0.466086  0.466086  1
  Rb  Rb5  1  0.783914  0.216086  0.216086  1
  Rb  Rb6  1  0.466086  0.033914  0.466086  1
  Rb  Rb7  1  0.466086  0.466086  0.033914  1
  Rb  Rb8  1  0.033914  0.033914  0.466086  1
  Rb  Rb9  1  0.033914  0.466086  0.033914  1
  Rb  Rb10  1  0.466086  0.033914  0.033914  1
  Rb  Rb11  1  0.783914  0.216086  0.783914  1
  Rb  Rb12  1  0.216086  0.783914  0.216086  1
  Rb  Rb13  1  0.216086  0.216086  0.783914  1
  Rb  Rb14  1  0.783914  0.783914  0.216086  1
  Rb  Rb15  1  0.216086  0.783914  0.783914  1
  Nb  Nb16  1  0.750000  0.750000  0.750000  1
  Nb  Nb17  1  0.500000  0.500000  0.500000  1
  As  As18  1  0.842554  0.842554  0.472340  1
  As  As19  1  0.842554  0.472340  0.842554  1
  As  As20  1  0.407446  0.407446  0.777660  1
  As  As21  1  0.407446  0.777660  0.407446  1
  As  As22  1  0.777660  0.407446  0.407446  1
  As  As23  1  0.842554  0.842554  0.842554  1
  As  As24  1  0.472340  0.842554  0.842554  1
  As  As25  1  0.407446  0.407446  0.407446  1
