# generated using pymatgen
data_ErPu(NiAs)2
_symmetry_space_group_name_H-M   'P 1'
_cell_length_a   4.07171000
_cell_length_b   4.07170888
_cell_length_c   15.36804200
_cell_angle_alpha   90.00000000
_cell_angle_beta   90.00000000
_cell_angle_gamma   120.00000912
_symmetry_Int_Tables_number   1
_chemical_formula_structural   ErPu(NiAs)2
_chemical_formula_sum   'Er2 Pu2 Ni4 As4'
_cell_volume   220.64936805
_cell_formula_units_Z   2
loop_
 _symmetry_equiv_pos_site_id
 _symmetry_equiv_pos_as_xyz
  1  'x, y, z'
loop_
 _atom_site_type_symbol
 _atom_site_label
 _atom_site_symmetry_multiplicity
 _atom_site_fract_x
 _atom_site_fract_y
 _atom_site_fract_z
 _atom_site_occupancy
  Er  Er0  1  0.000000  0.000000  0.250000  1
  Er  Er1  1  0.000000  0.000000  0.750000  1
  Pu  Pu2  1  0.000000  0.000000  0.000000  1
  Pu  Pu3  1  0.000000  0.000000  0.500000  1
  Ni  Ni4  1  0.333333  0.666667  0.138672  1
  Ni  Ni5  1  0.666667  0.333333  0.861328  1
  Ni  Ni6  1  0.666667  0.333333  0.638672  1
  Ni  Ni7  1  0.333333  0.666667  0.361328  1
  As  As8  1  0.333333  0.666667  0.622014  1
  As  As9  1  0.666667  0.333333  0.377986  1
  As  As10  1  0.666667  0.333333  0.122014  1
  As  As11  1  0.333333  0.666667  0.877986  1
