# generated using pymatgen
data_H8Rh
_symmetry_space_group_name_H-M   'P 1'
_cell_length_a   2.75859742
_cell_length_b   2.75115798
_cell_length_c   12.42174136
_cell_angle_alpha   92.84831260
_cell_angle_beta   91.63322157
_cell_angle_gamma   119.92029749
_symmetry_Int_Tables_number   1
_chemical_formula_structural   H8Rh
_chemical_formula_sum   'H8 Rh1'
_cell_volume   81.45240932
_cell_formula_units_Z   1
loop_
 _symmetry_equiv_pos_site_id
 _symmetry_equiv_pos_as_xyz
  1  'x, y, z'
loop_
 _atom_site_type_symbol
 _atom_site_label
 _atom_site_symmetry_multiplicity
 _atom_site_fract_x
 _atom_site_fract_y
 _atom_site_fract_z
 _atom_site_occupancy
  H  H0  1  0.244988  0.205490  0.770944  1
  H  H1  1  0.543038  0.072572  0.027343  1
  H  H2  1  0.848717  0.008527  0.360450  1
  H  H3  1  0.315729  0.423359  0.816300  1
  H  H4  1  0.919024  0.593954  0.606833  1
  H  H5  1  0.103593  0.675202  0.560285  1
  H  H6  1  0.128124  0.614791  0.211357  1
  H  H7  1  0.541675  0.920733  0.975604  1
  Rh  Rh8  1  0.488811  0.311630  0.285880  1
