# generated using pymatgen
data_Rb4HfTe4
_symmetry_space_group_name_H-M   'P 1'
_cell_length_a   9.50243500
_cell_length_b   11.11329000
_cell_length_c   16.65070100
_cell_angle_alpha   90.00000000
_cell_angle_beta   90.00000000
_cell_angle_gamma   90.00000000
_symmetry_Int_Tables_number   1
_chemical_formula_structural   Rb4HfTe4
_chemical_formula_sum   'Rb16 Hf4 Te16'
_cell_volume   1758.36923701
_cell_formula_units_Z   4
loop_
 _symmetry_equiv_pos_site_id
 _symmetry_equiv_pos_as_xyz
  1  'x, y, z'
loop_
 _atom_site_type_symbol
 _atom_site_label
 _atom_site_symmetry_multiplicity
 _atom_site_fract_x
 _atom_site_fract_y
 _atom_site_fract_z
 _atom_site_occupancy
  Rb  Rb0  1  0.500000  0.500000  0.500000  1
  Rb  Rb1  1  0.148569  0.447165  0.274665  1
  Rb  Rb2  1  0.148569  0.052835  0.274665  1
  Rb  Rb3  1  0.014911  0.750000  0.430251  1
  Rb  Rb4  1  0.985089  0.250000  0.569749  1
  Rb  Rb5  1  0.648569  0.947165  0.225335  1
  Rb  Rb6  1  0.351431  0.052835  0.774665  1
  Rb  Rb7  1  0.851431  0.947165  0.725335  1
  Rb  Rb8  1  0.351431  0.447165  0.774665  1
  Rb  Rb9  1  0.000000  0.500000  0.000000  1
  Rb  Rb10  1  0.514911  0.250000  0.069749  1
  Rb  Rb11  1  0.648569  0.552835  0.225335  1
  Rb  Rb12  1  0.485089  0.750000  0.930251  1
  Rb  Rb13  1  0.000000  0.000000  0.000000  1
  Rb  Rb14  1  0.851431  0.552835  0.725335  1
  Rb  Rb15  1  0.500000  0.000000  0.500000  1
  Hf  Hf16  1  0.750286  0.250000  0.833160  1
  Hf  Hf17  1  0.749714  0.250000  0.333160  1
  Hf  Hf18  1  0.250286  0.750000  0.666840  1
  Hf  Hf19  1  0.249714  0.750000  0.166840  1
  Te  Te20  1  0.538594  0.750000  0.674722  1
  Te  Te21  1  0.461406  0.250000  0.325278  1
  Te  Te22  1  0.359858  0.750000  0.319865  1
  Te  Te23  1  0.140142  0.750000  0.819865  1
  Te  Te24  1  0.038594  0.250000  0.825278  1
  Te  Te25  1  0.961406  0.750000  0.174722  1
  Te  Te26  1  0.640142  0.250000  0.680135  1
  Te  Te27  1  0.859858  0.250000  0.180135  1
  Te  Te28  1  0.841680  0.452292  0.409943  1
  Te  Te29  1  0.658320  0.047708  0.909943  1
  Te  Te30  1  0.341680  0.952292  0.090057  1
  Te  Te31  1  0.341680  0.547708  0.090057  1
  Te  Te32  1  0.158320  0.547708  0.590057  1
  Te  Te33  1  0.841680  0.047708  0.409943  1
  Te  Te34  1  0.158320  0.952292  0.590057  1
  Te  Te35  1  0.658320  0.452292  0.909943  1
