# generated using pymatgen
data_Sc4Sb4Rh3Au
_symmetry_space_group_name_H-M   'P 1'
_cell_length_a   4.52943498
_cell_length_b   4.52943539
_cell_length_c   14.97380400
_cell_angle_alpha   89.97491574
_cell_angle_beta   81.33286163
_cell_angle_gamma   120.02482927
_symmetry_Int_Tables_number   1
_chemical_formula_structural   Sc4Sb4Rh3Au
_chemical_formula_sum   'Sc4 Sb4 Rh3 Au1'
_cell_volume   261.90426367
_cell_formula_units_Z   1
loop_
 _symmetry_equiv_pos_site_id
 _symmetry_equiv_pos_as_xyz
  1  'x, y, z'
loop_
 _atom_site_type_symbol
 _atom_site_label
 _atom_site_symmetry_multiplicity
 _atom_site_fract_x
 _atom_site_fract_y
 _atom_site_fract_z
 _atom_site_occupancy
  Sc  Sc0  1  0.256455  0.628469  0.115076  1
  Sc  Sc1  1  0.742780  0.871378  0.385842  1
  Sc  Sc2  1  0.248148  0.123966  0.627886  1
  Sc  Sc3  1  0.751463  0.375637  0.872901  1
  Sb  Sb4  1  0.997943  0.499004  0.503053  1
  Sb  Sb5  1  0.500514  0.750354  0.749132  1
  Sb  Sb6  1  0.007481  0.003872  0.988647  1
  Sb  Sb7  1  0.494929  0.247589  0.257483  1
  Rh  Rh8  1  0.373725  0.186703  0.439572  1
  Rh  Rh9  1  0.875138  0.437372  0.687490  1
  Rh  Rh10  1  0.374668  0.687222  0.938110  1
  Au  Au11  1  0.876757  0.938433  0.184809  1
