# generated using pymatgen
data_Tb9Dy3(ErPb2)8
_symmetry_space_group_name_H-M   'P 1'
_cell_length_a   8.19897032
_cell_length_b   8.28334603
_cell_length_c   15.63657804
_cell_angle_alpha   89.99822712
_cell_angle_beta   90.01261144
_cell_angle_gamma   90.03781154
_symmetry_Int_Tables_number   1
_chemical_formula_structural   Tb9Dy3(ErPb2)8
_chemical_formula_sum   'Tb9 Dy3 Er8 Pb16'
_cell_volume   1061.95650564
_cell_formula_units_Z   1
loop_
 _symmetry_equiv_pos_site_id
 _symmetry_equiv_pos_as_xyz
  1  'x, y, z'
loop_
 _atom_site_type_symbol
 _atom_site_label
 _atom_site_symmetry_multiplicity
 _atom_site_fract_x
 _atom_site_fract_y
 _atom_site_fract_z
 _atom_site_occupancy
  Tb  Tb0  1  0.876589  0.659340  0.879499  1
  Tb  Tb1  1  0.534358  0.322826  0.900271  1
  Tb  Tb2  1  0.034472  0.176737  0.599582  1
  Tb  Tb3  1  0.465572  0.676757  0.400183  1
  Tb  Tb4  1  0.965491  0.823504  0.100276  1
  Tb  Tb5  1  0.465837  0.676640  0.099989  1
  Tb  Tb6  1  0.965612  0.823066  0.400020  1
  Tb  Tb7  1  0.534154  0.322917  0.599809  1
  Tb  Tb8  1  0.034452  0.176748  0.900156  1
  Dy  Dy9  1  0.376332  0.840825  0.878996  1
  Dy  Dy10  1  0.876415  0.658916  0.620833  1
  Dy  Dy11  1  0.623719  0.158945  0.378993  1
  Er  Er12  1  0.123534  0.341281  0.120956  1
  Er  Er13  1  0.623465  0.158649  0.121330  1
  Er  Er14  1  0.123748  0.341065  0.378926  1
  Er  Er15  1  0.376458  0.841234  0.620763  1
  Er  Er16  1  0.208402  0.504157  0.749763  1
  Er  Er17  1  0.707869  0.995905  0.749779  1
  Er  Er18  1  0.791908  0.495277  0.250100  1
  Er  Er19  1  0.291604  0.004569  0.249898  1
  Pb  Pb20  1  0.282440  0.034922  0.043093  1
  Pb  Pb21  1  0.782991  0.465709  0.456971  1
  Pb  Pb22  1  0.717019  0.965761  0.542893  1
  Pb  Pb23  1  0.218680  0.533309  0.957545  1
  Pb  Pb24  1  0.716925  0.967340  0.957559  1
  Pb  Pb25  1  0.217803  0.534366  0.542536  1
  Pb  Pb26  1  0.282038  0.034450  0.457310  1
  Pb  Pb27  1  0.782366  0.464700  0.043619  1
  Pb  Pb28  1  0.570876  0.627076  0.749531  1
  Pb  Pb29  1  0.071998  0.873727  0.749505  1
  Pb  Pb30  1  0.428181  0.372934  0.249886  1
  Pb  Pb31  1  0.929057  0.127401  0.249860  1
  Pb  Pb32  1  0.345668  0.152638  0.749814  1
  Pb  Pb33  1  0.845636  0.346695  0.749806  1
  Pb  Pb34  1  0.654180  0.847042  0.249927  1
  Pb  Pb35  1  0.154149  0.652576  0.250028  1
