# generated using pymatgen
data_Dy4Hf2Sn5
_symmetry_space_group_name_H-M   'P 1'
_cell_length_a   11.37994710
_cell_length_b   11.37994730
_cell_length_c   11.37994600
_cell_angle_alpha   148.42928376
_cell_angle_beta   131.88770253
_cell_angle_gamma   58.69005774
_symmetry_Int_Tables_number   1
_chemical_formula_structural   Dy4Hf2Sn5
_chemical_formula_sum   'Dy8 Hf4 Sn10'
_cell_volume   569.81207751
_cell_formula_units_Z   2
loop_
 _symmetry_equiv_pos_site_id
 _symmetry_equiv_pos_as_xyz
  1  'x, y, z'
loop_
 _atom_site_type_symbol
 _atom_site_label
 _atom_site_symmetry_multiplicity
 _atom_site_fract_x
 _atom_site_fract_y
 _atom_site_fract_z
 _atom_site_occupancy
  Dy  Dy0  1  0.670335  0.441321  0.229014  1
  Dy  Dy1  1  0.329665  0.558679  0.770986  1
  Dy  Dy2  1  0.212308  0.941321  0.270987  1
  Dy  Dy3  1  0.787692  0.058679  0.729013  1
  Dy  Dy4  1  0.256352  0.145564  0.110789  1
  Dy  Dy5  1  0.743648  0.854436  0.889211  1
  Dy  Dy6  1  0.034774  0.645564  0.389211  1
  Dy  Dy7  1  0.965226  0.354436  0.610789  1
  Hf  Hf8  1  0.303005  0.553005  0.250000  1
  Hf  Hf9  1  0.696995  0.446995  0.750000  1
  Hf  Hf10  1  0.696995  0.946995  0.250000  1
  Hf  Hf11  1  0.303005  0.053005  0.750000  1
  Sn  Sn12  1  0.587665  0.290501  0.297164  1
  Sn  Sn13  1  0.412335  0.709499  0.702836  1
  Sn  Sn14  1  0.993336  0.790501  0.202836  1
  Sn  Sn15  1  0.006664  0.209499  0.797164  1
  Sn  Sn16  1  0.000000  0.250003  0.250003  1
  Sn  Sn17  1  0.000000  0.749997  0.749997  1
  Sn  Sn18  1  0.480968  0.080617  0.400350  1
  Sn  Sn19  1  0.519032  0.919383  0.599650  1
  Sn  Sn20  1  0.680259  0.580614  0.099645  1
  Sn  Sn21  1  0.319741  0.419386  0.900355  1
