# generated using pymatgen
data_Sc8Cu4RuAu3
_symmetry_space_group_name_H-M   'P 1'
_cell_length_a   6.72801302
_cell_length_b   4.65193800
_cell_length_c   9.28794902
_cell_angle_alpha   90.00000000
_cell_angle_beta   90.00788943
_cell_angle_gamma   90.00000000
_symmetry_Int_Tables_number   1
_chemical_formula_structural   Sc8Cu4RuAu3
_chemical_formula_sum   'Sc8 Cu4 Ru1 Au3'
_cell_volume   290.69700667
_cell_formula_units_Z   1
loop_
 _symmetry_equiv_pos_site_id
 _symmetry_equiv_pos_as_xyz
  1  'x, y, z'
loop_
 _atom_site_type_symbol
 _atom_site_label
 _atom_site_symmetry_multiplicity
 _atom_site_fract_x
 _atom_site_fract_y
 _atom_site_fract_z
 _atom_site_occupancy
  Sc  Sc0  1  0.993075  0.750000  0.116592  1
  Sc  Sc1  1  0.506467  0.750000  0.116803  1
  Sc  Sc2  1  0.000732  0.250001  0.374870  1
  Sc  Sc3  1  0.498909  0.250001  0.375076  1
  Sc  Sc4  1  0.506638  0.750000  0.633436  1
  Sc  Sc5  1  0.993439  0.750000  0.633613  1
  Sc  Sc6  1  0.511726  0.250001  0.874862  1
  Sc  Sc7  1  0.988121  0.250001  0.875070  1
  Cu  Cu8  1  0.749627  0.250001  0.119618  1
  Cu  Cu9  1  0.250610  0.750000  0.375509  1
  Cu  Cu10  1  0.750450  0.250001  0.629004  1
  Cu  Cu11  1  0.251303  0.750000  0.875004  1
  Ru  Ru12  1  0.749717  0.750000  0.875205  1
  Au  Au13  1  0.249892  0.250001  0.124323  1
  Au  Au14  1  0.749643  0.750000  0.375474  1
  Au  Au15  1  0.249653  0.250001  0.625542  1
