# generated using pymatgen
data_NdSm2Co8P6Ru
_symmetry_space_group_name_H-M   'P 1'
_cell_length_a   3.74972900
_cell_length_b   10.62787600
_cell_length_c   12.38288500
_cell_angle_alpha   90.00000000
_cell_angle_beta   90.00000000
_cell_angle_gamma   90.00000000
_symmetry_Int_Tables_number   1
_chemical_formula_structural   NdSm2Co8P6Ru
_chemical_formula_sum   'Nd2 Sm4 Co16 P12 Ru2'
_cell_volume   493.47845901
_cell_formula_units_Z   2
loop_
 _symmetry_equiv_pos_site_id
 _symmetry_equiv_pos_as_xyz
  1  'x, y, z'
loop_
 _atom_site_type_symbol
 _atom_site_label
 _atom_site_symmetry_multiplicity
 _atom_site_fract_x
 _atom_site_fract_y
 _atom_site_fract_z
 _atom_site_occupancy
  Nd  Nd0  1  0.000000  0.500000  0.523684  1
  Nd  Nd1  1  0.500000  0.000000  0.476316  1
  Sm  Sm2  1  0.500000  0.816950  0.206253  1
  Sm  Sm3  1  0.500000  0.183050  0.206253  1
  Sm  Sm4  1  0.000000  0.683050  0.793747  1
  Sm  Sm5  1  0.000000  0.316950  0.793747  1
  Co  Co6  1  0.500000  0.500000  0.706468  1
  Co  Co7  1  0.000000  0.000000  0.293532  1
  Co  Co8  1  0.000000  0.500000  0.987443  1
  Co  Co9  1  0.500000  0.000000  0.012557  1
  Co  Co10  1  0.500000  0.332455  0.991983  1
  Co  Co11  1  0.500000  0.667545  0.991983  1
  Co  Co12  1  0.000000  0.167545  0.008017  1
  Co  Co13  1  0.000000  0.832455  0.008017  1
  Co  Co14  1  0.500000  0.297178  0.429945  1
  Co  Co15  1  0.500000  0.702822  0.429945  1
  Co  Co16  1  0.000000  0.202822  0.570055  1
  Co  Co17  1  0.000000  0.797178  0.570055  1
  Co  Co18  1  0.500000  0.880773  0.709864  1
  Co  Co19  1  0.500000  0.119227  0.709864  1
  Co  Co20  1  0.000000  0.619227  0.290136  1
  Co  Co21  1  0.000000  0.380773  0.290136  1
  P  P22  1  0.500000  0.500000  0.885363  1
  P  P23  1  0.000000  0.000000  0.114637  1
  P  P24  1  0.500000  0.500000  0.345348  1
  P  P25  1  0.000000  0.000000  0.654652  1
  P  P26  1  0.500000  0.307402  0.615584  1
  P  P27  1  0.500000  0.692598  0.615584  1
  P  P28  1  0.000000  0.192598  0.384416  1
  P  P29  1  0.000000  0.807402  0.384416  1
  P  P30  1  0.500000  0.847174  0.895219  1
  P  P31  1  0.500000  0.152826  0.895219  1
  P  P32  1  0.000000  0.652826  0.104781  1
  P  P33  1  0.000000  0.347174  0.104781  1
  Ru  Ru34  1  0.500000  0.500000  0.157628  1
  Ru  Ru35  1  0.000000  0.000000  0.842372  1
