# generated using pymatgen
data_La5Tb2ThSb20
_symmetry_space_group_name_H-M   'P 1'
_cell_length_a   4.29574300
_cell_length_b   13.64999745
_cell_length_c   15.27987613
_cell_angle_alpha   78.82318116
_cell_angle_beta   90.00000000
_cell_angle_gamma   90.00000000
_symmetry_Int_Tables_number   1
_chemical_formula_structural   La5Tb2ThSb20
_chemical_formula_sum   'La5 Tb2 Th1 Sb20'
_cell_volume   878.97111534
_cell_formula_units_Z   1
loop_
 _symmetry_equiv_pos_site_id
 _symmetry_equiv_pos_as_xyz
  1  'x, y, z'
loop_
 _atom_site_type_symbol
 _atom_site_label
 _atom_site_symmetry_multiplicity
 _atom_site_fract_x
 _atom_site_fract_y
 _atom_site_fract_z
 _atom_site_occupancy
  La  La0  1  0.750000  0.331910  0.140318  1
  La  La1  1  0.250000  0.947004  0.364959  1
  La  La2  1  0.250000  0.667067  0.858879  1
  La  La3  1  0.250000  0.666393  0.576923  1
  La  La4  1  0.750000  0.053544  0.635831  1
  Tb  Tb5  1  0.250000  0.397348  0.769691  1
  Tb  Tb6  1  0.750000  0.602318  0.229562  1
  Th  Th7  1  0.750000  0.334372  0.423723  1
  Sb  Sb8  1  0.750000  0.858291  0.816948  1
  Sb  Sb9  1  0.250000  0.863207  0.675806  1
  Sb  Sb10  1  0.250000  0.152623  0.476366  1
  Sb  Sb11  1  0.750000  0.287877  0.928962  1
  Sb  Sb12  1  0.250000  0.150382  0.775227  1
  Sb  Sb13  1  0.750000  0.573608  0.442348  1
  Sb  Sb14  1  0.750000  0.138969  0.323433  1
  Sb  Sb15  1  0.250000  0.702630  0.349781  1
  Sb  Sb16  1  0.750000  0.295856  0.647550  1
  Sb  Sb17  1  0.750000  0.849486  0.224764  1
  Sb  Sb18  1  0.250000  0.420160  0.971111  1
  Sb  Sb19  1  0.250000  0.425290  0.554836  1
  Sb  Sb20  1  0.750000  0.571949  0.737179  1
  Sb  Sb21  1  0.250000  0.423337  0.267633  1
  Sb  Sb22  1  0.750000  0.855277  0.524120  1
  Sb  Sb23  1  0.750000  0.038911  0.885934  1
  Sb  Sb24  1  0.250000  0.710101  0.070654  1
  Sb  Sb25  1  0.250000  0.961948  0.115250  1
  Sb  Sb26  1  0.250000  0.142714  0.183166  1
  Sb  Sb27  1  0.750000  0.577424  0.029043  1
