# generated using pymatgen
data_Ce3ThAl5Tc3
_symmetry_space_group_name_H-M   'P 1'
_cell_length_a   5.45643202
_cell_length_b   5.51022235
_cell_length_c   9.06501504
_cell_angle_alpha   90.00000296
_cell_angle_beta   90.00969359
_cell_angle_gamma   120.32664514
_symmetry_Int_Tables_number   1
_chemical_formula_structural   Ce3ThAl5Tc3
_chemical_formula_sum   'Ce3 Th1 Al5 Tc3'
_cell_volume   235.25459606
_cell_formula_units_Z   1
loop_
 _symmetry_equiv_pos_site_id
 _symmetry_equiv_pos_as_xyz
  1  'x, y, z'
loop_
 _atom_site_type_symbol
 _atom_site_label
 _atom_site_symmetry_multiplicity
 _atom_site_fract_x
 _atom_site_fract_y
 _atom_site_fract_z
 _atom_site_occupancy
  Ce  Ce0  1  0.354724  0.677362  0.458230  1
  Ce  Ce1  1  0.651658  0.325829  0.553684  1
  Ce  Ce2  1  0.653839  0.326919  0.943147  1
  Th  Th3  1  0.353033  0.676517  0.044556  1
  Al  Al4  1  0.846970  0.170658  0.251203  1
  Al  Al5  1  0.846970  0.676312  0.251203  1
  Al  Al6  1  0.333804  0.166902  0.251004  1
  Al  Al7  1  0.154529  0.833209  0.749085  1
  Al  Al8  1  0.154529  0.321318  0.749085  1
  Tc  Tc9  1  0.997342  0.998671  0.499670  1
  Tc  Tc10  1  0.001821  0.000911  0.000858  1
  Tc  Tc11  1  0.650780  0.825390  0.748274  1
