# generated using pymatgen
data_Ac7Tm13Pb16
_symmetry_space_group_name_H-M   'P 1'
_cell_length_a   8.48060496
_cell_length_b   8.45690093
_cell_length_c   16.07289346
_cell_angle_alpha   90.02605183
_cell_angle_beta   89.65942223
_cell_angle_gamma   90.38597932
_symmetry_Int_Tables_number   1
_chemical_formula_structural   Ac7Tm13Pb16
_chemical_formula_sum   'Ac7 Tm13 Pb16'
_cell_volume   1152.69544719
_cell_formula_units_Z   1
loop_
 _symmetry_equiv_pos_site_id
 _symmetry_equiv_pos_as_xyz
  1  'x, y, z'
loop_
 _atom_site_type_symbol
 _atom_site_label
 _atom_site_symmetry_multiplicity
 _atom_site_fract_x
 _atom_site_fract_y
 _atom_site_fract_z
 _atom_site_occupancy
  Ac  Ac0  1  0.522507  0.322263  0.401932  1
  Ac  Ac1  1  0.477076  0.678093  0.905755  1
  Ac  Ac2  1  0.978893  0.823463  0.594445  1
  Ac  Ac3  1  0.977253  0.826118  0.906478  1
  Ac  Ac4  1  0.478479  0.675943  0.594942  1
  Ac  Ac5  1  0.522709  0.322382  0.095909  1
  Ac  Ac6  1  0.019156  0.175878  0.405575  1
  Tm  Tm7  1  0.862962  0.656531  0.124378  1
  Tm  Tm8  1  0.360660  0.842682  0.374760  1
  Tm  Tm9  1  0.634015  0.157555  0.877658  1
  Tm  Tm10  1  0.138122  0.342673  0.625227  1
  Tm  Tm11  1  0.133906  0.341193  0.878033  1
  Tm  Tm12  1  0.637291  0.158263  0.624143  1
  Tm  Tm13  1  0.363023  0.845065  0.123417  1
  Tm  Tm14  1  0.862553  0.655762  0.372304  1
  Tm  Tm15  1  0.031702  0.176620  0.100126  1
  Tm  Tm16  1  0.698768  0.993554  0.247501  1
  Tm  Tm17  1  0.195864  0.507046  0.247528  1
  Tm  Tm18  1  0.803160  0.490686  0.750471  1
  Tm  Tm19  1  0.301889  0.007945  0.751096  1
  Pb  Pb20  1  0.056029  0.867161  0.247636  1
  Pb  Pb21  1  0.556349  0.636566  0.249019  1
  Pb  Pb22  1  0.442485  0.363093  0.751420  1
  Pb  Pb23  1  0.943436  0.136430  0.750441  1
  Pb  Pb24  1  0.841990  0.347820  0.243183  1
  Pb  Pb25  1  0.324924  0.142535  0.248232  1
  Pb  Pb26  1  0.667321  0.859011  0.750138  1
  Pb  Pb27  1  0.166554  0.643884  0.750292  1
  Pb  Pb28  1  0.806169  0.452604  0.955287  1
  Pb  Pb29  1  0.307211  0.048666  0.546267  1
  Pb  Pb30  1  0.709579  0.964538  0.048954  1
  Pb  Pb31  1  0.193423  0.546577  0.452898  1
  Pb  Pb32  1  0.190869  0.538061  0.046899  1
  Pb  Pb33  1  0.691766  0.949678  0.452812  1
  Pb  Pb34  1  0.295506  0.051080  0.959968  1
  Pb  Pb35  1  0.806397  0.452580  0.544876  1
