# generated using pymatgen
data_Tb3Zn3IrAu2
_symmetry_space_group_name_H-M   'P 1'
_cell_length_a   7.53690100
_cell_length_b   7.53690048
_cell_length_c   3.79625500
_cell_angle_alpha   90.00000000
_cell_angle_beta   90.00000000
_cell_angle_gamma   119.99998911
_symmetry_Int_Tables_number   1
_chemical_formula_structural   Tb3Zn3IrAu2
_chemical_formula_sum   'Tb3 Zn3 Ir1 Au2'
_cell_volume   186.75474621
_cell_formula_units_Z   1
loop_
 _symmetry_equiv_pos_site_id
 _symmetry_equiv_pos_as_xyz
  1  'x, y, z'
loop_
 _atom_site_type_symbol
 _atom_site_label
 _atom_site_symmetry_multiplicity
 _atom_site_fract_x
 _atom_site_fract_y
 _atom_site_fract_z
 _atom_site_occupancy
  Tb  Tb0  1  0.581908  0.981446  0.000000  1
  Tb  Tb1  1  0.018554  0.600461  0.000000  1
  Tb  Tb2  1  0.399539  0.418092  0.000000  1
  Zn  Zn3  1  0.256258  0.991497  0.500000  1
  Zn  Zn4  1  0.008503  0.264760  0.500000  1
  Zn  Zn5  1  0.735240  0.743742  0.500000  1
  Ir  Ir6  1  0.333333  0.666667  0.500000  1
  Au  Au7  1  0.666667  0.333333  0.500000  1
  Au  Au8  1  0.000000  0.000000  0.000000  1
