# generated using pymatgen
data_Y4Hf4Ir3Pd
_symmetry_space_group_name_H-M   'P 1'
_cell_length_a   4.62472800
_cell_length_b   7.06756283
_cell_length_c   8.26588161
_cell_angle_alpha   90.42905780
_cell_angle_beta   90.00000000
_cell_angle_gamma   90.00000000
_symmetry_Int_Tables_number   1
_chemical_formula_structural   Y4Hf4Ir3Pd
_chemical_formula_sum   'Y4 Hf4 Ir3 Pd1'
_cell_volume   270.16735840
_cell_formula_units_Z   1
loop_
 _symmetry_equiv_pos_site_id
 _symmetry_equiv_pos_as_xyz
  1  'x, y, z'
loop_
 _atom_site_type_symbol
 _atom_site_label
 _atom_site_symmetry_multiplicity
 _atom_site_fract_x
 _atom_site_fract_y
 _atom_site_fract_z
 _atom_site_occupancy
  Y  Y0  1  0.250000  0.983498  0.325344  1
  Y  Y1  1  0.250000  0.486007  0.178787  1
  Y  Y2  1  0.750000  0.012147  0.675817  1
  Y  Y3  1  0.750000  0.521379  0.819211  1
  Hf  Hf4  1  0.250000  0.359260  0.569272  1
  Hf  Hf5  1  0.250000  0.855347  0.929545  1
  Hf  Hf6  1  0.750000  0.639702  0.426685  1
  Hf  Hf7  1  0.750000  0.140103  0.079762  1
  Ir  Ir8  1  0.250000  0.728589  0.595075  1
  Ir  Ir9  1  0.750000  0.772774  0.091998  1
  Ir  Ir10  1  0.750000  0.269569  0.405929  1
  Pd  Pd11  1  0.250000  0.231623  0.902573  1
