# generated using pymatgen
data_Ti8FeOs7
_symmetry_space_group_name_H-M   'P 1'
_cell_length_a   4.35826204
_cell_length_b   12.30992012
_cell_length_c   4.36431100
_cell_angle_alpha   90.00000000
_cell_angle_beta   90.00000000
_cell_angle_gamma   90.01603895
_symmetry_Int_Tables_number   1
_chemical_formula_structural   Ti8FeOs7
_chemical_formula_sum   'Ti8 Fe1 Os7'
_cell_volume   234.14465454
_cell_formula_units_Z   1
loop_
 _symmetry_equiv_pos_site_id
 _symmetry_equiv_pos_as_xyz
  1  'x, y, z'
loop_
 _atom_site_type_symbol
 _atom_site_label
 _atom_site_symmetry_multiplicity
 _atom_site_fract_x
 _atom_site_fract_y
 _atom_site_fract_z
 _atom_site_occupancy
  Ti  Ti0  1  0.917288  0.002394  0.000000  1
  Ti  Ti1  1  0.916011  0.247600  0.000000  1
  Ti  Ti2  1  0.916183  0.499171  0.000000  1
  Ti  Ti3  1  0.917115  0.750838  0.000000  1
  Ti  Ti4  1  0.417154  0.002380  0.500000  1
  Ti  Ti5  1  0.416165  0.247617  0.500000  1
  Ti  Ti6  1  0.416191  0.499166  0.500000  1
  Ti  Ti7  1  0.417117  0.750833  0.500000  1
  Fe  Fe8  1  0.416715  0.124987  0.000000  1
  Os  Os9  1  0.416049  0.372161  0.000000  1
  Os  Os10  1  0.416663  0.625003  0.000000  1
  Os  Os11  1  0.417263  0.877846  0.000000  1
  Os  Os12  1  0.916660  0.124995  0.500000  1
  Os  Os13  1  0.916089  0.373505  0.500000  1
  Os  Os14  1  0.916666  0.625003  0.500000  1
  Os  Os15  1  0.917260  0.876502  0.500000  1
