# generated using pymatgen
data_Gd3DyLu2(TeO6)3
_symmetry_space_group_name_H-M   'P 1'
_cell_length_a   9.13261834
_cell_length_b   9.11739927
_cell_length_c   5.24969118
_cell_angle_alpha   90.03282099
_cell_angle_beta   89.52381844
_cell_angle_gamma   119.86510442
_symmetry_Int_Tables_number   1
_chemical_formula_structural   Gd3DyLu2(TeO6)3
_chemical_formula_sum   'Gd3 Dy1 Lu2 Te3 O18'
_cell_volume   379.05369243
_cell_formula_units_Z   1
loop_
 _symmetry_equiv_pos_site_id
 _symmetry_equiv_pos_as_xyz
  1  'x, y, z'
loop_
 _atom_site_type_symbol
 _atom_site_label
 _atom_site_symmetry_multiplicity
 _atom_site_fract_x
 _atom_site_fract_y
 _atom_site_fract_z
 _atom_site_occupancy
  Gd  Gd0  1  0.999925  0.616619  0.999880  1
  Gd  Gd1  1  0.000992  0.272692  0.499331  1
  Gd  Gd2  1  0.384770  0.384001  0.001222  1
  Dy  Dy3  1  0.617024  0.999156  0.998065  1
  Lu  Lu4  1  0.286936  0.001743  0.501427  1
  Lu  Lu5  1  0.712955  0.714118  0.498811  1
  Te  Te6  1  0.335507  0.670438  0.496405  1
  Te  Te7  1  0.998609  0.996533  0.000528  1
  Te  Te8  1  0.665822  0.332869  0.503130  1
  O  O9  1  0.091747  0.884695  0.795235  1
  O  O10  1  0.230177  0.770062  0.287690  1
  O  O11  1  0.135852  0.543413  0.709464  1
  O  O12  1  0.411111  0.870704  0.708427  1
  O  O13  1  0.239333  0.468967  0.281179  1
  O  O14  1  0.126419  0.202514  0.803556  1
  O  O15  1  0.188879  0.114149  0.233171  1
  O  O16  1  0.540082  0.774691  0.283324  1
  O  O17  1  0.461447  0.594833  0.707470  1
  O  O18  1  0.806822  0.922672  0.770377  1
  O  O19  1  0.460115  0.232961  0.712503  1
  O  O20  1  0.591944  0.459668  0.293741  1
  O  O21  1  0.540236  0.132342  0.288000  1
  O  O22  1  0.768997  0.537721  0.714266  1
  O  O23  1  0.906762  0.791992  0.204256  1
  O  O24  1  0.760218  0.226604  0.720208  1
  O  O25  1  0.866549  0.407803  0.292492  1
  O  O26  1  0.870769  0.076041  0.195843  1
