# generated using pymatgen
data_Gd2Co3Os
_symmetry_space_group_name_H-M   'P 1'
_cell_length_a   5.20458403
_cell_length_b   5.13533840
_cell_length_c   5.20458400
_cell_angle_alpha   59.55293686
_cell_angle_beta   60.00000022
_cell_angle_gamma   59.55293678
_symmetry_Int_Tables_number   1
_chemical_formula_structural   Gd2Co3Os
_chemical_formula_sum   'Gd2 Co3 Os1'
_cell_volume   97.69180687
_cell_formula_units_Z   1
loop_
 _symmetry_equiv_pos_site_id
 _symmetry_equiv_pos_as_xyz
  1  'x, y, z'
loop_
 _atom_site_type_symbol
 _atom_site_label
 _atom_site_symmetry_multiplicity
 _atom_site_fract_x
 _atom_site_fract_y
 _atom_site_fract_z
 _atom_site_occupancy
  Gd  Gd0  1  0.251208  0.246375  0.251208  1
  Gd  Gd1  1  0.998792  0.003625  0.998792  1
  Co  Co2  1  0.625000  0.625000  0.125000  1
  Co  Co3  1  0.125000  0.625000  0.625000  1
  Co  Co4  1  0.625000  0.625000  0.625000  1
  Os  Os5  1  0.625000  0.125000  0.625000  1
