# generated using pymatgen
data_Dy4Mg3ZrRh4
_symmetry_space_group_name_H-M   'P 1'
_cell_length_a   4.18634100
_cell_length_b   7.14940585
_cell_length_c   8.58161697
_cell_angle_alpha   92.01468771
_cell_angle_beta   90.00000000
_cell_angle_gamma   90.00000000
_symmetry_Int_Tables_number   1
_chemical_formula_structural   Dy4Mg3ZrRh4
_chemical_formula_sum   'Dy4 Mg3 Zr1 Rh4'
_cell_volume   256.68774550
_cell_formula_units_Z   1
loop_
 _symmetry_equiv_pos_site_id
 _symmetry_equiv_pos_as_xyz
  1  'x, y, z'
loop_
 _atom_site_type_symbol
 _atom_site_label
 _atom_site_symmetry_multiplicity
 _atom_site_fract_x
 _atom_site_fract_y
 _atom_site_fract_z
 _atom_site_occupancy
  Dy  Dy0  1  0.250000  0.541768  0.179432  1
  Dy  Dy1  1  0.750000  0.477306  0.818034  1
  Dy  Dy2  1  0.250000  0.025142  0.327505  1
  Dy  Dy3  1  0.750000  0.958657  0.668088  1
  Mg  Mg4  1  0.750000  0.857346  0.066889  1
  Mg  Mg5  1  0.250000  0.633349  0.559822  1
  Mg  Mg6  1  0.750000  0.359282  0.440104  1
  Zr  Zr7  1  0.250000  0.134482  0.940661  1
  Rh  Rh8  1  0.750000  0.742029  0.374580  1
  Rh  Rh9  1  0.250000  0.249009  0.637321  1
  Rh  Rh10  1  0.750000  0.256077  0.111200  1
  Rh  Rh11  1  0.250000  0.765554  0.876365  1
