# generated using pymatgen
data_Tm4Zn4SiRh8
_symmetry_space_group_name_H-M   'P 1'
_cell_length_a   7.16725855
_cell_length_b   7.11240683
_cell_length_c   7.16725779
_cell_angle_alpha   108.79203611
_cell_angle_beta   111.14087688
_cell_angle_gamma   108.79203647
_symmetry_Int_Tables_number   1
_chemical_formula_structural   Tm4Zn4SiRh8
_chemical_formula_sum   'Tm4 Zn4 Si1 Rh8'
_cell_volume   280.05132340
_cell_formula_units_Z   1
loop_
 _symmetry_equiv_pos_site_id
 _symmetry_equiv_pos_as_xyz
  1  'x, y, z'
loop_
 _atom_site_type_symbol
 _atom_site_label
 _atom_site_symmetry_multiplicity
 _atom_site_fract_x
 _atom_site_fract_y
 _atom_site_fract_z
 _atom_site_occupancy
  Tm  Tm0  1  0.990822  0.981644  0.490822  1
  Tm  Tm1  1  0.033202  0.521057  0.033202  1
  Tm  Tm2  1  0.490822  0.981644  0.990822  1
  Tm  Tm3  1  0.487855  0.521057  0.487855  1
  Zn  Zn4  1  0.747489  0.250845  0.503356  1
  Zn  Zn5  1  0.745390  0.490781  0.245390  1
  Zn  Zn6  1  0.503356  0.250845  0.747489  1
  Zn  Zn7  1  0.245390  0.490781  0.745390  1
  Si  Si8  1  0.997847  0.995694  0.997847  1
  Rh  Rh9  1  0.248709  0.760055  0.511347  1
  Rh  Rh10  1  0.511347  0.760055  0.248709  1
  Rh  Rh11  1  0.716686  0.699601  0.982915  1
  Rh  Rh12  1  0.296944  0.030673  0.296944  1
  Rh  Rh13  1  0.986324  0.267497  0.281173  1
  Rh  Rh14  1  0.281173  0.267497  0.986324  1
  Rh  Rh15  1  0.733730  0.030673  0.733730  1
  Rh  Rh16  1  0.982915  0.699601  0.716686  1
