# generated using pymatgen
data_Hf6Al16Ir4Pd2Pt
_symmetry_space_group_name_H-M   'P 1'
_cell_length_a   8.73074767
_cell_length_b   8.72212519
_cell_length_c   8.73074874
_cell_angle_alpha   60.03267522
_cell_angle_beta   59.92280834
_cell_angle_gamma   60.03267994
_symmetry_Int_Tables_number   1
_chemical_formula_structural   Hf6Al16Ir4Pd2Pt
_chemical_formula_sum   'Hf6 Al16 Ir4 Pd2 Pt1'
_cell_volume   470.07843584
_cell_formula_units_Z   1
loop_
 _symmetry_equiv_pos_site_id
 _symmetry_equiv_pos_as_xyz
  1  'x, y, z'
loop_
 _atom_site_type_symbol
 _atom_site_label
 _atom_site_symmetry_multiplicity
 _atom_site_fract_x
 _atom_site_fract_y
 _atom_site_fract_z
 _atom_site_occupancy
  Hf  Hf0  1  0.683464  0.315948  0.316536  1
  Hf  Hf1  1  0.316536  0.684052  0.683464  1
  Hf  Hf2  1  0.320766  0.679234  0.320766  1
  Hf  Hf3  1  0.679234  0.320766  0.679234  1
  Hf  Hf4  1  0.316536  0.315948  0.683464  1
  Hf  Hf5  1  0.683464  0.684052  0.316536  1
  Al  Al6  1  0.337980  0.339801  0.337980  1
  Al  Al7  1  0.662020  0.660199  0.662020  1
  Al  Al8  1  0.339002  0.338330  0.984338  1
  Al  Al9  1  0.337980  0.984240  0.337980  1
  Al  Al10  1  0.660998  0.661670  0.015662  1
  Al  Al11  1  0.662020  0.015760  0.662020  1
  Al  Al12  1  0.984338  0.338330  0.339002  1
  Al  Al13  1  0.015662  0.661670  0.660998  1
  Al  Al14  1  0.123924  0.114586  0.123924  1
  Al  Al15  1  0.876076  0.885414  0.876076  1
  Al  Al16  1  0.115126  0.123913  0.637049  1
  Al  Al17  1  0.123924  0.637567  0.123924  1
  Al  Al18  1  0.884874  0.876087  0.362951  1
  Al  Al19  1  0.876076  0.362433  0.876076  1
  Al  Al20  1  0.637049  0.123913  0.115126  1
  Al  Al21  1  0.362951  0.876087  0.884874  1
  Ir  Ir22  1  0.500000  0.000000  0.000000  1
  Ir  Ir23  1  0.000000  0.500000  0.500000  1
  Ir  Ir24  1  0.000000  0.000000  0.500000  1
  Ir  Ir25  1  0.500000  0.500000  0.000000  1
  Pd  Pd26  1  0.000000  0.500000  0.000000  1
  Pd  Pd27  1  0.000000  0.000000  0.000000  1
  Pt  Pt28  1  0.500000  0.000000  0.500000  1
