# generated using pymatgen
data_Na8Sr4SiGeAs8
_symmetry_space_group_name_H-M   'P 1'
_cell_length_a   9.64653094
_cell_length_b   9.64398465
_cell_length_c   7.48997976
_cell_angle_alpha   89.44201539
_cell_angle_beta   89.58107107
_cell_angle_gamma   119.83330726
_symmetry_Int_Tables_number   1
_chemical_formula_structural   Na8Sr4SiGeAs8
_chemical_formula_sum   'Na8 Sr4 Si1 Ge1 As8'
_cell_volume   604.36978112
_cell_formula_units_Z   1
loop_
 _symmetry_equiv_pos_site_id
 _symmetry_equiv_pos_as_xyz
  1  'x, y, z'
loop_
 _atom_site_type_symbol
 _atom_site_label
 _atom_site_symmetry_multiplicity
 _atom_site_fract_x
 _atom_site_fract_y
 _atom_site_fract_z
 _atom_site_occupancy
  Na  Na0  1  0.055909  0.527106  0.617419  1
  Na  Na1  1  0.525439  0.052503  0.117135  1
  Na  Na2  1  0.282567  0.137789  0.816758  1
  Na  Na3  1  0.863699  0.708029  0.784999  1
  Na  Na4  1  0.858978  0.153812  0.796137  1
  Na  Na5  1  0.706360  0.862371  0.283131  1
  Na  Na6  1  0.138976  0.284143  0.314802  1
  Na  Na7  1  0.154428  0.858073  0.294213  1
  Sr  Sr8  1  0.472226  0.950883  0.619502  1
  Sr  Sr9  1  0.469927  0.520313  0.621228  1
  Sr  Sr10  1  0.953001  0.473566  0.121063  1
  Sr  Sr11  1  0.519296  0.471334  0.122757  1
  Si  Si12  1  0.336980  0.671346  0.003174  1
  Ge  Ge13  1  0.672628  0.337776  0.502574  1
  As  As14  1  0.661384  0.334579  0.838386  1
  As  As15  1  0.335255  0.662014  0.329022  1
  As  As16  1  0.611793  0.803240  0.896558  1
  As  As17  1  0.194340  0.390255  0.911744  1
  As  As18  1  0.192926  0.800748  0.904601  1
  As  As19  1  0.380908  0.190092  0.410652  1
  As  As20  1  0.808031  0.622210  0.393288  1
  As  As21  1  0.804870  0.187737  0.402834  1
