# generated using pymatgen
data_Dy6Er13MgIr12
_symmetry_space_group_name_H-M   'P 1'
_cell_length_a   10.80426007
_cell_length_b   10.80170305
_cell_length_c   6.29261101
_cell_angle_alpha   90.00196433
_cell_angle_beta   89.99308780
_cell_angle_gamma   89.98891532
_symmetry_Int_Tables_number   1
_chemical_formula_structural   Dy6Er13MgIr12
_chemical_formula_sum   'Dy6 Er13 Mg1 Ir12'
_cell_volume   734.37542960
_cell_formula_units_Z   1
loop_
 _symmetry_equiv_pos_site_id
 _symmetry_equiv_pos_as_xyz
  1  'x, y, z'
loop_
 _atom_site_type_symbol
 _atom_site_label
 _atom_site_symmetry_multiplicity
 _atom_site_fract_x
 _atom_site_fract_y
 _atom_site_fract_z
 _atom_site_occupancy
  Dy  Dy0  1  0.284421  0.085157  0.378153  1
  Dy  Dy1  1  0.289862  0.911748  0.878673  1
  Dy  Dy2  1  0.710086  0.088379  0.878617  1
  Dy  Dy3  1  0.715553  0.914673  0.378136  1
  Dy  Dy4  1  0.588764  0.791068  0.878585  1
  Dy  Dy5  1  0.588017  0.208796  0.377009  1
  Er  Er6  1  0.411876  0.791843  0.377424  1
  Er  Er7  1  0.411108  0.208313  0.878962  1
  Er  Er8  1  0.207818  0.412138  0.622759  1
  Er  Er9  1  0.207955  0.588570  0.121226  1
  Er  Er10  1  0.792193  0.411564  0.120933  1
  Er  Er11  1  0.792327  0.587717  0.622444  1
  Er  Er12  1  0.912270  0.709130  0.120794  1
  Er  Er13  1  0.915352  0.285443  0.621270  1
  Er  Er14  1  0.084724  0.714571  0.621161  1
  Er  Er15  1  0.087838  0.290874  0.120707  1
  Er  Er16  1  0.000040  0.000029  0.000261  1
  Er  Er17  1  0.499863  0.499785  0.000127  1
  Er  Er18  1  0.499848  0.500196  0.500175  1
  Mg  Mg19  1  0.000025  0.000007  0.500243  1
  Ir  Ir20  1  0.847050  0.154580  0.248512  1
  Ir  Ir21  1  0.846701  0.845703  0.752228  1
  Ir  Ir22  1  0.153773  0.154377  0.752479  1
  Ir  Ir23  1  0.153407  0.845308  0.248788  1
  Ir  Ir24  1  0.654416  0.346815  0.749073  1
  Ir  Ir25  1  0.653875  0.653734  0.252090  1
  Ir  Ir26  1  0.345953  0.346195  0.251103  1
  Ir  Ir27  1  0.345424  0.653282  0.748011  1
  Ir  Ir28  1  0.499728  0.000056  0.123650  1
  Ir  Ir29  1  0.499732  0.999947  0.620568  1
  Ir  Ir30  1  0.999999  0.500013  0.876396  1
  Ir  Ir31  1  0.000002  0.499988  0.379442  1
