# generated using pymatgen
data_V4GaBr11
_symmetry_space_group_name_H-M   'P 1'
_cell_length_a   7.58614200
_cell_length_b   7.03878600
_cell_length_c   18.33789500
_cell_angle_alpha   90.00000000
_cell_angle_beta   90.00000000
_cell_angle_gamma   90.00000000
_symmetry_Int_Tables_number   1
_chemical_formula_structural   V4GaBr11
_chemical_formula_sum   'V8 Ga2 Br22'
_cell_volume   979.19279893
_cell_formula_units_Z   2
loop_
 _symmetry_equiv_pos_site_id
 _symmetry_equiv_pos_as_xyz
  1  'x, y, z'
loop_
 _atom_site_type_symbol
 _atom_site_label
 _atom_site_symmetry_multiplicity
 _atom_site_fract_x
 _atom_site_fract_y
 _atom_site_fract_z
 _atom_site_occupancy
  V  V0  1  0.000000  0.845114  0.332439  1
  V  V1  1  0.740463  0.000000  0.000000  1
  V  V2  1  0.259537  0.000000  0.000000  1
  V  V3  1  0.000000  0.845114  0.167561  1
  V  V4  1  0.000000  0.154886  0.667561  1
  V  V5  1  0.259537  0.000000  0.500000  1
  V  V6  1  0.740463  0.000000  0.500000  1
  V  V7  1  0.000000  0.154886  0.832439  1
  Ga  Ga8  1  0.500000  0.308783  0.750000  1
  Ga  Ga9  1  0.500000  0.691217  0.250000  1
  Br  Br10  1  0.500000  0.162997  0.074428  1
  Br  Br11  1  0.243275  0.708355  0.086608  1
  Br  Br12  1  0.764599  0.003695  0.250000  1
  Br  Br13  1  0.000000  0.857185  0.919640  1
  Br  Br14  1  0.000000  0.142815  0.080360  1
  Br  Br15  1  0.500000  0.837003  0.925572  1
  Br  Br16  1  0.764599  0.996305  0.750000  1
  Br  Br17  1  0.000000  0.857185  0.580360  1
  Br  Br18  1  0.756725  0.708355  0.086608  1
  Br  Br19  1  0.000000  0.553036  0.250000  1
  Br  Br20  1  0.000000  0.142815  0.419640  1
  Br  Br21  1  0.000000  0.446964  0.750000  1
  Br  Br22  1  0.235401  0.996305  0.750000  1
  Br  Br23  1  0.756725  0.708355  0.413392  1
  Br  Br24  1  0.756725  0.291645  0.586608  1
  Br  Br25  1  0.243275  0.291645  0.913392  1
  Br  Br26  1  0.756725  0.291645  0.913392  1
  Br  Br27  1  0.243275  0.708355  0.413392  1
  Br  Br28  1  0.500000  0.162997  0.425572  1
  Br  Br29  1  0.243275  0.291645  0.586608  1
  Br  Br30  1  0.235401  0.003695  0.250000  1
  Br  Br31  1  0.500000  0.837003  0.574428  1
