# generated using pymatgen
data_GdNb6PbSe12
_symmetry_space_group_name_H-M   'P 1'
_cell_length_a   6.13394700
_cell_length_b   6.13394681
_cell_length_c   15.31799700
_cell_angle_alpha   90.00000000
_cell_angle_beta   90.00000000
_cell_angle_gamma   119.99999562
_symmetry_Int_Tables_number   1
_chemical_formula_structural   GdNb6PbSe12
_chemical_formula_sum   'Gd1 Nb6 Pb1 Se12'
_cell_volume   499.12883043
_cell_formula_units_Z   1
loop_
 _symmetry_equiv_pos_site_id
 _symmetry_equiv_pos_as_xyz
  1  'x, y, z'
loop_
 _atom_site_type_symbol
 _atom_site_label
 _atom_site_symmetry_multiplicity
 _atom_site_fract_x
 _atom_site_fract_y
 _atom_site_fract_z
 _atom_site_occupancy
  Gd  Gd0  1  0.000000  0.000000  0.000000  1
  Nb  Nb1  1  0.000000  0.000000  0.757460  1
  Nb  Nb2  1  0.000000  0.000000  0.242540  1
  Nb  Nb3  1  0.333333  0.666667  0.242959  1
  Nb  Nb4  1  0.666667  0.333333  0.757041  1
  Nb  Nb5  1  0.666667  0.333333  0.242959  1
  Nb  Nb6  1  0.333333  0.666667  0.757041  1
  Pb  Pb7  1  0.000000  0.000000  0.500000  1
  Se  Se8  1  0.336865  0.000000  0.133815  1
  Se  Se9  1  0.000000  0.336865  0.133815  1
  Se  Se10  1  0.663135  0.663135  0.133815  1
  Se  Se11  1  0.337054  0.337054  0.648682  1
  Se  Se12  1  0.662946  0.662946  0.351318  1
  Se  Se13  1  0.662946  0.000000  0.648682  1
  Se  Se14  1  0.000000  0.662946  0.648682  1
  Se  Se15  1  0.000000  0.663135  0.866185  1
  Se  Se16  1  0.336865  0.336865  0.866185  1
  Se  Se17  1  0.000000  0.337054  0.351318  1
  Se  Se18  1  0.337054  0.000000  0.351318  1
  Se  Se19  1  0.663135  0.000000  0.866185  1
