# generated using pymatgen
data_Hf3Zr5(NbSi4)2
_symmetry_space_group_name_H-M   'P 1'
_cell_length_a   7.05161300
_cell_length_b   7.05057000
_cell_length_c   12.89797900
_cell_angle_alpha   90.00000000
_cell_angle_beta   90.00000000
_cell_angle_gamma   89.99582334
_symmetry_Int_Tables_number   1
_chemical_formula_structural   Hf3Zr5(NbSi4)2
_chemical_formula_sum   'Hf6 Zr10 Nb4 Si16'
_cell_volume   641.26031409
_cell_formula_units_Z   2
loop_
 _symmetry_equiv_pos_site_id
 _symmetry_equiv_pos_as_xyz
  1  'x, y, z'
loop_
 _atom_site_type_symbol
 _atom_site_label
 _atom_site_symmetry_multiplicity
 _atom_site_fract_x
 _atom_site_fract_y
 _atom_site_fract_z
 _atom_site_occupancy
  Hf  Hf0  1  0.854725  0.003417  0.876179  1
  Hf  Hf1  1  0.145275  0.996583  0.376179  1
  Hf  Hf2  1  0.645881  0.503891  0.373873  1
  Hf  Hf3  1  0.354119  0.496109  0.873873  1
  Hf  Hf4  1  0.003796  0.854561  0.123843  1
  Hf  Hf5  1  0.996204  0.145439  0.623843  1
  Zr  Zr6  1  0.498026  0.152242  0.532215  1
  Zr  Zr7  1  0.501974  0.847758  0.032215  1
  Zr  Zr8  1  0.653466  0.001780  0.282377  1
  Zr  Zr9  1  0.346534  0.998220  0.782377  1
  Zr  Zr10  1  0.847213  0.502017  0.967731  1
  Zr  Zr11  1  0.152787  0.497983  0.467731  1
  Zr  Zr12  1  0.001550  0.653206  0.717729  1
  Zr  Zr13  1  0.998450  0.346794  0.217729  1
  Zr  Zr14  1  0.496672  0.354434  0.126120  1
  Zr  Zr15  1  0.503328  0.645566  0.626120  1
  Nb  Nb16  1  0.675711  0.324378  0.750133  1
  Nb  Nb17  1  0.324289  0.675622  0.250133  1
  Nb  Nb18  1  0.825045  0.825222  0.499783  1
  Nb  Nb19  1  0.174955  0.174778  0.999783  1
  Si  Si20  1  0.797607  0.145407  0.071579  1
  Si  Si21  1  0.202393  0.854593  0.571579  1
  Si  Si22  1  0.645826  0.703506  0.822612  1
  Si  Si23  1  0.354174  0.296494  0.322612  1
  Si  Si24  1  0.854192  0.203495  0.428044  1
  Si  Si25  1  0.145808  0.796505  0.928044  1
  Si  Si26  1  0.703964  0.646823  0.178371  1
  Si  Si27  1  0.296036  0.353177  0.678371  1
  Si  Si28  1  0.548827  0.198911  0.935020  1
  Si  Si29  1  0.451173  0.801089  0.435020  1
  Si  Si30  1  0.699594  0.952193  0.685907  1
  Si  Si31  1  0.300406  0.047807  0.185907  1
  Si  Si32  1  0.801459  0.450893  0.564165  1
  Si  Si33  1  0.198541  0.549107  0.064165  1
  Si  Si34  1  0.951282  0.699362  0.314318  1
  Si  Si35  1  0.048718  0.300638  0.814318  1
