# generated using pymatgen
data_Ho3Fe2Co3(P3Ir2)2
_symmetry_space_group_name_H-M   'P 1'
_cell_length_a   3.79260900
_cell_length_b   10.82985200
_cell_length_c   12.46465500
_cell_angle_alpha   90.00000000
_cell_angle_beta   90.00000000
_cell_angle_gamma   90.00000000
_symmetry_Int_Tables_number   1
_chemical_formula_structural   Ho3Fe2Co3(P3Ir2)2
_chemical_formula_sum   'Ho6 Fe4 Co6 P12 Ir8'
_cell_volume   511.96568793
_cell_formula_units_Z   2
loop_
 _symmetry_equiv_pos_site_id
 _symmetry_equiv_pos_as_xyz
  1  'x, y, z'
loop_
 _atom_site_type_symbol
 _atom_site_label
 _atom_site_symmetry_multiplicity
 _atom_site_fract_x
 _atom_site_fract_y
 _atom_site_fract_z
 _atom_site_occupancy
  Ho  Ho0  1  0.000000  0.500000  0.522450  1
  Ho  Ho1  1  0.500000  0.000000  0.478512  1
  Ho  Ho2  1  0.500000  0.817502  0.196440  1
  Ho  Ho3  1  0.500000  0.182498  0.196440  1
  Ho  Ho4  1  0.000000  0.683422  0.803629  1
  Ho  Ho5  1  0.000000  0.316578  0.803629  1
  Fe  Fe6  1  0.000000  0.500000  0.993578  1
  Fe  Fe7  1  0.500000  0.000000  0.006818  1
  Fe  Fe8  1  0.500000  0.880114  0.716897  1
  Fe  Fe9  1  0.500000  0.119886  0.716897  1
  Co  Co10  1  0.000000  0.620806  0.282773  1
  Co  Co11  1  0.000000  0.379194  0.282773  1
  Co  Co12  1  0.500000  0.332027  0.995475  1
  Co  Co13  1  0.500000  0.667973  0.995475  1
  Co  Co14  1  0.000000  0.168204  0.004379  1
  Co  Co15  1  0.000000  0.831796  0.004379  1
  P  P16  1  0.500000  0.306577  0.627934  1
  P  P17  1  0.500000  0.693423  0.627934  1
  P  P18  1  0.000000  0.189930  0.375295  1
  P  P19  1  0.000000  0.810070  0.375295  1
  P  P20  1  0.500000  0.500000  0.894298  1
  P  P21  1  0.000000  0.000000  0.105111  1
  P  P22  1  0.500000  0.844154  0.895456  1
  P  P23  1  0.500000  0.155846  0.895456  1
  P  P24  1  0.000000  0.657480  0.102312  1
  P  P25  1  0.000000  0.342520  0.102312  1
  P  P26  1  0.500000  0.500000  0.345223  1
  P  P27  1  0.000000  0.000000  0.657743  1
  Ir  Ir28  1  0.500000  0.298901  0.424363  1
  Ir  Ir29  1  0.500000  0.701099  0.424363  1
  Ir  Ir30  1  0.000000  0.200939  0.572777  1
  Ir  Ir31  1  0.000000  0.799061  0.572777  1
  Ir  Ir32  1  0.500000  0.500000  0.158719  1
  Ir  Ir33  1  0.000000  0.000000  0.842850  1
  Ir  Ir34  1  0.500000  0.500000  0.706949  1
  Ir  Ir35  1  0.000000  0.000000  0.292291  1
