# generated using pymatgen
data_Er3MnZnCo9B4
_symmetry_space_group_name_H-M   'P 1'
_cell_length_a   5.07072400
_cell_length_b   5.07072417
_cell_length_c   9.67664500
_cell_angle_alpha   90.00000000
_cell_angle_beta   90.00000000
_cell_angle_gamma   119.99999887
_symmetry_Int_Tables_number   1
_chemical_formula_structural   Er3MnZnCo9B4
_chemical_formula_sum   'Er3 Mn1 Zn1 Co9 B4'
_cell_volume   215.47426363
_cell_formula_units_Z   1
loop_
 _symmetry_equiv_pos_site_id
 _symmetry_equiv_pos_as_xyz
  1  'x, y, z'
loop_
 _atom_site_type_symbol
 _atom_site_label
 _atom_site_symmetry_multiplicity
 _atom_site_fract_x
 _atom_site_fract_y
 _atom_site_fract_z
 _atom_site_occupancy
  Er  Er0  1  0.000000  0.000000  0.000000  1
  Er  Er1  1  0.000000  0.000000  0.658111  1
  Er  Er2  1  0.000000  0.000000  0.341889  1
  Mn  Mn3  1  0.666667  0.333333  0.000000  1
  Zn  Zn4  1  0.333333  0.666667  0.000000  1
  Co  Co5  1  0.500119  0.499881  0.500000  1
  Co  Co6  1  0.500119  0.000238  0.500000  1
  Co  Co7  1  0.999762  0.499881  0.500000  1
  Co  Co8  1  0.500901  0.499099  0.791063  1
  Co  Co9  1  0.500901  0.001801  0.791063  1
  Co  Co10  1  0.998199  0.499099  0.791063  1
  Co  Co11  1  0.500901  0.499099  0.208937  1
  Co  Co12  1  0.500901  0.001801  0.208937  1
  Co  Co13  1  0.998199  0.499099  0.208937  1
  B  B14  1  0.666667  0.333333  0.649367  1
  B  B15  1  0.333333  0.666667  0.648955  1
  B  B16  1  0.333333  0.666667  0.351045  1
  B  B17  1  0.666667  0.333333  0.350633  1
