# generated using pymatgen
data_Y2ScAlIr2
_symmetry_space_group_name_H-M   'P 1'
_cell_length_a   6.99660600
_cell_length_b   4.28251400
_cell_length_c   8.31641600
_cell_angle_alpha   90.00000000
_cell_angle_beta   90.00000000
_cell_angle_gamma   90.00000000
_symmetry_Int_Tables_number   1
_chemical_formula_structural   Y2ScAlIr2
_chemical_formula_sum   'Y4 Sc2 Al2 Ir4'
_cell_volume   249.18529777
_cell_formula_units_Z   2
loop_
 _symmetry_equiv_pos_site_id
 _symmetry_equiv_pos_as_xyz
  1  'x, y, z'
loop_
 _atom_site_type_symbol
 _atom_site_label
 _atom_site_symmetry_multiplicity
 _atom_site_fract_x
 _atom_site_fract_y
 _atom_site_fract_z
 _atom_site_occupancy
  Y  Y0  1  0.964645  0.250000  0.176684  1
  Y  Y1  1  0.464645  0.250000  0.323316  1
  Y  Y2  1  0.026336  0.750000  0.827314  1
  Y  Y3  1  0.526336  0.750000  0.672686  1
  Sc  Sc4  1  0.868128  0.250000  0.560111  1
  Sc  Sc5  1  0.368128  0.250000  0.939889  1
  Al  Al6  1  0.138813  0.750000  0.439717  1
  Al  Al7  1  0.638813  0.750000  0.060283  1
  Ir  Ir8  1  0.737946  0.250000  0.886649  1
  Ir  Ir9  1  0.237946  0.250000  0.613351  1
  Ir  Ir10  1  0.264132  0.750000  0.123824  1
  Ir  Ir11  1  0.764132  0.750000  0.376176  1
