# generated using pymatgen
data_La16NiHg4Os3
_symmetry_space_group_name_H-M   'P 1'
_cell_length_a   10.00360790
_cell_length_b   10.10738471
_cell_length_c   10.10751300
_cell_angle_alpha   59.99930474
_cell_angle_beta   59.65542127
_cell_angle_gamma   59.65592018
_symmetry_Int_Tables_number   1
_chemical_formula_structural   La16NiHg4Os3
_chemical_formula_sum   'La16 Ni1 Hg4 Os3'
_cell_volume   718.85697789
_cell_formula_units_Z   1
loop_
 _symmetry_equiv_pos_site_id
 _symmetry_equiv_pos_as_xyz
  1  'x, y, z'
loop_
 _atom_site_type_symbol
 _atom_site_label
 _atom_site_symmetry_multiplicity
 _atom_site_fract_x
 _atom_site_fract_y
 _atom_site_fract_z
 _atom_site_occupancy
  La  La0  1  0.599629  0.596679  0.596692  1
  La  La1  1  0.599626  0.596675  0.207001  1
  La  La2  1  0.599626  0.206997  0.596685  1
  La  La3  1  0.209993  0.596662  0.596664  1
  La  La4  1  0.060907  0.440537  0.440534  1
  La  La5  1  0.436929  0.062096  0.062082  1
  La  La6  1  0.436929  0.062110  0.438885  1
  La  La7  1  0.060887  0.440538  0.058035  1
  La  La8  1  0.436927  0.438891  0.062100  1
  La  La9  1  0.060887  0.058043  0.440534  1
  La  La10  1  0.192208  0.807478  0.807491  1
  La  La11  1  0.802994  0.191291  0.191286  1
  La  La12  1  0.802996  0.191283  0.814438  1
  La  La13  1  0.192209  0.807472  0.192834  1
  La  La14  1  0.803006  0.814436  0.191283  1
  La  La15  1  0.192212  0.192836  0.807471  1
  Ni  Ni16  1  0.830780  0.389743  0.389737  1
  Hg  Hg17  1  0.833388  0.834237  0.834237  1
  Hg  Hg18  1  0.833388  0.834235  0.498140  1
  Hg  Hg19  1  0.833388  0.498139  0.834236  1
  Hg  Hg20  1  0.500082  0.833307  0.833306  1
  Os  Os21  1  0.393670  0.387186  0.387189  1
  Os  Os22  1  0.393671  0.387191  0.831947  1
  Os  Os23  1  0.393672  0.831941  0.387194  1
