# generated using pymatgen
data_Yb2Pr3ThSi4
_symmetry_space_group_name_H-M   'P 1'
_cell_length_a   7.71272347
_cell_length_b   7.71272347
_cell_length_c   4.38428400
_cell_angle_alpha   90.00000000
_cell_angle_beta   90.00000000
_cell_angle_gamma   90.33759193
_symmetry_Int_Tables_number   1
_chemical_formula_structural   Yb2Pr3ThSi4
_chemical_formula_sum   'Yb2 Pr3 Th1 Si4'
_cell_volume   260.79944391
_cell_formula_units_Z   1
loop_
 _symmetry_equiv_pos_site_id
 _symmetry_equiv_pos_as_xyz
  1  'x, y, z'
loop_
 _atom_site_type_symbol
 _atom_site_label
 _atom_site_symmetry_multiplicity
 _atom_site_fract_x
 _atom_site_fract_y
 _atom_site_fract_z
 _atom_site_occupancy
  Yb  Yb0  1  0.497196  0.502917  0.000000  1
  Yb  Yb1  1  0.002917  0.997196  0.000000  1
  Pr  Pr2  1  0.320514  0.820514  0.500000  1
  Pr  Pr3  1  0.176888  0.320999  0.500000  1
  Pr  Pr4  1  0.820999  0.676888  0.500000  1
  Th  Th5  1  0.679768  0.179768  0.500000  1
  Si  Si6  1  0.109395  0.609395  0.000000  1
  Si  Si7  1  0.884283  0.384283  0.000000  1
  Si  Si8  1  0.613443  0.894598  0.000000  1
  Si  Si9  1  0.394598  0.113443  0.000000  1
