# generated using pymatgen
data_DyY3Ga12Au
_symmetry_space_group_name_H-M   'P 1'
_cell_length_a   7.54638201
_cell_length_b   7.54638022
_cell_length_c   7.54638141
_cell_angle_alpha   109.48981141
_cell_angle_beta   109.48980889
_cell_angle_gamma   109.48981218
_symmetry_Int_Tables_number   1
_chemical_formula_structural   DyY3Ga12Au
_chemical_formula_sum   'Dy1 Y3 Ga12 Au1'
_cell_volume   330.59406428
_cell_formula_units_Z   1
loop_
 _symmetry_equiv_pos_site_id
 _symmetry_equiv_pos_as_xyz
  1  'x, y, z'
loop_
 _atom_site_type_symbol
 _atom_site_label
 _atom_site_symmetry_multiplicity
 _atom_site_fract_x
 _atom_site_fract_y
 _atom_site_fract_z
 _atom_site_occupancy
  Dy  Dy0  1  0.500000  0.500000  0.500000  1
  Y  Y1  1  0.000000  0.000000  0.500000  1
  Y  Y2  1  0.000000  0.500000  0.000000  1
  Y  Y3  1  0.500000  0.000000  0.000000  1
  Ga  Ga4  1  0.749907  0.250093  0.500000  1
  Ga  Ga5  1  0.749907  0.500000  0.250093  1
  Ga  Ga6  1  0.500000  0.250093  0.749907  1
  Ga  Ga7  1  0.250093  0.500000  0.749907  1
  Ga  Ga8  1  0.250093  0.749907  0.500000  1
  Ga  Ga9  1  0.500000  0.749907  0.250093  1
  Ga  Ga10  1  0.694910  0.694910  0.998884  1
  Ga  Ga11  1  0.305090  0.001116  0.305090  1
  Ga  Ga12  1  0.001116  0.305090  0.305090  1
  Ga  Ga13  1  0.305090  0.305090  0.001116  1
  Ga  Ga14  1  0.694910  0.998884  0.694910  1
  Ga  Ga15  1  0.998884  0.694910  0.694910  1
  Au  Au16  1  0.000000  0.000000  0.000000  1
