# generated using pymatgen
data_Tb15HoIn4PdRh3
_symmetry_space_group_name_H-M   'P 1'
_cell_length_a   9.72969909
_cell_length_b   9.72029753
_cell_length_c   9.72969951
_cell_angle_alpha   60.04022503
_cell_angle_beta   60.10269950
_cell_angle_gamma   60.04022807
_symmetry_Int_Tables_number   1
_chemical_formula_structural   Tb15HoIn4PdRh3
_chemical_formula_sum   'Tb15 Ho1 In4 Pd1 Rh3'
_cell_volume   651.57370069
_cell_formula_units_Z   1
loop_
 _symmetry_equiv_pos_site_id
 _symmetry_equiv_pos_as_xyz
  1  'x, y, z'
loop_
 _atom_site_type_symbol
 _atom_site_label
 _atom_site_symmetry_multiplicity
 _atom_site_fract_x
 _atom_site_fract_y
 _atom_site_fract_z
 _atom_site_occupancy
  Tb  Tb0  1  0.188367  0.186888  0.812429  1
  Tb  Tb1  1  0.604049  0.596681  0.196705  1
  Tb  Tb2  1  0.440193  0.064173  0.440193  1
  Tb  Tb3  1  0.439960  0.439902  0.059605  1
  Tb  Tb4  1  0.812801  0.186912  0.812801  1
  Tb  Tb5  1  0.188600  0.809586  0.188600  1
  Tb  Tb6  1  0.439896  0.064699  0.055071  1
  Tb  Tb7  1  0.188652  0.809785  0.813849  1
  Tb  Tb8  1  0.060296  0.439617  0.060296  1
  Tb  Tb9  1  0.813849  0.809785  0.188652  1
  Tb  Tb10  1  0.196705  0.596681  0.604049  1
  Tb  Tb11  1  0.059605  0.439902  0.439960  1
  Tb  Tb12  1  0.055071  0.064699  0.439896  1
  Tb  Tb13  1  0.812429  0.186888  0.188367  1
  Tb  Tb14  1  0.599024  0.204421  0.599024  1
  Ho  Ho15  1  0.602459  0.595407  0.602459  1
  In  In16  1  0.832399  0.833173  0.832399  1
  In  In17  1  0.831876  0.832806  0.502440  1
  In  In18  1  0.502440  0.832806  0.831876  1
  In  In19  1  0.832454  0.501785  0.832454  1
  Pd  Pd20  1  0.393427  0.819917  0.393427  1
  Rh  Rh21  1  0.391839  0.394345  0.391839  1
  Rh  Rh22  1  0.821647  0.394575  0.391959  1
  Rh  Rh23  1  0.391959  0.394575  0.821647  1
