# generated using pymatgen
data_Yb4MgIn3Au4
_symmetry_space_group_name_H-M   'P 1'
_cell_length_a   4.35754800
_cell_length_b   7.51799380
_cell_length_c   8.79750073
_cell_angle_alpha   89.71195644
_cell_angle_beta   90.00000000
_cell_angle_gamma   90.00000000
_symmetry_Int_Tables_number   1
_chemical_formula_structural   Yb4MgIn3Au4
_chemical_formula_sum   'Yb4 Mg1 In3 Au4'
_cell_volume   288.20264789
_cell_formula_units_Z   1
loop_
 _symmetry_equiv_pos_site_id
 _symmetry_equiv_pos_as_xyz
  1  'x, y, z'
loop_
 _atom_site_type_symbol
 _atom_site_label
 _atom_site_symmetry_multiplicity
 _atom_site_fract_x
 _atom_site_fract_y
 _atom_site_fract_z
 _atom_site_occupancy
  Yb  Yb0  1  0.750000  0.959920  0.678643  1
  Yb  Yb1  1  0.250000  0.537529  0.177732  1
  Yb  Yb2  1  0.750000  0.463170  0.821080  1
  Yb  Yb3  1  0.250000  0.035865  0.320477  1
  Mg  Mg4  1  0.750000  0.362214  0.442402  1
  In  In5  1  0.250000  0.146576  0.939785  1
  In  In6  1  0.250000  0.640465  0.557122  1
  In  In7  1  0.750000  0.854751  0.060347  1
  Au  Au8  1  0.250000  0.255346  0.623758  1
  Au  Au9  1  0.250000  0.752656  0.866804  1
  Au  Au10  1  0.750000  0.249526  0.142707  1
  Au  Au11  1  0.750000  0.741981  0.369142  1
