# generated using pymatgen
data_SmEr2Hf(Co4P3)2
_symmetry_space_group_name_H-M   'P 1'
_cell_length_a   3.72163200
_cell_length_b   10.68833800
_cell_length_c   12.39588000
_cell_angle_alpha   90.00000000
_cell_angle_beta   90.00000000
_cell_angle_gamma   90.00000000
_symmetry_Int_Tables_number   1
_chemical_formula_structural   SmEr2Hf(Co4P3)2
_chemical_formula_sum   'Sm2 Er4 Hf2 Co16 P12'
_cell_volume   493.08406741
_cell_formula_units_Z   2
loop_
 _symmetry_equiv_pos_site_id
 _symmetry_equiv_pos_as_xyz
  1  'x, y, z'
loop_
 _atom_site_type_symbol
 _atom_site_label
 _atom_site_symmetry_multiplicity
 _atom_site_fract_x
 _atom_site_fract_y
 _atom_site_fract_z
 _atom_site_occupancy
  Sm  Sm0  1  0.750000  0.250000  0.470185  1
  Sm  Sm1  1  0.250000  0.750000  0.529815  1
  Er  Er2  1  0.250000  0.928005  0.796400  1
  Er  Er3  1  0.250000  0.571995  0.796400  1
  Er  Er4  1  0.750000  0.071995  0.203600  1
  Er  Er5  1  0.750000  0.428005  0.203600  1
  Hf  Hf6  1  0.250000  0.250000  0.844415  1
  Hf  Hf7  1  0.750000  0.750000  0.155585  1
  Co  Co8  1  0.250000  0.250000  0.293488  1
  Co  Co9  1  0.750000  0.750000  0.706512  1
  Co  Co10  1  0.750000  0.250000  0.013208  1
  Co  Co11  1  0.250000  0.750000  0.986792  1
  Co  Co12  1  0.250000  0.418348  0.006429  1
  Co  Co13  1  0.250000  0.081652  0.006429  1
  Co  Co14  1  0.750000  0.581652  0.993571  1
  Co  Co15  1  0.750000  0.918348  0.993571  1
  Co  Co16  1  0.250000  0.454841  0.567687  1
  Co  Co17  1  0.250000  0.045159  0.567687  1
  Co  Co18  1  0.750000  0.545159  0.432313  1
  Co  Co19  1  0.750000  0.954841  0.432313  1
  Co  Co20  1  0.250000  0.872272  0.295210  1
  Co  Co21  1  0.250000  0.627728  0.295210  1
  Co  Co22  1  0.750000  0.127728  0.704790  1
  Co  Co23  1  0.750000  0.372272  0.704790  1
  P  P24  1  0.250000  0.250000  0.115621  1
  P  P25  1  0.750000  0.750000  0.884379  1
  P  P26  1  0.250000  0.250000  0.640565  1
  P  P27  1  0.750000  0.750000  0.359435  1
  P  P28  1  0.250000  0.441513  0.382710  1
  P  P29  1  0.250000  0.058487  0.382710  1
  P  P30  1  0.750000  0.558487  0.617290  1
  P  P31  1  0.750000  0.941513  0.617290  1
  P  P32  1  0.250000  0.912046  0.107235  1
  P  P33  1  0.250000  0.587954  0.107235  1
  P  P34  1  0.750000  0.087954  0.892765  1
  P  P35  1  0.750000  0.412046  0.892765  1
