# generated using pymatgen
data_Ce(S8I)3
_symmetry_space_group_name_H-M   'P 1'
_cell_length_a   15.83149665
_cell_length_b   15.83149701
_cell_length_c   15.83149522
_cell_angle_alpha   119.12797551
_cell_angle_beta   119.12798122
_cell_angle_gamma   119.12797306
_symmetry_Int_Tables_number   1
_chemical_formula_structural   Ce(S8I)3
_chemical_formula_sum   'Ce1 S24 I3'
_cell_volume   959.91768800
_cell_formula_units_Z   1
loop_
 _symmetry_equiv_pos_site_id
 _symmetry_equiv_pos_as_xyz
  1  'x, y, z'
loop_
 _atom_site_type_symbol
 _atom_site_label
 _atom_site_symmetry_multiplicity
 _atom_site_fract_x
 _atom_site_fract_y
 _atom_site_fract_z
 _atom_site_occupancy
  Ce  Ce0  1  0.546703  0.546703  0.546703  1
  S  S1  1  0.809229  0.525804  0.525804  1
  S  S2  1  0.525804  0.525804  0.809229  1
  S  S3  1  0.525804  0.809229  0.525804  1
  S  S4  1  0.227468  0.351359  0.614635  1
  S  S5  1  0.389943  0.975387  0.389943  1
  S  S6  1  0.389943  0.389943  0.975387  1
  S  S7  1  0.975387  0.389943  0.389943  1
  S  S8  1  0.131391  0.732022  0.254455  1
  S  S9  1  0.254455  0.131391  0.732022  1
  S  S10  1  0.732022  0.254455  0.131391  1
  S  S11  1  0.732022  0.131391  0.254455  1
  S  S12  1  0.254455  0.732022  0.131391  1
  S  S13  1  0.131391  0.254455  0.732022  1
  S  S14  1  0.369055  0.890645  0.543677  1
  S  S15  1  0.543677  0.369055  0.890645  1
  S  S16  1  0.890645  0.543677  0.369055  1
  S  S17  1  0.890645  0.369055  0.543677  1
  S  S18  1  0.543677  0.890645  0.369055  1
  S  S19  1  0.369055  0.543677  0.890645  1
  S  S20  1  0.227468  0.614635  0.351359  1
  S  S21  1  0.351359  0.227468  0.614635  1
  S  S22  1  0.614635  0.351359  0.227468  1
  S  S23  1  0.614635  0.227468  0.351359  1
  S  S24  1  0.351359  0.614635  0.227468  1
  I  I25  1  0.945731  0.093667  0.093667  1
  I  I26  1  0.093667  0.093667  0.945731  1
  I  I27  1  0.093667  0.945731  0.093667  1
