# generated using pymatgen
data_Dy3Y4Co5TcSn23
_symmetry_space_group_name_H-M   'P 1'
_cell_length_a   9.74194212
_cell_length_b   9.74137570
_cell_length_c   10.00186051
_cell_angle_alpha   90.04114093
_cell_angle_beta   89.97026470
_cell_angle_gamma   119.81955064
_symmetry_Int_Tables_number   1
_chemical_formula_structural   Dy3Y4Co5TcSn23
_chemical_formula_sum   'Dy3 Y4 Co5 Tc1 Sn23'
_cell_volume   823.50068494
_cell_formula_units_Z   1
loop_
 _symmetry_equiv_pos_site_id
 _symmetry_equiv_pos_as_xyz
  1  'x, y, z'
loop_
 _atom_site_type_symbol
 _atom_site_label
 _atom_site_symmetry_multiplicity
 _atom_site_fract_x
 _atom_site_fract_y
 _atom_site_fract_z
 _atom_site_occupancy
  Dy  Dy0  1  0.519195  0.040625  0.694429  1
  Dy  Dy1  1  0.040542  0.518560  0.305829  1
  Dy  Dy2  1  0.959383  0.480791  0.694430  1
  Y  Y3  1  0.995842  0.004170  0.004881  1
  Y  Y4  1  0.479743  0.520285  0.307327  1
  Y  Y5  1  0.520862  0.479166  0.693557  1
  Y  Y6  1  0.481193  0.959092  0.305994  1
  Co  Co7  1  0.167563  0.832403  0.801570  1
  Co  Co8  1  0.832345  0.662555  0.196420  1
  Co  Co9  1  0.169700  0.337587  0.801500  1
  Co  Co10  1  0.337368  0.167795  0.196375  1
  Co  Co11  1  0.662411  0.830290  0.801511  1
  Tc  Tc12  1  0.833791  0.166658  0.199559  1
  Sn  Sn13  1  0.343978  0.998968  0.999312  1
  Sn  Sn14  1  0.649875  0.996835  0.995328  1
  Sn  Sn15  1  0.003181  0.350185  0.995393  1
  Sn  Sn16  1  0.001057  0.655976  0.999375  1
  Sn  Sn17  1  0.653282  0.653054  0.999611  1
  Sn  Sn18  1  0.346980  0.346751  0.999638  1
  Sn  Sn19  1  0.333015  0.667064  0.816957  1
  Sn  Sn20  1  0.665537  0.334643  0.183099  1
  Sn  Sn21  1  0.999567  0.000421  0.500772  1
  Sn  Sn22  1  0.779886  0.220343  0.458817  1
  Sn  Sn23  1  0.217398  0.782404  0.548023  1
  Sn  Sn24  1  0.782180  0.564104  0.451545  1
  Sn  Sn25  1  0.218644  0.436506  0.548152  1
  Sn  Sn26  1  0.435899  0.217934  0.451600  1
  Sn  Sn27  1  0.563593  0.781313  0.548314  1
  Sn  Sn28  1  0.332778  0.666942  0.116988  1
  Sn  Sn29  1  0.666960  0.333012  0.881550  1
  Sn  Sn30  1  0.117756  0.882117  0.272150  1
  Sn  Sn31  1  0.882756  0.117134  0.727027  1
  Sn  Sn32  1  0.126415  0.237998  0.273824  1
  Sn  Sn33  1  0.881529  0.764298  0.727697  1
  Sn  Sn34  1  0.762101  0.873612  0.273756  1
  Sn  Sn35  1  0.235695  0.118407  0.727688  1
