# generated using pymatgen
data_Tm17Lu3Sn16
_symmetry_space_group_name_H-M   'P 1'
_cell_length_a   7.93544412
_cell_length_b   8.05831413
_cell_length_c   15.25513400
_cell_angle_alpha   90.00000000
_cell_angle_beta   90.00000000
_cell_angle_gamma   90.02032649
_symmetry_Int_Tables_number   1
_chemical_formula_structural   Tm17Lu3Sn16
_chemical_formula_sum   'Tm17 Lu3 Sn16'
_cell_volume   975.50933670
_cell_formula_units_Z   1
loop_
 _symmetry_equiv_pos_site_id
 _symmetry_equiv_pos_as_xyz
  1  'x, y, z'
loop_
 _atom_site_type_symbol
 _atom_site_label
 _atom_site_symmetry_multiplicity
 _atom_site_fract_x
 _atom_site_fract_y
 _atom_site_fract_z
 _atom_site_occupancy
  Tm  Tm0  1  0.368521  0.836654  0.877456  1
  Tm  Tm1  1  0.868302  0.663498  0.622548  1
  Tm  Tm2  1  0.631563  0.163437  0.377441  1
  Tm  Tm3  1  0.131555  0.336587  0.122602  1
  Tm  Tm4  1  0.631563  0.163437  0.122559  1
  Tm  Tm5  1  0.131555  0.336587  0.377398  1
  Tm  Tm6  1  0.368521  0.836654  0.622544  1
  Tm  Tm7  1  0.868302  0.663498  0.877452  1
  Tm  Tm8  1  0.522639  0.320477  0.903012  1
  Tm  Tm9  1  0.022538  0.179412  0.596990  1
  Tm  Tm10  1  0.477406  0.679456  0.402978  1
  Tm  Tm11  1  0.977428  0.820535  0.096995  1
  Tm  Tm12  1  0.477406  0.679456  0.097022  1
  Tm  Tm13  1  0.977428  0.820535  0.403005  1
  Tm  Tm14  1  0.522639  0.320477  0.596988  1
  Tm  Tm15  1  0.022538  0.179412  0.903010  1
  Tm  Tm16  1  0.198065  0.503622  0.750000  1
  Lu  Lu17  1  0.698192  0.996297  0.750000  1
  Lu  Lu18  1  0.801845  0.496330  0.250000  1
  Lu  Lu19  1  0.301844  0.003677  0.250000  1
  Sn  Sn20  1  0.292016  0.035798  0.041531  1
  Sn  Sn21  1  0.792005  0.464245  0.458464  1
  Sn  Sn22  1  0.707987  0.964205  0.541528  1
  Sn  Sn23  1  0.207975  0.535810  0.958684  1
  Sn  Sn24  1  0.707987  0.964205  0.958472  1
  Sn  Sn25  1  0.207975  0.535810  0.541316  1
  Sn  Sn26  1  0.292016  0.035798  0.458469  1
  Sn  Sn27  1  0.792005  0.464245  0.041536  1
  Sn  Sn28  1  0.564906  0.619285  0.750000  1
  Sn  Sn29  1  0.064341  0.881038  0.750000  1
  Sn  Sn30  1  0.435594  0.380903  0.250000  1
  Sn  Sn31  1  0.935536  0.119093  0.250000  1
  Sn  Sn32  1  0.332059  0.149122  0.750000  1
  Sn  Sn33  1  0.831823  0.350263  0.750000  1
  Sn  Sn34  1  0.668023  0.850367  0.250000  1
  Sn  Sn35  1  0.167898  0.649779  0.250000  1
