# generated using pymatgen
data_HoPa2(ZnPd)3
_symmetry_space_group_name_H-M   'P 1'
_cell_length_a   7.34168641
_cell_length_b   7.44022351
_cell_length_c   3.78733000
_cell_angle_alpha   90.00000000
_cell_angle_beta   90.00000000
_cell_angle_gamma   120.44497603
_symmetry_Int_Tables_number   1
_chemical_formula_structural   HoPa2(ZnPd)3
_chemical_formula_sum   'Ho1 Pa2 Zn3 Pd3'
_cell_volume   178.35313807
_cell_formula_units_Z   1
loop_
 _symmetry_equiv_pos_site_id
 _symmetry_equiv_pos_as_xyz
  1  'x, y, z'
loop_
 _atom_site_type_symbol
 _atom_site_label
 _atom_site_symmetry_multiplicity
 _atom_site_fract_x
 _atom_site_fract_y
 _atom_site_fract_z
 _atom_site_occupancy
  Ho  Ho0  1  0.000000  0.598154  0.000000  1
  Pa  Pa1  1  0.410064  0.406292  0.000000  1
  Pa  Pa2  1  0.589936  0.996228  0.000000  1
  Zn  Zn3  1  0.757089  0.745759  0.500000  1
  Zn  Zn4  1  0.242911  0.988670  0.500000  1
  Zn  Zn5  1  0.000000  0.264506  0.500000  1
  Pd  Pd6  1  0.000000  0.012805  0.000000  1
  Pd  Pd7  1  0.651721  0.319653  0.500000  1
  Pd  Pd8  1  0.348279  0.667933  0.500000  1
