# generated using pymatgen
data_Ho4SiTc6Ge7
_symmetry_space_group_name_H-M   'P 1'
_cell_length_a   6.90362960
_cell_length_b   6.92005412
_cell_length_c   6.91003238
_cell_angle_alpha   69.57154869
_cell_angle_beta   90.21358232
_cell_angle_gamma   90.69792499
_symmetry_Int_Tables_number   1
_chemical_formula_structural   Ho4SiTc6Ge7
_chemical_formula_sum   'Ho4 Si1 Tc6 Ge7'
_cell_volume   309.33194686
_cell_formula_units_Z   1
loop_
 _symmetry_equiv_pos_site_id
 _symmetry_equiv_pos_as_xyz
  1  'x, y, z'
loop_
 _atom_site_type_symbol
 _atom_site_label
 _atom_site_symmetry_multiplicity
 _atom_site_fract_x
 _atom_site_fract_y
 _atom_site_fract_z
 _atom_site_occupancy
  Ho  Ho0  1  0.671251  0.448754  0.193441  1
  Ho  Ho1  1  0.169398  0.051373  0.807461  1
  Ho  Ho2  1  0.331424  0.553666  0.807320  1
  Ho  Ho3  1  0.828994  0.945681  0.194618  1
  Si  Si4  1  0.643365  0.635058  0.512393  1
  Tc  Tc5  1  0.502703  0.993753  0.500581  1
  Tc  Tc6  1  0.993931  0.502279  0.497813  1
  Tc  Tc7  1  0.148895  0.243466  0.241395  1
  Tc  Tc8  1  0.642646  0.270141  0.757540  1
  Tc  Tc9  1  0.849832  0.749905  0.755818  1
  Tc  Tc10  1  0.359387  0.740706  0.240052  1
  Ge  Ge11  1  0.447316  0.131997  0.103252  1
  Ge  Ge12  1  0.949146  0.365045  0.899476  1
  Ge  Ge13  1  0.555887  0.873039  0.895037  1
  Ge  Ge14  1  0.053471  0.631850  0.102125  1
  Ge  Ge15  1  0.851707  0.134122  0.518048  1
  Ge  Ge16  1  0.354890  0.365895  0.488262  1
  Ge  Ge17  1  0.145757  0.863269  0.485367  1
