# generated using pymatgen
data_Zr(NbSe2)4
_symmetry_space_group_name_H-M   'P 1'
_cell_length_a   7.01502900
_cell_length_b   7.01501571
_cell_length_c   13.53415500
_cell_angle_alpha   90.00000000
_cell_angle_beta   90.00000000
_cell_angle_gamma   119.99999698
_symmetry_Int_Tables_number   1
_chemical_formula_structural   Zr(NbSe2)4
_chemical_formula_sum   'Zr2 Nb8 Se16'
_cell_volume   576.79290516
_cell_formula_units_Z   2
loop_
 _symmetry_equiv_pos_site_id
 _symmetry_equiv_pos_as_xyz
  1  'x, y, z'
loop_
 _atom_site_type_symbol
 _atom_site_label
 _atom_site_symmetry_multiplicity
 _atom_site_fract_x
 _atom_site_fract_y
 _atom_site_fract_z
 _atom_site_occupancy
  Zr  Zr0  1  0.000000  0.000000  0.000000  1
  Zr  Zr1  1  0.000000  0.000000  0.500000  1
  Nb  Nb2  1  0.985938  0.492969  0.250000  1
  Nb  Nb3  1  0.014062  0.507031  0.750000  1
  Nb  Nb4  1  0.492972  0.507034  0.750000  1
  Nb  Nb5  1  0.507028  0.014062  0.250000  1
  Nb  Nb6  1  0.999998  0.999999  0.750000  1
  Nb  Nb7  1  0.000002  0.000001  0.250000  1
  Nb  Nb8  1  0.507028  0.492966  0.250000  1
  Nb  Nb9  1  0.492972  0.985938  0.750000  1
  Se  Se10  1  0.333346  0.666674  0.622339  1
  Se  Se11  1  0.666654  0.333326  0.122339  1
  Se  Se12  1  0.666654  0.333326  0.377661  1
  Se  Se13  1  0.333346  0.666674  0.877661  1
  Se  Se14  1  0.169946  0.339874  0.373450  1
  Se  Se15  1  0.830054  0.169928  0.873450  1
  Se  Se16  1  0.339880  0.169939  0.873447  1
  Se  Se17  1  0.660120  0.830061  0.373447  1
  Se  Se18  1  0.169946  0.830072  0.373450  1
  Se  Se19  1  0.830054  0.660126  0.873450  1
  Se  Se20  1  0.169946  0.339874  0.126550  1
  Se  Se21  1  0.830054  0.169928  0.626550  1
  Se  Se22  1  0.339880  0.169939  0.626553  1
  Se  Se23  1  0.660120  0.830061  0.126553  1
  Se  Se24  1  0.169946  0.830072  0.126550  1
  Se  Se25  1  0.830054  0.660126  0.626550  1
