# generated using pymatgen
data_V12Mo6Os5W
_symmetry_space_group_name_H-M   'P 1'
_cell_length_a   4.29160502
_cell_length_b   6.10142700
_cell_length_c   13.00054607
_cell_angle_alpha   90.00000000
_cell_angle_beta   90.01150072
_cell_angle_gamma   90.00000000
_symmetry_Int_Tables_number   1
_chemical_formula_structural   V12Mo6Os5W
_chemical_formula_sum   'V12 Mo6 Os5 W1'
_cell_volume   340.41818360
_cell_formula_units_Z   1
loop_
 _symmetry_equiv_pos_site_id
 _symmetry_equiv_pos_as_xyz
  1  'x, y, z'
loop_
 _atom_site_type_symbol
 _atom_site_label
 _atom_site_symmetry_multiplicity
 _atom_site_fract_x
 _atom_site_fract_y
 _atom_site_fract_z
 _atom_site_occupancy
  V  V0  1  0.500000  0.249291  0.000000  1
  V  V1  1  0.500000  0.750709  0.000000  1
  V  V2  1  0.000090  0.249767  0.167431  1
  V  V3  1  0.000090  0.750233  0.167431  1
  V  V4  1  0.500088  0.249440  0.333512  1
  V  V5  1  0.500088  0.750559  0.333512  1
  V  V6  1  0.000000  0.249731  0.500000  1
  V  V7  1  0.000000  0.750270  0.500000  1
  V  V8  1  0.499913  0.249440  0.666487  1
  V  V9  1  0.499913  0.750559  0.666487  1
  V  V10  1  0.999909  0.249767  0.832569  1
  V  V11  1  0.999909  0.750233  0.832569  1
  Mo  Mo12  1  0.000000  0.000000  0.000000  1
  Mo  Mo13  1  0.500093  0.500000  0.168546  1
  Mo  Mo14  1  0.000082  0.000000  0.333386  1
  Mo  Mo15  1  0.500001  0.500000  0.500000  1
  Mo  Mo16  1  0.999920  0.000000  0.666614  1
  Mo  Mo17  1  0.499908  0.500000  0.831454  1
  Os  Os18  1  0.500077  0.000000  0.167400  1
  Os  Os19  1  0.000085  0.500000  0.334278  1
  Os  Os20  1  0.500001  0.000000  0.500000  1
  Os  Os21  1  0.999916  0.500000  0.665722  1
  Os  Os22  1  0.499922  0.000000  0.832600  1
  W  W23  1  0.000000  0.500000  0.000000  1
