# generated using pymatgen
data_DyLu8ThBi6
_symmetry_space_group_name_H-M   'P 1'
_cell_length_a   8.19988800
_cell_length_b   9.44775600
_cell_length_c   11.86648200
_cell_angle_alpha   90.00000000
_cell_angle_beta   90.00000000
_cell_angle_gamma   90.00000000
_symmetry_Int_Tables_number   1
_chemical_formula_structural   DyLu8ThBi6
_chemical_formula_sum   'Dy2 Lu16 Th2 Bi12'
_cell_volume   919.30278092
_cell_formula_units_Z   2
loop_
 _symmetry_equiv_pos_site_id
 _symmetry_equiv_pos_as_xyz
  1  'x, y, z'
loop_
 _atom_site_type_symbol
 _atom_site_label
 _atom_site_symmetry_multiplicity
 _atom_site_fract_x
 _atom_site_fract_y
 _atom_site_fract_z
 _atom_site_occupancy
  Dy  Dy0  1  0.685147  0.750000  0.783419  1
  Dy  Dy1  1  0.185147  0.750000  0.716581  1
  Lu  Lu2  1  0.351833  0.750000  0.218150  1
  Lu  Lu3  1  0.851833  0.750000  0.281850  1
  Lu  Lu4  1  0.646247  0.250000  0.777795  1
  Lu  Lu5  1  0.146247  0.250000  0.722205  1
  Lu  Lu6  1  0.688917  0.567258  0.061530  1
  Lu  Lu7  1  0.188917  0.932742  0.438470  1
  Lu  Lu8  1  0.309672  0.068003  0.940470  1
  Lu  Lu9  1  0.809672  0.431997  0.559530  1
  Lu  Lu10  1  0.309672  0.431997  0.940470  1
  Lu  Lu11  1  0.809672  0.068003  0.559530  1
  Lu  Lu12  1  0.688917  0.932742  0.061530  1
  Lu  Lu13  1  0.188917  0.567258  0.438470  1
  Lu  Lu14  1  0.481701  0.250000  0.488968  1
  Lu  Lu15  1  0.981701  0.250000  0.011032  1
  Lu  Lu16  1  0.518791  0.750000  0.512397  1
  Lu  Lu17  1  0.018791  0.750000  0.987603  1
  Th  Th18  1  0.318211  0.250000  0.219978  1
  Th  Th19  1  0.818211  0.250000  0.280022  1
  Bi  Bi20  1  0.399887  0.750000  0.958758  1
  Bi  Bi21  1  0.899887  0.750000  0.541242  1
  Bi  Bi22  1  0.602804  0.250000  0.034736  1
  Bi  Bi23  1  0.102804  0.250000  0.465264  1
  Bi  Bi24  1  0.565171  0.987895  0.327838  1
  Bi  Bi25  1  0.065171  0.512105  0.172162  1
  Bi  Bi26  1  0.433930  0.495263  0.674023  1
  Bi  Bi27  1  0.933930  0.004737  0.825977  1
  Bi  Bi28  1  0.433930  0.004737  0.674023  1
  Bi  Bi29  1  0.933930  0.495263  0.825977  1
  Bi  Bi30  1  0.565171  0.512105  0.327838  1
  Bi  Bi31  1  0.065171  0.987895  0.172162  1
