# generated using pymatgen
data_Ho2Co5B2
_symmetry_space_group_name_H-M   'P 1'
_cell_length_a   5.04878500
_cell_length_b   5.04878469
_cell_length_c   19.98200200
_cell_angle_alpha   90.00000000
_cell_angle_beta   90.00000000
_cell_angle_gamma   119.99999547
_symmetry_Int_Tables_number   1
_chemical_formula_structural   Ho2Co5B2
_chemical_formula_sum   'Ho8 Co20 B8'
_cell_volume   441.10641806
_cell_formula_units_Z   4
loop_
 _symmetry_equiv_pos_site_id
 _symmetry_equiv_pos_as_xyz
  1  'x, y, z'
loop_
 _atom_site_type_symbol
 _atom_site_label
 _atom_site_symmetry_multiplicity
 _atom_site_fract_x
 _atom_site_fract_y
 _atom_site_fract_z
 _atom_site_occupancy
  Ho  Ho0  1  0.666667  0.333333  0.824857  1
  Ho  Ho1  1  0.666667  0.333333  0.976935  1
  Ho  Ho2  1  0.333333  0.666667  0.476935  1
  Ho  Ho3  1  0.333333  0.666667  0.023065  1
  Ho  Ho4  1  0.333333  0.666667  0.175143  1
  Ho  Ho5  1  0.666667  0.333333  0.523065  1
  Ho  Ho6  1  0.666667  0.333333  0.675143  1
  Ho  Ho7  1  0.333333  0.666667  0.324857  1
  Co  Co8  1  0.162936  0.325872  0.894807  1
  Co  Co9  1  0.162936  0.837064  0.605193  1
  Co  Co10  1  0.837064  0.162936  0.394807  1
  Co  Co11  1  0.333891  0.166946  0.250000  1
  Co  Co12  1  0.325872  0.162936  0.394807  1
  Co  Co13  1  0.837064  0.674128  0.105193  1
  Co  Co14  1  0.837064  0.674128  0.394807  1
  Co  Co15  1  0.833054  0.666109  0.250000  1
  Co  Co16  1  0.674128  0.837064  0.605193  1
  Co  Co17  1  0.666109  0.833054  0.750000  1
  Co  Co18  1  0.837064  0.162936  0.105193  1
  Co  Co19  1  0.674128  0.837064  0.894807  1
  Co  Co20  1  0.000000  0.000000  0.000000  1
  Co  Co21  1  0.166946  0.333891  0.750000  1
  Co  Co22  1  0.166946  0.833054  0.750000  1
  Co  Co23  1  0.833054  0.166946  0.250000  1
  Co  Co24  1  0.325872  0.162936  0.105193  1
  Co  Co25  1  0.000000  0.000000  0.500000  1
  Co  Co26  1  0.162936  0.837064  0.894807  1
  Co  Co27  1  0.162936  0.325872  0.605193  1
  B  B28  1  0.333333  0.666667  0.825194  1
  B  B29  1  0.333333  0.666667  0.674806  1
  B  B30  1  0.666667  0.333333  0.325194  1
  B  B31  1  0.000000  0.000000  0.823155  1
  B  B32  1  0.666667  0.333333  0.174806  1
  B  B33  1  0.000000  0.000000  0.676845  1
  B  B34  1  0.000000  0.000000  0.323155  1
  B  B35  1  0.000000  0.000000  0.176845  1
