# generated using pymatgen
data_Dy3Er(MgRh)4
_symmetry_space_group_name_H-M   'P 1'
_cell_length_a   4.11493400
_cell_length_b   7.08549931
_cell_length_c   8.50956187
_cell_angle_alpha   90.06256599
_cell_angle_beta   90.00000000
_cell_angle_gamma   90.00000000
_symmetry_Int_Tables_number   1
_chemical_formula_structural   Dy3Er(MgRh)4
_chemical_formula_sum   'Dy3 Er1 Mg4 Rh4'
_cell_volume   248.10771853
_cell_formula_units_Z   1
loop_
 _symmetry_equiv_pos_site_id
 _symmetry_equiv_pos_as_xyz
  1  'x, y, z'
loop_
 _atom_site_type_symbol
 _atom_site_label
 _atom_site_symmetry_multiplicity
 _atom_site_fract_x
 _atom_site_fract_y
 _atom_site_fract_z
 _atom_site_occupancy
  Dy  Dy0  1  0.750000  0.461466  0.824716  1
  Dy  Dy1  1  0.250000  0.038165  0.323583  1
  Dy  Dy2  1  0.750000  0.961955  0.675969  1
  Er  Er3  1  0.250000  0.538383  0.175205  1
  Mg  Mg4  1  0.250000  0.135214  0.941288  1
  Mg  Mg5  1  0.750000  0.864409  0.060135  1
  Mg  Mg6  1  0.250000  0.635366  0.559005  1
  Mg  Mg7  1  0.750000  0.365289  0.439939  1
  Rh  Rh8  1  0.750000  0.747425  0.369827  1
  Rh  Rh9  1  0.250000  0.250790  0.629087  1
  Rh  Rh10  1  0.750000  0.251330  0.129426  1
  Rh  Rh11  1  0.250000  0.750208  0.871819  1
