# generated using pymatgen
data_Ti6Nb4CuSn7
_symmetry_space_group_name_H-M   'P 1'
_cell_length_a   5.64692659
_cell_length_b   8.31520523
_cell_length_c   8.31846659
_cell_angle_alpha   119.98703309
_cell_angle_beta   89.97585117
_cell_angle_gamma   90.04831854
_symmetry_Int_Tables_number   1
_chemical_formula_structural   Ti6Nb4CuSn7
_chemical_formula_sum   'Ti6 Nb4 Cu1 Sn7'
_cell_volume   338.31059551
_cell_formula_units_Z   1
loop_
 _symmetry_equiv_pos_site_id
 _symmetry_equiv_pos_as_xyz
  1  'x, y, z'
loop_
 _atom_site_type_symbol
 _atom_site_label
 _atom_site_symmetry_multiplicity
 _atom_site_fract_x
 _atom_site_fract_y
 _atom_site_fract_z
 _atom_site_occupancy
  Ti  Ti0  1  0.735357  0.278102  0.000000  1
  Ti  Ti1  1  0.734875  0.721926  0.721994  1
  Ti  Ti2  1  0.734875  0.999934  0.278006  1
  Ti  Ti3  1  0.265019  0.721868  0.000000  1
  Ti  Ti4  1  0.265013  0.278185  0.278171  1
  Ti  Ti5  1  0.265013  0.000013  0.721829  1
  Nb  Nb6  1  0.500028  0.333335  0.666612  1
  Nb  Nb7  1  0.500028  0.666723  0.333388  1
  Nb  Nb8  1  0.000020  0.666650  0.333309  1
  Nb  Nb9  1  0.000020  0.333341  0.666691  1
  Cu  Cu10  1  0.499543  0.000225  0.000000  1
  Sn  Sn11  1  0.754074  0.618266  0.000000  1
  Sn  Sn12  1  0.754155  0.381377  0.381481  1
  Sn  Sn13  1  0.754155  0.999898  0.618519  1
  Sn  Sn14  1  0.246155  0.381590  0.000000  1
  Sn  Sn15  1  0.245782  0.618491  0.618418  1
  Sn  Sn16  1  0.245782  0.000073  0.381582  1
  Sn  Sn17  1  0.000108  0.000001  0.000000  1
