# generated using pymatgen
data_LaPr6CoI12
_symmetry_space_group_name_H-M   'P 1'
_cell_length_a   10.07354273
_cell_length_b   10.07354224
_cell_length_c   10.07354341
_cell_angle_alpha   106.41257315
_cell_angle_beta   106.41257010
_cell_angle_gamma   106.41257419
_symmetry_Int_Tables_number   1
_chemical_formula_structural   LaPr6CoI12
_chemical_formula_sum   'La1 Pr6 Co1 I12'
_cell_volume   864.59839766
_cell_formula_units_Z   1
loop_
 _symmetry_equiv_pos_site_id
 _symmetry_equiv_pos_as_xyz
  1  'x, y, z'
loop_
 _atom_site_type_symbol
 _atom_site_label
 _atom_site_symmetry_multiplicity
 _atom_site_fract_x
 _atom_site_fract_y
 _atom_site_fract_z
 _atom_site_occupancy
  La  La0  1  0.995540  0.995540  0.995540  1
  Pr  Pr1  1  0.518100  0.592820  0.793095  1
  Pr  Pr2  1  0.793095  0.518100  0.592820  1
  Pr  Pr3  1  0.592820  0.793095  0.518100  1
  Pr  Pr4  1  0.480575  0.405714  0.206034  1
  Pr  Pr5  1  0.206034  0.480575  0.405714  1
  Pr  Pr6  1  0.405714  0.206034  0.480575  1
  Co  Co7  1  0.499735  0.499735  0.499735  1
  I  I8  1  0.273460  0.822701  0.426792  1
  I  I9  1  0.426792  0.273460  0.822701  1
  I  I10  1  0.822701  0.426792  0.273460  1
  I  I11  1  0.725245  0.176249  0.571929  1
  I  I12  1  0.571929  0.725245  0.176249  1
  I  I13  1  0.176249  0.571929  0.725245  1
  I  I14  1  0.040434  0.118788  0.340506  1
  I  I15  1  0.340506  0.040434  0.118788  1
  I  I16  1  0.118788  0.340506  0.040434  1
  I  I17  1  0.957649  0.878247  0.651758  1
  I  I18  1  0.651758  0.957649  0.878247  1
  I  I19  1  0.878247  0.651758  0.957649  1
