# generated using pymatgen
data_In12CoIr3
_symmetry_space_group_name_H-M   'P 1'
_cell_length_a   7.06161617
_cell_length_b   7.06161617
_cell_length_c   7.29407700
_cell_angle_alpha   90.00000000
_cell_angle_beta   90.00000000
_cell_angle_gamma   89.97481510
_symmetry_Int_Tables_number   1
_chemical_formula_structural   In12CoIr3
_chemical_formula_sum   'In12 Co1 Ir3'
_cell_volume   363.72949350
_cell_formula_units_Z   1
loop_
 _symmetry_equiv_pos_site_id
 _symmetry_equiv_pos_as_xyz
  1  'x, y, z'
loop_
 _atom_site_type_symbol
 _atom_site_label
 _atom_site_symmetry_multiplicity
 _atom_site_fract_x
 _atom_site_fract_y
 _atom_site_fract_z
 _atom_site_occupancy
  In  In0  1  0.343974  0.343974  0.250395  1
  In  In1  1  0.154917  0.852948  0.761640  1
  In  In2  1  0.154917  0.852948  0.238360  1
  In  In3  1  0.003815  0.493108  0.000000  1
  In  In4  1  0.852948  0.154917  0.238360  1
  In  In5  1  0.852948  0.154917  0.761640  1
  In  In6  1  0.493108  0.003815  0.000000  1
  In  In7  1  0.650560  0.650560  0.255163  1
  In  In8  1  0.650560  0.650560  0.744837  1
  In  In9  1  0.001567  0.497722  0.500000  1
  In  In10  1  0.343974  0.343974  0.749605  1
  In  In11  1  0.497722  0.001567  0.500000  1
  Co  Co12  1  0.155522  0.155522  0.000000  1
  Ir  Ir13  1  0.655405  0.343945  0.500000  1
  Ir  Ir14  1  0.343945  0.655405  0.500000  1
  Ir  Ir15  1  0.844119  0.844119  0.000000  1
