# generated using pymatgen
data_Dy2Tm5Lu(Si3Rh)4
_symmetry_space_group_name_H-M   'P 1'
_cell_length_a   8.15085700
_cell_length_b   8.14682155
_cell_length_c   7.80418100
_cell_angle_alpha   90.00000000
_cell_angle_beta   90.00000000
_cell_angle_gamma   119.98361522
_symmetry_Int_Tables_number   1
_chemical_formula_structural   Dy2Tm5Lu(Si3Rh)4
_chemical_formula_sum   'Dy2 Tm5 Lu1 Si12 Rh4'
_cell_volume   448.87056006
_cell_formula_units_Z   1
loop_
 _symmetry_equiv_pos_site_id
 _symmetry_equiv_pos_as_xyz
  1  'x, y, z'
loop_
 _atom_site_type_symbol
 _atom_site_label
 _atom_site_symmetry_multiplicity
 _atom_site_fract_x
 _atom_site_fract_y
 _atom_site_fract_z
 _atom_site_occupancy
  Dy  Dy0  1  0.999919  0.999959  0.250000  1
  Dy  Dy1  1  0.000161  0.000080  0.750000  1
  Tm  Tm2  1  0.509469  0.490889  0.250000  1
  Tm  Tm3  1  0.509469  0.018580  0.250000  1
  Tm  Tm4  1  0.982017  0.491008  0.250000  1
  Tm  Tm5  1  0.490720  0.509053  0.750000  1
  Tm  Tm6  1  0.490720  0.981668  0.750000  1
  Lu  Lu7  1  0.018920  0.509460  0.750000  1
  Si  Si8  1  0.167185  0.832398  0.500580  1
  Si  Si9  1  0.167185  0.334786  0.500580  1
  Si  Si10  1  0.665536  0.832767  0.500212  1
  Si  Si11  1  0.832749  0.167728  0.499976  1
  Si  Si12  1  0.832749  0.665022  0.499976  1
  Si  Si13  1  0.334073  0.167037  0.499632  1
  Si  Si14  1  0.832749  0.167728  0.000024  1
  Si  Si15  1  0.832749  0.665022  0.000024  1
  Si  Si16  1  0.334073  0.167037  0.000368  1
  Si  Si17  1  0.167185  0.832398  0.999420  1
  Si  Si18  1  0.167185  0.334786  0.999420  1
  Si  Si19  1  0.665536  0.832767  0.999788  1
  Rh  Rh20  1  0.333350  0.666675  0.465171  1
  Rh  Rh21  1  0.666475  0.333237  0.535523  1
  Rh  Rh22  1  0.666475  0.333237  0.964477  1
  Rh  Rh23  1  0.333350  0.666675  0.034829  1
