# generated using pymatgen
data_CaSm6NiI12
_symmetry_space_group_name_H-M   'P 1'
_cell_length_a   9.90183642
_cell_length_b   9.90183719
_cell_length_c   9.90183860
_cell_angle_alpha   106.84334950
_cell_angle_beta   106.84335271
_cell_angle_gamma   106.84335571
_symmetry_Int_Tables_number   1
_chemical_formula_structural   CaSm6NiI12
_chemical_formula_sum   'Ca1 Sm6 Ni1 I12'
_cell_volume   811.95448602
_cell_formula_units_Z   1
loop_
 _symmetry_equiv_pos_site_id
 _symmetry_equiv_pos_as_xyz
  1  'x, y, z'
loop_
 _atom_site_type_symbol
 _atom_site_label
 _atom_site_symmetry_multiplicity
 _atom_site_fract_x
 _atom_site_fract_y
 _atom_site_fract_z
 _atom_site_occupancy
  Ca  Ca0  1  0.500000  0.500000  0.500000  1
  Sm  Sm1  1  0.902803  0.975013  0.702158  1
  Sm  Sm2  1  0.702158  0.902803  0.975013  1
  Sm  Sm3  1  0.975013  0.702158  0.902803  1
  Sm  Sm4  1  0.097197  0.024987  0.297842  1
  Sm  Sm5  1  0.297842  0.097197  0.024987  1
  Sm  Sm6  1  0.024987  0.297842  0.097197  1
  Ni  Ni7  1  0.000000  0.000000  0.000000  1
  I  I8  1  0.926477  0.320807  0.775381  1
  I  I9  1  0.775381  0.926477  0.320807  1
  I  I10  1  0.320807  0.775381  0.926477  1
  I  I11  1  0.073523  0.679193  0.224619  1
  I  I12  1  0.224619  0.073523  0.679193  1
  I  I13  1  0.679193  0.224619  0.073523  1
  I  I14  1  0.541344  0.846897  0.619303  1
  I  I15  1  0.619303  0.541344  0.846897  1
  I  I16  1  0.846897  0.619303  0.541344  1
  I  I17  1  0.458656  0.153103  0.380697  1
  I  I18  1  0.380697  0.458656  0.153103  1
  I  I19  1  0.153103  0.380697  0.458656  1
