# generated using pymatgen
data_Nd2TiGa6
_symmetry_space_group_name_H-M   'P 1'
_cell_length_a   6.40194338
_cell_length_b   6.40194235
_cell_length_c   6.40194300
_cell_angle_alpha   60.00000183
_cell_angle_beta   60.00000713
_cell_angle_gamma   59.99999945
_symmetry_Int_Tables_number   1
_chemical_formula_structural   Nd2TiGa6
_chemical_formula_sum   'Nd2 Ti1 Ga6'
_cell_volume   185.53268130
_cell_formula_units_Z   1
loop_
 _symmetry_equiv_pos_site_id
 _symmetry_equiv_pos_as_xyz
  1  'x, y, z'
loop_
 _atom_site_type_symbol
 _atom_site_label
 _atom_site_symmetry_multiplicity
 _atom_site_fract_x
 _atom_site_fract_y
 _atom_site_fract_z
 _atom_site_occupancy
  Nd  Nd0  1  0.750000  0.750000  0.750000  1
  Nd  Nd1  1  0.250000  0.250000  0.250000  1
  Ti  Ti2  1  0.500000  0.500000  0.500000  1
  Ga  Ga3  1  0.786580  0.786580  0.213420  1
  Ga  Ga4  1  0.213420  0.786580  0.213420  1
  Ga  Ga5  1  0.786580  0.213420  0.213420  1
  Ga  Ga6  1  0.213420  0.213420  0.786580  1
  Ga  Ga7  1  0.786580  0.213420  0.786580  1
  Ga  Ga8  1  0.213420  0.786580  0.786580  1
