# generated using pymatgen
data_Dy3ThCdFe
_symmetry_space_group_name_H-M   'P 1'
_cell_length_a   9.57763666
_cell_length_b   9.57763851
_cell_length_c   9.57763400
_cell_angle_alpha   60.00002249
_cell_angle_beta   60.00001609
_cell_angle_gamma   59.99998123
_symmetry_Int_Tables_number   1
_chemical_formula_structural   Dy3ThCdFe
_chemical_formula_sum   'Dy12 Th4 Cd4 Fe4'
_cell_volume   621.24098975
_cell_formula_units_Z   4
loop_
 _symmetry_equiv_pos_site_id
 _symmetry_equiv_pos_as_xyz
  1  'x, y, z'
loop_
 _atom_site_type_symbol
 _atom_site_label
 _atom_site_symmetry_multiplicity
 _atom_site_fract_x
 _atom_site_fract_y
 _atom_site_fract_z
 _atom_site_occupancy
  Dy  Dy0  1  0.062168  0.437832  0.437832  1
  Dy  Dy1  1  0.437832  0.062168  0.062168  1
  Dy  Dy2  1  0.437832  0.062168  0.437832  1
  Dy  Dy3  1  0.062168  0.437832  0.062168  1
  Dy  Dy4  1  0.437832  0.437832  0.062168  1
  Dy  Dy5  1  0.062168  0.062168  0.437832  1
  Dy  Dy6  1  0.187774  0.812226  0.812226  1
  Dy  Dy7  1  0.812226  0.187774  0.187774  1
  Dy  Dy8  1  0.812226  0.187774  0.812226  1
  Dy  Dy9  1  0.187774  0.812226  0.187774  1
  Dy  Dy10  1  0.812226  0.812226  0.187774  1
  Dy  Dy11  1  0.187774  0.187774  0.812226  1
  Th  Th12  1  0.594062  0.594062  0.594063  1
  Th  Th13  1  0.594062  0.594062  0.217812  1
  Th  Th14  1  0.594063  0.217812  0.594062  1
  Th  Th15  1  0.217812  0.594063  0.594062  1
  Cd  Cd16  1  0.830862  0.830862  0.830862  1
  Cd  Cd17  1  0.830862  0.830862  0.507414  1
  Cd  Cd18  1  0.830862  0.507414  0.830862  1
  Cd  Cd19  1  0.507414  0.830862  0.830862  1
  Fe  Fe20  1  0.394021  0.394021  0.394021  1
  Fe  Fe21  1  0.394021  0.394021  0.817935  1
  Fe  Fe22  1  0.394021  0.817935  0.394021  1
  Fe  Fe23  1  0.817935  0.394021  0.394021  1
