# generated using pymatgen
data_Y2Al9RePdPt
_symmetry_space_group_name_H-M   'P 1'
_cell_length_a   7.61631651
_cell_length_b   7.61631498
_cell_length_c   9.54283068
_cell_angle_alpha   90.03465075
_cell_angle_beta   90.03465011
_cell_angle_gamma   118.61090401
_symmetry_Int_Tables_number   1
_chemical_formula_structural   Y2Al9RePdPt
_chemical_formula_sum   'Y4 Al18 Re2 Pd2 Pt2'
_cell_volume   485.96815958
_cell_formula_units_Z   2
loop_
 _symmetry_equiv_pos_site_id
 _symmetry_equiv_pos_as_xyz
  1  'x, y, z'
loop_
 _atom_site_type_symbol
 _atom_site_label
 _atom_site_symmetry_multiplicity
 _atom_site_fract_x
 _atom_site_fract_y
 _atom_site_fract_z
 _atom_site_occupancy
  Y  Y0  1  0.994091  0.681712  0.249775  1
  Y  Y1  1  0.005909  0.318288  0.750225  1
  Y  Y2  1  0.681712  0.994091  0.249775  1
  Y  Y3  1  0.318288  0.005909  0.750225  1
  Al  Al4  1  0.132333  0.132333  0.249967  1
  Al  Al5  1  0.867667  0.867667  0.750033  1
  Al  Al6  1  0.001595  0.334567  0.075763  1
  Al  Al7  1  0.998405  0.665433  0.924237  1
  Al  Al8  1  0.997515  0.664891  0.576808  1
  Al  Al9  1  0.335109  0.002485  0.423192  1
  Al  Al10  1  0.002485  0.335109  0.423192  1
  Al  Al11  1  0.664891  0.997515  0.576808  1
  Al  Al12  1  0.665433  0.998405  0.924237  1
  Al  Al13  1  0.334567  0.001595  0.075763  1
  Al  Al14  1  0.329912  0.329912  0.549583  1
  Al  Al15  1  0.670088  0.670088  0.450417  1
  Al  Al16  1  0.670624  0.670624  0.048397  1
  Al  Al17  1  0.329376  0.329376  0.951603  1
  Al  Al18  1  0.344215  0.551917  0.249859  1
  Al  Al19  1  0.655785  0.448083  0.750141  1
  Al  Al20  1  0.551917  0.344215  0.249859  1
  Al  Al21  1  0.448083  0.655785  0.750141  1
  Re  Re22  1  0.000000  0.000000  0.000000  1
  Re  Re23  1  0.000000  0.000000  0.500000  1
  Pd  Pd24  1  0.328090  0.671910  0.500000  1
  Pd  Pd25  1  0.671910  0.328090  0.500000  1
  Pt  Pt26  1  0.671692  0.328308  0.000000  1
  Pt  Pt27  1  0.328308  0.671692  0.000000  1
