# generated using pymatgen
data_Tm6Lu4In5Bi
_symmetry_space_group_name_H-M   'P 1'
_cell_length_a   6.49110200
_cell_length_b   8.92685933
_cell_length_c   8.89844680
_cell_angle_alpha   120.32622517
_cell_angle_beta   90.00122665
_cell_angle_gamma   89.99978443
_symmetry_Int_Tables_number   1
_chemical_formula_structural   Tm6Lu4In5Bi
_chemical_formula_sum   'Tm6 Lu4 In5 Bi1'
_cell_volume   445.06651256
_cell_formula_units_Z   1
loop_
 _symmetry_equiv_pos_site_id
 _symmetry_equiv_pos_as_xyz
  1  'x, y, z'
loop_
 _atom_site_type_symbol
 _atom_site_label
 _atom_site_symmetry_multiplicity
 _atom_site_fract_x
 _atom_site_fract_y
 _atom_site_fract_z
 _atom_site_occupancy
  Tm  Tm0  1  0.750015  0.231289  0.999857  1
  Tm  Tm1  1  0.750013  0.767479  0.758877  1
  Tm  Tm2  1  0.750009  0.007823  0.242519  1
  Tm  Tm3  1  0.249987  0.762906  0.000261  1
  Tm  Tm4  1  0.249996  0.235462  0.235046  1
  Tm  Tm5  1  0.250021  0.001434  0.762977  1
  Lu  Lu6  1  0.495569  0.327665  0.660640  1
  Lu  Lu7  1  0.495320  0.666968  0.339231  1
  Lu  Lu8  1  0.004661  0.667004  0.339258  1
  Lu  Lu9  1  0.004419  0.327680  0.660646  1
  In  In10  1  0.750000  0.403853  0.402633  1
  In  In11  1  0.749998  0.001238  0.598187  1
  In  In12  1  0.249995  0.398640  0.000973  1
  In  In13  1  0.249997  0.598345  0.601630  1
  In  In14  1  0.249997  0.997416  0.397783  1
  Bi  Bi15  1  0.750004  0.604802  0.999483  1
