# generated using pymatgen
data_Dy4GaSi2Ge
_symmetry_space_group_name_H-M   'P 1'
_cell_length_a   3.90449400
_cell_length_b   4.31762900
_cell_length_c   10.66274900
_cell_angle_alpha   90.00000000
_cell_angle_beta   90.00000000
_cell_angle_gamma   90.00000000
_symmetry_Int_Tables_number   1
_chemical_formula_structural   Dy4GaSi2Ge
_chemical_formula_sum   'Dy4 Ga1 Si2 Ge1'
_cell_volume   179.75429163
_cell_formula_units_Z   1
loop_
 _symmetry_equiv_pos_site_id
 _symmetry_equiv_pos_as_xyz
  1  'x, y, z'
loop_
 _atom_site_type_symbol
 _atom_site_label
 _atom_site_symmetry_multiplicity
 _atom_site_fract_x
 _atom_site_fract_y
 _atom_site_fract_z
 _atom_site_occupancy
  Dy  Dy0  1  0.000000  0.000000  0.363241  1
  Dy  Dy1  1  0.000000  0.500000  0.856706  1
  Dy  Dy2  1  0.500000  0.500000  0.142712  1
  Dy  Dy3  1  0.500000  0.000000  0.637153  1
  Ga  Ga4  1  0.000000  0.000000  0.079546  1
  Si  Si5  1  0.000000  0.500000  0.576447  1
  Si  Si6  1  0.500000  0.500000  0.425346  1
  Ge  Ge7  1  0.500000  0.000000  0.918853  1
