# generated using pymatgen
data_HfNbGaFe3
_symmetry_space_group_name_H-M   'P 1'
_cell_length_a   4.93225000
_cell_length_b   4.93225018
_cell_length_c   8.10702900
_cell_angle_alpha   90.00000000
_cell_angle_beta   90.00000000
_cell_angle_gamma   119.99999883
_symmetry_Int_Tables_number   1
_chemical_formula_structural   HfNbGaFe3
_chemical_formula_sum   'Hf2 Nb2 Ga2 Fe6'
_cell_volume   170.79790595
_cell_formula_units_Z   2
loop_
 _symmetry_equiv_pos_site_id
 _symmetry_equiv_pos_as_xyz
  1  'x, y, z'
loop_
 _atom_site_type_symbol
 _atom_site_label
 _atom_site_symmetry_multiplicity
 _atom_site_fract_x
 _atom_site_fract_y
 _atom_site_fract_z
 _atom_site_occupancy
  Hf  Hf0  1  0.666667  0.333333  0.429856  1
  Hf  Hf1  1  0.333333  0.666667  0.570144  1
  Nb  Nb2  1  0.333333  0.666667  0.940634  1
  Nb  Nb3  1  0.666667  0.333333  0.059366  1
  Ga  Ga4  1  0.000000  0.000000  0.500000  1
  Ga  Ga5  1  0.000000  0.000000  0.000000  1
  Fe  Fe6  1  0.654327  0.827163  0.248352  1
  Fe  Fe7  1  0.172837  0.827163  0.248352  1
  Fe  Fe8  1  0.172837  0.345673  0.248352  1
  Fe  Fe9  1  0.345673  0.172837  0.751648  1
  Fe  Fe10  1  0.827163  0.172837  0.751648  1
  Fe  Fe11  1  0.827163  0.654327  0.751648  1
