# generated using pymatgen
data_Dy3TmLuSn4
_symmetry_space_group_name_H-M   'P 1'
_cell_length_a   7.97818400
_cell_length_b   8.11689600
_cell_length_c   15.36589400
_cell_angle_alpha   90.00000000
_cell_angle_beta   90.00000000
_cell_angle_gamma   90.00000000
_symmetry_Int_Tables_number   1
_chemical_formula_structural   Dy3TmLuSn4
_chemical_formula_sum   'Dy12 Tm4 Lu4 Sn16'
_cell_volume   995.06594346
_cell_formula_units_Z   4
loop_
 _symmetry_equiv_pos_site_id
 _symmetry_equiv_pos_as_xyz
  1  'x, y, z'
loop_
 _atom_site_type_symbol
 _atom_site_label
 _atom_site_symmetry_multiplicity
 _atom_site_fract_x
 _atom_site_fract_y
 _atom_site_fract_z
 _atom_site_occupancy
  Dy  Dy0  1  0.633472  0.162649  0.122745  1
  Dy  Dy1  1  0.133472  0.337351  0.377255  1
  Dy  Dy2  1  0.366528  0.837351  0.622745  1
  Dy  Dy3  1  0.866528  0.662649  0.877255  1
  Dy  Dy4  1  0.520502  0.320820  0.903578  1
  Dy  Dy5  1  0.020502  0.179180  0.596422  1
  Dy  Dy6  1  0.479498  0.679180  0.403578  1
  Dy  Dy7  1  0.979498  0.820820  0.096422  1
  Dy  Dy8  1  0.480951  0.678884  0.096039  1
  Dy  Dy9  1  0.980951  0.821116  0.403961  1
  Dy  Dy10  1  0.519049  0.321116  0.596039  1
  Dy  Dy11  1  0.019049  0.178884  0.903961  1
  Tm  Tm12  1  0.364419  0.838395  0.876566  1
  Tm  Tm13  1  0.864419  0.661605  0.623434  1
  Tm  Tm14  1  0.635581  0.161605  0.376566  1
  Tm  Tm15  1  0.135581  0.338395  0.123434  1
  Lu  Lu16  1  0.196483  0.504294  0.750772  1
  Lu  Lu17  1  0.696483  0.995706  0.749228  1
  Lu  Lu18  1  0.803517  0.495706  0.250772  1
  Lu  Lu19  1  0.303517  0.004294  0.249228  1
  Sn  Sn20  1  0.292651  0.038517  0.041047  1
  Sn  Sn21  1  0.792651  0.461483  0.458953  1
  Sn  Sn22  1  0.707349  0.961483  0.541047  1
  Sn  Sn23  1  0.207349  0.538517  0.958953  1
  Sn  Sn24  1  0.701554  0.962215  0.957103  1
  Sn  Sn25  1  0.201554  0.537785  0.542897  1
  Sn  Sn26  1  0.298446  0.037785  0.457103  1
  Sn  Sn27  1  0.798446  0.462215  0.042897  1
  Sn  Sn28  1  0.562459  0.618671  0.749973  1
  Sn  Sn29  1  0.062459  0.881329  0.750027  1
  Sn  Sn30  1  0.437541  0.381329  0.249973  1
  Sn  Sn31  1  0.937541  0.118671  0.250027  1
  Sn  Sn32  1  0.329772  0.150555  0.750214  1
  Sn  Sn33  1  0.829772  0.349445  0.749786  1
  Sn  Sn34  1  0.670228  0.849445  0.250214  1
  Sn  Sn35  1  0.170228  0.650555  0.249786  1
