# generated using pymatgen
data_Tb6Dy2Re3TcB24
_symmetry_space_group_name_H-M   'P 1'
_cell_length_a   3.69743400
_cell_length_b   9.19570853
_cell_length_c   11.58877906
_cell_angle_alpha   90.03866781
_cell_angle_beta   90.00000000
_cell_angle_gamma   90.00000000
_symmetry_Int_Tables_number   1
_chemical_formula_structural   Tb6Dy2Re3TcB24
_chemical_formula_sum   'Tb6 Dy2 Re3 Tc1 B24'
_cell_volume   394.02448656
_cell_formula_units_Z   1
loop_
 _symmetry_equiv_pos_site_id
 _symmetry_equiv_pos_as_xyz
  1  'x, y, z'
loop_
 _atom_site_type_symbol
 _atom_site_label
 _atom_site_symmetry_multiplicity
 _atom_site_fract_x
 _atom_site_fract_y
 _atom_site_fract_z
 _atom_site_occupancy
  Tb  Tb0  1  0.000000  0.323956  0.413809  1
  Tb  Tb1  1  0.000000  0.676246  0.585985  1
  Tb  Tb2  1  0.000000  0.823793  0.085906  1
  Tb  Tb3  1  0.000000  0.176536  0.914037  1
  Tb  Tb4  1  0.000000  0.941832  0.369526  1
  Tb  Tb5  1  0.000000  0.057047  0.629882  1
  Dy  Dy6  1  0.000000  0.443373  0.130791  1
  Dy  Dy7  1  0.000000  0.557181  0.870196  1
  Re  Re8  1  0.000000  0.361950  0.679305  1
  Re  Re9  1  0.000000  0.138530  0.179165  1
  Re  Re10  1  0.000000  0.861570  0.820863  1
  Tc  Tc11  1  0.000000  0.638227  0.320603  1
  B  B12  1  0.500000  0.553490  0.432480  1
  B  B13  1  0.500000  0.446700  0.567282  1
  B  B14  1  0.500000  0.053570  0.067336  1
  B  B15  1  0.500000  0.946691  0.932587  1
  B  B16  1  0.500000  0.748038  0.418138  1
  B  B17  1  0.500000  0.251518  0.581676  1
  B  B18  1  0.500000  0.248942  0.081880  1
  B  B19  1  0.500000  0.751356  0.918238  1
  B  B20  1  0.500000  0.790968  0.265446  1
  B  B21  1  0.500000  0.208684  0.734322  1
  B  B22  1  0.500000  0.291488  0.234497  1
  B  B23  1  0.500000  0.708413  0.765701  1
  B  B24  1  0.500000  0.630831  0.186058  1
  B  B25  1  0.500000  0.369410  0.814072  1
  B  B26  1  0.500000  0.130682  0.313890  1
  B  B27  1  0.500000  0.869025  0.686075  1
  B  B28  1  0.500000  0.982810  0.211627  1
  B  B29  1  0.500000  0.017175  0.788159  1
  B  B30  1  0.500000  0.482907  0.288245  1
  B  B31  1  0.500000  0.517413  0.712016  1
  B  B32  1  0.500000  0.600285  0.028175  1
  B  B33  1  0.500000  0.400020  0.972280  1
  B  B34  1  0.500000  0.100117  0.471703  1
  B  B35  1  0.500000  0.899229  0.528046  1
