# generated using pymatgen
data_Rb6InSe4Br
_symmetry_space_group_name_H-M   'P 1'
_cell_length_a   11.20397100
_cell_length_b   11.20397081
_cell_length_c   8.28372300
_cell_angle_alpha   90.00000000
_cell_angle_beta   90.00000000
_cell_angle_gamma   120.00000352
_symmetry_Int_Tables_number   1
_chemical_formula_structural   Rb6InSe4Br
_chemical_formula_sum   'Rb12 In2 Se8 Br2'
_cell_volume   900.53403032
_cell_formula_units_Z   2
loop_
 _symmetry_equiv_pos_site_id
 _symmetry_equiv_pos_as_xyz
  1  'x, y, z'
loop_
 _atom_site_type_symbol
 _atom_site_label
 _atom_site_symmetry_multiplicity
 _atom_site_fract_x
 _atom_site_fract_y
 _atom_site_fract_z
 _atom_site_occupancy
  Rb  Rb0  1  0.136627  0.863373  0.512779  1
  Rb  Rb1  1  0.726743  0.863373  0.512779  1
  Rb  Rb2  1  0.945858  0.472929  0.321604  1
  Rb  Rb3  1  0.527071  0.472929  0.321604  1
  Rb  Rb4  1  0.863373  0.726743  0.012779  1
  Rb  Rb5  1  0.273257  0.136627  0.012779  1
  Rb  Rb6  1  0.527071  0.054142  0.321604  1
  Rb  Rb7  1  0.136627  0.273257  0.512779  1
  Rb  Rb8  1  0.863373  0.136627  0.012779  1
  Rb  Rb9  1  0.054142  0.527071  0.821604  1
  Rb  Rb10  1  0.472929  0.945858  0.821604  1
  Rb  Rb11  1  0.472929  0.527071  0.821604  1
  In  In12  1  0.666667  0.333333  0.708921  1
  In  In13  1  0.333333  0.666667  0.208921  1
  Se  Se14  1  0.409423  0.204712  0.608305  1
  Se  Se15  1  0.590577  0.795288  0.108305  1
  Se  Se16  1  0.666667  0.333333  0.032228  1
  Se  Se17  1  0.795288  0.590577  0.608305  1
  Se  Se18  1  0.204712  0.409423  0.108305  1
  Se  Se19  1  0.333333  0.666667  0.532228  1
  Se  Se20  1  0.204712  0.795288  0.108305  1
  Se  Se21  1  0.795288  0.204712  0.608305  1
  Br  Br22  1  0.000000  0.000000  0.271389  1
  Br  Br23  1  0.000000  0.000000  0.771389  1
