# generated using pymatgen
data_LiTa5(SnRu2)6
_symmetry_space_group_name_H-M   'P 1'
_cell_length_a   4.50088700
_cell_length_b   6.39333600
_cell_length_c   13.48836600
_cell_angle_alpha   90.00120787
_cell_angle_beta   90.00024624
_cell_angle_gamma   90.00002169
_symmetry_Int_Tables_number   1
_chemical_formula_structural   LiTa5(SnRu2)6
_chemical_formula_sum   'Li1 Ta5 Sn6 Ru12'
_cell_volume   388.13694266
_cell_formula_units_Z   1
loop_
 _symmetry_equiv_pos_site_id
 _symmetry_equiv_pos_as_xyz
  1  'x, y, z'
loop_
 _atom_site_type_symbol
 _atom_site_label
 _atom_site_symmetry_multiplicity
 _atom_site_fract_x
 _atom_site_fract_y
 _atom_site_fract_z
 _atom_site_occupancy
  Li  Li0  1  0.999998  0.000001  0.999948  1
  Ta  Ta1  1  0.499980  0.499999  0.163520  1
  Ta  Ta2  1  0.999987  0.000001  0.329336  1
  Ta  Ta3  1  0.500000  0.500002  0.500033  1
  Ta  Ta4  1  0.000018  0.000001  0.670680  1
  Ta  Ta5  1  0.500022  0.500000  0.836481  1
  Sn  Sn6  1  0.000000  0.499999  0.000005  1
  Sn  Sn7  1  0.499999  0.999998  0.158969  1
  Sn  Sn8  1  0.000003  0.500000  0.333935  1
  Sn  Sn9  1  0.499998  0.000001  0.500022  1
  Sn  Sn10  1  0.000000  0.500000  0.666082  1
  Sn  Sn11  1  0.500000  0.000001  0.840997  1
  Ru  Ru12  1  0.499999  0.261310  0.999986  1
  Ru  Ru13  1  0.499998  0.738685  0.999984  1
  Ru  Ru14  1  0.000003  0.254360  0.172099  1
  Ru  Ru15  1  0.000003  0.745631  0.172105  1
  Ru  Ru16  1  0.499997  0.247026  0.334467  1
  Ru  Ru17  1  0.500008  0.752970  0.334465  1
  Ru  Ru18  1  0.999999  0.249965  0.500018  1
  Ru  Ru19  1  0.000002  0.750051  0.500017  1
  Ru  Ru20  1  0.500003  0.247077  0.665555  1
  Ru  Ru21  1  0.500003  0.752919  0.665556  1
  Ru  Ru22  1  0.999993  0.254377  0.827870  1
  Ru  Ru23  1  0.999987  0.745634  0.827870  1
