# generated using pymatgen
data_Dy8Tm4Co4BiOs
_symmetry_space_group_name_H-M   'P 1'
_cell_length_a   8.28424652
_cell_length_b   8.28429301
_cell_length_c   8.28424501
_cell_angle_alpha   110.63538337
_cell_angle_beta   111.11001353
_cell_angle_gamma   106.70337052
_symmetry_Int_Tables_number   1
_chemical_formula_structural   Dy8Tm4Co4BiOs
_chemical_formula_sum   'Dy8 Tm4 Co4 Bi1 Os1'
_cell_volume   436.89466474
_cell_formula_units_Z   1
loop_
 _symmetry_equiv_pos_site_id
 _symmetry_equiv_pos_as_xyz
  1  'x, y, z'
loop_
 _atom_site_type_symbol
 _atom_site_label
 _atom_site_symmetry_multiplicity
 _atom_site_fract_x
 _atom_site_fract_y
 _atom_site_fract_z
 _atom_site_occupancy
  Dy  Dy0  1  0.279176  0.181144  0.460317  1
  Dy  Dy1  1  0.720824  0.818856  0.539683  1
  Dy  Dy2  1  0.279174  0.818856  0.098031  1
  Dy  Dy3  1  0.720826  0.181144  0.901969  1
  Dy  Dy4  1  0.619997  0.311392  0.308605  1
  Dy  Dy5  1  0.380003  0.688608  0.691395  1
  Dy  Dy6  1  0.002787  0.311392  0.691395  1
  Dy  Dy7  1  0.997213  0.688608  0.308605  1
  Tm  Tm8  1  0.214968  0.411236  0.196270  1
  Tm  Tm9  1  0.785032  0.588764  0.803730  1
  Tm  Tm10  1  0.214967  0.018699  0.803732  1
  Tm  Tm11  1  0.785033  0.981301  0.196268  1
  Co  Co12  1  0.999998  0.374146  0.374148  1
  Co  Co13  1  0.000002  0.625854  0.625852  1
  Co  Co14  1  0.389102  0.889109  0.500007  1
  Co  Co15  1  0.610898  0.110891  0.499993  1
  Bi  Bi16  1  0.500000  0.500000  0.000000  1
  Os  Os17  1  0.000000  0.000000  0.000000  1
