# generated using pymatgen
data_YbErCd2(Ru2O7)2
_symmetry_space_group_name_H-M   'P 1'
_cell_length_a   7.33513415
_cell_length_b   7.23486478
_cell_length_c   7.23486281
_cell_angle_alpha   59.11478562
_cell_angle_beta   59.43090587
_cell_angle_gamma   59.43091362
_symmetry_Int_Tables_number   1
_chemical_formula_structural   YbErCd2(Ru2O7)2
_chemical_formula_sum   'Yb1 Er1 Cd2 Ru4 O14'
_cell_volume   267.31563518
_cell_formula_units_Z   1
loop_
 _symmetry_equiv_pos_site_id
 _symmetry_equiv_pos_as_xyz
  1  'x, y, z'
loop_
 _atom_site_type_symbol
 _atom_site_label
 _atom_site_symmetry_multiplicity
 _atom_site_fract_x
 _atom_site_fract_y
 _atom_site_fract_z
 _atom_site_occupancy
  Yb  Yb0  1  0.625000  0.125000  0.125000  1
  Er  Er1  1  0.125000  0.125000  0.125000  1
  Cd  Cd2  1  0.125000  0.625000  0.125000  1
  Cd  Cd3  1  0.125000  0.125000  0.625000  1
  Ru  Ru4  1  0.625000  0.125000  0.625000  1
  Ru  Ru5  1  0.625000  0.625000  0.125000  1
  Ru  Ru6  1  0.125000  0.625000  0.625000  1
  Ru  Ru7  1  0.625000  0.625000  0.625000  1
  O  O8  1  0.696245  0.696408  0.301638  1
  O  O9  1  0.940689  0.559528  0.559528  1
  O  O10  1  0.535299  0.961474  0.961474  1
  O  O11  1  0.948662  0.950863  0.545309  1
  O  O12  1  0.948662  0.545309  0.950863  1
  O  O13  1  0.553755  0.948362  0.553592  1
  O  O14  1  0.301338  0.704691  0.299137  1
  O  O15  1  0.309311  0.690472  0.690472  1
  O  O16  1  0.714701  0.288526  0.288526  1
  O  O17  1  0.696245  0.301638  0.696408  1
  O  O18  1  0.553755  0.553592  0.948362  1
  O  O19  1  0.301338  0.299137  0.704691  1
  O  O20  1  0.238490  0.253549  0.253549  1
  O  O21  1  0.011510  0.996451  0.996451  1
