# generated using pymatgen
data_Zr4MnV4Re3
_symmetry_space_group_name_H-M   'P 1'
_cell_length_a   5.25932600
_cell_length_b   5.25932767
_cell_length_c   8.54354800
_cell_angle_alpha   90.00000000
_cell_angle_beta   90.00000000
_cell_angle_gamma   119.97843065
_symmetry_Int_Tables_number   1
_chemical_formula_structural   Zr4MnV4Re3
_chemical_formula_sum   'Zr4 Mn1 V4 Re3'
_cell_volume   204.70269855
_cell_formula_units_Z   1
loop_
 _symmetry_equiv_pos_site_id
 _symmetry_equiv_pos_as_xyz
  1  'x, y, z'
loop_
 _atom_site_type_symbol
 _atom_site_label
 _atom_site_symmetry_multiplicity
 _atom_site_fract_x
 _atom_site_fract_y
 _atom_site_fract_z
 _atom_site_occupancy
  Zr  Zr0  1  0.332551  0.667449  0.441386  1
  Zr  Zr1  1  0.667035  0.332965  0.561620  1
  Zr  Zr2  1  0.667035  0.332965  0.938380  1
  Zr  Zr3  1  0.332551  0.667449  0.058614  1
  Mn  Mn4  1  0.169893  0.830107  0.750000  1
  V  V5  1  0.829601  0.662898  0.250000  1
  V  V6  1  0.337102  0.170399  0.250000  1
  V  V7  1  0.170279  0.340444  0.750000  1
  V  V8  1  0.659556  0.829721  0.750000  1
  Re  Re9  1  0.002380  0.997620  0.505878  1
  Re  Re10  1  0.002380  0.997620  0.994122  1
  Re  Re11  1  0.829637  0.170363  0.250000  1
