# generated using pymatgen
data_HfZr3Np2F22
_symmetry_space_group_name_H-M   'P 1'
_cell_length_a   8.50962753
_cell_length_b   8.50962720
_cell_length_c   8.50756703
_cell_angle_alpha   124.81186874
_cell_angle_beta   106.37106346
_cell_angle_gamma   98.48010214
_symmetry_Int_Tables_number   1
_chemical_formula_structural   HfZr3Np2F22
_chemical_formula_sum   'Hf1 Zr3 Np2 F22'
_cell_volume   446.57080956
_cell_formula_units_Z   1
loop_
 _symmetry_equiv_pos_site_id
 _symmetry_equiv_pos_as_xyz
  1  'x, y, z'
loop_
 _atom_site_type_symbol
 _atom_site_label
 _atom_site_symmetry_multiplicity
 _atom_site_fract_x
 _atom_site_fract_y
 _atom_site_fract_z
 _atom_site_occupancy
  Hf  Hf0  1  0.818803  0.133801  0.952603  1
  Zr  Zr1  1  0.682944  0.632622  0.315566  1
  Zr  Zr2  1  0.321006  0.366177  0.687183  1
  Zr  Zr3  1  0.179166  0.866989  0.046155  1
  Np  Np4  1  0.751275  0.246515  0.498602  1
  Np  Np5  1  0.252087  0.747326  0.498602  1
  F  F6  1  0.706238  0.893914  0.340606  1
  F  F7  1  0.293402  0.105161  0.659091  1
  F  F8  1  0.553930  0.365689  0.659091  1
  F  F9  1  0.945102  0.606022  0.811444  1
  F  F10  1  0.446690  0.634368  0.340606  1
  F  F11  1  0.049898  0.391725  0.184752  1
  F  F12  1  0.793028  0.134854  0.184752  1
  F  F13  1  0.205422  0.866342  0.811444  1
  F  F14  1  0.501525  0.500357  0.001882  1
  F  F15  1  0.997360  0.002430  0.999790  1
  F  F16  1  0.780503  0.873101  0.653604  1
  F  F17  1  0.218146  0.130274  0.348420  1
  F  F18  1  0.280879  0.629585  0.910465  1
  F  F19  1  0.720715  0.368269  0.088983  1
  F  F20  1  0.953030  0.739801  0.418238  1
  F  F21  1  0.047666  0.260894  0.582601  1
  F  F22  1  0.321707  0.534935  0.582601  1
  F  F23  1  0.177762  0.761972  0.213320  1
  F  F24  1  0.678436  0.465208  0.418238  1
  F  F25  1  0.820921  0.238009  0.789021  1
  F  F26  1  0.551012  0.968100  0.789021  1
  F  F27  1  0.451349  0.035558  0.213320  1
