# generated using pymatgen
data_Pr5TmZn4Pt13
_symmetry_space_group_name_H-M   'P 1'
_cell_length_a   8.37456044
_cell_length_b   8.37456052
_cell_length_c   8.37456100
_cell_angle_alpha   109.52862250
_cell_angle_beta   109.52861542
_cell_angle_gamma   109.35649028
_symmetry_Int_Tables_number   1
_chemical_formula_structural   Pr5TmZn4Pt13
_chemical_formula_sum   'Pr5 Tm1 Zn4 Pt13'
_cell_volume   452.12952818
_cell_formula_units_Z   1
loop_
 _symmetry_equiv_pos_site_id
 _symmetry_equiv_pos_as_xyz
  1  'x, y, z'
loop_
 _atom_site_type_symbol
 _atom_site_label
 _atom_site_symmetry_multiplicity
 _atom_site_fract_x
 _atom_site_fract_y
 _atom_site_fract_z
 _atom_site_occupancy
  Pr  Pr0  1  0.301270  0.000628  0.300642  1
  Pr  Pr1  1  0.000628  0.301270  0.300642  1
  Pr  Pr2  1  0.295486  0.295486  0.000000  1
  Pr  Pr3  1  0.699986  0.000628  0.699358  1
  Pr  Pr4  1  0.000628  0.699986  0.699358  1
  Tm  Tm5  1  0.692352  0.692352  0.000000  1
  Zn  Zn6  1  0.001279  0.001279  0.498125  1
  Zn  Zn7  1  0.001279  0.503153  0.000000  1
  Zn  Zn8  1  0.503153  0.001279  0.000000  1
  Zn  Zn9  1  0.503153  0.503153  0.501875  1
  Pt  Pt10  1  0.335689  0.335689  0.668397  1
  Pt  Pt11  1  0.673505  0.997416  0.323911  1
  Pt  Pt12  1  0.997416  0.673505  0.323911  1
  Pt  Pt13  1  0.667293  0.335689  0.000000  1
  Pt  Pt14  1  0.328700  0.658747  0.330048  1
  Pt  Pt15  1  0.998651  0.328700  0.669952  1
  Pt  Pt16  1  0.335689  0.667293  0.000000  1
  Pt  Pt17  1  0.328700  0.998651  0.669952  1
  Pt  Pt18  1  0.658747  0.328700  0.330048  1
  Pt  Pt19  1  0.667293  0.667293  0.331603  1
  Pt  Pt20  1  0.673505  0.349594  0.676089  1
  Pt  Pt21  1  0.349594  0.673505  0.676089  1
  Pt  Pt22  1  0.986006  0.986006  0.000000  1
