# generated using pymatgen
data_YbY3Os8
_symmetry_space_group_name_H-M   'P 1'
_cell_length_a   5.33476800
_cell_length_b   5.33476697
_cell_length_c   8.79159000
_cell_angle_alpha   90.00000000
_cell_angle_beta   90.00000000
_cell_angle_gamma   119.99999398
_symmetry_Int_Tables_number   1
_chemical_formula_structural   YbY3Os8
_chemical_formula_sum   'Yb1 Y3 Os8'
_cell_volume   216.68511331
_cell_formula_units_Z   1
loop_
 _symmetry_equiv_pos_site_id
 _symmetry_equiv_pos_as_xyz
  1  'x, y, z'
loop_
 _atom_site_type_symbol
 _atom_site_label
 _atom_site_symmetry_multiplicity
 _atom_site_fract_x
 _atom_site_fract_y
 _atom_site_fract_z
 _atom_site_occupancy
  Yb  Yb0  1  0.333333  0.666667  0.063403  1
  Y  Y1  1  0.333333  0.666667  0.429122  1
  Y  Y2  1  0.666667  0.333333  0.565729  1
  Y  Y3  1  0.666667  0.333333  0.938882  1
  Os  Os4  1  0.000000  0.000000  0.501037  1
  Os  Os5  1  0.000000  0.000000  0.000899  1
  Os  Os6  1  0.828064  0.171936  0.250084  1
  Os  Os7  1  0.828064  0.656128  0.250084  1
  Os  Os8  1  0.343872  0.171936  0.250084  1
  Os  Os9  1  0.172928  0.827072  0.750225  1
  Os  Os10  1  0.172928  0.345857  0.750225  1
  Os  Os11  1  0.654143  0.827072  0.750225  1
