# generated using pymatgen
data_NdHo3Tc4F28
_symmetry_space_group_name_H-M   'P 1'
_cell_length_a   5.61362250
_cell_length_b   8.95359103
_cell_length_c   12.08757197
_cell_angle_alpha   62.57096076
_cell_angle_beta   89.91895242
_cell_angle_gamma   89.98131812
_symmetry_Int_Tables_number   1
_chemical_formula_structural   NdHo3Tc4F28
_chemical_formula_sum   'Nd1 Ho3 Tc4 F28'
_cell_volume   539.24678686
_cell_formula_units_Z   1
loop_
 _symmetry_equiv_pos_site_id
 _symmetry_equiv_pos_as_xyz
  1  'x, y, z'
loop_
 _atom_site_type_symbol
 _atom_site_label
 _atom_site_symmetry_multiplicity
 _atom_site_fract_x
 _atom_site_fract_y
 _atom_site_fract_z
 _atom_site_occupancy
  Nd  Nd0  1  0.758531  0.814737  0.765169  1
  Ho  Ho1  1  0.260088  0.191623  0.734765  1
  Ho  Ho2  1  0.241023  0.185956  0.235582  1
  Ho  Ho3  1  0.741321  0.815042  0.264580  1
  Tc  Tc4  1  0.757951  0.268505  0.958933  1
  Tc  Tc5  1  0.256177  0.726495  0.538978  1
  Tc  Tc6  1  0.242446  0.726139  0.047426  1
  Tc  Tc7  1  0.740962  0.276171  0.454687  1
  F  F8  1  0.438050  0.705437  0.921032  1
  F  F9  1  0.943502  0.293833  0.580157  1
  F  F10  1  0.554709  0.290311  0.082643  1
  F  F11  1  0.055538  0.706831  0.414044  1
  F  F12  1  0.448459  0.278445  0.545374  1
  F  F13  1  0.949026  0.719575  0.961160  1
  F  F14  1  0.553530  0.723556  0.451909  1
  F  F15  1  0.050955  0.273965  0.048041  1
  F  F16  1  0.775741  0.513698  0.861740  1
  F  F17  1  0.273289  0.479673  0.637885  1
  F  F18  1  0.228722  0.478405  0.142940  1
  F  F19  1  0.726184  0.522682  0.358381  1
  F  F20  1  0.756003  0.023078  0.054579  1
  F  F21  1  0.254827  0.972387  0.445067  1
  F  F22  1  0.243060  0.971169  0.949170  1
  F  F23  1  0.743773  0.030737  0.548643  1
  F  F24  1  0.971869  0.725927  0.633013  1
  F  F25  1  0.474878  0.270286  0.862343  1
  F  F26  1  0.022612  0.271115  0.359168  1
  F  F27  1  0.526486  0.729764  0.141304  1
  F  F28  1  0.046279  0.747086  0.175148  1
  F  F29  1  0.542577  0.254518  0.327374  1
  F  F30  1  0.956138  0.250308  0.829948  1
  F  F31  1  0.444550  0.743647  0.669668  1
  F  F32  1  0.422343  0.973125  0.232958  1
  F  F33  1  0.922314  0.027798  0.267160  1
  F  F34  1  0.580676  0.040918  0.768557  1
  F  F35  1  0.095410  0.977059  0.730473  1
