# generated using pymatgen
data_Er8AsPd24
_symmetry_space_group_name_H-M   'P 1'
_cell_length_a   8.32894100
_cell_length_b   8.32894100
_cell_length_c   8.32894100
_cell_angle_alpha   90.00000000
_cell_angle_beta   90.00000000
_cell_angle_gamma   90.00000000
_symmetry_Int_Tables_number   1
_chemical_formula_structural   Er8AsPd24
_chemical_formula_sum   'Er8 As1 Pd24'
_cell_volume   577.78911649
_cell_formula_units_Z   1
loop_
 _symmetry_equiv_pos_site_id
 _symmetry_equiv_pos_as_xyz
  1  'x, y, z'
loop_
 _atom_site_type_symbol
 _atom_site_label
 _atom_site_symmetry_multiplicity
 _atom_site_fract_x
 _atom_site_fract_y
 _atom_site_fract_z
 _atom_site_occupancy
  Er  Er0  1  0.255200  0.255200  0.255200  1
  Er  Er1  1  0.744800  0.744800  0.744800  1
  Er  Er2  1  0.744800  0.744800  0.255200  1
  Er  Er3  1  0.744800  0.255200  0.744800  1
  Er  Er4  1  0.255200  0.255200  0.744800  1
  Er  Er5  1  0.255200  0.744800  0.255200  1
  Er  Er6  1  0.255200  0.744800  0.744800  1
  Er  Er7  1  0.744800  0.255200  0.255200  1
  As  As8  1  0.000000  0.000000  0.000000  1
  Pd  Pd9  1  0.257942  0.500000  0.000000  1
  Pd  Pd10  1  0.742058  0.500000  0.000000  1
  Pd  Pd11  1  0.000000  0.257942  0.500000  1
  Pd  Pd12  1  0.500000  0.257942  0.000000  1
  Pd  Pd13  1  0.000000  0.742058  0.500000  1
  Pd  Pd14  1  0.500000  0.742058  0.000000  1
  Pd  Pd15  1  0.500000  0.000000  0.257942  1
  Pd  Pd16  1  0.257942  0.000000  0.500000  1
  Pd  Pd17  1  0.500000  0.000000  0.742058  1
  Pd  Pd18  1  0.742058  0.000000  0.500000  1
  Pd  Pd19  1  0.000000  0.500000  0.257942  1
  Pd  Pd20  1  0.000000  0.500000  0.742058  1
  Pd  Pd21  1  0.252212  0.500000  0.500000  1
  Pd  Pd22  1  0.747788  0.500000  0.500000  1
  Pd  Pd23  1  0.500000  0.252212  0.500000  1
  Pd  Pd24  1  0.500000  0.747788  0.500000  1
  Pd  Pd25  1  0.500000  0.500000  0.252212  1
  Pd  Pd26  1  0.500000  0.500000  0.747788  1
  Pd  Pd27  1  0.286073  0.000000  0.000000  1
  Pd  Pd28  1  0.713927  0.000000  0.000000  1
  Pd  Pd29  1  0.000000  0.286073  0.000000  1
  Pd  Pd30  1  0.000000  0.713927  0.000000  1
  Pd  Pd31  1  0.000000  0.000000  0.286073  1
  Pd  Pd32  1  0.000000  0.000000  0.713927  1
