# generated using pymatgen
data_La17Pr3Si15As
_symmetry_space_group_name_H-M   'P 1'
_cell_length_a   8.02897564
_cell_length_b   8.01252132
_cell_length_c   15.54293665
_cell_angle_alpha   89.92894176
_cell_angle_beta   89.49324951
_cell_angle_gamma   89.86198835
_symmetry_Int_Tables_number   1
_chemical_formula_structural   La17Pr3Si15As
_chemical_formula_sum   'La17 Pr3 Si15 As1'
_cell_volume   999.87070888
_cell_formula_units_Z   1
loop_
 _symmetry_equiv_pos_site_id
 _symmetry_equiv_pos_as_xyz
  1  'x, y, z'
loop_
 _atom_site_type_symbol
 _atom_site_label
 _atom_site_symmetry_multiplicity
 _atom_site_fract_x
 _atom_site_fract_y
 _atom_site_fract_z
 _atom_site_occupancy
  La  La0  1  0.311298  0.311079  0.999777  1
  La  La1  1  0.190652  0.809088  0.249886  1
  La  La2  1  0.803565  0.191045  0.751331  1
  La  La3  1  0.687070  0.688303  0.497562  1
  La  La4  1  0.380208  0.009999  0.446498  1
  La  La5  1  0.490585  0.878539  0.697616  1
  La  La6  1  0.510519  0.121153  0.197616  1
  La  La7  1  0.877997  0.488531  0.301696  1
  La  La8  1  0.121539  0.510171  0.802772  1
  La  La9  1  0.623820  0.988081  0.948246  1
  La  La10  1  0.006920  0.378837  0.550635  1
  La  La11  1  0.989414  0.620392  0.052865  1
  La  La12  1  0.129814  0.984704  0.875634  1
  La  La13  1  0.518186  0.628415  0.126429  1
  La  La14  1  0.481595  0.371217  0.627376  1
  La  La15  1  0.629178  0.518316  0.874366  1
  La  La16  1  0.371073  0.480774  0.374086  1
  Pr  Pr17  1  0.873464  0.017451  0.376416  1
  Pr  Pr18  1  0.982191  0.128193  0.124909  1
  Pr  Pr19  1  0.016847  0.871403  0.622999  1
  Si  Si20  1  0.330960  0.698405  0.952287  1
  Si  Si21  1  0.668701  0.301376  0.452951  1
  Si  Si22  1  0.700730  0.331958  0.048456  1
  Si  Si23  1  0.300641  0.669084  0.548467  1
  Si  Si24  1  0.803457  0.834295  0.202715  1
  Si  Si25  1  0.166156  0.196615  0.297656  1
  Si  Si26  1  0.836101  0.802713  0.796374  1
  Si  Si27  1  0.287163  0.921486  0.058912  1
  Si  Si28  1  0.580576  0.791053  0.308819  1
  Si  Si29  1  0.431375  0.209220  0.814220  1
  Si  Si30  1  0.791480  0.581026  0.689609  1
  Si  Si31  1  0.209006  0.420056  0.191151  1
  Si  Si32  1  0.709549  0.076877  0.559224  1
  Si  Si33  1  0.923286  0.288167  0.941760  1
  Si  Si34  1  0.077935  0.712547  0.441638  1
  As  As35  1  0.186950  0.169426  0.697047  1
