# generated using pymatgen
data_Tb3Pr5Sc12Ga5Si11
_symmetry_space_group_name_H-M   'P 1'
_cell_length_a   7.26180186
_cell_length_b   7.50123453
_cell_length_c   14.38786977
_cell_angle_alpha   90.08489581
_cell_angle_beta   90.12294332
_cell_angle_gamma   90.13281123
_symmetry_Int_Tables_number   1
_chemical_formula_structural   Tb3Pr5Sc12Ga5Si11
_chemical_formula_sum   'Tb3 Pr5 Sc12 Ga5 Si11'
_cell_volume   783.73815632
_cell_formula_units_Z   1
loop_
 _symmetry_equiv_pos_site_id
 _symmetry_equiv_pos_as_xyz
  1  'x, y, z'
loop_
 _atom_site_type_symbol
 _atom_site_label
 _atom_site_symmetry_multiplicity
 _atom_site_fract_x
 _atom_site_fract_y
 _atom_site_fract_z
 _atom_site_occupancy
  Tb  Tb0  1  0.012955  0.174407  0.398493  1
  Tb  Tb1  1  0.512754  0.325793  0.398741  1
  Tb  Tb2  1  0.490073  0.674925  0.897855  1
  Pr  Pr3  1  0.488097  0.673333  0.596514  1
  Pr  Pr4  1  0.988406  0.826511  0.597129  1
  Pr  Pr5  1  0.988113  0.830634  0.900521  1
  Pr  Pr6  1  0.511157  0.327797  0.099463  1
  Pr  Pr7  1  0.010513  0.171914  0.100199  1
  Sc  Sc8  1  0.329418  0.173565  0.625265  1
  Sc  Sc9  1  0.671027  0.823785  0.374622  1
  Sc  Sc10  1  0.663259  0.001495  0.752107  1
  Sc  Sc11  1  0.170645  0.676302  0.374404  1
  Sc  Sc12  1  0.825867  0.324743  0.874372  1
  Sc  Sc13  1  0.828894  0.326306  0.625102  1
  Sc  Sc14  1  0.836952  0.501044  0.252971  1
  Sc  Sc15  1  0.337781  0.997937  0.253507  1
  Sc  Sc16  1  0.333136  0.175292  0.872789  1
  Sc  Sc17  1  0.170564  0.673018  0.128526  1
  Sc  Sc18  1  0.669125  0.826108  0.127592  1
  Sc  Sc19  1  0.163006  0.497650  0.751200  1
  Ga  Ga20  1  0.154812  0.455040  0.536501  1
  Ga  Ga21  1  0.843284  0.542721  0.039043  1
  Ga  Ga22  1  0.345414  0.954346  0.037809  1
  Ga  Ga23  1  0.159268  0.460331  0.959113  1
  Ga  Ga24  1  0.654948  0.045223  0.536632  1
  Si  Si25  1  0.289459  0.879248  0.750684  1
  Si  Si26  1  0.466825  0.621020  0.252647  1
  Si  Si27  1  0.033787  0.124643  0.749334  1
  Si  Si28  1  0.533588  0.380133  0.750155  1
  Si  Si29  1  0.966734  0.879688  0.252240  1
  Si  Si30  1  0.711746  0.121646  0.253965  1
  Si  Si31  1  0.344884  0.967122  0.458068  1
  Si  Si32  1  0.845038  0.533054  0.457967  1
  Si  Si33  1  0.785804  0.619266  0.750803  1
  Si  Si34  1  0.212116  0.378067  0.253781  1
  Si  Si35  1  0.650550  0.035897  0.959886  1
