# generated using pymatgen
data_Ce2DyTm5(Si3Pt)4
_symmetry_space_group_name_H-M   'P 1'
_cell_length_a   8.11902538
_cell_length_b   8.12446068
_cell_length_c   8.17892900
_cell_angle_alpha   90.00000000
_cell_angle_beta   90.00000000
_cell_angle_gamma   120.02213919
_symmetry_Int_Tables_number   1
_chemical_formula_structural   Ce2DyTm5(Si3Pt)4
_chemical_formula_sum   'Ce2 Dy1 Tm5 Si12 Pt4'
_cell_volume   467.12012734
_cell_formula_units_Z   1
loop_
 _symmetry_equiv_pos_site_id
 _symmetry_equiv_pos_as_xyz
  1  'x, y, z'
loop_
 _atom_site_type_symbol
 _atom_site_label
 _atom_site_symmetry_multiplicity
 _atom_site_fract_x
 _atom_site_fract_y
 _atom_site_fract_z
 _atom_site_occupancy
  Ce  Ce0  1  0.999868  0.999934  0.250000  1
  Ce  Ce1  1  0.999902  0.999951  0.750000  1
  Dy  Dy2  1  0.001108  0.500554  0.750000  1
  Tm  Tm3  1  0.500708  0.499481  0.250000  1
  Tm  Tm4  1  0.500708  0.001227  0.250000  1
  Tm  Tm5  1  0.998845  0.499423  0.250000  1
  Tm  Tm6  1  0.499476  0.500561  0.750000  1
  Tm  Tm7  1  0.499476  0.998913  0.750000  1
  Si  Si8  1  0.165825  0.834190  0.498926  1
  Si  Si9  1  0.165825  0.331636  0.498926  1
  Si  Si10  1  0.668789  0.834395  0.500006  1
  Si  Si11  1  0.834232  0.165803  0.499942  1
  Si  Si12  1  0.834232  0.668428  0.499942  1
  Si  Si13  1  0.331259  0.165629  0.500857  1
  Si  Si14  1  0.834232  0.165803  0.000058  1
  Si  Si15  1  0.834232  0.668428  0.000058  1
  Si  Si16  1  0.331259  0.165629  0.999143  1
  Si  Si17  1  0.165825  0.834190  0.001074  1
  Si  Si18  1  0.165825  0.331636  0.001074  1
  Si  Si19  1  0.668789  0.834395  0.999994  1
  Pt  Pt20  1  0.334022  0.667012  0.496891  1
  Pt  Pt21  1  0.665772  0.332886  0.498823  1
  Pt  Pt22  1  0.665772  0.332886  0.001177  1
  Pt  Pt23  1  0.334022  0.667012  0.003109  1
