# generated using pymatgen
data_Sr2Th2(Al8Pt3)3
_symmetry_space_group_name_H-M   'P 1'
_cell_length_a   7.56967138
_cell_length_b   7.60026747
_cell_length_c   13.38896515
_cell_angle_alpha   84.80889077
_cell_angle_beta   100.67627240
_cell_angle_gamma   119.53668522
_symmetry_Int_Tables_number   1
_chemical_formula_structural   Sr2Th2(Al8Pt3)3
_chemical_formula_sum   'Sr2 Th2 Al24 Pt9'
_cell_volume   658.57977993
_cell_formula_units_Z   1
loop_
 _symmetry_equiv_pos_site_id
 _symmetry_equiv_pos_as_xyz
  1  'x, y, z'
loop_
 _atom_site_type_symbol
 _atom_site_label
 _atom_site_symmetry_multiplicity
 _atom_site_fract_x
 _atom_site_fract_y
 _atom_site_fract_z
 _atom_site_occupancy
  Sr  Sr0  1  0.768693  0.502234  0.808234  1
  Sr  Sr1  1  0.231307  0.497766  0.191766  1
  Th  Th2  1  0.435834  0.830544  0.805470  1
  Th  Th3  1  0.564166  0.169456  0.194530  1
  Al  Al4  1  0.479417  0.166900  0.946333  1
  Al  Al5  1  0.520583  0.833100  0.053667  1
  Al  Al6  1  0.021092  0.167353  0.558720  1
  Al  Al7  1  0.978908  0.832647  0.441280  1
  Al  Al8  1  0.354384  0.833604  0.556211  1
  Al  Al9  1  0.645616  0.166396  0.443789  1
  Al  Al10  1  0.619990  0.830620  0.334390  1
  Al  Al11  1  0.380010  0.169380  0.665610  1
  Al  Al12  1  0.051235  0.490089  0.664981  1
  Al  Al13  1  0.948765  0.509911  0.335019  1
  Al  Al14  1  0.733277  0.840209  0.663799  1
  Al  Al15  1  0.266723  0.159791  0.336201  1
  Al  Al16  1  0.147778  0.496545  0.948068  1
  Al  Al17  1  0.852222  0.503455  0.051932  1
  Al  Al18  1  0.820576  0.835119  0.957285  1
  Al  Al19  1  0.179424  0.164881  0.042715  1
  Al  Al20  1  0.313310  0.500384  0.442087  1
  Al  Al21  1  0.686690  0.499616  0.557913  1
  Al  Al22  1  0.102059  0.840622  0.183280  1
  Al  Al23  1  0.897941  0.159378  0.816720  1
  Al  Al24  1  0.300826  0.368136  0.815037  1
  Al  Al25  1  0.699174  0.631864  0.184963  1
  Al  Al26  1  0.107262  0.965817  0.816083  1
  Al  Al27  1  0.892738  0.034183  0.183917  1
  Pt  Pt28  1  0.384829  0.506870  0.636426  1
  Pt  Pt29  1  0.615171  0.493130  0.363574  1
  Pt  Pt30  1  0.172738  0.830058  0.999615  1
  Pt  Pt31  1  0.827262  0.169942  0.000385  1
  Pt  Pt32  1  0.294938  0.835389  0.362797  1
  Pt  Pt33  1  0.705062  0.164611  0.637203  1
  Pt  Pt34  1  0.049885  0.828598  0.636087  1
  Pt  Pt35  1  0.950115  0.171402  0.363913  1
  Pt  Pt36  1  0.500000  0.500000  0.000000  1
