# generated using pymatgen
data_SrLaScPtO6
_symmetry_space_group_name_H-M   'P 1'
_cell_length_a   8.05730941
_cell_length_b   8.08693097
_cell_length_c   8.08705258
_cell_angle_alpha   90.49874362
_cell_angle_beta   89.88322441
_cell_angle_gamma   89.88296602
_symmetry_Int_Tables_number   1
_chemical_formula_structural   SrLaScPtO6
_chemical_formula_sum   'Sr4 La4 Sc4 Pt4 O24'
_cell_volume   526.92131427
_cell_formula_units_Z   4
loop_
 _symmetry_equiv_pos_site_id
 _symmetry_equiv_pos_as_xyz
  1  'x, y, z'
loop_
 _atom_site_type_symbol
 _atom_site_label
 _atom_site_symmetry_multiplicity
 _atom_site_fract_x
 _atom_site_fract_y
 _atom_site_fract_z
 _atom_site_occupancy
  Sr  Sr0  1  0.750726  0.486672  0.019787  1
  Sr  Sr1  1  0.750720  0.986674  0.519794  1
  Sr  Sr2  1  0.250723  0.019801  0.986667  1
  Sr  Sr3  1  0.250735  0.519790  0.486665  1
  La  La4  1  0.749753  0.973307  0.015269  1
  La  La5  1  0.749754  0.473305  0.515267  1
  La  La6  1  0.249747  0.515259  0.973284  1
  La  La7  1  0.249750  0.015258  0.473290  1
  Sc  Sc8  1  0.000065  0.248045  0.751600  1
  Sc  Sc9  1  0.500064  0.751606  0.748055  1
  Sc  Sc10  1  0.000067  0.748050  0.251597  1
  Sc  Sc11  1  0.500062  0.251604  0.248056  1
  Pt  Pt12  1  0.499943  0.749721  0.250287  1
  Pt  Pt13  1  0.499943  0.249723  0.750290  1
  Pt  Pt14  1  0.999945  0.250289  0.249724  1
  Pt  Pt15  1  0.999944  0.750288  0.749722  1
  O  O16  1  0.753295  0.213858  0.197377  1
  O  O17  1  0.753295  0.713857  0.697373  1
  O  O18  1  0.253295  0.697362  0.213853  1
  O  O19  1  0.253295  0.197364  0.713857  1
  O  O20  1  0.746776  0.298730  0.773351  1
  O  O21  1  0.746775  0.798728  0.273352  1
  O  O22  1  0.246774  0.773361  0.798722  1
  O  O23  1  0.246775  0.273363  0.298719  1
  O  O24  1  0.954660  0.496983  0.290966  1
  O  O25  1  0.954655  0.996982  0.790967  1
  O  O26  1  0.454664  0.290956  0.996985  1
  O  O27  1  0.454665  0.790955  0.496985  1
  O  O28  1  0.541432  0.719902  0.002472  1
  O  O29  1  0.541428  0.219902  0.502473  1
  O  O30  1  0.041440  0.502470  0.719900  1
  O  O31  1  0.041445  0.002471  0.219901  1
  O  O32  1  0.458666  0.496602  0.719303  1
  O  O33  1  0.458667  0.996601  0.219303  1
  O  O34  1  0.958690  0.719295  0.996602  1
  O  O35  1  0.958692  0.219292  0.496602  1
  O  O36  1  0.044662  0.292039  0.003743  1
  O  O37  1  0.044662  0.792044  0.503743  1
  O  O38  1  0.544677  0.503745  0.292050  1
  O  O39  1  0.544676  0.003746  0.792051  1
