# generated using pymatgen
data_Ba2Zn4AsP3
_symmetry_space_group_name_H-M   'P 1'
_cell_length_a   4.18589900
_cell_length_b   9.87670868
_cell_length_c   10.76401681
_cell_angle_alpha   89.65511860
_cell_angle_beta   90.00000000
_cell_angle_gamma   90.00000000
_symmetry_Int_Tables_number   1
_chemical_formula_structural   Ba2Zn4AsP3
_chemical_formula_sum   'Ba4 Zn8 As2 P6'
_cell_volume   445.00766221
_cell_formula_units_Z   2
loop_
 _symmetry_equiv_pos_site_id
 _symmetry_equiv_pos_as_xyz
  1  'x, y, z'
loop_
 _atom_site_type_symbol
 _atom_site_label
 _atom_site_symmetry_multiplicity
 _atom_site_fract_x
 _atom_site_fract_y
 _atom_site_fract_z
 _atom_site_occupancy
  Ba  Ba0  1  0.250000  0.744403  0.325191  1
  Ba  Ba1  1  0.750000  0.255597  0.674809  1
  Ba  Ba2  1  0.250000  0.249366  0.172992  1
  Ba  Ba3  1  0.750000  0.750634  0.827008  1
  Zn  Zn4  1  0.750000  0.401486  0.950050  1
  Zn  Zn5  1  0.250000  0.598514  0.049950  1
  Zn  Zn6  1  0.250000  0.104762  0.451064  1
  Zn  Zn7  1  0.750000  0.895238  0.548936  1
  Zn  Zn8  1  0.750000  0.949377  0.110415  1
  Zn  Zn9  1  0.250000  0.050623  0.889585  1
  Zn  Zn10  1  0.750000  0.451318  0.383402  1
  Zn  Zn11  1  0.250000  0.548682  0.616598  1
  As  As12  1  0.750000  0.023057  0.337880  1
  As  As13  1  0.250000  0.976943  0.662120  1
  P  P14  1  0.750000  0.647147  0.539884  1
  P  P15  1  0.250000  0.352853  0.460116  1
  P  P16  1  0.250000  0.848743  0.039341  1
  P  P17  1  0.750000  0.151257  0.960659  1
  P  P18  1  0.750000  0.521024  0.158446  1
  P  P19  1  0.250000  0.478976  0.841554  1
