# generated using pymatgen
data_Dy4Al4Ir3Pt
_symmetry_space_group_name_H-M   'P 1'
_cell_length_a   4.31297800
_cell_length_b   6.84353945
_cell_length_c   7.87928155
_cell_angle_alpha   90.04198333
_cell_angle_beta   90.00000000
_cell_angle_gamma   90.00000000
_symmetry_Int_Tables_number   1
_chemical_formula_structural   Dy4Al4Ir3Pt
_chemical_formula_sum   'Dy4 Al4 Ir3 Pt1'
_cell_volume   232.56508798
_cell_formula_units_Z   1
loop_
 _symmetry_equiv_pos_site_id
 _symmetry_equiv_pos_as_xyz
  1  'x, y, z'
loop_
 _atom_site_type_symbol
 _atom_site_label
 _atom_site_symmetry_multiplicity
 _atom_site_fract_x
 _atom_site_fract_y
 _atom_site_fract_z
 _atom_site_occupancy
  Dy  Dy0  1  0.250000  0.471046  0.183437  1
  Dy  Dy1  1  0.750000  0.534907  0.818276  1
  Dy  Dy2  1  0.750000  0.028303  0.678565  1
  Dy  Dy3  1  0.250000  0.969780  0.319665  1
  Al  Al4  1  0.250000  0.856720  0.937539  1
  Al  Al5  1  0.750000  0.139311  0.064443  1
  Al  Al6  1  0.750000  0.640257  0.437396  1
  Al  Al7  1  0.250000  0.360546  0.560531  1
  Ir  Ir8  1  0.250000  0.732111  0.618909  1
  Ir  Ir9  1  0.750000  0.268214  0.381932  1
  Ir  Ir10  1  0.750000  0.768195  0.117290  1
  Pt  Pt11  1  0.250000  0.230609  0.882016  1
