# generated using pymatgen
data_Pr9Y(Sn3Br)2
_symmetry_space_group_name_H-M   'P 1'
_cell_length_a   9.58259000
_cell_length_b   9.58259104
_cell_length_c   6.86913700
_cell_angle_alpha   90.00000000
_cell_angle_beta   90.00000000
_cell_angle_gamma   120.00000331
_symmetry_Int_Tables_number   1
_chemical_formula_structural   Pr9Y(Sn3Br)2
_chemical_formula_sum   'Pr9 Y1 Sn6 Br2'
_cell_volume   546.25906411
_cell_formula_units_Z   1
loop_
 _symmetry_equiv_pos_site_id
 _symmetry_equiv_pos_as_xyz
  1  'x, y, z'
loop_
 _atom_site_type_symbol
 _atom_site_label
 _atom_site_symmetry_multiplicity
 _atom_site_fract_x
 _atom_site_fract_y
 _atom_site_fract_z
 _atom_site_occupancy
  Pr  Pr0  1  0.267356  0.268009  0.749508  1
  Pr  Pr1  1  0.000653  0.732644  0.749508  1
  Pr  Pr2  1  0.731991  0.999347  0.749508  1
  Pr  Pr3  1  0.000653  0.268009  0.250492  1
  Pr  Pr4  1  0.731991  0.732644  0.250492  1
  Pr  Pr5  1  0.666667  0.333333  0.500000  1
  Pr  Pr6  1  0.267356  0.999347  0.250492  1
  Pr  Pr7  1  0.333333  0.666667  0.000000  1
  Pr  Pr8  1  0.666667  0.333333  0.000000  1
  Y  Y9  1  0.333333  0.666667  0.500000  1
  Sn  Sn10  1  0.611768  0.997915  0.251121  1
  Sn  Sn11  1  0.002085  0.388232  0.748879  1
  Sn  Sn12  1  0.386147  0.997915  0.748879  1
  Sn  Sn13  1  0.611768  0.613853  0.748879  1
  Sn  Sn14  1  0.002085  0.613853  0.251121  1
  Sn  Sn15  1  0.386147  0.388232  0.251121  1
  Br  Br16  1  0.000000  0.000000  0.000000  1
  Br  Br17  1  0.000000  0.000000  0.500000  1
