# generated using pymatgen
data_Tb5Tm7Th4(MgRu)4
_symmetry_space_group_name_H-M   'P 1'
_cell_length_a   9.72845151
_cell_length_b   9.71732314
_cell_length_c   9.71732220
_cell_angle_alpha   59.96166825
_cell_angle_beta   59.96210334
_cell_angle_gamma   59.96210425
_symmetry_Int_Tables_number   1
_chemical_formula_structural   Tb5Tm7Th4(MgRu)4
_chemical_formula_sum   'Tb5 Tm7 Th4 Mg4 Ru4'
_cell_volume   649.00365272
_cell_formula_units_Z   1
loop_
 _symmetry_equiv_pos_site_id
 _symmetry_equiv_pos_as_xyz
  1  'x, y, z'
loop_
 _atom_site_type_symbol
 _atom_site_label
 _atom_site_symmetry_multiplicity
 _atom_site_fract_x
 _atom_site_fract_y
 _atom_site_fract_z
 _atom_site_occupancy
  Tb  Tb0  1  0.813030  0.186970  0.186970  1
  Tb  Tb1  1  0.815134  0.185124  0.813142  1
  Tb  Tb2  1  0.186600  0.813142  0.185124  1
  Tb  Tb3  1  0.815134  0.813142  0.185124  1
  Tb  Tb4  1  0.186600  0.185124  0.813142  1
  Tm  Tm5  1  0.064702  0.435298  0.435298  1
  Tm  Tm6  1  0.434739  0.065261  0.065261  1
  Tm  Tm7  1  0.434760  0.064242  0.435988  1
  Tm  Tm8  1  0.065009  0.435988  0.064242  1
  Tm  Tm9  1  0.434760  0.435988  0.064242  1
  Tm  Tm10  1  0.065009  0.064242  0.435988  1
  Tm  Tm11  1  0.186557  0.813443  0.813443  1
  Th  Th12  1  0.596350  0.596493  0.596493  1
  Th  Th13  1  0.596045  0.597174  0.210738  1
  Th  Th14  1  0.596045  0.210738  0.597174  1
  Th  Th15  1  0.210666  0.596493  0.596493  1
  Mg  Mg16  1  0.831390  0.829444  0.829444  1
  Mg  Mg17  1  0.830187  0.829570  0.510056  1
  Mg  Mg18  1  0.830187  0.510056  0.829570  1
  Mg  Mg19  1  0.509722  0.829444  0.829444  1
  Ru  Ru20  1  0.392191  0.393219  0.393219  1
  Ru  Ru21  1  0.391906  0.395101  0.821086  1
  Ru  Ru22  1  0.391906  0.821086  0.395101  1
  Ru  Ru23  1  0.821372  0.393219  0.393219  1
