# generated using pymatgen
data_Lu12Os3Se
_symmetry_space_group_name_H-M   'P 1'
_cell_length_a   7.33801357
_cell_length_b   8.88074400
_cell_length_c   6.21693746
_cell_angle_alpha   90.00000000
_cell_angle_beta   90.81894455
_cell_angle_gamma   90.00000000
_symmetry_Int_Tables_number   1
_chemical_formula_structural   Lu12Os3Se
_chemical_formula_sum   'Lu12 Os3 Se1'
_cell_volume   405.09790389
_cell_formula_units_Z   1
loop_
 _symmetry_equiv_pos_site_id
 _symmetry_equiv_pos_as_xyz
  1  'x, y, z'
loop_
 _atom_site_type_symbol
 _atom_site_label
 _atom_site_symmetry_multiplicity
 _atom_site_fract_x
 _atom_site_fract_y
 _atom_site_fract_z
 _atom_site_occupancy
  Lu  Lu0  1  0.664480  0.054121  0.351087  1
  Lu  Lu1  1  0.191497  0.443452  0.160641  1
  Lu  Lu2  1  0.322736  0.562705  0.665195  1
  Lu  Lu3  1  0.822614  0.932411  0.824849  1
  Lu  Lu4  1  0.322736  0.937295  0.665195  1
  Lu  Lu5  1  0.822614  0.567589  0.824849  1
  Lu  Lu6  1  0.664480  0.445879  0.351087  1
  Lu  Lu7  1  0.191497  0.056548  0.160641  1
  Lu  Lu8  1  0.519278  0.250000  0.871067  1
  Lu  Lu9  1  0.052089  0.250000  0.628007  1
  Lu  Lu10  1  0.468025  0.750000  0.116432  1
  Lu  Lu11  1  0.961778  0.750000  0.366340  1
  Os  Os12  1  0.382229  0.250000  0.455865  1
  Os  Os13  1  0.118991  0.750000  0.959081  1
  Os  Os14  1  0.618238  0.750000  0.532381  1
  Se  Se15  1  0.876718  0.250000  0.067286  1
