# generated using pymatgen
data_CeTm9(SiSn3)2
_symmetry_space_group_name_H-M   'P 1'
_cell_length_a   9.13947532
_cell_length_b   9.13947720
_cell_length_c   6.39869801
_cell_angle_alpha   90.00259143
_cell_angle_beta   90.00259674
_cell_angle_gamma   120.33613249
_symmetry_Int_Tables_number   1
_chemical_formula_structural   CeTm9(SiSn3)2
_chemical_formula_sum   'Ce1 Tm9 Si2 Sn6'
_cell_volume   461.30044983
_cell_formula_units_Z   1
loop_
 _symmetry_equiv_pos_site_id
 _symmetry_equiv_pos_as_xyz
  1  'x, y, z'
loop_
 _atom_site_type_symbol
 _atom_site_label
 _atom_site_symmetry_multiplicity
 _atom_site_fract_x
 _atom_site_fract_y
 _atom_site_fract_z
 _atom_site_occupancy
  Ce  Ce0  1  0.749918  0.749918  0.750056  1
  Tm  Tm1  1  0.666521  0.332887  0.000446  1
  Tm  Tm2  1  0.332887  0.666521  0.000446  1
  Tm  Tm3  1  0.332888  0.666545  0.499580  1
  Tm  Tm4  1  0.666545  0.332888  0.499580  1
  Tm  Tm5  1  0.248127  0.997975  0.749947  1
  Tm  Tm6  1  0.997975  0.248127  0.749947  1
  Tm  Tm7  1  0.257603  0.257603  0.249907  1
  Tm  Tm8  1  0.744338  0.002652  0.250006  1
  Tm  Tm9  1  0.002652  0.744338  0.250006  1
  Si  Si10  1  0.000512  0.000512  0.013755  1
  Si  Si11  1  0.000495  0.000495  0.486219  1
  Sn  Sn12  1  0.389112  0.389112  0.749998  1
  Sn  Sn13  1  0.603692  0.002020  0.749996  1
  Sn  Sn14  1  0.002020  0.603692  0.749996  1
  Sn  Sn15  1  0.610903  0.610903  0.250039  1
  Sn  Sn16  1  0.392972  0.000841  0.250038  1
  Sn  Sn17  1  0.000841  0.392972  0.250038  1
