# generated using pymatgen
data_TmLu4Sn3P
_symmetry_space_group_name_H-M   'P 1'
_cell_length_a   8.88451433
_cell_length_b   8.88034617
_cell_length_c   6.56884200
_cell_angle_alpha   90.00000000
_cell_angle_beta   90.00000000
_cell_angle_gamma   119.98447576
_symmetry_Int_Tables_number   1
_chemical_formula_structural   TmLu4Sn3P
_chemical_formula_sum   'Tm2 Lu8 Sn6 P2'
_cell_volume   448.90139144
_cell_formula_units_Z   2
loop_
 _symmetry_equiv_pos_site_id
 _symmetry_equiv_pos_as_xyz
  1  'x, y, z'
loop_
 _atom_site_type_symbol
 _atom_site_label
 _atom_site_symmetry_multiplicity
 _atom_site_fract_x
 _atom_site_fract_y
 _atom_site_fract_z
 _atom_site_occupancy
  Tm  Tm0  1  0.757868  0.757880  0.750000  1
  Tm  Tm1  1  0.242132  0.000012  0.750000  1
  Lu  Lu2  1  0.666701  0.333260  0.000025  1
  Lu  Lu3  1  0.333299  0.666560  0.000025  1
  Lu  Lu4  1  0.333299  0.666560  0.499975  1
  Lu  Lu5  1  0.666701  0.333260  0.499975  1
  Lu  Lu6  1  0.000000  0.241439  0.750000  1
  Lu  Lu7  1  0.241424  0.241470  0.250000  1
  Lu  Lu8  1  0.758576  0.000046  0.250000  1
  Lu  Lu9  1  0.000000  0.758576  0.250000  1
  Sn  Sn10  1  0.398844  0.399042  0.750000  1
  Sn  Sn11  1  0.601156  0.000198  0.750000  1
  Sn  Sn12  1  0.000000  0.600633  0.750000  1
  Sn  Sn13  1  0.601104  0.601196  0.250000  1
  Sn  Sn14  1  0.398896  0.000092  0.250000  1
  Sn  Sn15  1  0.000000  0.398877  0.250000  1
  P  P16  1  0.000000  0.000450  0.000819  1
  P  P17  1  0.000000  0.000450  0.499181  1
