# generated using pymatgen
data_Li6CeNp2N6
_symmetry_space_group_name_H-M   'P 1'
_cell_length_a   6.09330600
_cell_length_b   6.09330755
_cell_length_c   5.48424600
_cell_angle_alpha   90.00000000
_cell_angle_beta   90.00000000
_cell_angle_gamma   120.00000245
_symmetry_Int_Tables_number   1
_chemical_formula_structural   Li6CeNp2N6
_chemical_formula_sum   'Li6 Ce1 Np2 N6'
_cell_volume   176.34113655
_cell_formula_units_Z   1
loop_
 _symmetry_equiv_pos_site_id
 _symmetry_equiv_pos_as_xyz
  1  'x, y, z'
loop_
 _atom_site_type_symbol
 _atom_site_label
 _atom_site_symmetry_multiplicity
 _atom_site_fract_x
 _atom_site_fract_y
 _atom_site_fract_z
 _atom_site_occupancy
  Li  Li0  1  0.986003  0.657091  0.605848  1
  Li  Li1  1  0.342909  0.328912  0.605848  1
  Li  Li2  1  0.671088  0.013997  0.605848  1
  Li  Li3  1  0.013997  0.342909  0.394152  1
  Li  Li4  1  0.657091  0.671088  0.394152  1
  Li  Li5  1  0.328912  0.986003  0.394152  1
  Ce  Ce6  1  0.000000  0.000000  0.000000  1
  Np  Np7  1  0.333333  0.666667  0.994278  1
  Np  Np8  1  0.666667  0.333333  0.005722  1
  N  N9  1  0.001220  0.652368  0.225154  1
  N  N10  1  0.347632  0.348852  0.225154  1
  N  N11  1  0.651148  0.998780  0.225154  1
  N  N12  1  0.998780  0.347632  0.774846  1
  N  N13  1  0.652368  0.651148  0.774846  1
  N  N14  1  0.348852  0.001220  0.774846  1
