# generated using pymatgen
data_Tb2Dy3(FeTe)2
_symmetry_space_group_name_H-M   'P 1'
_cell_length_a   7.80047128
_cell_length_b   7.80047131
_cell_length_c   15.17809400
_cell_angle_alpha   90.00000000
_cell_angle_beta   90.00000000
_cell_angle_gamma   150.51766201
_symmetry_Int_Tables_number   1
_chemical_formula_structural   Tb2Dy3(FeTe)2
_chemical_formula_sum   'Tb4 Dy6 Fe4 Te4'
_cell_volume   454.52841434
_cell_formula_units_Z   2
loop_
 _symmetry_equiv_pos_site_id
 _symmetry_equiv_pos_as_xyz
  1  'x, y, z'
loop_
 _atom_site_type_symbol
 _atom_site_label
 _atom_site_symmetry_multiplicity
 _atom_site_fract_x
 _atom_site_fract_y
 _atom_site_fract_z
 _atom_site_occupancy
  Tb  Tb0  1  0.961325  0.038675  0.380614  1
  Tb  Tb1  1  0.038675  0.961325  0.619386  1
  Tb  Tb2  1  0.038675  0.961325  0.880614  1
  Tb  Tb3  1  0.961325  0.038675  0.119386  1
  Dy  Dy4  1  0.742364  0.257636  0.629850  1
  Dy  Dy5  1  0.257636  0.742364  0.370150  1
  Dy  Dy6  1  0.257636  0.742364  0.129850  1
  Dy  Dy7  1  0.742364  0.257636  0.870150  1
  Dy  Dy8  1  0.397018  0.602982  0.750000  1
  Dy  Dy9  1  0.602982  0.397018  0.250000  1
  Fe  Fe10  1  0.829164  0.170836  0.250000  1
  Fe  Fe11  1  0.170836  0.829164  0.750000  1
  Fe  Fe12  1  0.407235  0.592765  0.250000  1
  Fe  Fe13  1  0.592765  0.407235  0.750000  1
  Te  Te14  1  0.618292  0.381708  0.039542  1
  Te  Te15  1  0.381708  0.618292  0.960458  1
  Te  Te16  1  0.381708  0.618292  0.539542  1
  Te  Te17  1  0.618292  0.381708  0.460458  1
