# generated using pymatgen
data_Tm12Ni4HgRh
_symmetry_space_group_name_H-M   'P 1'
_cell_length_a   8.15886660
_cell_length_b   8.15888648
_cell_length_c   8.15887836
_cell_angle_alpha   107.20799613
_cell_angle_beta   110.11453025
_cell_angle_gamma   111.11657987
_symmetry_Int_Tables_number   1
_chemical_formula_structural   Tm12Ni4HgRh
_chemical_formula_sum   'Tm12 Ni4 Hg1 Rh1'
_cell_volume   417.56743796
_cell_formula_units_Z   1
loop_
 _symmetry_equiv_pos_site_id
 _symmetry_equiv_pos_as_xyz
  1  'x, y, z'
loop_
 _atom_site_type_symbol
 _atom_site_label
 _atom_site_symmetry_multiplicity
 _atom_site_fract_x
 _atom_site_fract_y
 _atom_site_fract_z
 _atom_site_occupancy
  Tm  Tm0  1  0.689864  0.275062  0.964928  1
  Tm  Tm1  1  0.310128  0.724976  0.035102  1
  Tm  Tm2  1  0.689868  0.724942  0.414812  1
  Tm  Tm3  1  0.310127  0.275032  0.585160  1
  Tm  Tm4  1  0.804361  0.128898  0.324542  1
  Tm  Tm5  1  0.804357  0.479811  0.675461  1
  Tm  Tm6  1  0.195646  0.871100  0.675460  1
  Tm  Tm7  1  0.195644  0.520183  0.324541  1
  Tm  Tm8  1  0.603764  0.784709  0.819055  1
  Tm  Tm9  1  0.965643  0.784704  0.180939  1
  Tm  Tm10  1  0.034341  0.215291  0.819050  1
  Tm  Tm11  1  0.396229  0.215295  0.180933  1
  Ni  Ni12  1  0.855278  0.500004  0.355279  1
  Ni  Ni13  1  0.144737  0.499998  0.644736  1
  Ni  Ni14  1  0.000001  0.122769  0.122769  1
  Ni  Ni15  1  0.000013  0.877218  0.877229  1
  Hg  Hg16  1  0.500029  0.000001  0.500028  1
  Rh  Rh17  1  0.499969  0.500008  0.999975  1
