# generated using pymatgen
data_Ce3Th2Tc3Ge2
_symmetry_space_group_name_H-M   'P 1'
_cell_length_a   8.52603207
_cell_length_b   8.52603231
_cell_length_c   8.52603300
_cell_angle_alpha   110.09916519
_cell_angle_beta   110.09917295
_cell_angle_gamma   110.09917342
_symmetry_Int_Tables_number   1
_chemical_formula_structural   Ce3Th2Tc3Ge2
_chemical_formula_sum   'Ce6 Th4 Tc6 Ge4'
_cell_volume   465.68816280
_cell_formula_units_Z   2
loop_
 _symmetry_equiv_pos_site_id
 _symmetry_equiv_pos_as_xyz
  1  'x, y, z'
loop_
 _atom_site_type_symbol
 _atom_site_label
 _atom_site_symmetry_multiplicity
 _atom_site_fract_x
 _atom_site_fract_y
 _atom_site_fract_z
 _atom_site_occupancy
  Ce  Ce0  1  0.715946  0.499390  0.998750  1
  Ce  Ce1  1  0.998750  0.715946  0.499390  1
  Ce  Ce2  1  0.499390  0.998750  0.715946  1
  Ce  Ce3  1  0.251151  0.198981  0.946613  1
  Ce  Ce4  1  0.946613  0.251151  0.198981  1
  Ce  Ce5  1  0.198981  0.946613  0.251151  1
  Th  Th6  1  0.777249  0.777249  0.777249  1
  Th  Th7  1  0.303910  0.554610  0.756678  1
  Th  Th8  1  0.756678  0.303910  0.554610  1
  Th  Th9  1  0.554610  0.756678  0.303910  1
  Tc  Tc10  1  0.888264  0.116787  0.745551  1
  Tc  Tc11  1  0.745551  0.888264  0.116787  1
  Tc  Tc12  1  0.116787  0.745551  0.888264  1
  Tc  Tc13  1  0.245677  0.621144  0.386269  1
  Tc  Tc14  1  0.386269  0.245677  0.621144  1
  Tc  Tc15  1  0.621144  0.386269  0.245677  1
  Ge  Ge16  1  0.393193  0.393193  0.393193  1
  Ge  Ge17  1  0.096925  0.496128  0.006782  1
  Ge  Ge18  1  0.006782  0.096925  0.496128  1
  Ge  Ge19  1  0.496128  0.006782  0.096925  1
