# generated using pymatgen
data_Ta16CoNi3Te16
_symmetry_space_group_name_H-M   'P 1'
_cell_length_a   4.78773600
_cell_length_b   10.93923136
_cell_length_c   19.01491600
_cell_angle_alpha   89.94326585
_cell_angle_beta   90.00000000
_cell_angle_gamma   90.00000000
_symmetry_Int_Tables_number   1
_chemical_formula_structural   Ta16CoNi3Te16
_chemical_formula_sum   'Ta16 Co1 Ni3 Te16'
_cell_volume   995.88960898
_cell_formula_units_Z   1
loop_
 _symmetry_equiv_pos_site_id
 _symmetry_equiv_pos_as_xyz
  1  'x, y, z'
loop_
 _atom_site_type_symbol
 _atom_site_label
 _atom_site_symmetry_multiplicity
 _atom_site_fract_x
 _atom_site_fract_y
 _atom_site_fract_z
 _atom_site_occupancy
  Ta  Ta0  1  0.500984  0.564039  0.383796  1
  Ta  Ta1  1  0.500984  0.435961  0.616204  1
  Ta  Ta2  1  0.500161  0.064342  0.116807  1
  Ta  Ta3  1  0.500161  0.935658  0.883193  1
  Ta  Ta4  1  0.499885  0.703198  0.536136  1
  Ta  Ta5  1  0.499885  0.296802  0.463864  1
  Ta  Ta6  1  0.499756  0.204266  0.963501  1
  Ta  Ta7  1  0.499756  0.795734  0.036499  1
  Ta  Ta8  1  0.999846  0.688757  0.443297  1
  Ta  Ta9  1  0.999846  0.311243  0.556703  1
  Ta  Ta10  1  0.000169  0.189754  0.056768  1
  Ta  Ta11  1  0.000169  0.810246  0.943232  1
  Ta  Ta12  1  0.999496  0.401117  0.392288  1
  Ta  Ta13  1  0.999496  0.598883  0.607712  1
  Ta  Ta14  1  0.999707  0.900611  0.108440  1
  Ta  Ta15  1  0.999707  0.099389  0.891560  1
  Co  Co16  1  0.250141  0.500000  0.500000  1
  Ni  Ni17  1  0.750355  0.000000  0.000000  1
  Ni  Ni18  1  0.750284  0.500000  0.500000  1
  Ni  Ni19  1  0.249670  0.000000  0.000000  1
  Te  Te20  1  0.000003  0.849236  0.562760  1
  Te  Te21  1  0.000003  0.150764  0.437240  1
  Te  Te22  1  0.999720  0.349545  0.936789  1
  Te  Te23  1  0.999720  0.650455  0.063211  1
  Te  Te24  1  0.498890  0.331526  0.314704  1
  Te  Te25  1  0.498890  0.668474  0.685296  1
  Te  Te26  1  0.499681  0.831263  0.185619  1
  Te  Te27  1  0.499681  0.168737  0.814381  1
  Te  Te28  1  0.499742  0.824518  0.402349  1
  Te  Te29  1  0.499742  0.175482  0.597651  1
  Te  Te30  1  0.500159  0.324778  0.097405  1
  Te  Te31  1  0.500159  0.675222  0.902595  1
  Te  Te32  1  0.001480  0.608522  0.300007  1
  Te  Te33  1  0.001480  0.391478  0.699993  1
  Te  Te34  1  0.000096  0.108640  0.200124  1
  Te  Te35  1  0.000096  0.891360  0.799876  1
