# generated using pymatgen
data_TePbO4
_symmetry_space_group_name_H-M   'P 1'
_cell_length_a   5.15380400
_cell_length_b   5.77701600
_cell_length_c   13.26720500
_cell_angle_alpha   90.00000000
_cell_angle_beta   90.00000000
_cell_angle_gamma   90.00000000
_symmetry_Int_Tables_number   1
_chemical_formula_structural   TePbO4
_chemical_formula_sum   'Te4 Pb4 O16'
_cell_volume   395.01256317
_cell_formula_units_Z   4
loop_
 _symmetry_equiv_pos_site_id
 _symmetry_equiv_pos_as_xyz
  1  'x, y, z'
loop_
 _atom_site_type_symbol
 _atom_site_label
 _atom_site_symmetry_multiplicity
 _atom_site_fract_x
 _atom_site_fract_y
 _atom_site_fract_z
 _atom_site_occupancy
  Te  Te0  1  0.750000  0.500000  0.431421  1
  Te  Te1  1  0.250000  0.000000  0.068579  1
  Te  Te2  1  0.250000  0.500000  0.568579  1
  Te  Te3  1  0.750000  0.000000  0.931421  1
  Pb  Pb4  1  0.750000  0.000000  0.671406  1
  Pb  Pb5  1  0.250000  0.500000  0.828594  1
  Pb  Pb6  1  0.250000  0.000000  0.328594  1
  Pb  Pb7  1  0.750000  0.500000  0.171406  1
  O  O8  1  0.132963  0.290797  0.668820  1
  O  O9  1  0.632963  0.209203  0.831180  1
  O  O10  1  0.867037  0.790797  0.831180  1
  O  O11  1  0.367037  0.709203  0.668820  1
  O  O12  1  0.867037  0.709203  0.331180  1
  O  O13  1  0.367037  0.790797  0.168820  1
  O  O14  1  0.132963  0.209203  0.168820  1
  O  O15  1  0.632963  0.290797  0.331180  1
  O  O16  1  0.568725  0.314287  0.541751  1
  O  O17  1  0.068725  0.185713  0.958249  1
  O  O18  1  0.431275  0.814287  0.958249  1
  O  O19  1  0.931275  0.685713  0.541751  1
  O  O20  1  0.431275  0.685713  0.458249  1
  O  O21  1  0.931275  0.814287  0.041751  1
  O  O22  1  0.568725  0.185713  0.041751  1
  O  O23  1  0.068725  0.314287  0.458249  1
