# generated using pymatgen
data_DyHoPa2(ReB6)2
_symmetry_space_group_name_H-M   'P 1'
_cell_length_a   3.71361900
_cell_length_b   9.18695446
_cell_length_c   11.52452757
_cell_angle_alpha   90.03618927
_cell_angle_beta   90.00000000
_cell_angle_gamma   90.00000000
_symmetry_Int_Tables_number   1
_chemical_formula_structural   DyHoPa2(ReB6)2
_chemical_formula_sum   'Dy2 Ho2 Pa4 Re4 B24'
_cell_volume   393.18048435
_cell_formula_units_Z   2
loop_
 _symmetry_equiv_pos_site_id
 _symmetry_equiv_pos_as_xyz
  1  'x, y, z'
loop_
 _atom_site_type_symbol
 _atom_site_label
 _atom_site_symmetry_multiplicity
 _atom_site_fract_x
 _atom_site_fract_y
 _atom_site_fract_z
 _atom_site_occupancy
  Dy  Dy0  1  0.000000  0.945524  0.374992  1
  Dy  Dy1  1  0.000000  0.054476  0.625008  1
  Ho  Ho2  1  0.000000  0.445456  0.125023  1
  Ho  Ho3  1  0.000000  0.554544  0.874977  1
  Pa  Pa4  1  0.000000  0.324117  0.412644  1
  Pa  Pa5  1  0.000000  0.675883  0.587356  1
  Pa  Pa6  1  0.000000  0.823534  0.087001  1
  Pa  Pa7  1  0.000000  0.176466  0.912999  1
  Re  Re8  1  0.000000  0.638670  0.321764  1
  Re  Re9  1  0.000000  0.361330  0.678236  1
  Re  Re10  1  0.000000  0.139046  0.177897  1
  Re  Re11  1  0.000000  0.860954  0.822103  1
  B  B12  1  0.500000  0.552361  0.433102  1
  B  B13  1  0.500000  0.447639  0.566898  1
  B  B14  1  0.500000  0.052786  0.066687  1
  B  B15  1  0.500000  0.947214  0.933313  1
  B  B16  1  0.500000  0.747163  0.420422  1
  B  B17  1  0.500000  0.252837  0.579578  1
  B  B18  1  0.500000  0.248023  0.079402  1
  B  B19  1  0.500000  0.751977  0.920598  1
  B  B20  1  0.500000  0.793550  0.266368  1
  B  B21  1  0.500000  0.206450  0.733632  1
  B  B22  1  0.500000  0.294097  0.233190  1
  B  B23  1  0.500000  0.705903  0.766810  1
  B  B24  1  0.500000  0.634030  0.185380  1
  B  B25  1  0.500000  0.365970  0.814620  1
  B  B26  1  0.500000  0.134742  0.314109  1
  B  B27  1  0.500000  0.865258  0.685891  1
  B  B28  1  0.500000  0.983294  0.213542  1
  B  B29  1  0.500000  0.016706  0.786458  1
  B  B30  1  0.500000  0.482969  0.286073  1
  B  B31  1  0.500000  0.517031  0.713927  1
  B  B32  1  0.500000  0.613918  0.031553  1
  B  B33  1  0.500000  0.386082  0.968447  1
  B  B34  1  0.500000  0.116599  0.467761  1
  B  B35  1  0.500000  0.883401  0.532239  1
