# generated using pymatgen
data_Nd3Th11Ir6
_symmetry_space_group_name_H-M   'P 1'
_cell_length_a   10.04101249
_cell_length_b   10.10407733
_cell_length_c   6.37527659
_cell_angle_alpha   90.01736801
_cell_angle_beta   90.06108412
_cell_angle_gamma   120.03776595
_symmetry_Int_Tables_number   1
_chemical_formula_structural   Nd3Th11Ir6
_chemical_formula_sum   'Nd3 Th11 Ir6'
_cell_volume   559.93547502
_cell_formula_units_Z   1
loop_
 _symmetry_equiv_pos_site_id
 _symmetry_equiv_pos_as_xyz
  1  'x, y, z'
loop_
 _atom_site_type_symbol
 _atom_site_label
 _atom_site_symmetry_multiplicity
 _atom_site_fract_x
 _atom_site_fract_y
 _atom_site_fract_z
 _atom_site_occupancy
  Nd  Nd0  1  0.460062  0.539685  0.293832  1
  Nd  Nd1  1  0.078397  0.538768  0.294766  1
  Nd  Nd2  1  0.921675  0.460758  0.795066  1
  Th  Th3  1  0.253613  0.127514  0.499755  1
  Th  Th4  1  0.543110  0.084960  0.796588  1
  Th  Th5  1  0.746296  0.873730  0.998851  1
  Th  Th6  1  0.664995  0.331928  0.291937  1
  Th  Th7  1  0.127372  0.871526  0.998994  1
  Th  Th8  1  0.457617  0.915223  0.296586  1
  Th  Th9  1  0.543024  0.458148  0.796191  1
  Th  Th10  1  0.873309  0.127839  0.499833  1
  Th  Th11  1  0.126009  0.253708  0.995869  1
  Th  Th12  1  0.871694  0.744872  0.496730  1
  Th  Th13  1  0.334987  0.667859  0.784973  1
  Ir  Ir14  1  0.809872  0.627317  0.055987  1
  Ir  Ir15  1  0.808191  0.181925  0.059338  1
  Ir  Ir16  1  0.627287  0.819276  0.557088  1
  Ir  Ir17  1  0.375281  0.186657  0.050454  1
  Ir  Ir18  1  0.185123  0.370009  0.564036  1
  Ir  Ir19  1  0.192085  0.818297  0.557126  1
