# generated using pymatgen
data_Nd4ReTc5B12
_symmetry_space_group_name_H-M   'P 1'
_cell_length_a   6.30525357
_cell_length_b   6.31323051
_cell_length_c   7.64230297
_cell_angle_alpha   90.58610220
_cell_angle_beta   90.60370383
_cell_angle_gamma   114.49722289
_symmetry_Int_Tables_number   1
_chemical_formula_structural   Nd4ReTc5B12
_chemical_formula_sum   'Nd4 Re1 Tc5 B12'
_cell_volume   276.77760682
_cell_formula_units_Z   1
loop_
 _symmetry_equiv_pos_site_id
 _symmetry_equiv_pos_as_xyz
  1  'x, y, z'
loop_
 _atom_site_type_symbol
 _atom_site_label
 _atom_site_symmetry_multiplicity
 _atom_site_fract_x
 _atom_site_fract_y
 _atom_site_fract_z
 _atom_site_occupancy
  Nd  Nd0  1  0.093830  0.439977  0.325657  1
  Nd  Nd1  1  0.560720  0.905982  0.173294  1
  Nd  Nd2  1  0.906242  0.557282  0.674331  1
  Nd  Nd3  1  0.437379  0.093627  0.826550  1
  Re  Re4  1  0.804175  0.989220  0.589215  1
  Tc  Tc5  1  0.583613  0.416136  0.249302  1
  Tc  Tc6  1  0.416404  0.583613  0.749575  1
  Tc  Tc7  1  0.989579  0.803136  0.088568  1
  Tc  Tc8  1  0.196920  0.010845  0.411704  1
  Tc  Tc9  1  0.010640  0.197698  0.911946  1
  B  B10  1  0.240363  0.151647  0.131158  1
  B  B11  1  0.847479  0.761197  0.370244  1
  B  B12  1  0.761065  0.848672  0.867170  1
  B  B13  1  0.151886  0.242415  0.630646  1
  B  B14  1  0.583073  0.156328  0.483049  1
  B  B15  1  0.842676  0.418424  0.018424  1
  B  B16  1  0.417140  0.842615  0.517767  1
  B  B17  1  0.157175  0.582240  0.982112  1
  B  B18  1  0.440518  0.349224  0.532234  1
  B  B19  1  0.650191  0.559674  0.967446  1
  B  B20  1  0.558929  0.649174  0.467267  1
  B  B21  1  0.350005  0.440874  0.032342  1
