# generated using pymatgen
data_AcNd11(Si7Br3)2
_symmetry_space_group_name_H-M   'P 1'
_cell_length_a   4.10639700
_cell_length_b   11.81496000
_cell_length_c   16.54907500
_cell_angle_alpha   90.00000000
_cell_angle_beta   90.00000000
_cell_angle_gamma   90.00000000
_symmetry_Int_Tables_number   1
_chemical_formula_structural   AcNd11(Si7Br3)2
_chemical_formula_sum   'Ac1 Nd11 Si14 Br6'
_cell_volume   802.91008660
_cell_formula_units_Z   1
loop_
 _symmetry_equiv_pos_site_id
 _symmetry_equiv_pos_as_xyz
  1  'x, y, z'
loop_
 _atom_site_type_symbol
 _atom_site_label
 _atom_site_symmetry_multiplicity
 _atom_site_fract_x
 _atom_site_fract_y
 _atom_site_fract_z
 _atom_site_occupancy
  Ac  Ac0  1  0.500000  0.333288  0.500000  1
  Nd  Nd1  1  0.000000  0.657456  0.000000  1
  Nd  Nd2  1  0.500000  0.361000  0.758428  1
  Nd  Nd3  1  0.000000  0.642610  0.745392  1
  Nd  Nd4  1  0.500000  0.361000  0.241572  1
  Nd  Nd5  1  0.000000  0.642610  0.254608  1
  Nd  Nd6  1  0.500000  0.066512  0.880643  1
  Nd  Nd7  1  0.000000  0.931296  0.621221  1
  Nd  Nd8  1  0.500000  0.066512  0.119357  1
  Nd  Nd9  1  0.000000  0.931296  0.378779  1
  Nd  Nd10  1  0.500000  0.355271  0.000000  1
  Nd  Nd11  1  0.000000  0.644329  0.500000  1
  Si  Si12  1  0.000000  0.151405  0.000000  1
  Si  Si13  1  0.500000  0.848171  0.500000  1
  Si  Si14  1  0.500000  0.567433  0.877121  1
  Si  Si15  1  0.000000  0.437214  0.627100  1
  Si  Si16  1  0.500000  0.567433  0.122879  1
  Si  Si17  1  0.000000  0.437214  0.372900  1
  Si  Si18  1  0.000000  0.253089  0.873291  1
  Si  Si19  1  0.500000  0.747310  0.627435  1
  Si  Si20  1  0.000000  0.253089  0.126709  1
  Si  Si21  1  0.500000  0.747310  0.372565  1
  Si  Si22  1  0.000000  0.458337  0.877514  1
  Si  Si23  1  0.500000  0.544377  0.625228  1
  Si  Si24  1  0.500000  0.544377  0.374772  1
  Si  Si25  1  0.000000  0.458337  0.122486  1
  Br  Br26  1  0.500000  0.109604  0.692252  1
  Br  Br27  1  0.000000  0.892784  0.807551  1
  Br  Br28  1  0.000000  0.126125  0.500000  1
  Br  Br29  1  0.500000  0.860823  0.000000  1
  Br  Br30  1  0.500000  0.109604  0.307748  1
  Br  Br31  1  0.000000  0.892784  0.192449  1
