# generated using pymatgen
data_Ti2Be8ReRu
_symmetry_space_group_name_H-M   'P 1'
_cell_length_a   4.41446900
_cell_length_b   4.41446899
_cell_length_c   7.21212700
_cell_angle_alpha   90.00000000
_cell_angle_beta   90.00000000
_cell_angle_gamma   120.00000756
_symmetry_Int_Tables_number   1
_chemical_formula_structural   Ti2Be8ReRu
_chemical_formula_sum   'Ti2 Be8 Re1 Ru1'
_cell_volume   121.71690659
_cell_formula_units_Z   1
loop_
 _symmetry_equiv_pos_site_id
 _symmetry_equiv_pos_as_xyz
  1  'x, y, z'
loop_
 _atom_site_type_symbol
 _atom_site_label
 _atom_site_symmetry_multiplicity
 _atom_site_fract_x
 _atom_site_fract_y
 _atom_site_fract_z
 _atom_site_occupancy
  Ti  Ti0  1  0.333333  0.666667  0.062982  1
  Ti  Ti1  1  0.666667  0.333333  0.566878  1
  Be  Be2  1  0.000000  0.000000  0.995796  1
  Be  Be3  1  0.000000  0.000000  0.497773  1
  Be  Be4  1  0.831046  0.662093  0.251598  1
  Be  Be5  1  0.169392  0.830608  0.749479  1
  Be  Be6  1  0.661215  0.830608  0.749479  1
  Be  Be7  1  0.337907  0.168954  0.251598  1
  Be  Be8  1  0.831046  0.168954  0.251598  1
  Be  Be9  1  0.169392  0.338785  0.749479  1
  Re  Re10  1  0.333333  0.666667  0.437250  1
  Ru  Ru11  1  0.666667  0.333333  0.936086  1
