# generated using pymatgen
data_Pr4YEr3(Si3Rh)4
_symmetry_space_group_name_H-M   'P 1'
_cell_length_a   8.24786400
_cell_length_b   8.24786422
_cell_length_c   8.12057000
_cell_angle_alpha   90.00000000
_cell_angle_beta   90.00000000
_cell_angle_gamma   119.99999913
_symmetry_Int_Tables_number   1
_chemical_formula_structural   Pr4YEr3(Si3Rh)4
_chemical_formula_sum   'Pr4 Y1 Er3 Si12 Rh4'
_cell_volume   478.40988395
_cell_formula_units_Z   1
loop_
 _symmetry_equiv_pos_site_id
 _symmetry_equiv_pos_as_xyz
  1  'x, y, z'
loop_
 _atom_site_type_symbol
 _atom_site_label
 _atom_site_symmetry_multiplicity
 _atom_site_fract_x
 _atom_site_fract_y
 _atom_site_fract_z
 _atom_site_occupancy
  Pr  Pr0  1  0.000000  0.000000  0.250000  1
  Pr  Pr1  1  0.499082  0.500918  0.250000  1
  Pr  Pr2  1  0.499082  0.998162  0.250000  1
  Pr  Pr3  1  0.001838  0.500918  0.250000  1
  Y  Y4  1  0.000000  0.000000  0.750000  1
  Er  Er5  1  0.504485  0.495515  0.750000  1
  Er  Er6  1  0.991030  0.495515  0.750000  1
  Er  Er7  1  0.504485  0.008970  0.750000  1
  Si  Si8  1  0.834259  0.165741  0.508241  1
  Si  Si9  1  0.834259  0.668519  0.508241  1
  Si  Si10  1  0.331481  0.165741  0.508241  1
  Si  Si11  1  0.834259  0.165741  0.991759  1
  Si  Si12  1  0.834259  0.668519  0.991759  1
  Si  Si13  1  0.331481  0.165741  0.991759  1
  Si  Si14  1  0.167682  0.832318  0.990854  1
  Si  Si15  1  0.664638  0.832318  0.990854  1
  Si  Si16  1  0.167682  0.335362  0.990854  1
  Si  Si17  1  0.167682  0.832318  0.509146  1
  Si  Si18  1  0.664638  0.832318  0.509146  1
  Si  Si19  1  0.167682  0.335362  0.509146  1
  Rh  Rh20  1  0.666667  0.333333  0.521026  1
  Rh  Rh21  1  0.666667  0.333333  0.978974  1
  Rh  Rh22  1  0.333333  0.666667  0.954725  1
  Rh  Rh23  1  0.333333  0.666667  0.545275  1
