# generated using pymatgen
data_La12Os3PtBr12
_symmetry_space_group_name_H-M   'P 1'
_cell_length_a   10.67840375
_cell_length_b   10.67840305
_cell_length_c   10.66927861
_cell_angle_alpha   109.39100620
_cell_angle_beta   109.39100710
_cell_angle_gamma   109.92509593
_symmetry_Int_Tables_number   1
_chemical_formula_structural   La12Os3PtBr12
_chemical_formula_sum   'La12 Os3 Pt1 Br12'
_cell_volume   933.11148889
_cell_formula_units_Z   1
loop_
 _symmetry_equiv_pos_site_id
 _symmetry_equiv_pos_as_xyz
  1  'x, y, z'
loop_
 _atom_site_type_symbol
 _atom_site_label
 _atom_site_symmetry_multiplicity
 _atom_site_fract_x
 _atom_site_fract_y
 _atom_site_fract_z
 _atom_site_occupancy
  La  La0  1  0.391823  0.608177  0.000000  1
  La  La1  1  0.609406  0.390594  0.000000  1
  La  La2  1  0.646011  0.134603  0.282345  1
  La  La3  1  0.865397  0.353989  0.717655  1
  La  La4  1  0.405738  0.396468  0.259359  1
  La  La5  1  0.127067  0.141711  0.732984  1
  La  La6  1  0.124535  0.358651  0.513629  1
  La  La7  1  0.842663  0.613844  0.482367  1
  La  La8  1  0.603532  0.594262  0.740641  1
  La  La9  1  0.858289  0.872933  0.267016  1
  La  La10  1  0.641349  0.875465  0.486371  1
  La  La11  1  0.386156  0.157337  0.517633  1
  Os  Os12  1  0.624480  0.623412  0.251798  1
  Os  Os13  1  0.376588  0.375520  0.748202  1
  Os  Os14  1  0.873800  0.126200  0.500000  1
  Pt  Pt15  1  0.624469  0.375531  0.500000  1
  Br  Br16  1  0.369992  0.630008  0.500000  1
  Br  Br17  1  0.130132  0.869868  0.500000  1
  Br  Br18  1  0.120078  0.120312  0.240706  1
  Br  Br19  1  0.879688  0.879922  0.759294  1
  Br  Br20  1  0.882715  0.629471  0.002968  1
  Br  Br21  1  0.628235  0.882587  0.997053  1
  Br  Br22  1  0.622160  0.119963  0.752575  1
  Br  Br23  1  0.367023  0.869304  0.247613  1
  Br  Br24  1  0.370529  0.117285  0.997032  1
  Br  Br25  1  0.117413  0.371765  0.002947  1
  Br  Br26  1  0.880037  0.377840  0.247425  1
  Br  Br27  1  0.130696  0.632977  0.752387  1
