# generated using pymatgen
data_Dy3Y9InCo4Pt
_symmetry_space_group_name_H-M   'P 1'
_cell_length_a   8.35176475
_cell_length_b   8.35657491
_cell_length_c   8.35176467
_cell_angle_alpha   111.14742184
_cell_angle_beta   110.36104902
_cell_angle_gamma   106.91310238
_symmetry_Int_Tables_number   1
_chemical_formula_structural   Dy3Y9InCo4Pt
_chemical_formula_sum   'Dy3 Y9 In1 Co4 Pt1'
_cell_volume   448.14809302
_cell_formula_units_Z   1
loop_
 _symmetry_equiv_pos_site_id
 _symmetry_equiv_pos_as_xyz
  1  'x, y, z'
loop_
 _atom_site_type_symbol
 _atom_site_label
 _atom_site_symmetry_multiplicity
 _atom_site_fract_x
 _atom_site_fract_y
 _atom_site_fract_z
 _atom_site_occupancy
  Dy  Dy0  1  0.685482  0.379426  0.693944  1
  Dy  Dy1  1  0.314428  0.007764  0.693336  1
  Dy  Dy2  1  0.685464  0.991665  0.306201  1
  Y  Y3  1  0.411565  0.213515  0.197179  1
  Y  Y4  1  0.588861  0.786289  0.802704  1
  Y  Y5  1  0.016337  0.213515  0.801949  1
  Y  Y6  1  0.983584  0.786289  0.197428  1
  Y  Y7  1  0.187198  0.293178  0.480615  1
  Y  Y8  1  0.813142  0.706654  0.519548  1
  Y  Y9  1  0.187107  0.706654  0.893512  1
  Y  Y10  1  0.812563  0.293178  0.105981  1
  Y  Y11  1  0.314587  0.619240  0.304653  1
  In  In12  1  0.499935  0.500081  0.000146  1
  Co  Co13  1  0.382163  0.001522  0.382669  1
  Co  Co14  1  0.618853  0.001522  0.619359  1
  Co  Co15  1  0.110486  0.611166  0.500681  1
  Co  Co16  1  0.888089  0.387836  0.499746  1
  Pt  Pt17  1  0.000154  0.000504  0.000350  1
