# generated using pymatgen
data_Lu12Fe3SnSb
_symmetry_space_group_name_H-M   'P 1'
_cell_length_a   8.17679580
_cell_length_b   8.17679775
_cell_length_c   8.17679690
_cell_angle_alpha   108.17141282
_cell_angle_beta   108.64034896
_cell_angle_gamma   111.62389695
_symmetry_Int_Tables_number   1
_chemical_formula_structural   Lu12Fe3SnSb
_chemical_formula_sum   'Lu12 Fe3 Sn1 Sb1'
_cell_volume   420.39623499
_cell_formula_units_Z   1
loop_
 _symmetry_equiv_pos_site_id
 _symmetry_equiv_pos_as_xyz
  1  'x, y, z'
loop_
 _atom_site_type_symbol
 _atom_site_label
 _atom_site_symmetry_multiplicity
 _atom_site_fract_x
 _atom_site_fract_y
 _atom_site_fract_z
 _atom_site_occupancy
  Lu  Lu0  1  0.305564  0.309974  0.615537  1
  Lu  Lu1  1  0.694436  0.690026  0.384463  1
  Lu  Lu2  1  0.694436  0.309974  0.004410  1
  Lu  Lu3  1  0.305564  0.690026  0.995590  1
  Lu  Lu4  1  0.192055  0.426181  0.234125  1
  Lu  Lu5  1  0.807945  0.573819  0.765875  1
  Lu  Lu6  1  0.192055  0.957930  0.765875  1
  Lu  Lu7  1  0.958758  0.193551  0.765209  1
  Lu  Lu8  1  0.807945  0.042070  0.234125  1
  Lu  Lu9  1  0.041242  0.806449  0.234791  1
  Lu  Lu10  1  0.428342  0.193551  0.234791  1
  Lu  Lu11  1  0.571658  0.806449  0.765209  1
  Fe  Fe12  1  0.382479  0.382479  0.000000  1
  Fe  Fe13  1  0.617521  0.617521  0.000000  1
  Fe  Fe14  1  0.000000  0.000000  0.000000  1
  Sn  Sn15  1  0.000000  0.500000  0.500000  1
  Sb  Sb16  1  0.500000  0.000000  0.500000  1
