# generated using pymatgen
data_Cs14Nb2Tl5InAs10
_symmetry_space_group_name_H-M   'P 1'
_cell_length_a   9.02634108
_cell_length_b   9.91869925
_cell_length_c   15.13213408
_cell_angle_alpha   85.65106522
_cell_angle_beta   84.82196723
_cell_angle_gamma   85.55585366
_symmetry_Int_Tables_number   1
_chemical_formula_structural   Cs14Nb2Tl5InAs10
_chemical_formula_sum   'Cs14 Nb2 Tl5 In1 As10'
_cell_volume   1341.95130827
_cell_formula_units_Z   1
loop_
 _symmetry_equiv_pos_site_id
 _symmetry_equiv_pos_as_xyz
  1  'x, y, z'
loop_
 _atom_site_type_symbol
 _atom_site_label
 _atom_site_symmetry_multiplicity
 _atom_site_fract_x
 _atom_site_fract_y
 _atom_site_fract_z
 _atom_site_occupancy
  Cs  Cs0  1  0.827871  0.365090  0.647843  1
  Cs  Cs1  1  0.811158  0.813026  0.133903  1
  Cs  Cs2  1  0.240984  0.005292  0.470145  1
  Cs  Cs3  1  0.269360  0.249457  0.253715  1
  Cs  Cs4  1  0.736318  0.501517  0.974443  1
  Cs  Cs5  1  0.261071  0.497654  0.025652  1
  Cs  Cs6  1  0.685381  0.081849  0.886101  1
  Cs  Cs7  1  0.758502  0.992358  0.528222  1
  Cs  Cs8  1  0.731899  0.748525  0.746399  1
  Cs  Cs9  1  0.318675  0.339793  0.602757  1
  Cs  Cs10  1  0.172530  0.634951  0.352147  1
  Cs  Cs11  1  0.184768  0.186862  0.867287  1
  Cs  Cs12  1  0.318529  0.916784  0.115786  1
  Cs  Cs13  1  0.677825  0.663172  0.395904  1
  Nb  Nb14  1  0.354755  0.604742  0.772492  1
  Nb  Nb15  1  0.647168  0.394708  0.227397  1
  Tl  Tl16  1  0.058931  0.816020  0.870621  1
  Tl  Tl17  1  0.942493  0.184061  0.129032  1
  Tl  Tl18  1  0.367793  0.953907  0.703135  1
  Tl  Tl19  1  0.092316  0.722426  0.620584  1
  Tl  Tl20  1  0.908677  0.279619  0.380192  1
  In  In21  1  0.638115  0.055170  0.295140  1
  As  As22  1  0.915618  0.452739  0.211419  1
  As  As23  1  0.618324  0.204559  0.126448  1
  As  As24  1  0.085868  0.547861  0.788456  1
  As  As25  1  0.582825  0.299196  0.386375  1
  As  As26  1  0.418322  0.696930  0.612769  1
  As  As27  1  0.029428  0.004820  0.699340  1
  As  As28  1  0.509958  0.399612  0.808359  1
  As  As29  1  0.488604  0.597039  0.191277  1
  As  As30  1  0.383150  0.792122  0.875658  1
  As  As31  1  0.962785  0.998140  0.301004  1
