# generated using pymatgen
data_DyHo3(NiB10)2
_symmetry_space_group_name_H-M   'P 1'
_cell_length_a   4.13974600
_cell_length_b   5.54394007
_cell_length_c   11.08342800
_cell_angle_alpha   89.99193395
_cell_angle_beta   90.00000000
_cell_angle_gamma   90.00000000
_symmetry_Int_Tables_number   1
_chemical_formula_structural   DyHo3(NiB10)2
_chemical_formula_sum   'Dy1 Ho3 Ni2 B20'
_cell_volume   254.37025294
_cell_formula_units_Z   1
loop_
 _symmetry_equiv_pos_site_id
 _symmetry_equiv_pos_as_xyz
  1  'x, y, z'
loop_
 _atom_site_type_symbol
 _atom_site_label
 _atom_site_symmetry_multiplicity
 _atom_site_fract_x
 _atom_site_fract_y
 _atom_site_fract_z
 _atom_site_occupancy
  Dy  Dy0  1  0.500000  0.685645  0.137677  1
  Ho  Ho1  1  0.500000  0.185491  0.362593  1
  Ho  Ho2  1  0.500000  0.814696  0.637601  1
  Ho  Ho3  1  0.500000  0.314401  0.862262  1
  Ni  Ni4  1  0.000000  0.999956  0.999711  1
  Ni  Ni5  1  0.000000  0.499866  0.500127  1
  B  B6  1  0.000000  0.373942  0.040706  1
  B  B7  1  0.000000  0.625255  0.958514  1
  B  B8  1  0.000000  0.125784  0.541110  1
  B  B9  1  0.000000  0.874383  0.459384  1
  B  B10  1  0.000000  0.341406  0.198468  1
  B  B11  1  0.000000  0.659058  0.801051  1
  B  B12  1  0.000000  0.159102  0.698620  1
  B  B13  1  0.000000  0.841501  0.301822  1
  B  B14  1  0.000000  0.029637  0.186665  1
  B  B15  1  0.000000  0.970724  0.813413  1
  B  B16  1  0.000000  0.470751  0.686310  1
  B  B17  1  0.000000  0.529545  0.313647  1
  B  B18  1  0.301531  0.201261  0.114639  1
  B  B19  1  0.698382  0.798065  0.884966  1
  B  B20  1  0.301618  0.798065  0.884966  1
  B  B21  1  0.698331  0.298150  0.614745  1
  B  B22  1  0.698469  0.201261  0.114639  1
  B  B23  1  0.301563  0.701952  0.385809  1
  B  B24  1  0.698437  0.701952  0.385809  1
  B  B25  1  0.301669  0.298150  0.614745  1
