# generated using pymatgen
data_Er4B16Ir3Ru13
_symmetry_space_group_name_H-M   'P 1'
_cell_length_a   9.21299138
_cell_length_b   7.48726329
_cell_length_c   7.49190224
_cell_angle_alpha   90.00746527
_cell_angle_beta   114.01280288
_cell_angle_gamma   114.10209374
_symmetry_Int_Tables_number   1
_chemical_formula_structural   Er4B16Ir3Ru13
_chemical_formula_sum   'Er4 B16 Ir3 Ru13'
_cell_volume   422.25263834
_cell_formula_units_Z   1
loop_
 _symmetry_equiv_pos_site_id
 _symmetry_equiv_pos_as_xyz
  1  'x, y, z'
loop_
 _atom_site_type_symbol
 _atom_site_label
 _atom_site_symmetry_multiplicity
 _atom_site_fract_x
 _atom_site_fract_y
 _atom_site_fract_z
 _atom_site_occupancy
  Er  Er0  1  0.749750  0.875395  0.124346  1
  Er  Er1  1  0.252013  0.625711  0.375764  1
  Er  Er2  1  0.748672  0.374006  0.622759  1
  Er  Er3  1  0.248764  0.126282  0.872690  1
  B  B4  1  0.911558  0.284150  0.067623  1
  B  B5  1  0.414567  0.563844  0.125520  1
  B  B6  1  0.087185  0.215532  0.154642  1
  B  B7  1  0.586868  0.154223  0.211209  1
  B  B8  1  0.415168  0.067884  0.292220  1
  B  B9  1  0.912644  0.623095  0.352693  1
  B  B10  1  0.587092  0.651151  0.376853  1
  B  B11  1  0.086458  0.876657  0.439765  1
  B  B12  1  0.913204  0.124680  0.566080  1
  B  B13  1  0.414394  0.347555  0.624056  1
  B  B14  1  0.086097  0.374668  0.653760  1
  B  B15  1  0.587975  0.933794  0.711484  1
  B  B16  1  0.414295  0.845719  0.784909  1
  B  B17  1  0.912404  0.789442  0.844786  1
  B  B18  1  0.583973  0.432260  0.875077  1
  B  B19  1  0.085337  0.709458  0.929851  1
  Ir  Ir20  1  0.875831  0.551945  0.037528  1
  Ir  Ir21  1  0.376823  0.838045  0.050347  1
  Ir  Ir22  1  0.122447  0.948217  0.162529  1
  Ru  Ru23  1  0.626794  0.462308  0.176793  1
  Ru  Ru24  1  0.372659  0.334167  0.321318  1
  Ru  Ru25  1  0.873509  0.322146  0.335903  1
  Ru  Ru26  1  0.625749  0.961619  0.447627  1
  Ru  Ru27  1  0.127146  0.178314  0.462230  1
  Ru  Ru28  1  0.873357  0.822872  0.538127  1
  Ru  Ru29  1  0.372038  0.036193  0.550905  1
  Ru  Ru30  1  0.127861  0.677697  0.664777  1
  Ru  Ru31  1  0.625303  0.664808  0.676568  1
  Ru  Ru32  1  0.373229  0.537484  0.822835  1
  Ru  Ru33  1  0.873018  0.052393  0.833963  1
  Ru  Ru34  1  0.627004  0.166508  0.948687  1
  Ru  Ru35  1  0.128811  0.449778  0.963782  1
