# generated using pymatgen
data_Ta4Cu2N
_symmetry_space_group_name_H-M   'P 1'
_cell_length_a   8.26454100
_cell_length_b   8.26454166
_cell_length_c   8.26073300
_cell_angle_alpha   60.01523941
_cell_angle_beta   60.01523677
_cell_angle_gamma   60.02624466
_symmetry_Int_Tables_number   1
_chemical_formula_structural   Ta4Cu2N
_chemical_formula_sum   'Ta16 Cu8 N4'
_cell_volume   399.14178440
_cell_formula_units_Z   4
loop_
 _symmetry_equiv_pos_site_id
 _symmetry_equiv_pos_as_xyz
  1  'x, y, z'
loop_
 _atom_site_type_symbol
 _atom_site_label
 _atom_site_symmetry_multiplicity
 _atom_site_fract_x
 _atom_site_fract_y
 _atom_site_fract_z
 _atom_site_occupancy
  Ta  Ta0  1  0.125000  0.625000  0.625000  1
  Ta  Ta1  1  0.625000  0.125000  0.625000  1
  Ta  Ta2  1  0.625000  0.625000  0.125000  1
  Ta  Ta3  1  0.625000  0.625000  0.625000  1
  Ta  Ta4  1  0.812607  0.812607  0.187393  1
  Ta  Ta5  1  0.187615  0.187615  0.812385  1
  Ta  Ta6  1  0.812411  0.187499  0.812556  1
  Ta  Ta7  1  0.187499  0.812411  0.187534  1
  Ta  Ta8  1  0.187499  0.812411  0.812556  1
  Ta  Ta9  1  0.812411  0.187499  0.187534  1
  Ta  Ta10  1  0.437393  0.437393  0.062607  1
  Ta  Ta11  1  0.062385  0.062385  0.437615  1
  Ta  Ta12  1  0.437589  0.062501  0.437444  1
  Ta  Ta13  1  0.062501  0.437589  0.062466  1
  Ta  Ta14  1  0.062501  0.437589  0.437444  1
  Ta  Ta15  1  0.437589  0.062501  0.062466  1
  Cu  Cu16  1  0.754850  0.415024  0.415063  1
  Cu  Cu17  1  0.415024  0.754850  0.415063  1
  Cu  Cu18  1  0.415090  0.415090  0.754703  1
  Cu  Cu19  1  0.415090  0.415090  0.415116  1
  Cu  Cu20  1  0.495150  0.834976  0.834937  1
  Cu  Cu21  1  0.834976  0.495150  0.834937  1
  Cu  Cu22  1  0.834910  0.834910  0.495297  1
  Cu  Cu23  1  0.834910  0.834910  0.834884  1
  N  N24  1  0.625000  0.125000  0.125000  1
  N  N25  1  0.125000  0.625000  0.125000  1
  N  N26  1  0.125000  0.125000  0.625000  1
  N  N27  1  0.125000  0.125000  0.125000  1
