# generated using pymatgen
data_Cd2Fe3P7Ru9
_symmetry_space_group_name_H-M   'P 1'
_cell_length_a   9.33249800
_cell_length_b   9.33249770
_cell_length_c   3.76077400
_cell_angle_alpha   90.00000000
_cell_angle_beta   90.00000000
_cell_angle_gamma   120.00000107
_symmetry_Int_Tables_number   1
_chemical_formula_structural   Cd2Fe3P7Ru9
_chemical_formula_sum   'Cd2 Fe3 P7 Ru9'
_cell_volume   283.66363230
_cell_formula_units_Z   1
loop_
 _symmetry_equiv_pos_site_id
 _symmetry_equiv_pos_as_xyz
  1  'x, y, z'
loop_
 _atom_site_type_symbol
 _atom_site_label
 _atom_site_symmetry_multiplicity
 _atom_site_fract_x
 _atom_site_fract_y
 _atom_site_fract_z
 _atom_site_occupancy
  Cd  Cd0  1  0.000000  0.000000  0.000000  1
  Cd  Cd1  1  0.333333  0.666667  0.500000  1
  Fe  Fe2  1  0.800991  0.602982  0.000000  1
  Fe  Fe3  1  0.801991  0.199009  0.000000  1
  Fe  Fe4  1  0.397018  0.198009  0.000000  1
  P  P5  1  0.053737  0.640962  0.000000  1
  P  P6  1  0.587224  0.946263  0.000000  1
  P  P7  1  0.359038  0.412776  0.000000  1
  P  P8  1  0.755075  0.714378  0.500000  1
  P  P9  1  0.959303  0.244925  0.500000  1
  P  P10  1  0.285622  0.040697  0.500000  1
  P  P11  1  0.666667  0.333333  0.000000  1
  Ru  Ru12  1  0.113003  0.424990  0.000000  1
  Ru  Ru13  1  0.311987  0.886997  0.000000  1
  Ru  Ru14  1  0.575010  0.688013  0.000000  1
  Ru  Ru15  1  0.036339  0.790022  0.500000  1
  Ru  Ru16  1  0.753684  0.963661  0.500000  1
  Ru  Ru17  1  0.209978  0.246316  0.500000  1
  Ru  Ru18  1  0.879812  0.441740  0.500000  1
  Ru  Ru19  1  0.561928  0.120188  0.500000  1
  Ru  Ru20  1  0.558260  0.438072  0.500000  1
