# generated using pymatgen
data_Na2Yb2Si4O11
_symmetry_space_group_name_H-M   'P 1'
_cell_length_a   7.15101168
_cell_length_b   7.81321982
_cell_length_c   9.43073020
_cell_angle_alpha   99.37381060
_cell_angle_beta   99.17654372
_cell_angle_gamma   103.27977267
_symmetry_Int_Tables_number   1
_chemical_formula_structural   Na2Yb2Si4O11
_chemical_formula_sum   'Na4 Yb4 Si8 O22'
_cell_volume   495.23003974
_cell_formula_units_Z   2
loop_
 _symmetry_equiv_pos_site_id
 _symmetry_equiv_pos_as_xyz
  1  'x, y, z'
loop_
 _atom_site_type_symbol
 _atom_site_label
 _atom_site_symmetry_multiplicity
 _atom_site_fract_x
 _atom_site_fract_y
 _atom_site_fract_z
 _atom_site_occupancy
  Na  Na0  1  0.382960  0.159203  0.808869  1
  Na  Na1  1  0.855110  0.219220  0.871937  1
  Na  Na2  1  0.144890  0.780780  0.128063  1
  Na  Na3  1  0.617040  0.840797  0.191131  1
  Yb  Yb4  1  0.117304  0.364670  0.623113  1
  Yb  Yb5  1  0.627093  0.383087  0.605472  1
  Yb  Yb6  1  0.372907  0.616913  0.394528  1
  Yb  Yb7  1  0.882696  0.635330  0.376887  1
  Si  Si8  1  0.748342  0.616400  0.956422  1
  Si  Si9  1  0.025570  0.762083  0.753414  1
  Si  Si10  1  0.466165  0.762396  0.766461  1
  Si  Si11  1  0.241935  0.035396  0.398372  1
  Si  Si12  1  0.758065  0.964604  0.601628  1
  Si  Si13  1  0.533835  0.237604  0.233539  1
  Si  Si14  1  0.974430  0.237917  0.246586  1
  Si  Si15  1  0.251658  0.383600  0.043578  1
  O  O16  1  0.187845  0.357972  0.868054  1
  O  O17  1  0.587858  0.741591  0.923143  1
  O  O18  1  0.672157  0.418899  0.852306  1
  O  O19  1  0.949448  0.733543  0.905073  1
  O  O20  1  0.269437  0.826736  0.801339  1
  O  O21  1  0.597183  0.939572  0.716257  1
  O  O22  1  0.318287  0.183110  0.550198  1
  O  O23  1  0.415836  0.584545  0.638376  1
  O  O24  1  0.807598  0.175541  0.597385  1
  O  O25  1  0.962050  0.935119  0.699740  1
  O  O26  1  0.940189  0.583994  0.625018  1
  O  O27  1  0.059811  0.416006  0.374982  1
  O  O28  1  0.037950  0.064881  0.300260  1
  O  O29  1  0.192402  0.824459  0.402615  1
  O  O30  1  0.584164  0.415455  0.361624  1
  O  O31  1  0.681713  0.816890  0.449802  1
  O  O32  1  0.402817  0.060428  0.283743  1
  O  O33  1  0.730563  0.173264  0.198661  1
  O  O34  1  0.050552  0.266457  0.094927  1
  O  O35  1  0.327843  0.581101  0.147694  1
  O  O36  1  0.412142  0.258409  0.076857  1
  O  O37  1  0.812155  0.642028  0.131946  1
