# generated using pymatgen
data_Yb10CdBiPt4
_symmetry_space_group_name_H-M   'P 1'
_cell_length_a   9.02248476
_cell_length_b   9.02248581
_cell_length_c   9.02248462
_cell_angle_alpha   128.46991413
_cell_angle_beta   128.46991834
_cell_angle_gamma   75.86500956
_symmetry_Int_Tables_number   1
_chemical_formula_structural   Yb10CdBiPt4
_chemical_formula_sum   'Yb10 Cd1 Bi1 Pt4'
_cell_volume   437.83713681
_cell_formula_units_Z   1
loop_
 _symmetry_equiv_pos_site_id
 _symmetry_equiv_pos_as_xyz
  1  'x, y, z'
loop_
 _atom_site_type_symbol
 _atom_site_label
 _atom_site_symmetry_multiplicity
 _atom_site_fract_x
 _atom_site_fract_y
 _atom_site_fract_z
 _atom_site_occupancy
  Yb  Yb0  1  0.999457  0.999457  0.000000  1
  Yb  Yb1  1  0.500543  0.500543  0.000000  1
  Yb  Yb2  1  0.795159  0.294491  0.829043  1
  Yb  Yb3  1  0.205509  0.704841  0.170957  1
  Yb  Yb4  1  0.465448  0.966115  0.170957  1
  Yb  Yb5  1  0.294491  0.465448  0.499333  1
  Yb  Yb6  1  0.034552  0.205509  0.500667  1
  Yb  Yb7  1  0.533885  0.034552  0.829043  1
  Yb  Yb8  1  0.704841  0.533885  0.499333  1
  Yb  Yb9  1  0.966115  0.795159  0.500667  1
  Cd  Cd10  1  0.250000  0.250000  0.000000  1
  Bi  Bi11  1  0.750000  0.750000  0.000000  1
  Pt  Pt12  1  0.132521  0.632521  0.765042  1
  Pt  Pt13  1  0.867479  0.367479  0.234958  1
  Pt  Pt14  1  0.632521  0.867479  0.500000  1
  Pt  Pt15  1  0.367479  0.132521  0.500000  1
