# generated using pymatgen
data_CaLa6OsCl12
_symmetry_space_group_name_H-M   'P 1'
_cell_length_a   9.09984030
_cell_length_b   9.37001005
_cell_length_c   9.36413300
_cell_angle_alpha   107.49924111
_cell_angle_beta   107.32333439
_cell_angle_gamma   106.82802569
_symmetry_Int_Tables_number   1
_chemical_formula_structural   CaLa6OsCl12
_chemical_formula_sum   'Ca1 La6 Os1 Cl12'
_cell_volume   660.95511521
_cell_formula_units_Z   1
loop_
 _symmetry_equiv_pos_site_id
 _symmetry_equiv_pos_as_xyz
  1  'x, y, z'
loop_
 _atom_site_type_symbol
 _atom_site_label
 _atom_site_symmetry_multiplicity
 _atom_site_fract_x
 _atom_site_fract_y
 _atom_site_fract_z
 _atom_site_occupancy
  Ca  Ca0  1  0.500000  0.500000  0.500000  1
  La  La1  1  0.316355  0.109232  0.027056  1
  La  La2  1  0.025393  0.333235  0.118564  1
  La  La3  1  0.122183  0.028456  0.334515  1
  La  La4  1  0.877817  0.971544  0.665486  1
  La  La5  1  0.974607  0.666766  0.881437  1
  La  La6  1  0.683646  0.890768  0.972945  1
  Os  Os7  1  0.000000  0.000000  0.000000  1
  Cl  Cl8  1  0.680145  0.215748  0.066770  1
  Cl  Cl9  1  0.380791  0.458952  0.178140  1
  Cl  Cl10  1  0.068564  0.685406  0.213780  1
  Cl  Cl11  1  0.785838  0.932585  0.315209  1
  Cl  Cl12  1  0.466372  0.178856  0.383064  1
  Cl  Cl13  1  0.171890  0.378279  0.459923  1
  Cl  Cl14  1  0.828110  0.621722  0.540077  1
  Cl  Cl15  1  0.533628  0.821145  0.616936  1
  Cl  Cl16  1  0.214163  0.067416  0.684791  1
  Cl  Cl17  1  0.931436  0.314594  0.786221  1
  Cl  Cl18  1  0.619210  0.541048  0.821860  1
  Cl  Cl19  1  0.319856  0.784252  0.933230  1
