# generated using pymatgen
data_YbHoEr6(B6Ru)4
_symmetry_space_group_name_H-M   'P 1'
_cell_length_a   3.63732700
_cell_length_b   9.10080562
_cell_length_c   11.48212800
_cell_angle_alpha   89.91767592
_cell_angle_beta   90.00000000
_cell_angle_gamma   90.00000000
_symmetry_Int_Tables_number   1
_chemical_formula_structural   YbHoEr6(B6Ru)4
_chemical_formula_sum   'Yb1 Ho1 Er6 B24 Ru4'
_cell_volume   380.08796707
_cell_formula_units_Z   1
loop_
 _symmetry_equiv_pos_site_id
 _symmetry_equiv_pos_as_xyz
  1  'x, y, z'
loop_
 _atom_site_type_symbol
 _atom_site_label
 _atom_site_symmetry_multiplicity
 _atom_site_fract_x
 _atom_site_fract_y
 _atom_site_fract_z
 _atom_site_occupancy
  Yb  Yb0  1  0.000000  0.323191  0.413800  1
  Ho  Ho1  1  0.000000  0.676233  0.584950  1
  Er  Er2  1  0.000000  0.822080  0.086210  1
  Er  Er3  1  0.000000  0.178440  0.914703  1
  Er  Er4  1  0.000000  0.943762  0.371073  1
  Er  Er5  1  0.000000  0.058253  0.628018  1
  Er  Er6  1  0.000000  0.442712  0.129550  1
  Er  Er7  1  0.000000  0.556373  0.872238  1
  B  B8  1  0.500000  0.553898  0.432692  1
  B  B9  1  0.500000  0.445987  0.567358  1
  B  B10  1  0.500000  0.053104  0.066301  1
  B  B11  1  0.500000  0.946098  0.932786  1
  B  B12  1  0.500000  0.748509  0.419220  1
  B  B13  1  0.500000  0.252057  0.581010  1
  B  B14  1  0.500000  0.247660  0.080316  1
  B  B15  1  0.500000  0.751682  0.919775  1
  B  B16  1  0.500000  0.791301  0.265652  1
  B  B17  1  0.500000  0.209722  0.734616  1
  B  B18  1  0.500000  0.289754  0.233731  1
  B  B19  1  0.500000  0.709367  0.766103  1
  B  B20  1  0.500000  0.631537  0.185512  1
  B  B21  1  0.500000  0.368884  0.815532  1
  B  B22  1  0.500000  0.130637  0.314142  1
  B  B23  1  0.500000  0.869127  0.684935  1
  B  B24  1  0.500000  0.982498  0.211637  1
  B  B25  1  0.500000  0.017413  0.787407  1
  B  B26  1  0.500000  0.483280  0.287715  1
  B  B27  1  0.500000  0.517017  0.712794  1
  B  B28  1  0.500000  0.607199  0.029860  1
  B  B29  1  0.500000  0.392956  0.970853  1
  B  B30  1  0.500000  0.103503  0.471269  1
  B  B31  1  0.500000  0.895397  0.528857  1
  Ru  Ru32  1  0.000000  0.639317  0.320289  1
  Ru  Ru33  1  0.000000  0.362141  0.680510  1
  Ru  Ru34  1  0.000000  0.136373  0.177438  1
  Ru  Ru35  1  0.000000  0.862534  0.821149  1
