# generated using pymatgen
data_Te11Ir2Br6Cl
_symmetry_space_group_name_H-M   'P 1'
_cell_length_a   9.46964703
_cell_length_b   9.94346379
_cell_length_c   9.57888275
_cell_angle_alpha   108.93218563
_cell_angle_beta   109.70900623
_cell_angle_gamma   107.59205242
_symmetry_Int_Tables_number   1
_chemical_formula_structural   Te11Ir2Br6Cl
_chemical_formula_sum   'Te11 Ir2 Br6 Cl1'
_cell_volume   712.21098784
_cell_formula_units_Z   1
loop_
 _symmetry_equiv_pos_site_id
 _symmetry_equiv_pos_as_xyz
  1  'x, y, z'
loop_
 _atom_site_type_symbol
 _atom_site_label
 _atom_site_symmetry_multiplicity
 _atom_site_fract_x
 _atom_site_fract_y
 _atom_site_fract_z
 _atom_site_occupancy
  Te  Te0  1  0.194203  0.947717  0.179944  1
  Te  Te1  1  0.161194  0.168568  0.919032  1
  Te  Te2  1  0.683553  0.650589  0.423975  1
  Te  Te3  1  0.424512  0.678020  0.654560  1
  Te  Te4  1  0.671243  0.441794  0.695363  1
  Te  Te5  1  0.073440  0.828877  0.819380  1
  Te  Te6  1  0.803748  0.042009  0.814366  1
  Te  Te7  1  0.825312  0.790055  0.055404  1
  Te  Te8  1  0.308252  0.337969  0.562886  1
  Te  Te9  1  0.560369  0.318931  0.329752  1
  Te  Te10  1  0.306079  0.551609  0.297448  1
  Ir  Ir11  1  0.244416  0.249593  0.242678  1
  Ir  Ir12  1  0.747882  0.744510  0.745459  1
  Br  Br13  1  0.014870  0.557334  0.278373  1
  Br  Br14  1  0.266966  0.027013  0.529625  1
  Br  Br15  1  0.518103  0.250335  0.997286  1
  Br  Br16  1  0.734283  0.010178  0.509382  1
  Br  Br17  1  0.494321  0.730438  0.009986  1
  Br  Br18  1  0.020425  0.506646  0.765796  1
  Cl  Cl19  1  0.946827  0.167816  0.169304  1
