# generated using pymatgen
data_Dy6TmAg(Sn11Os3)2
_symmetry_space_group_name_H-M   'P 1'
_cell_length_a   9.84060131
_cell_length_b   9.84059818
_cell_length_c   10.08606112
_cell_angle_alpha   90.01603861
_cell_angle_beta   89.98422706
_cell_angle_gamma   120.03563195
_symmetry_Int_Tables_number   1
_chemical_formula_structural   Dy6TmAg(Sn11Os3)2
_chemical_formula_sum   'Dy6 Tm1 Ag1 Sn22 Os6'
_cell_volume   845.55000047
_cell_formula_units_Z   1
loop_
 _symmetry_equiv_pos_site_id
 _symmetry_equiv_pos_as_xyz
  1  'x, y, z'
loop_
 _atom_site_type_symbol
 _atom_site_label
 _atom_site_symmetry_multiplicity
 _atom_site_fract_x
 _atom_site_fract_y
 _atom_site_fract_z
 _atom_site_occupancy
  Dy  Dy0  1  0.999558  0.000439  0.000247  1
  Dy  Dy1  1  0.516694  0.483306  0.695038  1
  Dy  Dy2  1  0.483124  0.966909  0.304971  1
  Dy  Dy3  1  0.516498  0.033082  0.694972  1
  Dy  Dy4  1  0.033091  0.516876  0.304971  1
  Dy  Dy5  1  0.966916  0.483502  0.694971  1
  Tm  Tm6  1  0.484663  0.515336  0.304090  1
  Ag  Ag7  1  0.999931  0.000067  0.499766  1
  Sn  Sn8  1  0.349788  0.000269  0.000195  1
  Sn  Sn9  1  0.649930  0.999964  0.000018  1
  Sn  Sn10  1  0.000033  0.350064  0.000014  1
  Sn  Sn11  1  0.999731  0.650215  0.000189  1
  Sn  Sn12  1  0.650003  0.650016  0.999937  1
  Sn  Sn13  1  0.349981  0.349994  0.999936  1
  Sn  Sn14  1  0.333293  0.666701  0.825274  1
  Sn  Sn15  1  0.666753  0.333248  0.175007  1
  Sn  Sn16  1  0.779878  0.220120  0.462270  1
  Sn  Sn17  1  0.219941  0.780057  0.537616  1
  Sn  Sn18  1  0.779199  0.559801  0.462302  1
  Sn  Sn19  1  0.220955  0.440488  0.537140  1
  Sn  Sn20  1  0.440201  0.220802  0.462300  1
  Sn  Sn21  1  0.559510  0.779044  0.537138  1
  Sn  Sn22  1  0.334604  0.665393  0.127841  1
  Sn  Sn23  1  0.666739  0.333258  0.873323  1
  Sn  Sn24  1  0.118304  0.881706  0.276691  1
  Sn  Sn25  1  0.881423  0.118599  0.722831  1
  Sn  Sn26  1  0.119483  0.238379  0.277025  1
  Sn  Sn27  1  0.881435  0.762939  0.723176  1
  Sn  Sn28  1  0.761614  0.880521  0.277020  1
  Sn  Sn29  1  0.237054  0.118565  0.723180  1
  Os  Os30  1  0.831524  0.168479  0.204133  1
  Os  Os31  1  0.168757  0.831244  0.796041  1
  Os  Os32  1  0.830239  0.662043  0.204411  1
  Os  Os33  1  0.168718  0.337527  0.795775  1
  Os  Os34  1  0.337962  0.169765  0.204413  1
  Os  Os35  1  0.662472  0.831281  0.795774  1
