# generated using pymatgen
data_Tb3ErAlCo
_symmetry_space_group_name_H-M   'P 1'
_cell_length_a   9.41542956
_cell_length_b   9.41542823
_cell_length_c   9.41185600
_cell_angle_alpha   60.01254970
_cell_angle_beta   60.01255438
_cell_angle_gamma   59.97489042
_symmetry_Int_Tables_number   1
_chemical_formula_structural   Tb3ErAlCo
_chemical_formula_sum   'Tb12 Er4 Al4 Co4'
_cell_volume   589.98415568
_cell_formula_units_Z   4
loop_
 _symmetry_equiv_pos_site_id
 _symmetry_equiv_pos_as_xyz
  1  'x, y, z'
loop_
 _atom_site_type_symbol
 _atom_site_label
 _atom_site_symmetry_multiplicity
 _atom_site_fract_x
 _atom_site_fract_y
 _atom_site_fract_z
 _atom_site_occupancy
  Tb  Tb0  1  0.190517  0.190517  0.809483  1
  Tb  Tb1  1  0.809483  0.809483  0.190517  1
  Tb  Tb2  1  0.938230  0.561769  0.561770  1
  Tb  Tb3  1  0.561769  0.938230  0.938231  1
  Tb  Tb4  1  0.561770  0.938230  0.561770  1
  Tb  Tb5  1  0.938230  0.561769  0.938231  1
  Tb  Tb6  1  0.562109  0.562108  0.937892  1
  Tb  Tb7  1  0.937891  0.937891  0.562109  1
  Tb  Tb8  1  0.349748  0.349748  0.348592  1
  Tb  Tb9  1  0.349748  0.349748  0.951911  1
  Tb  Tb10  1  0.348592  0.951911  0.349748  1
  Tb  Tb11  1  0.951911  0.348592  0.349748  1
  Er  Er12  1  0.807868  0.192132  0.192132  1
  Er  Er13  1  0.192132  0.807868  0.807868  1
  Er  Er14  1  0.192132  0.807868  0.192132  1
  Er  Er15  1  0.807868  0.192132  0.807868  1
  Al  Al16  1  0.576449  0.576449  0.576879  1
  Al  Al17  1  0.576449  0.576449  0.270223  1
  Al  Al18  1  0.576879  0.270223  0.576449  1
  Al  Al19  1  0.270223  0.576879  0.576449  1
  Co  Co20  1  0.140038  0.140038  0.140784  1
  Co  Co21  1  0.140038  0.140038  0.579142  1
  Co  Co22  1  0.140784  0.579142  0.140038  1
  Co  Co23  1  0.579142  0.140784  0.140038  1
