# generated using pymatgen
data_Sr6Sn8HgAs
_symmetry_space_group_name_H-M   'P 1'
_cell_length_a   8.95426620
_cell_length_b   8.95426773
_cell_length_c   8.95426736
_cell_angle_alpha   120.21895436
_cell_angle_beta   120.21895410
_cell_angle_gamma   89.62118109
_symmetry_Int_Tables_number   1
_chemical_formula_structural   Sr6Sn8HgAs
_chemical_formula_sum   'Sr6 Sn8 Hg1 As1'
_cell_volume   505.97045228
_cell_formula_units_Z   1
loop_
 _symmetry_equiv_pos_site_id
 _symmetry_equiv_pos_as_xyz
  1  'x, y, z'
loop_
 _atom_site_type_symbol
 _atom_site_label
 _atom_site_symmetry_multiplicity
 _atom_site_fract_x
 _atom_site_fract_y
 _atom_site_fract_z
 _atom_site_occupancy
  Sr  Sr0  1  0.235227  0.235227  0.000000  1
  Sr  Sr1  1  0.764773  0.764773  0.000000  1
  Sr  Sr2  1  0.148112  0.680232  0.828346  1
  Sr  Sr3  1  0.851888  0.319768  0.171654  1
  Sr  Sr4  1  0.680232  0.851888  0.532120  1
  Sr  Sr5  1  0.319768  0.148112  0.467880  1
  Sn  Sn6  1  0.826591  0.339190  0.787929  1
  Sn  Sn7  1  0.173409  0.660810  0.212071  1
  Sn  Sn8  1  0.551261  0.038663  0.212071  1
  Sn  Sn9  1  0.339190  0.551261  0.512600  1
  Sn  Sn10  1  0.961337  0.173409  0.512600  1
  Sn  Sn11  1  0.448739  0.961337  0.787929  1
  Sn  Sn12  1  0.660810  0.448739  0.487400  1
  Sn  Sn13  1  0.038663  0.826591  0.487400  1
  Hg  Hg14  1  0.500000  0.500000  0.000000  1
  As  As15  1  0.000000  0.000000  0.000000  1
