# generated using pymatgen
data_Zr4Fe2SiAs3Pd2
_symmetry_space_group_name_H-M   'P 1'
_cell_length_a   3.91567200
_cell_length_b   6.62164672
_cell_length_c   7.52203837
_cell_angle_alpha   92.47166618
_cell_angle_beta   90.00000000
_cell_angle_gamma   90.00000000
_symmetry_Int_Tables_number   1
_chemical_formula_structural   Zr4Fe2SiAs3Pd2
_chemical_formula_sum   'Zr4 Fe2 Si1 As3 Pd2'
_cell_volume   194.85144511
_cell_formula_units_Z   1
loop_
 _symmetry_equiv_pos_site_id
 _symmetry_equiv_pos_as_xyz
  1  'x, y, z'
loop_
 _atom_site_type_symbol
 _atom_site_label
 _atom_site_symmetry_multiplicity
 _atom_site_fract_x
 _atom_site_fract_y
 _atom_site_fract_z
 _atom_site_occupancy
  Zr  Zr0  1  0.250000  0.476172  0.198357  1
  Zr  Zr1  1  0.750000  0.527506  0.802787  1
  Zr  Zr2  1  0.750000  0.015998  0.673943  1
  Zr  Zr3  1  0.250000  0.976565  0.325721  1
  Fe  Fe4  1  0.750000  0.640325  0.447351  1
  Fe  Fe5  1  0.250000  0.366427  0.557637  1
  Si  Si6  1  0.250000  0.719604  0.598930  1
  As  As7  1  0.750000  0.277049  0.401721  1
  As  As8  1  0.750000  0.750757  0.139969  1
  As  As9  1  0.250000  0.251477  0.861158  1
  Pd  Pd10  1  0.250000  0.849933  0.926708  1
  Pd  Pd11  1  0.750000  0.148187  0.065717  1
