# generated using pymatgen
data_TbDy15In3HgIr4
_symmetry_space_group_name_H-M   'P 1'
_cell_length_a   9.65366667
_cell_length_b   9.65366672
_cell_length_c   9.65366608
_cell_angle_alpha   60.04018167
_cell_angle_beta   60.04018022
_cell_angle_gamma   60.04017983
_symmetry_Int_Tables_number   1
_chemical_formula_structural   TbDy15In3HgIr4
_chemical_formula_sum   'Tb1 Dy15 In3 Hg1 Ir4'
_cell_volume   636.73281705
_cell_formula_units_Z   1
loop_
 _symmetry_equiv_pos_site_id
 _symmetry_equiv_pos_as_xyz
  1  'x, y, z'
loop_
 _atom_site_type_symbol
 _atom_site_label
 _atom_site_symmetry_multiplicity
 _atom_site_fract_x
 _atom_site_fract_y
 _atom_site_fract_z
 _atom_site_occupancy
  Tb  Tb0  1  0.598185  0.598185  0.598185  1
  Dy  Dy1  1  0.601021  0.601021  0.200063  1
  Dy  Dy2  1  0.601021  0.200063  0.601021  1
  Dy  Dy3  1  0.200063  0.601021  0.601021  1
  Dy  Dy4  1  0.059056  0.440407  0.440407  1
  Dy  Dy5  1  0.437106  0.059762  0.059762  1
  Dy  Dy6  1  0.440407  0.059056  0.440407  1
  Dy  Dy7  1  0.059762  0.437106  0.059762  1
  Dy  Dy8  1  0.440407  0.440407  0.059056  1
  Dy  Dy9  1  0.059762  0.059762  0.437106  1
  Dy  Dy10  1  0.186387  0.811831  0.811831  1
  Dy  Dy11  1  0.810068  0.189886  0.189886  1
  Dy  Dy12  1  0.811831  0.186387  0.811831  1
  Dy  Dy13  1  0.189886  0.810068  0.189886  1
  Dy  Dy14  1  0.811831  0.811831  0.186387  1
  Dy  Dy15  1  0.189886  0.189886  0.810068  1
  In  In16  1  0.832051  0.832051  0.503232  1
  In  In17  1  0.832051  0.503232  0.832051  1
  In  In18  1  0.503232  0.832051  0.832051  1
  Hg  Hg19  1  0.835720  0.835720  0.835720  1
  Ir  Ir20  1  0.392548  0.392548  0.392548  1
  Ir  Ir21  1  0.390860  0.390860  0.826002  1
  Ir  Ir22  1  0.390860  0.826002  0.390860  1
  Ir  Ir23  1  0.826002  0.390860  0.390860  1
