# generated using pymatgen
data_LaPr2RuO7
_symmetry_space_group_name_H-M   'P 1'
_cell_length_a   6.70364323
_cell_length_b   6.70364314
_cell_length_c   7.66781300
_cell_angle_alpha   90.00000000
_cell_angle_beta   90.00000000
_cell_angle_gamma   111.50359569
_symmetry_Int_Tables_number   1
_chemical_formula_structural   LaPr2RuO7
_chemical_formula_sum   'La2 Pr4 Ru2 O14'
_cell_volume   320.59774116
_cell_formula_units_Z   2
loop_
 _symmetry_equiv_pos_site_id
 _symmetry_equiv_pos_as_xyz
  1  'x, y, z'
loop_
 _atom_site_type_symbol
 _atom_site_label
 _atom_site_symmetry_multiplicity
 _atom_site_fract_x
 _atom_site_fract_y
 _atom_site_fract_z
 _atom_site_occupancy
  La  La0  1  0.000000  0.000000  0.500000  1
  La  La1  1  0.000000  0.000000  0.000000  1
  Pr  Pr2  1  0.470677  0.911250  0.750000  1
  Pr  Pr3  1  0.529323  0.088750  0.250000  1
  Pr  Pr4  1  0.911250  0.470677  0.750000  1
  Pr  Pr5  1  0.088750  0.529323  0.250000  1
  Ru  Ru6  1  0.500000  0.500000  0.500000  1
  Ru  Ru7  1  0.500000  0.500000  0.000000  1
  O  O8  1  0.581362  0.581362  0.750000  1
  O  O9  1  0.418638  0.418638  0.250000  1
  O  O10  1  0.840832  0.103737  0.750000  1
  O  O11  1  0.159168  0.896263  0.250000  1
  O  O12  1  0.103737  0.840832  0.750000  1
  O  O13  1  0.896263  0.159168  0.250000  1
  O  O14  1  0.442399  0.191242  0.960320  1
  O  O15  1  0.557601  0.808758  0.460320  1
  O  O16  1  0.191242  0.442399  0.960320  1
  O  O17  1  0.808758  0.557601  0.460320  1
  O  O18  1  0.442399  0.191242  0.539680  1
  O  O19  1  0.557601  0.808758  0.039680  1
  O  O20  1  0.808758  0.557601  0.039680  1
  O  O21  1  0.191242  0.442399  0.539680  1
