# generated using pymatgen
data_TbDy3Np2O12
_symmetry_space_group_name_H-M   'P 1'
_cell_length_a   5.54287300
_cell_length_b   7.84921695
_cell_length_c   11.87185604
_cell_angle_alpha   73.82913146
_cell_angle_beta   90.00000000
_cell_angle_gamma   90.00000000
_symmetry_Int_Tables_number   1
_chemical_formula_structural   TbDy3Np2O12
_chemical_formula_sum   'Tb2 Dy6 Np4 O24'
_cell_volume   496.07580635
_cell_formula_units_Z   2
loop_
 _symmetry_equiv_pos_site_id
 _symmetry_equiv_pos_as_xyz
  1  'x, y, z'
loop_
 _atom_site_type_symbol
 _atom_site_label
 _atom_site_symmetry_multiplicity
 _atom_site_fract_x
 _atom_site_fract_y
 _atom_site_fract_z
 _atom_site_occupancy
  Tb  Tb0  1  0.695601  0.500000  0.750000  1
  Tb  Tb1  1  0.304399  0.500000  0.250000  1
  Dy  Dy2  1  0.743698  0.000000  0.750000  1
  Dy  Dy3  1  0.256302  0.000000  0.250000  1
  Dy  Dy4  1  0.187208  0.794983  0.579143  1
  Dy  Dy5  1  0.812792  0.794983  0.079143  1
  Dy  Dy6  1  0.187208  0.205017  0.920857  1
  Dy  Dy7  1  0.812792  0.205017  0.420857  1
  Np  Np8  1  0.255136  0.721729  0.886354  1
  Np  Np9  1  0.744864  0.721729  0.386354  1
  Np  Np10  1  0.255136  0.278271  0.613646  1
  Np  Np11  1  0.744864  0.278271  0.113646  1
  O  O12  1  0.043068  0.944810  0.895903  1
  O  O13  1  0.551461  0.849740  0.931166  1
  O  O14  1  0.956932  0.944810  0.395903  1
  O  O15  1  0.450916  0.799610  0.726599  1
  O  O16  1  0.448539  0.849740  0.431166  1
  O  O17  1  0.965444  0.712975  0.767613  1
  O  O18  1  0.549084  0.799610  0.226599  1
  O  O19  1  0.873195  0.629514  0.554241  1
  O  O20  1  0.385843  0.481578  0.884296  1
  O  O21  1  0.034556  0.712975  0.267613  1
  O  O22  1  0.385843  0.518422  0.615704  1
  O  O23  1  0.873195  0.370486  0.945759  1
  O  O24  1  0.126805  0.629514  0.054241  1
  O  O25  1  0.614157  0.481578  0.384296  1
  O  O26  1  0.965444  0.287025  0.732387  1
  O  O27  1  0.614157  0.518422  0.115704  1
  O  O28  1  0.126805  0.370486  0.445759  1
  O  O29  1  0.450916  0.200390  0.773401  1
  O  O30  1  0.034556  0.287025  0.232387  1
  O  O31  1  0.551461  0.150260  0.568834  1
  O  O32  1  0.549084  0.200390  0.273401  1
  O  O33  1  0.043068  0.055190  0.604097  1
  O  O34  1  0.448539  0.150260  0.068834  1
  O  O35  1  0.956932  0.055190  0.104097  1
