# generated using pymatgen
data_YHoZn14Pd3
_symmetry_space_group_name_H-M   'P 1'
_cell_length_a   6.83045194
_cell_length_b   6.83045268
_cell_length_c   6.83045264
_cell_angle_alpha   82.73077615
_cell_angle_beta   82.73077801
_cell_angle_gamma   82.73078368
_symmetry_Int_Tables_number   1
_chemical_formula_structural   YHoZn14Pd3
_chemical_formula_sum   'Y1 Ho1 Zn14 Pd3'
_cell_volume   311.58896965
_cell_formula_units_Z   1
loop_
 _symmetry_equiv_pos_site_id
 _symmetry_equiv_pos_as_xyz
  1  'x, y, z'
loop_
 _atom_site_type_symbol
 _atom_site_label
 _atom_site_symmetry_multiplicity
 _atom_site_fract_x
 _atom_site_fract_y
 _atom_site_fract_z
 _atom_site_occupancy
  Y  Y0  1  0.337500  0.337500  0.337500  1
  Ho  Ho1  1  0.662761  0.662761  0.662761  1
  Zn  Zn2  1  0.351529  0.351529  0.838965  1
  Zn  Zn3  1  0.838965  0.351529  0.351529  1
  Zn  Zn4  1  0.102880  0.102880  0.102880  1
  Zn  Zn5  1  0.896655  0.896655  0.896655  1
  Zn  Zn6  1  0.299116  0.701129  0.999651  1
  Zn  Zn7  1  0.701129  0.999651  0.299116  1
  Zn  Zn8  1  0.999651  0.299116  0.701129  1
  Zn  Zn9  1  0.701129  0.299116  0.999651  1
  Zn  Zn10  1  0.299116  0.999651  0.701129  1
  Zn  Zn11  1  0.999651  0.701129  0.299116  1
  Zn  Zn12  1  0.160481  0.648812  0.648812  1
  Zn  Zn13  1  0.648812  0.648812  0.160481  1
  Zn  Zn14  1  0.648812  0.160481  0.648812  1
  Zn  Zn15  1  0.351529  0.838965  0.351529  1
  Pd  Pd16  1  0.000346  0.000346  0.499593  1
  Pd  Pd17  1  0.000346  0.499593  0.000346  1
  Pd  Pd18  1  0.499593  0.000346  0.000346  1
