# generated using pymatgen
data_InGa4CuSe8
_symmetry_space_group_name_H-M   'P 1'
_cell_length_a   6.83437121
_cell_length_b   6.83437185
_cell_length_c   8.06526748
_cell_angle_alpha   89.89935727
_cell_angle_beta   89.89935608
_cell_angle_gamma   107.55075331
_symmetry_Int_Tables_number   1
_chemical_formula_structural   InGa4CuSe8
_chemical_formula_sum   'In1 Ga4 Cu1 Se8'
_cell_volume   359.17991455
_cell_formula_units_Z   1
loop_
 _symmetry_equiv_pos_site_id
 _symmetry_equiv_pos_as_xyz
  1  'x, y, z'
loop_
 _atom_site_type_symbol
 _atom_site_label
 _atom_site_symmetry_multiplicity
 _atom_site_fract_x
 _atom_site_fract_y
 _atom_site_fract_z
 _atom_site_occupancy
  In  In0  1  0.502437  0.497563  0.500000  1
  Ga  Ga1  1  0.987409  0.012591  0.500000  1
  Ga  Ga2  1  0.511971  0.488029  0.000000  1
  Ga  Ga3  1  0.989795  0.488925  0.758614  1
  Ga  Ga4  1  0.511075  0.010205  0.241386  1
  Cu  Cu5  1  0.999190  0.000810  0.000000  1
  Se  Se6  1  0.375037  0.117791  0.991948  1
  Se  Se7  1  0.905427  0.629397  0.490325  1
  Se  Se8  1  0.882209  0.624963  0.008052  1
  Se  Se9  1  0.370603  0.094573  0.509675  1
  Se  Se10  1  0.881382  0.142838  0.246391  1
  Se  Se11  1  0.370554  0.644250  0.765709  1
  Se  Se12  1  0.857162  0.118618  0.753609  1
  Se  Se13  1  0.355750  0.629446  0.234291  1
