# generated using pymatgen
data_Y4Mg3InIr4
_symmetry_space_group_name_H-M   'P 1'
_cell_length_a   4.15621200
_cell_length_b   7.09184992
_cell_length_c   8.58083232
_cell_angle_alpha   89.68219792
_cell_angle_beta   90.00000000
_cell_angle_gamma   90.00000000
_symmetry_Int_Tables_number   1
_chemical_formula_structural   Y4Mg3InIr4
_chemical_formula_sum   'Y4 Mg3 In1 Ir4'
_cell_volume   252.91813048
_cell_formula_units_Z   1
loop_
 _symmetry_equiv_pos_site_id
 _symmetry_equiv_pos_as_xyz
  1  'x, y, z'
loop_
 _atom_site_type_symbol
 _atom_site_label
 _atom_site_symmetry_multiplicity
 _atom_site_fract_x
 _atom_site_fract_y
 _atom_site_fract_z
 _atom_site_occupancy
  Y  Y0  1  0.250000  0.962363  0.327736  1
  Y  Y1  1  0.250000  0.462928  0.174818  1
  Y  Y2  1  0.750000  0.039068  0.674753  1
  Y  Y3  1  0.750000  0.537008  0.823585  1
  Mg  Mg4  1  0.250000  0.364225  0.559304  1
  Mg  Mg5  1  0.250000  0.859231  0.939872  1
  Mg  Mg6  1  0.750000  0.636809  0.441163  1
  In  In7  1  0.750000  0.137656  0.061075  1
  Ir  Ir8  1  0.250000  0.247075  0.868107  1
  Ir  Ir9  1  0.250000  0.749511  0.628741  1
  Ir  Ir10  1  0.750000  0.748497  0.128861  1
  Ir  Ir11  1  0.750000  0.255629  0.371987  1
