# generated using pymatgen
data_Dy2Er5Tm(Si3Rh)4
_symmetry_space_group_name_H-M   'P 1'
_cell_length_a   8.14644606
_cell_length_b   8.14644601
_cell_length_c   7.83672400
_cell_angle_alpha   90.00000000
_cell_angle_beta   90.00000000
_cell_angle_gamma   119.98585116
_symmetry_Int_Tables_number   1
_chemical_formula_structural   Dy2Er5Tm(Si3Rh)4
_chemical_formula_sum   'Dy2 Er5 Tm1 Si12 Rh4'
_cell_volume   450.46749090
_cell_formula_units_Z   1
loop_
 _symmetry_equiv_pos_site_id
 _symmetry_equiv_pos_as_xyz
  1  'x, y, z'
loop_
 _atom_site_type_symbol
 _atom_site_label
 _atom_site_symmetry_multiplicity
 _atom_site_fract_x
 _atom_site_fract_y
 _atom_site_fract_z
 _atom_site_occupancy
  Dy  Dy0  1  0.999975  0.000025  0.250000  1
  Dy  Dy1  1  0.000031  0.999969  0.750000  1
  Er  Er2  1  0.492083  0.984093  0.250000  1
  Er  Er3  1  0.015907  0.507917  0.250000  1
  Er  Er4  1  0.507894  0.492106  0.750000  1
  Er  Er5  1  0.984199  0.492099  0.750000  1
  Er  Er6  1  0.507901  0.015801  0.750000  1
  Tm  Tm7  1  0.492137  0.507863  0.250000  1
  Si  Si8  1  0.832944  0.167056  0.501025  1
  Si  Si9  1  0.832884  0.665875  0.500972  1
  Si  Si10  1  0.334125  0.167116  0.500972  1
  Si  Si11  1  0.832944  0.167056  0.998975  1
  Si  Si12  1  0.832884  0.665875  0.999028  1
  Si  Si13  1  0.334125  0.167116  0.999028  1
  Si  Si14  1  0.167039  0.832961  0.001059  1
  Si  Si15  1  0.665848  0.832837  0.001229  1
  Si  Si16  1  0.167163  0.334152  0.001229  1
  Si  Si17  1  0.167039  0.832961  0.498941  1
  Si  Si18  1  0.665848  0.832837  0.498771  1
  Si  Si19  1  0.167163  0.334152  0.498771  1
  Rh  Rh20  1  0.666519  0.333481  0.467833  1
  Rh  Rh21  1  0.666519  0.333481  0.032167  1
  Rh  Rh22  1  0.333413  0.666587  0.968367  1
  Rh  Rh23  1  0.333413  0.666587  0.531633  1
