# generated using pymatgen
data_Tb4Tm16Bi7Sb5
_symmetry_space_group_name_H-M   'P 1'
_cell_length_a   8.11354271
_cell_length_b   9.34287438
_cell_length_c   11.84920800
_cell_angle_alpha   90.04893787
_cell_angle_beta   89.92631066
_cell_angle_gamma   89.96278924
_symmetry_Int_Tables_number   1
_chemical_formula_structural   Tb4Tm16Bi7Sb5
_chemical_formula_sum   'Tb4 Tm16 Bi7 Sb5'
_cell_volume   898.21385557
_cell_formula_units_Z   1
loop_
 _symmetry_equiv_pos_site_id
 _symmetry_equiv_pos_as_xyz
  1  'x, y, z'
loop_
 _atom_site_type_symbol
 _atom_site_label
 _atom_site_symmetry_multiplicity
 _atom_site_fract_x
 _atom_site_fract_y
 _atom_site_fract_z
 _atom_site_occupancy
  Tb  Tb0  1  0.318234  0.246972  0.218742  1
  Tb  Tb1  1  0.813462  0.245840  0.282629  1
  Tb  Tb2  1  0.683356  0.750130  0.782170  1
  Tb  Tb3  1  0.183671  0.749928  0.717670  1
  Tm  Tm4  1  0.356412  0.753873  0.215897  1
  Tm  Tm5  1  0.848604  0.753316  0.285975  1
  Tm  Tm6  1  0.647720  0.250182  0.785057  1
  Tm  Tm7  1  0.147662  0.249924  0.714370  1
  Tm  Tm8  1  0.689141  0.564693  0.058775  1
  Tm  Tm9  1  0.191193  0.936598  0.440737  1
  Tm  Tm10  1  0.310981  0.064201  0.941519  1
  Tm  Tm11  1  0.810317  0.435353  0.557939  1
  Tm  Tm12  1  0.311026  0.435564  0.941690  1
  Tm  Tm13  1  0.809821  0.063480  0.556437  1
  Tm  Tm14  1  0.687200  0.936189  0.061147  1
  Tm  Tm15  1  0.190165  0.564414  0.440874  1
  Tm  Tm16  1  0.473670  0.247490  0.487141  1
  Tm  Tm17  1  0.973128  0.250069  0.012039  1
  Tm  Tm18  1  0.527712  0.752369  0.509753  1
  Tm  Tm19  1  0.026333  0.750158  0.988829  1
  Bi  Bi20  1  0.065349  0.505746  0.174858  1
  Bi  Bi21  1  0.435123  0.494500  0.672785  1
  Bi  Bi22  1  0.934392  0.005639  0.825803  1
  Bi  Bi23  1  0.434792  0.005583  0.674294  1
  Bi  Bi24  1  0.934680  0.494406  0.825880  1
  Bi  Bi25  1  0.565261  0.505184  0.325851  1
  Bi  Bi26  1  0.065435  0.994158  0.173827  1
  Sb  Sb27  1  0.404549  0.749845  0.960063  1
  Sb  Sb28  1  0.906176  0.749620  0.540001  1
  Sb  Sb29  1  0.595066  0.250318  0.039888  1
  Sb  Sb30  1  0.094595  0.250264  0.459522  1
  Sb  Sb31  1  0.564771  0.993999  0.327838  1
