# generated using pymatgen
data_RbSeO3F
_symmetry_space_group_name_H-M   'P 1'
_cell_length_a   6.46045400
_cell_length_b   8.02501900
_cell_length_c   9.35210200
_cell_angle_alpha   90.00000000
_cell_angle_beta   90.00000000
_cell_angle_gamma   90.00000000
_symmetry_Int_Tables_number   1
_chemical_formula_structural   RbSeO3F
_chemical_formula_sum   'Rb4 Se4 O12 F4'
_cell_volume   484.86221677
_cell_formula_units_Z   4
loop_
 _symmetry_equiv_pos_site_id
 _symmetry_equiv_pos_as_xyz
  1  'x, y, z'
loop_
 _atom_site_type_symbol
 _atom_site_label
 _atom_site_symmetry_multiplicity
 _atom_site_fract_x
 _atom_site_fract_y
 _atom_site_fract_z
 _atom_site_occupancy
  Rb  Rb0  1  0.250000  0.341327  0.678688  1
  Rb  Rb1  1  0.250000  0.158673  0.178688  1
  Rb  Rb2  1  0.750000  0.658673  0.321312  1
  Rb  Rb3  1  0.750000  0.841327  0.821312  1
  Se  Se4  1  0.250000  0.800551  0.554973  1
  Se  Se5  1  0.250000  0.699449  0.054973  1
  Se  Se6  1  0.750000  0.199449  0.445027  1
  Se  Se7  1  0.750000  0.300551  0.945027  1
  O  O8  1  0.035530  0.695712  0.584670  1
  O  O9  1  0.464470  0.804288  0.084670  1
  O  O10  1  0.535530  0.304288  0.415330  1
  O  O11  1  0.964470  0.195712  0.915330  1
  O  O12  1  0.964470  0.304288  0.415330  1
  O  O13  1  0.535530  0.195712  0.915330  1
  O  O14  1  0.464470  0.695712  0.584670  1
  O  O15  1  0.035530  0.804288  0.084670  1
  O  O16  1  0.250000  0.920036  0.413645  1
  O  O17  1  0.250000  0.579964  0.913645  1
  O  O18  1  0.750000  0.079964  0.586355  1
  O  O19  1  0.750000  0.420036  0.086355  1
  F  F20  1  0.250000  0.949958  0.702008  1
  F  F21  1  0.250000  0.550042  0.202008  1
  F  F22  1  0.750000  0.050042  0.297992  1
  F  F23  1  0.750000  0.449958  0.797992  1
