# generated using pymatgen
data_RbSe27
_symmetry_space_group_name_H-M   'P 1'
_cell_length_a   14.87449417
_cell_length_b   14.87449551
_cell_length_c   14.87449393
_cell_angle_alpha   118.04616347
_cell_angle_beta   118.04616815
_cell_angle_gamma   118.04615643
_symmetry_Int_Tables_number   1
_chemical_formula_structural   RbSe27
_chemical_formula_sum   'Rb1 Se27'
_cell_volume   1181.53465041
_cell_formula_units_Z   1
loop_
 _symmetry_equiv_pos_site_id
 _symmetry_equiv_pos_as_xyz
  1  'x, y, z'
loop_
 _atom_site_type_symbol
 _atom_site_label
 _atom_site_symmetry_multiplicity
 _atom_site_fract_x
 _atom_site_fract_y
 _atom_site_fract_z
 _atom_site_occupancy
  Rb  Rb0  1  0.573857  0.573857  0.573857  1
  Se  Se1  1  0.806374  0.543595  0.543595  1
  Se  Se2  1  0.543595  0.543595  0.806374  1
  Se  Se3  1  0.543595  0.806374  0.543595  1
  Se  Se4  1  0.252350  0.400596  0.634054  1
  Se  Se5  1  0.321199  0.950062  0.321199  1
  Se  Se6  1  0.321199  0.321199  0.950062  1
  Se  Se7  1  0.950062  0.321199  0.321199  1
  Se  Se8  1  0.100694  0.741693  0.250535  1
  Se  Se9  1  0.250535  0.100694  0.741693  1
  Se  Se10  1  0.741693  0.250535  0.100694  1
  Se  Se11  1  0.741693  0.100694  0.250535  1
  Se  Se12  1  0.250535  0.741693  0.100694  1
  Se  Se13  1  0.100694  0.250535  0.741693  1
  Se  Se14  1  0.326249  0.876845  0.536999  1
  Se  Se15  1  0.536999  0.326249  0.876845  1
  Se  Se16  1  0.876845  0.536999  0.326249  1
  Se  Se17  1  0.876845  0.326249  0.536999  1
  Se  Se18  1  0.536999  0.876845  0.326249  1
  Se  Se19  1  0.326249  0.536999  0.876845  1
  Se  Se20  1  0.252350  0.634054  0.400596  1
  Se  Se21  1  0.400596  0.252350  0.634054  1
  Se  Se22  1  0.634054  0.400596  0.252350  1
  Se  Se23  1  0.634054  0.252350  0.400596  1
  Se  Se24  1  0.400596  0.634054  0.252350  1
  Se  Se25  1  0.009942  0.107724  0.107724  1
  Se  Se26  1  0.107724  0.107724  0.009942  1
  Se  Se27  1  0.107724  0.009942  0.107724  1
