# generated using pymatgen
data_Li2SbIr3S8
_symmetry_space_group_name_H-M   'P 1'
_cell_length_a   7.29217171
_cell_length_b   7.29217266
_cell_length_c   7.29217287
_cell_angle_alpha   59.69735356
_cell_angle_beta   59.69735471
_cell_angle_gamma   59.69735002
_symmetry_Int_Tables_number   1
_chemical_formula_structural   Li2SbIr3S8
_chemical_formula_sum   'Li2 Sb1 Ir3 S8'
_cell_volume   272.30764081
_cell_formula_units_Z   1
loop_
 _symmetry_equiv_pos_site_id
 _symmetry_equiv_pos_as_xyz
  1  'x, y, z'
loop_
 _atom_site_type_symbol
 _atom_site_label
 _atom_site_symmetry_multiplicity
 _atom_site_fract_x
 _atom_site_fract_y
 _atom_site_fract_z
 _atom_site_occupancy
  Li  Li0  1  0.370954  0.370954  0.370954  1
  Li  Li1  1  0.629046  0.629046  0.629046  1
  Sb  Sb2  1  0.000000  0.000000  0.000000  1
  Ir  Ir3  1  0.500000  0.000000  0.000000  1
  Ir  Ir4  1  0.000000  0.000000  0.500000  1
  Ir  Ir5  1  0.000000  0.500000  0.000000  1
  S  S6  1  0.233762  0.233762  0.233762  1
  S  S7  1  0.789624  0.248448  0.248448  1
  S  S8  1  0.248448  0.248448  0.789624  1
  S  S9  1  0.248448  0.789624  0.248448  1
  S  S10  1  0.766238  0.766238  0.766238  1
  S  S11  1  0.210376  0.751552  0.751552  1
  S  S12  1  0.751552  0.751552  0.210376  1
  S  S13  1  0.751552  0.210376  0.751552  1
