# generated using pymatgen
data_Dy3Mg2ScIr3
_symmetry_space_group_name_H-M   'P 1'
_cell_length_a   7.26094300
_cell_length_b   7.32905385
_cell_length_c   4.11865700
_cell_angle_alpha   90.00000000
_cell_angle_beta   90.00000000
_cell_angle_gamma   119.69305895
_symmetry_Int_Tables_number   1
_chemical_formula_structural   Dy3Mg2ScIr3
_chemical_formula_sum   'Dy3 Mg2 Sc1 Ir3'
_cell_volume   190.39789938
_cell_formula_units_Z   1
loop_
 _symmetry_equiv_pos_site_id
 _symmetry_equiv_pos_as_xyz
  1  'x, y, z'
loop_
 _atom_site_type_symbol
 _atom_site_label
 _atom_site_symmetry_multiplicity
 _atom_site_fract_x
 _atom_site_fract_y
 _atom_site_fract_z
 _atom_site_occupancy
  Dy  Dy0  1  0.401234  0.000000  0.500001  1
  Dy  Dy1  1  0.003759  0.417607  0.500001  1
  Dy  Dy2  1  0.586153  0.582393  0.500001  1
  Mg  Mg3  1  0.248107  0.247880  0.000000  1
  Mg  Mg4  1  0.000228  0.752120  0.000000  1
  Sc  Sc5  1  0.754458  0.000000  0.000000  1
  Ir  Ir6  1  0.671431  0.326471  0.000000  1
  Ir  Ir7  1  0.344960  0.673529  0.000000  1
  Ir  Ir8  1  0.989671  0.000000  0.500001  1
