# generated using pymatgen
data_Tb7Ce3(Al2Ru3)2
_symmetry_space_group_name_H-M   'P 1'
_cell_length_a   8.43557436
_cell_length_b   8.43557389
_cell_length_c   8.43557453
_cell_angle_alpha   110.02781775
_cell_angle_beta   110.02782109
_cell_angle_gamma   110.02781747
_symmetry_Int_Tables_number   1
_chemical_formula_structural   Tb7Ce3(Al2Ru3)2
_chemical_formula_sum   'Tb7 Ce3 Al4 Ru6'
_cell_volume   452.31238792
_cell_formula_units_Z   1
loop_
 _symmetry_equiv_pos_site_id
 _symmetry_equiv_pos_as_xyz
  1  'x, y, z'
loop_
 _atom_site_type_symbol
 _atom_site_label
 _atom_site_symmetry_multiplicity
 _atom_site_fract_x
 _atom_site_fract_y
 _atom_site_fract_z
 _atom_site_occupancy
  Tb  Tb0  1  0.780202  0.780202  0.780202  1
  Tb  Tb1  1  0.313027  0.565866  0.751022  1
  Tb  Tb2  1  0.751022  0.313027  0.565866  1
  Tb  Tb3  1  0.565866  0.751022  0.313027  1
  Tb  Tb4  1  0.720968  0.505232  0.994429  1
  Tb  Tb5  1  0.994429  0.720968  0.505232  1
  Tb  Tb6  1  0.505232  0.994429  0.720968  1
  Ce  Ce7  1  0.252568  0.199018  0.944310  1
  Ce  Ce8  1  0.944310  0.252568  0.199018  1
  Ce  Ce9  1  0.199018  0.944310  0.252568  1
  Al  Al10  1  0.410482  0.410482  0.410482  1
  Al  Al11  1  0.094981  0.499823  0.002400  1
  Al  Al12  1  0.002400  0.094981  0.499823  1
  Al  Al13  1  0.499823  0.002400  0.094981  1
  Ru  Ru14  1  0.902834  0.121833  0.756000  1
  Ru  Ru15  1  0.756000  0.902834  0.121833  1
  Ru  Ru16  1  0.121833  0.756000  0.902834  1
  Ru  Ru17  1  0.223651  0.595580  0.365772  1
  Ru  Ru18  1  0.365772  0.223651  0.595580  1
  Ru  Ru19  1  0.595580  0.365772  0.223651  1
