# generated using pymatgen
data_TbZr(SiTc2)4
_symmetry_space_group_name_H-M   'P 1'
_cell_length_a   7.33371069
_cell_length_b   7.33371069
_cell_length_c   4.11175300
_cell_angle_alpha   90.00000000
_cell_angle_beta   90.00000000
_cell_angle_gamma   88.62273572
_symmetry_Int_Tables_number   1
_chemical_formula_structural   TbZr(SiTc2)4
_chemical_formula_sum   'Tb1 Zr1 Si4 Tc8'
_cell_volume   221.07980910
_cell_formula_units_Z   1
loop_
 _symmetry_equiv_pos_site_id
 _symmetry_equiv_pos_as_xyz
  1  'x, y, z'
loop_
 _atom_site_type_symbol
 _atom_site_label
 _atom_site_symmetry_multiplicity
 _atom_site_fract_x
 _atom_site_fract_y
 _atom_site_fract_z
 _atom_site_occupancy
  Tb  Tb0  1  0.500000  0.500000  0.000000  1
  Zr  Zr1  1  0.000000  0.000000  0.500000  1
  Si  Si2  1  0.201683  0.798317  0.000000  1
  Si  Si3  1  0.285707  0.285707  0.500000  1
  Si  Si4  1  0.714293  0.714293  0.500000  1
  Si  Si5  1  0.798317  0.201683  0.000000  1
  Tc  Tc6  1  0.600689  0.150837  0.500000  1
  Tc  Tc7  1  0.399311  0.849163  0.500000  1
  Tc  Tc8  1  0.150837  0.600689  0.500000  1
  Tc  Tc9  1  0.849163  0.399311  0.500000  1
  Tc  Tc10  1  0.086595  0.341566  0.000000  1
  Tc  Tc11  1  0.913405  0.658434  0.000000  1
  Tc  Tc12  1  0.658434  0.913405  0.000000  1
  Tc  Tc13  1  0.341566  0.086595  0.000000  1
