# generated using pymatgen
data_Th6Si3Ge
_symmetry_space_group_name_H-M   'P 1'
_cell_length_a   7.88427324
_cell_length_b   7.88427324
_cell_length_c   4.16055300
_cell_angle_alpha   90.00000000
_cell_angle_beta   90.00000000
_cell_angle_gamma   89.82460127
_symmetry_Int_Tables_number   1
_chemical_formula_structural   Th6Si3Ge
_chemical_formula_sum   'Th6 Si3 Ge1'
_cell_volume   258.62610374
_cell_formula_units_Z   1
loop_
 _symmetry_equiv_pos_site_id
 _symmetry_equiv_pos_as_xyz
  1  'x, y, z'
loop_
 _atom_site_type_symbol
 _atom_site_label
 _atom_site_symmetry_multiplicity
 _atom_site_fract_x
 _atom_site_fract_y
 _atom_site_fract_z
 _atom_site_occupancy
  Th  Th0  1  0.501902  0.499316  0.000000  1
  Th  Th1  1  0.999316  0.001902  0.000000  1
  Th  Th2  1  0.680763  0.180763  0.500000  1
  Th  Th3  1  0.321531  0.821531  0.500000  1
  Th  Th4  1  0.181344  0.316520  0.500000  1
  Th  Th5  1  0.816520  0.681344  0.500000  1
  Si  Si6  1  0.884278  0.384278  0.000000  1
  Si  Si7  1  0.612723  0.887132  0.000000  1
  Si  Si8  1  0.387132  0.112723  0.000000  1
  Ge  Ge9  1  0.114491  0.614491  0.000000  1
