# generated using pymatgen
data_TaTi2Tc3Ge2B
_symmetry_space_group_name_H-M   'P 1'
_cell_length_a   6.79054608
_cell_length_b   6.77130066
_cell_length_c   3.19660400
_cell_angle_alpha   90.00000000
_cell_angle_beta   90.00000000
_cell_angle_gamma   119.90629874
_symmetry_Int_Tables_number   1
_chemical_formula_structural   TaTi2Tc3Ge2B
_chemical_formula_sum   'Ta1 Ti2 Tc3 Ge2 B1'
_cell_volume   127.41059799
_cell_formula_units_Z   1
loop_
 _symmetry_equiv_pos_site_id
 _symmetry_equiv_pos_as_xyz
  1  'x, y, z'
loop_
 _atom_site_type_symbol
 _atom_site_label
 _atom_site_symmetry_multiplicity
 _atom_site_fract_x
 _atom_site_fract_y
 _atom_site_fract_z
 _atom_site_occupancy
  Ta  Ta0  1  0.000000  0.385879  0.500000  1
  Ti  Ti1  1  0.619417  0.617370  0.500000  1
  Ti  Ti2  1  0.380583  0.997953  0.500000  1
  Tc  Tc3  1  0.000000  0.757359  0.000000  1
  Tc  Tc4  1  0.239669  0.239842  0.000000  1
  Tc  Tc5  1  0.760331  0.000173  0.000000  1
  Ge  Ge6  1  0.341258  0.672019  0.000000  1
  Ge  Ge7  1  0.658742  0.330760  0.000000  1
  B  B8  1  0.000000  0.998645  0.500000  1
