# generated using pymatgen
data_Tb4Y12Cd4Ir3Ru
_symmetry_space_group_name_H-M   'P 1'
_cell_length_a   9.71043271
_cell_length_b   9.71043327
_cell_length_c   9.71043387
_cell_angle_alpha   59.58838586
_cell_angle_beta   59.58838307
_cell_angle_gamma   59.58838826
_symmetry_Int_Tables_number   1
_chemical_formula_structural   Tb4Y12Cd4Ir3Ru
_chemical_formula_sum   'Tb4 Y12 Cd4 Ir3 Ru1'
_cell_volume   641.38435785
_cell_formula_units_Z   1
loop_
 _symmetry_equiv_pos_site_id
 _symmetry_equiv_pos_as_xyz
  1  'x, y, z'
loop_
 _atom_site_type_symbol
 _atom_site_label
 _atom_site_symmetry_multiplicity
 _atom_site_fract_x
 _atom_site_fract_y
 _atom_site_fract_z
 _atom_site_occupancy
  Tb  Tb0  1  0.348959  0.348959  0.348959  1
  Tb  Tb1  1  0.348388  0.348388  0.956846  1
  Tb  Tb2  1  0.348388  0.956846  0.348388  1
  Tb  Tb3  1  0.956846  0.348388  0.348388  1
  Y  Y4  1  0.811577  0.189184  0.189184  1
  Y  Y5  1  0.188045  0.809323  0.809323  1
  Y  Y6  1  0.189184  0.811577  0.189184  1
  Y  Y7  1  0.809323  0.188045  0.809323  1
  Y  Y8  1  0.189184  0.189184  0.811577  1
  Y  Y9  1  0.809323  0.809323  0.188045  1
  Y  Y10  1  0.940058  0.560880  0.560880  1
  Y  Y11  1  0.559211  0.938370  0.938370  1
  Y  Y12  1  0.560880  0.940058  0.560880  1
  Y  Y13  1  0.938370  0.559211  0.938370  1
  Y  Y14  1  0.560880  0.560880  0.940058  1
  Y  Y15  1  0.938370  0.938370  0.559211  1
  Cd  Cd16  1  0.579947  0.579947  0.579947  1
  Cd  Cd17  1  0.580692  0.580692  0.256719  1
  Cd  Cd18  1  0.580692  0.256719  0.580692  1
  Cd  Cd19  1  0.256719  0.580692  0.580692  1
  Ir  Ir20  1  0.143651  0.143651  0.576040  1
  Ir  Ir21  1  0.143651  0.576040  0.143651  1
  Ir  Ir22  1  0.576040  0.143651  0.143651  1
  Ru  Ru23  1  0.141622  0.141622  0.141622  1
