# generated using pymatgen
data_Eu2MoWO8
_symmetry_space_group_name_H-M   'P 1'
_cell_length_a   7.02003793
_cell_length_b   7.02003814
_cell_length_c   7.02003710
_cell_angle_alpha   134.43175920
_cell_angle_beta   134.43176168
_cell_angle_gamma   66.41441234
_symmetry_Int_Tables_number   1
_chemical_formula_structural   Eu2MoWO8
_chemical_formula_sum   'Eu2 Mo1 W1 O8'
_cell_volume   173.64055328
_cell_formula_units_Z   1
loop_
 _symmetry_equiv_pos_site_id
 _symmetry_equiv_pos_as_xyz
  1  'x, y, z'
loop_
 _atom_site_type_symbol
 _atom_site_label
 _atom_site_symmetry_multiplicity
 _atom_site_fract_x
 _atom_site_fract_y
 _atom_site_fract_z
 _atom_site_occupancy
  Eu  Eu0  1  0.750000  0.250000  0.500000  1
  Eu  Eu1  1  0.500000  0.500000  0.000000  1
  Mo  Mo2  1  0.000000  0.000000  0.000000  1
  W  W3  1  0.250000  0.750000  0.500000  1
  O  O4  1  0.485650  0.593040  0.412352  1
  O  O5  1  0.180688  0.073298  0.587648  1
  O  O6  1  0.329019  0.240032  0.403829  1
  O  O7  1  0.836204  0.925190  0.596171  1
  O  O8  1  0.759968  0.163796  0.088986  1
  O  O9  1  0.074810  0.670981  0.911014  1
  O  O10  1  0.926702  0.514350  0.107391  1
  O  O11  1  0.406960  0.819312  0.892609  1
