# generated using pymatgen
data_ThCu3AgRh
_symmetry_space_group_name_H-M   'P 1'
_cell_length_a   5.32553136
_cell_length_b   5.32553152
_cell_length_c   5.32553078
_cell_angle_alpha   57.04541611
_cell_angle_beta   57.04540600
_cell_angle_gamma   57.04540035
_symmetry_Int_Tables_number   1
_chemical_formula_structural   ThCu3AgRh
_chemical_formula_sum   'Th1 Cu3 Ag1 Rh1'
_cell_volume   99.52635348
_cell_formula_units_Z   1
loop_
 _symmetry_equiv_pos_site_id
 _symmetry_equiv_pos_as_xyz
  1  'x, y, z'
loop_
 _atom_site_type_symbol
 _atom_site_label
 _atom_site_symmetry_multiplicity
 _atom_site_fract_x
 _atom_site_fract_y
 _atom_site_fract_z
 _atom_site_occupancy
  Th  Th0  1  0.001917  0.001917  0.001917  1
  Cu  Cu1  1  0.868944  0.372737  0.372737  1
  Cu  Cu2  1  0.372737  0.868944  0.372737  1
  Cu  Cu3  1  0.372737  0.372737  0.868944  1
  Ag  Ag4  1  0.761493  0.761493  0.761493  1
  Rh  Rh5  1  0.372173  0.372173  0.372173  1
