# generated using pymatgen
data_Tb2Pr18Si15Br
_symmetry_space_group_name_H-M   'P 1'
_cell_length_a   7.94687195
_cell_length_b   7.89217495
_cell_length_c   15.32211510
_cell_angle_alpha   89.64801978
_cell_angle_beta   89.13066174
_cell_angle_gamma   90.19549805
_symmetry_Int_Tables_number   1
_chemical_formula_structural   Tb2Pr18Si15Br
_chemical_formula_sum   'Tb2 Pr18 Si15 Br1'
_cell_volume   960.83935548
_cell_formula_units_Z   1
loop_
 _symmetry_equiv_pos_site_id
 _symmetry_equiv_pos_as_xyz
  1  'x, y, z'
loop_
 _atom_site_type_symbol
 _atom_site_label
 _atom_site_symmetry_multiplicity
 _atom_site_fract_x
 _atom_site_fract_y
 _atom_site_fract_z
 _atom_site_occupancy
  Tb  Tb0  1  0.311640  0.311236  0.999519  1
  Tb  Tb1  1  0.186376  0.809372  0.249737  1
  Pr  Pr2  1  0.795416  0.189632  0.752947  1
  Pr  Pr3  1  0.687787  0.689572  0.496842  1
  Pr  Pr4  1  0.380924  0.005140  0.442306  1
  Pr  Pr5  1  0.496628  0.868996  0.699469  1
  Pr  Pr6  1  0.509692  0.122011  0.196507  1
  Pr  Pr7  1  0.875782  0.485776  0.300273  1
  Pr  Pr8  1  0.122333  0.517121  0.804632  1
  Pr  Pr9  1  0.631469  0.985796  0.952740  1
  Pr  Pr10  1  0.997068  0.383570  0.544801  1
  Pr  Pr11  1  0.992602  0.623107  0.053509  1
  Pr  Pr12  1  0.139289  0.987311  0.875629  1
  Pr  Pr13  1  0.518415  0.630084  0.125912  1
  Pr  Pr14  1  0.481688  0.371982  0.630609  1
  Pr  Pr15  1  0.634099  0.521629  0.877052  1
  Pr  Pr16  1  0.368573  0.476629  0.374217  1
  Pr  Pr17  1  0.870453  0.019289  0.375935  1
  Pr  Pr18  1  0.983546  0.128286  0.124431  1
  Pr  Pr19  1  0.013299  0.862839  0.620640  1
  Si  Si20  1  0.330552  0.694586  0.952126  1
  Si  Si21  1  0.662099  0.304412  0.453243  1
  Si  Si22  1  0.698577  0.333951  0.050165  1
  Si  Si23  1  0.304343  0.667724  0.549005  1
  Si  Si24  1  0.806894  0.830719  0.202897  1
  Si  Si25  1  0.168574  0.191485  0.295926  1
  Si  Si26  1  0.842520  0.804680  0.797617  1
  Si  Si27  1  0.287011  0.923741  0.060996  1
  Si  Si28  1  0.572804  0.786437  0.307576  1
  Si  Si29  1  0.448597  0.211292  0.828225  1
  Si  Si30  1  0.790705  0.576777  0.688982  1
  Si  Si31  1  0.212172  0.425079  0.188814  1
  Si  Si32  1  0.704522  0.075445  0.560580  1
  Si  Si33  1  0.931079  0.291029  0.941380  1
  Si  Si34  1  0.079181  0.712527  0.437179  1
  Br  Br35  1  0.163290  0.180737  0.687581  1
