# generated using pymatgen
data_La3Ce(AuBr6)4
_symmetry_space_group_name_H-M   'P 1'
_cell_length_a   8.27938290
_cell_length_b   10.63274406
_cell_length_c   15.25510200
_cell_angle_alpha   103.49685893
_cell_angle_beta   95.92348247
_cell_angle_gamma   112.21688366
_symmetry_Int_Tables_number   1
_chemical_formula_structural   La3Ce(AuBr6)4
_chemical_formula_sum   'La3 Ce1 Au4 Br24'
_cell_volume   1181.25290700
_cell_formula_units_Z   1
loop_
 _symmetry_equiv_pos_site_id
 _symmetry_equiv_pos_as_xyz
  1  'x, y, z'
loop_
 _atom_site_type_symbol
 _atom_site_label
 _atom_site_symmetry_multiplicity
 _atom_site_fract_x
 _atom_site_fract_y
 _atom_site_fract_z
 _atom_site_occupancy
  La  La0  1  0.579530  0.921355  0.621796  1
  La  La1  1  0.421345  0.079549  0.377979  1
  La  La2  1  0.976567  0.310515  0.871239  1
  Ce  Ce3  1  0.023053  0.688260  0.128504  1
  Au  Au4  1  0.295405  0.631372  0.762690  1
  Au  Au5  1  0.705526  0.369352  0.236640  1
  Au  Au6  1  0.499885  0.499520  0.499522  1
  Au  Au7  1  0.000122  0.999700  0.001159  1
  Br  Br8  1  0.611322  0.730065  0.749036  1
  Br  Br9  1  0.390095  0.270895  0.251286  1
  Br  Br10  1  0.273925  0.845845  0.736664  1
  Br  Br11  1  0.727005  0.155022  0.263228  1
  Br  Br12  1  0.977188  0.534740  0.772267  1
  Br  Br13  1  0.023057  0.468126  0.225767  1
  Br  Br14  1  0.317255  0.414395  0.785684  1
  Br  Br15  1  0.687915  0.588056  0.214188  1
  Br  Br16  1  0.695616  0.372802  0.508742  1
  Br  Br17  1  0.305067  0.627087  0.490989  1
  Br  Br18  1  0.763152  0.725820  0.523314  1
  Br  Br19  1  0.236416  0.273040  0.476058  1
  Br  Br20  1  0.781947  0.102810  0.977447  1
  Br  Br21  1  0.214850  0.893333  0.024827  1
  Br  Br22  1  0.767943  0.793657  0.030742  1
  Br  Br23  1  0.234015  0.204452  0.971248  1
  Br  Br24  1  0.614365  0.194758  0.747307  1
  Br  Br25  1  0.378528  0.803940  0.251333  1
  Br  Br26  1  0.956399  0.053343  0.727091  1
  Br  Br27  1  0.042615  0.940498  0.269291  1
  Br  Br28  1  0.732201  0.050393  0.479661  1
  Br  Br29  1  0.267011  0.948203  0.518620  1
  Br  Br30  1  0.762360  0.440987  0.981140  1
  Br  Br31  1  0.238321  0.568109  0.024541  1
