# generated using pymatgen
data_CeEr9(RuPb3)2
_symmetry_space_group_name_H-M   'P 1'
_cell_length_a   9.29225057
_cell_length_b   9.20078291
_cell_length_c   6.56280000
_cell_angle_alpha   90.00000000
_cell_angle_beta   90.00000000
_cell_angle_gamma   119.67491247
_symmetry_Int_Tables_number   1
_chemical_formula_structural   CeEr9(RuPb3)2
_chemical_formula_sum   'Ce1 Er9 Ru2 Pb6'
_cell_volume   487.50475655
_cell_formula_units_Z   1
loop_
 _symmetry_equiv_pos_site_id
 _symmetry_equiv_pos_as_xyz
  1  'x, y, z'
loop_
 _atom_site_type_symbol
 _atom_site_label
 _atom_site_symmetry_multiplicity
 _atom_site_fract_x
 _atom_site_fract_y
 _atom_site_fract_z
 _atom_site_occupancy
  Ce  Ce0  1  0.000000  0.774616  0.750000  1
  Er  Er1  1  0.239212  0.000050  0.250000  1
  Er  Er2  1  0.758305  0.999823  0.750000  1
  Er  Er3  1  0.332464  0.665665  0.499691  1
  Er  Er4  1  0.000000  0.235308  0.250000  1
  Er  Er5  1  0.667536  0.333200  0.499691  1
  Er  Er6  1  0.760788  0.760839  0.250000  1
  Er  Er7  1  0.241695  0.241518  0.750000  1
  Er  Er8  1  0.332464  0.665665  0.000309  1
  Er  Er9  1  0.667536  0.333200  0.000309  1
  Ru  Ru10  1  0.000000  0.996259  0.992538  1
  Ru  Ru11  1  0.000000  0.996259  0.507462  1
  Pb  Pb12  1  0.402020  0.402538  0.250000  1
  Pb  Pb13  1  0.000000  0.401705  0.750000  1
  Pb  Pb14  1  0.000000  0.595498  0.250000  1
  Pb  Pb15  1  0.597980  0.000518  0.250000  1
  Pb  Pb16  1  0.407566  0.002452  0.750000  1
  Pb  Pb17  1  0.592434  0.594886  0.750000  1
