# generated using pymatgen
data_Tm4Mg3AlIr4
_symmetry_space_group_name_H-M   'P 1'
_cell_length_a   6.96035802
_cell_length_b   4.12194900
_cell_length_c   8.32251214
_cell_angle_alpha   90.00000000
_cell_angle_beta   89.08689555
_cell_angle_gamma   90.00000000
_symmetry_Int_Tables_number   1
_chemical_formula_structural   Tm4Mg3AlIr4
_chemical_formula_sum   'Tm4 Mg3 Al1 Ir4'
_cell_volume   238.74455608
_cell_formula_units_Z   1
loop_
 _symmetry_equiv_pos_site_id
 _symmetry_equiv_pos_as_xyz
  1  'x, y, z'
loop_
 _atom_site_type_symbol
 _atom_site_label
 _atom_site_symmetry_multiplicity
 _atom_site_fract_x
 _atom_site_fract_y
 _atom_site_fract_z
 _atom_site_occupancy
  Tm  Tm0  1  0.958105  0.250000  0.173456  1
  Tm  Tm1  1  0.464111  0.250000  0.321415  1
  Tm  Tm2  1  0.038235  0.750000  0.828233  1
  Tm  Tm3  1  0.536157  0.750000  0.675577  1
  Mg  Mg4  1  0.861023  0.250000  0.561471  1
  Mg  Mg5  1  0.363789  0.250000  0.940691  1
  Mg  Mg6  1  0.135525  0.750000  0.439717  1
  Al  Al7  1  0.637062  0.750000  0.058282  1
  Ir  Ir8  1  0.743815  0.250000  0.887054  1
  Ir  Ir9  1  0.252457  0.250000  0.629295  1
  Ir  Ir10  1  0.260730  0.750000  0.125207  1
  Ir  Ir11  1  0.748990  0.750000  0.359602  1
