# generated using pymatgen
data_Eu3Ga24Pd8W
_symmetry_space_group_name_H-M   'P 1'
_cell_length_a   8.57113852
_cell_length_b   8.57113865
_cell_length_c   8.57113938
_cell_angle_alpha   89.99778407
_cell_angle_beta   89.99778484
_cell_angle_gamma   89.99778966
_symmetry_Int_Tables_number   1
_chemical_formula_structural   Eu3Ga24Pd8W
_chemical_formula_sum   'Eu3 Ga24 Pd8 W1'
_cell_volume   629.67375286
_cell_formula_units_Z   1
loop_
 _symmetry_equiv_pos_site_id
 _symmetry_equiv_pos_as_xyz
  1  'x, y, z'
loop_
 _atom_site_type_symbol
 _atom_site_label
 _atom_site_symmetry_multiplicity
 _atom_site_fract_x
 _atom_site_fract_y
 _atom_site_fract_z
 _atom_site_occupancy
  Eu  Eu0  1  0.000000  0.500000  0.000000  1
  Eu  Eu1  1  0.500000  0.000000  0.000000  1
  Eu  Eu2  1  0.000000  0.000000  0.500000  1
  Ga  Ga3  1  0.989431  0.642806  0.642806  1
  Ga  Ga4  1  0.642806  0.642806  0.989431  1
  Ga  Ga5  1  0.642806  0.989431  0.642806  1
  Ga  Ga6  1  0.010569  0.357194  0.357194  1
  Ga  Ga7  1  0.357194  0.357194  0.010569  1
  Ga  Ga8  1  0.357194  0.010569  0.357194  1
  Ga  Ga9  1  0.735612  0.500000  0.264388  1
  Ga  Ga10  1  0.264388  0.500000  0.735612  1
  Ga  Ga11  1  0.500000  0.264388  0.735612  1
  Ga  Ga12  1  0.500000  0.735612  0.264388  1
  Ga  Ga13  1  0.264388  0.735612  0.500000  1
  Ga  Ga14  1  0.735612  0.264388  0.500000  1
  Ga  Ga15  1  0.839591  0.142740  0.839591  1
  Ga  Ga16  1  0.142740  0.839591  0.839591  1
  Ga  Ga17  1  0.839591  0.839591  0.142740  1
  Ga  Ga18  1  0.160409  0.857260  0.160409  1
  Ga  Ga19  1  0.857260  0.160409  0.160409  1
  Ga  Ga20  1  0.160409  0.160409  0.857260  1
  Ga  Ga21  1  0.728535  0.487098  0.728535  1
  Ga  Ga22  1  0.487098  0.728535  0.728535  1
  Ga  Ga23  1  0.728535  0.728535  0.487098  1
  Ga  Ga24  1  0.271465  0.512902  0.271465  1
  Ga  Ga25  1  0.512902  0.271465  0.271465  1
  Ga  Ga26  1  0.271465  0.271465  0.512902  1
  Pd  Pd27  1  0.835975  0.835975  0.835975  1
  Pd  Pd28  1  0.164025  0.164025  0.164025  1
  Pd  Pd29  1  0.663167  0.336833  0.000000  1
  Pd  Pd30  1  0.000000  0.336833  0.663167  1
  Pd  Pd31  1  0.336833  0.000000  0.663167  1
  Pd  Pd32  1  0.336833  0.663167  0.000000  1
  Pd  Pd33  1  0.000000  0.663167  0.336833  1
  Pd  Pd34  1  0.663167  0.000000  0.336833  1
  W  W35  1  0.500000  0.500000  0.500000  1
