# generated using pymatgen
data_Pr8Hg2IrPd
_symmetry_space_group_name_H-M   'P 1'
_cell_length_a   10.03465689
_cell_length_b   10.03465729
_cell_length_c   10.01717600
_cell_angle_alpha   60.05761780
_cell_angle_beta   60.05761649
_cell_angle_gamma   60.33319709
_symmetry_Int_Tables_number   1
_chemical_formula_structural   Pr8Hg2IrPd
_chemical_formula_sum   'Pr16 Hg4 Ir2 Pd2'
_cell_volume   715.64337389
_cell_formula_units_Z   2
loop_
 _symmetry_equiv_pos_site_id
 _symmetry_equiv_pos_as_xyz
  1  'x, y, z'
loop_
 _atom_site_type_symbol
 _atom_site_label
 _atom_site_symmetry_multiplicity
 _atom_site_fract_x
 _atom_site_fract_y
 _atom_site_fract_z
 _atom_site_occupancy
  Pr  Pr0  1  0.351382  0.351382  0.346819  1
  Pr  Pr1  1  0.351382  0.351382  0.950417  1
  Pr  Pr2  1  0.358674  0.938756  0.351284  1
  Pr  Pr3  1  0.938756  0.358674  0.351284  1
  Pr  Pr4  1  0.804909  0.191600  0.190438  1
  Pr  Pr5  1  0.191600  0.804909  0.813052  1
  Pr  Pr6  1  0.191600  0.804909  0.190438  1
  Pr  Pr7  1  0.804909  0.191600  0.813052  1
  Pr  Pr8  1  0.192298  0.192298  0.807702  1
  Pr  Pr9  1  0.810160  0.810160  0.189840  1
  Pr  Pr10  1  0.940043  0.564254  0.560105  1
  Pr  Pr11  1  0.564254  0.940043  0.935598  1
  Pr  Pr12  1  0.564254  0.940043  0.560105  1
  Pr  Pr13  1  0.940043  0.564254  0.935598  1
  Pr  Pr14  1  0.562380  0.562380  0.937620  1
  Pr  Pr15  1  0.938736  0.938736  0.561264  1
  Hg  Hg16  1  0.584275  0.584275  0.584832  1
  Hg  Hg17  1  0.584275  0.584275  0.246618  1
  Hg  Hg18  1  0.582908  0.247878  0.584607  1
  Hg  Hg19  1  0.247878  0.582908  0.584607  1
  Ir  Ir20  1  0.140968  0.570605  0.144214  1
  Ir  Ir21  1  0.570605  0.140968  0.144214  1
  Pd  Pd22  1  0.141856  0.141856  0.147355  1
  Pd  Pd23  1  0.141856  0.141856  0.568933  1
