# generated using pymatgen
data_La14Pr2Cd4OsPd3
_symmetry_space_group_name_H-M   'P 1'
_cell_length_a   10.21506762
_cell_length_b   10.21506762
_cell_length_c   10.21898203
_cell_angle_alpha   59.44957254
_cell_angle_beta   59.44957020
_cell_angle_gamma   59.48784348
_symmetry_Int_Tables_number   1
_chemical_formula_structural   La14Pr2Cd4OsPd3
_chemical_formula_sum   'La14 Pr2 Cd4 Os1 Pd3'
_cell_volume   744.78418182
_cell_formula_units_Z   1
loop_
 _symmetry_equiv_pos_site_id
 _symmetry_equiv_pos_as_xyz
  1  'x, y, z'
loop_
 _atom_site_type_symbol
 _atom_site_label
 _atom_site_symmetry_multiplicity
 _atom_site_fract_x
 _atom_site_fract_y
 _atom_site_fract_z
 _atom_site_occupancy
  La  La0  1  0.352389  0.352389  0.351775  1
  La  La1  1  0.346563  0.346563  0.953775  1
  La  La2  1  0.346190  0.953614  0.346478  1
  La  La3  1  0.953614  0.346190  0.346478  1
  La  La4  1  0.817867  0.188919  0.188838  1
  La  La5  1  0.191016  0.806077  0.806052  1
  La  La6  1  0.188919  0.817867  0.188838  1
  La  La7  1  0.806077  0.191016  0.806052  1
  La  La8  1  0.188723  0.188723  0.818001  1
  La  La9  1  0.806422  0.806422  0.190683  1
  La  La10  1  0.934969  0.565166  0.565250  1
  La  La11  1  0.555658  0.937927  0.937782  1
  La  La12  1  0.565166  0.934969  0.565250  1
  La  La13  1  0.937927  0.555658  0.937782  1
  Pr  Pr14  1  0.564050  0.564050  0.936274  1
  Pr  Pr15  1  0.938427  0.938427  0.555674  1
  Cd  Cd16  1  0.579205  0.579205  0.579673  1
  Cd  Cd17  1  0.579945  0.579945  0.259697  1
  Cd  Cd18  1  0.580527  0.259809  0.579858  1
  Cd  Cd19  1  0.259809  0.580527  0.579858  1
  Os  Os20  1  0.142908  0.142908  0.142725  1
  Pd  Pd21  1  0.145138  0.145138  0.573021  1
  Pd  Pd22  1  0.145328  0.573163  0.145092  1
  Pd  Pd23  1  0.573163  0.145328  0.145092  1
