# generated using pymatgen
data_Rb8Ce3TcBr24
_symmetry_space_group_name_H-M   'P 1'
_cell_length_a   13.66717673
_cell_length_b   13.66717619
_cell_length_c   13.66717700
_cell_angle_alpha   132.25179183
_cell_angle_beta   132.25179544
_cell_angle_gamma   69.83163586
_symmetry_Int_Tables_number   1
_chemical_formula_structural   Rb8Ce3TcBr24
_chemical_formula_sum   'Rb8 Ce3 Tc1 Br24'
_cell_volume   1371.62126933
_cell_formula_units_Z   1
loop_
 _symmetry_equiv_pos_site_id
 _symmetry_equiv_pos_as_xyz
  1  'x, y, z'
loop_
 _atom_site_type_symbol
 _atom_site_label
 _atom_site_symmetry_multiplicity
 _atom_site_fract_x
 _atom_site_fract_y
 _atom_site_fract_z
 _atom_site_occupancy
  Rb  Rb0  1  0.364241  0.365193  0.485442  1
  Rb  Rb1  1  0.121201  0.635759  0.000951  1
  Rb  Rb2  1  0.879751  0.878799  0.514558  1
  Rb  Rb3  1  0.121945  0.123347  0.486942  1
  Rb  Rb4  1  0.364998  0.878055  0.001401  1
  Rb  Rb5  1  0.636404  0.635002  0.513058  1
  Rb  Rb6  1  0.634807  0.120249  0.999049  1
  Rb  Rb7  1  0.876653  0.363596  0.998599  1
  Ce  Ce8  1  0.250000  0.750000  0.500000  1
  Ce  Ce9  1  0.500000  0.500000  0.000000  1
  Ce  Ce10  1  0.750000  0.250000  0.500000  1
  Tc  Tc11  1  0.000000  0.000000  0.000000  1
  Br  Br12  1  0.002137  0.788397  0.287211  1
  Br  Br13  1  0.020151  0.228707  0.248630  1
  Br  Br14  1  0.285073  0.997863  0.786260  1
  Br  Br15  1  0.998270  0.214098  0.715462  1
  Br  Br16  1  0.124889  0.624889  0.500000  1
  Br  Br17  1  0.247886  0.527528  0.776481  1
  Br  Br18  1  0.501186  0.714927  0.712789  1
  Br  Br19  1  0.498637  0.282809  0.284538  1
  Br  Br20  1  0.472472  0.248952  0.720358  1
  Br  Br21  1  0.624053  0.624053  0.000000  1
  Br  Br22  1  0.528594  0.752114  0.279642  1
  Br  Br23  1  0.113385  0.113385  0.000000  1
  Br  Br24  1  0.886615  0.886615  0.000000  1
  Br  Br25  1  0.980078  0.771520  0.751370  1
  Br  Br26  1  0.771293  0.019922  0.791442  1
  Br  Br27  1  0.228480  0.979849  0.208558  1
  Br  Br28  1  0.751048  0.471406  0.223519  1
  Br  Br29  1  0.211603  0.498814  0.213740  1
  Br  Br30  1  0.375111  0.875111  0.500000  1
  Br  Br31  1  0.875042  0.375042  0.500000  1
  Br  Br32  1  0.375947  0.375947  0.000000  1
  Br  Br33  1  0.624958  0.124958  0.500000  1
  Br  Br34  1  0.785902  0.501363  0.784173  1
  Br  Br35  1  0.717191  0.001730  0.215827  1
