# generated using pymatgen
data_CeY(MnAl5)4
_symmetry_space_group_name_H-M   'P 1'
_cell_length_a   6.80504500
_cell_length_b   6.80460090
_cell_length_c   9.05098300
_cell_angle_alpha   90.00000000
_cell_angle_beta   90.00000000
_cell_angle_gamma   97.44336598
_symmetry_Int_Tables_number   1
_chemical_formula_structural   CeY(MnAl5)4
_chemical_formula_sum   'Ce1 Y1 Mn4 Al20'
_cell_volume   415.57965219
_cell_formula_units_Z   1
loop_
 _symmetry_equiv_pos_site_id
 _symmetry_equiv_pos_as_xyz
  1  'x, y, z'
loop_
 _atom_site_type_symbol
 _atom_site_label
 _atom_site_symmetry_multiplicity
 _atom_site_fract_x
 _atom_site_fract_y
 _atom_site_fract_z
 _atom_site_occupancy
  Ce  Ce0  1  0.875282  0.124846  0.250000  1
  Y  Y1  1  0.125168  0.874865  0.750000  1
  Mn  Mn2  1  0.999680  0.498319  0.500072  1
  Mn  Mn3  1  0.999680  0.498319  0.999928  1
  Mn  Mn4  1  0.501538  0.000374  0.500081  1
  Mn  Mn5  1  0.501538  0.000374  0.999919  1
  Al  Al6  1  0.228900  0.228294  0.500997  1
  Al  Al7  1  0.771610  0.771184  0.999000  1
  Al  Al8  1  0.771610  0.771184  0.501000  1
  Al  Al9  1  0.228900  0.228294  0.999003  1
  Al  Al10  1  0.374610  0.625481  0.544814  1
  Al  Al11  1  0.624948  0.375001  0.048249  1
  Al  Al12  1  0.587814  0.868374  0.750000  1
  Al  Al13  1  0.409896  0.131658  0.250000  1
  Al  Al14  1  0.868305  0.590130  0.250000  1
  Al  Al15  1  0.131660  0.412151  0.750000  1
  Al  Al16  1  0.475280  0.218700  0.750000  1
  Al  Al17  1  0.523926  0.780688  0.250000  1
  Al  Al18  1  0.219342  0.476081  0.250000  1
  Al  Al19  1  0.781281  0.524711  0.750000  1
  Al  Al20  1  0.158452  0.841617  0.402883  1
  Al  Al21  1  0.841283  0.158625  0.902524  1
  Al  Al22  1  0.841283  0.158625  0.597476  1
  Al  Al23  1  0.158452  0.841617  0.097117  1
  Al  Al24  1  0.374610  0.625481  0.955186  1
  Al  Al25  1  0.624948  0.375001  0.451751  1
