# generated using pymatgen
data_SrGd4(In2Rh)2
_symmetry_space_group_name_H-M   'P 1'
_cell_length_a   3.66946700
_cell_length_b   8.06861500
_cell_length_c   18.38889700
_cell_angle_alpha   90.00000000
_cell_angle_beta   90.00000000
_cell_angle_gamma   90.00000000
_symmetry_Int_Tables_number   1
_chemical_formula_structural   SrGd4(In2Rh)2
_chemical_formula_sum   'Sr2 Gd8 In8 Rh4'
_cell_volume   544.44957094
_cell_formula_units_Z   2
loop_
 _symmetry_equiv_pos_site_id
 _symmetry_equiv_pos_as_xyz
  1  'x, y, z'
loop_
 _atom_site_type_symbol
 _atom_site_label
 _atom_site_symmetry_multiplicity
 _atom_site_fract_x
 _atom_site_fract_y
 _atom_site_fract_z
 _atom_site_occupancy
  Sr  Sr0  1  0.000000  0.500000  0.500000  1
  Sr  Sr1  1  0.000000  0.000000  0.000000  1
  Gd  Gd2  1  0.000000  0.746401  0.279256  1
  Gd  Gd3  1  0.000000  0.253599  0.720744  1
  Gd  Gd4  1  0.000000  0.753599  0.779256  1
  Gd  Gd5  1  0.000000  0.246401  0.220744  1
  Gd  Gd6  1  0.000000  0.621642  0.087815  1
  Gd  Gd7  1  0.000000  0.378358  0.912185  1
  Gd  Gd8  1  0.000000  0.878358  0.587815  1
  Gd  Gd9  1  0.000000  0.121642  0.412185  1
  In  In10  1  0.500000  0.699636  0.929102  1
  In  In11  1  0.500000  0.300364  0.070898  1
  In  In12  1  0.500000  0.800364  0.429102  1
  In  In13  1  0.500000  0.199636  0.570898  1
  In  In14  1  0.500000  0.567997  0.654718  1
  In  In15  1  0.500000  0.432003  0.345282  1
  In  In16  1  0.500000  0.932003  0.154718  1
  In  In17  1  0.500000  0.067997  0.845282  1
  Rh  Rh18  1  0.500000  0.522237  0.193486  1
  Rh  Rh19  1  0.500000  0.477763  0.806514  1
  Rh  Rh20  1  0.500000  0.977763  0.693486  1
  Rh  Rh21  1  0.500000  0.022237  0.306514  1
