# generated using pymatgen
data_Lu5Pt2PbO
_symmetry_space_group_name_H-M   'P 1'
_cell_length_a   8.64246085
_cell_length_b   8.64246102
_cell_length_c   8.64246190
_cell_angle_alpha   126.87541442
_cell_angle_beta   126.87541345
_cell_angle_gamma   78.45403480
_symmetry_Int_Tables_number   1
_chemical_formula_structural   Lu5Pt2PbO
_chemical_formula_sum   'Lu10 Pt4 Pb2 O2'
_cell_volume   399.96516952
_cell_formula_units_Z   2
loop_
 _symmetry_equiv_pos_site_id
 _symmetry_equiv_pos_as_xyz
  1  'x, y, z'
loop_
 _atom_site_type_symbol
 _atom_site_label
 _atom_site_symmetry_multiplicity
 _atom_site_fract_x
 _atom_site_fract_y
 _atom_site_fract_z
 _atom_site_occupancy
  Lu  Lu0  1  0.492499  0.288166  0.500000  1
  Lu  Lu1  1  0.788166  0.992499  0.500000  1
  Lu  Lu2  1  0.992499  0.492499  0.204333  1
  Lu  Lu3  1  0.288166  0.788166  0.795667  1
  Lu  Lu4  1  0.510078  0.714410  0.500000  1
  Lu  Lu5  1  0.214410  0.010078  0.500000  1
  Lu  Lu6  1  0.010078  0.510078  0.795668  1
  Lu  Lu7  1  0.714410  0.214410  0.204332  1
  Lu  Lu8  1  0.501285  0.501285  0.000000  1
  Lu  Lu9  1  0.001285  0.001285  0.000000  1
  Pt  Pt10  1  0.146053  0.356408  0.500000  1
  Pt  Pt11  1  0.856408  0.646053  0.500000  1
  Pt  Pt12  1  0.646053  0.146053  0.789644  1
  Pt  Pt13  1  0.356408  0.856408  0.210356  1
  Pb  Pb14  1  0.751243  0.751243  0.000000  1
  Pb  Pb15  1  0.251243  0.251243  0.000000  1
  O  O16  1  0.751278  0.251278  0.500000  1
  O  O17  1  0.251278  0.751278  0.500000  1
