# generated using pymatgen
data_Pr8Zn8PdRh7
_symmetry_space_group_name_H-M   'P 1'
_cell_length_a   4.04790200
_cell_length_b   7.39513234
_cell_length_c   16.74133747
_cell_angle_alpha   90.15038937
_cell_angle_beta   90.00000000
_cell_angle_gamma   90.00000000
_symmetry_Int_Tables_number   1
_chemical_formula_structural   Pr8Zn8PdRh7
_chemical_formula_sum   'Pr8 Zn8 Pd1 Rh7'
_cell_volume   501.14637726
_cell_formula_units_Z   1
loop_
 _symmetry_equiv_pos_site_id
 _symmetry_equiv_pos_as_xyz
  1  'x, y, z'
loop_
 _atom_site_type_symbol
 _atom_site_label
 _atom_site_symmetry_multiplicity
 _atom_site_fract_x
 _atom_site_fract_y
 _atom_site_fract_z
 _atom_site_occupancy
  Pr  Pr0  1  0.750000  0.453888  0.215614  1
  Pr  Pr1  1  0.750000  0.952184  0.283433  1
  Pr  Pr2  1  0.750000  0.830858  0.060706  1
  Pr  Pr3  1  0.250000  0.044494  0.719688  1
  Pr  Pr4  1  0.250000  0.168408  0.939858  1
  Pr  Pr5  1  0.250000  0.547451  0.783902  1
  Pr  Pr6  1  0.750000  0.333446  0.435353  1
  Pr  Pr7  1  0.250000  0.672023  0.560168  1
  Zn  Zn8  1  0.250000  0.996386  0.437680  1
  Zn  Zn9  1  0.750000  0.501149  0.939933  1
  Zn  Zn10  1  0.750000  0.998594  0.560290  1
  Zn  Zn11  1  0.250000  0.625638  0.349154  1
  Zn  Zn12  1  0.750000  0.376634  0.652841  1
  Zn  Zn13  1  0.750000  0.873723  0.850287  1
  Zn  Zn14  1  0.250000  0.498872  0.059963  1
  Zn  Zn15  1  0.250000  0.125679  0.150336  1
  Pd  Pd16  1  0.250000  0.242444  0.566015  1
  Rh  Rh17  1  0.750000  0.257537  0.065498  1
  Rh  Rh18  1  0.250000  0.246022  0.315021  1
  Rh  Rh19  1  0.750000  0.253121  0.812845  1
  Rh  Rh20  1  0.250000  0.743307  0.934398  1
  Rh  Rh21  1  0.750000  0.753731  0.685464  1
  Rh  Rh22  1  0.750000  0.757105  0.435055  1
  Rh  Rh23  1  0.250000  0.747307  0.186497  1
