# generated using pymatgen
data_Tb2Ce2Zn5Cu19
_symmetry_space_group_name_H-M   'P 1'
_cell_length_a   5.05840300
_cell_length_b   8.08288757
_cell_length_c   10.20220741
_cell_angle_alpha   89.72949068
_cell_angle_beta   90.00000000
_cell_angle_gamma   90.00000000
_symmetry_Int_Tables_number   1
_chemical_formula_structural   Tb2Ce2Zn5Cu19
_chemical_formula_sum   'Tb2 Ce2 Zn5 Cu19'
_cell_volume   417.12793249
_cell_formula_units_Z   1
loop_
 _symmetry_equiv_pos_site_id
 _symmetry_equiv_pos_as_xyz
  1  'x, y, z'
loop_
 _atom_site_type_symbol
 _atom_site_label
 _atom_site_symmetry_multiplicity
 _atom_site_fract_x
 _atom_site_fract_y
 _atom_site_fract_z
 _atom_site_occupancy
  Tb  Tb0  1  0.000000  0.759176  0.693016  1
  Tb  Tb1  1  0.000000  0.257576  0.312582  1
  Ce  Ce2  1  0.500000  0.241673  0.811370  1
  Ce  Ce3  1  0.500000  0.742418  0.183971  1
  Zn  Zn4  1  0.500000  0.354515  0.109693  1
  Zn  Zn5  1  0.500000  0.856242  0.889004  1
  Zn  Zn6  1  0.000000  0.642365  0.390606  1
  Zn  Zn7  1  0.000000  0.141694  0.608528  1
  Zn  Zn8  1  0.500000  0.683176  0.499081  1
  Cu  Cu9  1  0.500000  0.183304  0.500327  1
  Cu  Cu10  1  0.000000  0.317718  0.004770  1
  Cu  Cu11  1  0.000000  0.817616  0.996053  1
  Cu  Cu12  1  0.500000  0.939921  0.652805  1
  Cu  Cu13  1  0.500000  0.436156  0.346323  1
  Cu  Cu14  1  0.000000  0.063512  0.846795  1
  Cu  Cu15  1  0.000000  0.561303  0.153979  1
  Cu  Cu16  1  0.500000  0.593828  0.735090  1
  Cu  Cu17  1  0.500000  0.094891  0.265594  1
  Cu  Cu18  1  0.000000  0.406454  0.766695  1
  Cu  Cu19  1  0.000000  0.906618  0.233539  1
  Cu  Cu20  1  0.745237  0.065745  0.058453  1
  Cu  Cu21  1  0.254236  0.565538  0.941349  1
  Cu  Cu22  1  0.242663  0.935743  0.440671  1
  Cu  Cu23  1  0.757179  0.432896  0.559615  1
  Cu  Cu24  1  0.757337  0.935743  0.440671  1
  Cu  Cu25  1  0.242821  0.432896  0.559615  1
  Cu  Cu26  1  0.254763  0.065745  0.058453  1
  Cu  Cu27  1  0.745764  0.565538  0.941349  1
