# generated using pymatgen
data_Ta6V3Rh3N2
_symmetry_space_group_name_H-M   'P 1'
_cell_length_a   8.26644885
_cell_length_b   8.26644984
_cell_length_c   8.26645008
_cell_angle_alpha   119.78884620
_cell_angle_beta   120.08700970
_cell_angle_gamma   90.10773780
_symmetry_Int_Tables_number   1
_chemical_formula_structural   Ta6V3Rh3N2
_chemical_formula_sum   'Ta12 V6 Rh6 N4'
_cell_volume   399.80189301
_cell_formula_units_Z   2
loop_
 _symmetry_equiv_pos_site_id
 _symmetry_equiv_pos_as_xyz
  1  'x, y, z'
loop_
 _atom_site_type_symbol
 _atom_site_label
 _atom_site_symmetry_multiplicity
 _atom_site_fract_x
 _atom_site_fract_y
 _atom_site_fract_z
 _atom_site_occupancy
  Ta  Ta0  1  0.070510  0.570510  0.500000  1
  Ta  Ta1  1  0.687605  0.187605  0.500000  1
  Ta  Ta2  1  0.064215  0.179618  0.497333  1
  Ta  Ta3  1  0.682287  0.566883  0.502667  1
  Ta  Ta4  1  0.682287  0.179618  0.115403  1
  Ta  Ta5  1  0.064215  0.566883  0.884597  1
  Ta  Ta6  1  0.440345  0.440345  0.000000  1
  Ta  Ta7  1  0.813898  0.813898  0.000000  1
  Ta  Ta8  1  0.436691  0.813000  0.997150  1
  Ta  Ta9  1  0.815850  0.439542  0.002850  1
  Ta  Ta10  1  0.815850  0.813000  0.376307  1
  Ta  Ta11  1  0.436691  0.439542  0.623693  1
  V  V12  1  0.751789  0.003579  0.748211  1
  V  V13  1  0.255367  0.003579  0.251789  1
  V  V14  1  0.250249  0.500676  0.250426  1
  V  V15  1  0.250249  0.999822  0.749574  1
  V  V16  1  0.123151  0.790886  0.332265  1
  V  V17  1  0.458621  0.790886  0.667735  1
  Rh  Rh18  1  0.454109  0.116824  0.662716  1
  Rh  Rh19  1  0.454109  0.791393  0.337284  1
  Rh  Rh20  1  0.373897  0.209533  0.164364  1
  Rh  Rh21  1  0.045169  0.209533  0.835636  1
  Rh  Rh22  1  0.038357  0.865046  0.826689  1
  Rh  Rh23  1  0.038357  0.211669  0.173311  1
  N  N24  1  0.251310  0.499736  0.751574  1
  N  N25  1  0.748163  0.499736  0.248426  1
  N  N26  1  0.748330  0.998770  0.250440  1
  N  N27  1  0.748330  0.497890  0.749560  1
