# generated using pymatgen
data_Nd2SiNiBr
_symmetry_space_group_name_H-M   'P 1'
_cell_length_a   4.12887100
_cell_length_b   4.12887196
_cell_length_c   16.39962000
_cell_angle_alpha   90.00000000
_cell_angle_beta   90.00000000
_cell_angle_gamma   120.00000028
_symmetry_Int_Tables_number   1
_chemical_formula_structural   Nd2SiNiBr
_chemical_formula_sum   'Nd4 Si2 Ni2 Br2'
_cell_volume   242.11803769
_cell_formula_units_Z   2
loop_
 _symmetry_equiv_pos_site_id
 _symmetry_equiv_pos_as_xyz
  1  'x, y, z'
loop_
 _atom_site_type_symbol
 _atom_site_label
 _atom_site_symmetry_multiplicity
 _atom_site_fract_x
 _atom_site_fract_y
 _atom_site_fract_z
 _atom_site_occupancy
  Nd  Nd0  1  0.000000  0.000000  0.613818  1
  Nd  Nd1  1  0.000000  0.000000  0.390515  1
  Nd  Nd2  1  0.000000  0.000000  0.113818  1
  Nd  Nd3  1  0.000000  0.000000  0.890515  1
  Si  Si4  1  0.666667  0.333333  0.506866  1
  Si  Si5  1  0.333333  0.666667  0.006866  1
  Ni  Ni6  1  0.666667  0.333333  0.990500  1
  Ni  Ni7  1  0.333333  0.666667  0.490500  1
  Br  Br8  1  0.666667  0.333333  0.248301  1
  Br  Br9  1  0.333333  0.666667  0.748301  1
