# generated using pymatgen
data_La2B4Ir2RuRh2
_symmetry_space_group_name_H-M   'P 1'
_cell_length_a   7.60833963
_cell_length_b   6.39041975
_cell_length_c   5.70779973
_cell_angle_alpha   77.70889444
_cell_angle_beta   55.15199540
_cell_angle_gamma   47.13910881
_symmetry_Int_Tables_number   1
_chemical_formula_structural   La2B4Ir2RuRh2
_chemical_formula_sum   'La2 B4 Ir2 Ru1 Rh2'
_cell_volume   159.65394310
_cell_formula_units_Z   1
loop_
 _symmetry_equiv_pos_site_id
 _symmetry_equiv_pos_as_xyz
  1  'x, y, z'
loop_
 _atom_site_type_symbol
 _atom_site_label
 _atom_site_symmetry_multiplicity
 _atom_site_fract_x
 _atom_site_fract_y
 _atom_site_fract_z
 _atom_site_occupancy
  La  La0  1  0.858229  0.858229  0.141771  1
  La  La1  1  0.141771  0.141771  0.858229  1
  B  B2  1  0.789876  0.473190  0.532635  1
  B  B3  1  0.204300  0.532635  0.473190  1
  B  B4  1  0.532635  0.204300  0.789876  1
  B  B5  1  0.473190  0.789876  0.204300  1
  Ir  Ir6  1  0.500000  0.500000  0.500000  1
  Ir  Ir7  1  0.250000  0.250000  0.250000  1
  Ru  Ru8  1  0.750000  0.750000  0.750000  1
  Rh  Rh9  1  0.499847  0.499847  0.000153  1
  Rh  Rh10  1  0.000153  0.000153  0.499847  1
