# generated using pymatgen
data_FeAgF34
_symmetry_space_group_name_H-M   'P 1'
_cell_length_a   8.61950494
_cell_length_b   8.22016719
_cell_length_c   10.04617684
_cell_angle_alpha   83.42556856
_cell_angle_beta   89.38418700
_cell_angle_gamma   66.04078433
_symmetry_Int_Tables_number   1
_chemical_formula_structural   FeAgF34
_chemical_formula_sum   'Fe1 Ag1 F34'
_cell_volume   645.69756343
_cell_formula_units_Z   1
loop_
 _symmetry_equiv_pos_site_id
 _symmetry_equiv_pos_as_xyz
  1  'x, y, z'
loop_
 _atom_site_type_symbol
 _atom_site_label
 _atom_site_symmetry_multiplicity
 _atom_site_fract_x
 _atom_site_fract_y
 _atom_site_fract_z
 _atom_site_occupancy
  Fe  Fe0  1  0.140509  0.746620  0.238559  1
  Ag  Ag1  1  0.864131  0.252171  0.754278  1
  F  F2  1  0.602020  0.208644  0.495275  1
  F  F3  1  0.396751  0.784664  0.507703  1
  F  F4  1  0.828578  0.678569  0.722049  1
  F  F5  1  0.160415  0.319806  0.300908  1
  F  F6  1  0.087852  0.764374  0.869085  1
  F  F7  1  0.908041  0.232212  0.134429  1
  F  F8  1  0.560275  0.151414  0.375980  1
  F  F9  1  0.440356  0.848158  0.622426  1
  F  F10  1  0.631709  0.331432  0.686051  1
  F  F11  1  0.353208  0.674223  0.302879  1
  F  F12  1  0.938137  0.055392  0.646370  1
  F  F13  1  0.068206  0.921245  0.346179  1
  F  F14  1  0.906748  0.396149  0.603966  1
  F  F15  1  0.098744  0.613980  0.379125  1
  F  F16  1  0.841864  0.815739  0.627189  1
  F  F17  1  0.144904  0.171835  0.378069  1
  F  F18  1  0.795511  0.453051  0.858055  1
  F  F19  1  0.205799  0.560050  0.145866  1
  F  F20  1  0.211824  0.694650  0.772855  1
  F  F21  1  0.781184  0.314730  0.225667  1
  F  F22  1  0.930410  0.817784  0.172683  1
  F  F23  1  0.093832  0.173658  0.825020  1
  F  F24  1  0.820401  0.105926  0.901349  1
  F  F25  1  0.181275  0.886456  0.109078  1
  F  F26  1  0.482693  0.594980  0.988655  1
  F  F27  1  0.518790  0.409277  0.004282  1
  F  F28  1  0.465214  0.086608  0.864448  1
  F  F29  1  0.535899  0.921236  0.138479  1
  F  F30  1  0.284738  0.243764  0.607447  1
  F  F31  1  0.718449  0.758676  0.395224  1
  F  F32  1  0.259069  0.399552  0.668470  1
  F  F33  1  0.747228  0.605473  0.329779  1
  F  F34  1  0.552970  0.902092  0.848877  1
  F  F35  1  0.442262  0.105407  0.153246  1
