# generated using pymatgen
data_Ho2ReB8Rh
_symmetry_space_group_name_H-M   'P 1'
_cell_length_a   3.58411400
_cell_length_b   5.96070437
_cell_length_c   11.54628944
_cell_angle_alpha   90.29955857
_cell_angle_beta   90.00000000
_cell_angle_gamma   90.00000000
_symmetry_Int_Tables_number   1
_chemical_formula_structural   Ho2ReB8Rh
_chemical_formula_sum   'Ho4 Re2 B16 Rh2'
_cell_volume   246.66975491
_cell_formula_units_Z   2
loop_
 _symmetry_equiv_pos_site_id
 _symmetry_equiv_pos_as_xyz
  1  'x, y, z'
loop_
 _atom_site_type_symbol
 _atom_site_label
 _atom_site_symmetry_multiplicity
 _atom_site_fract_x
 _atom_site_fract_y
 _atom_site_fract_z
 _atom_site_occupancy
  Ho  Ho0  1  0.000000  0.628507  0.150135  1
  Ho  Ho1  1  0.000000  0.371493  0.849865  1
  Ho  Ho2  1  0.000000  0.127414  0.351822  1
  Ho  Ho3  1  0.000000  0.872586  0.648178  1
  Re  Re4  1  0.000000  0.134306  0.088717  1
  Re  Re5  1  0.000000  0.865694  0.911283  1
  B  B6  1  0.500000  0.975429  0.192621  1
  B  B7  1  0.500000  0.024571  0.807379  1
  B  B8  1  0.500000  0.476383  0.307313  1
  B  B9  1  0.500000  0.523617  0.692687  1
  B  B10  1  0.500000  0.789324  0.314258  1
  B  B11  1  0.500000  0.210676  0.685742  1
  B  B12  1  0.500000  0.288526  0.186133  1
  B  B13  1  0.500000  0.711474  0.813867  1
  B  B14  1  0.500000  0.864174  0.469005  1
  B  B15  1  0.500000  0.135826  0.530995  1
  B  B16  1  0.500000  0.364813  0.030749  1
  B  B17  1  0.500000  0.635187  0.969251  1
  B  B18  1  0.500000  0.886782  0.046947  1
  B  B19  1  0.500000  0.113218  0.953053  1
  B  B20  1  0.500000  0.386717  0.452434  1
  B  B21  1  0.500000  0.613283  0.547566  1
  Rh  Rh22  1  0.000000  0.640761  0.405742  1
  Rh  Rh23  1  0.000000  0.359239  0.594258  1
