# generated using pymatgen
data_Ho2Lu3Bi3O14
_symmetry_space_group_name_H-M   'P 1'
_cell_length_a   6.53305766
_cell_length_b   6.55120925
_cell_length_c   7.66240400
_cell_angle_alpha   106.81606332
_cell_angle_beta   89.70488375
_cell_angle_gamma   99.14245320
_symmetry_Int_Tables_number   1
_chemical_formula_structural   Ho2Lu3Bi3O14
_chemical_formula_sum   'Ho2 Lu3 Bi3 O14'
_cell_volume   309.64584872
_cell_formula_units_Z   1
loop_
 _symmetry_equiv_pos_site_id
 _symmetry_equiv_pos_as_xyz
  1  'x, y, z'
loop_
 _atom_site_type_symbol
 _atom_site_label
 _atom_site_symmetry_multiplicity
 _atom_site_fract_x
 _atom_site_fract_y
 _atom_site_fract_z
 _atom_site_occupancy
  Ho  Ho0  1  0.734370  0.458982  0.111521  1
  Ho  Ho1  1  0.737647  0.477494  0.620128  1
  Lu  Lu2  1  0.464036  0.007960  0.253048  1
  Lu  Lu3  1  0.535100  0.996500  0.750572  1
  Lu  Lu4  1  0.273925  0.536968  0.883272  1
  Bi  Bi5  1  0.995263  0.001579  0.501701  1
  Bi  Bi6  1  0.001350  0.996350  0.996934  1
  Bi  Bi7  1  0.277016  0.531083  0.386745  1
  O  O8  1  0.453021  0.658047  0.161910  1
  O  O9  1  0.547217  0.345981  0.834226  1
  O  O10  1  0.306411  0.920067  0.949999  1
  O  O11  1  0.698013  0.076266  0.052764  1
  O  O12  1  0.302334  0.934699  0.518902  1
  O  O13  1  0.695412  0.081573  0.489143  1
  O  O14  1  0.548153  0.359147  0.342461  1
  O  O15  1  0.460439  0.642342  0.663620  1
  O  O16  1  0.930143  0.656795  0.947321  1
  O  O17  1  0.073725  0.329861  0.027443  1
  O  O18  1  0.067678  0.346720  0.632863  1
  O  O19  1  0.906988  0.660535  0.379535  1
  O  O20  1  0.862138  0.901148  0.725714  1
  O  O21  1  0.129623  0.079902  0.270178  1
