# generated using pymatgen
data_Y16CdIn3(IrRh)2
_symmetry_space_group_name_H-M   'P 1'
_cell_length_a   9.70048693
_cell_length_b   9.70015390
_cell_length_c   9.69381400
_cell_angle_alpha   60.02161814
_cell_angle_beta   60.02275281
_cell_angle_gamma   60.12126623
_symmetry_Int_Tables_number   1
_chemical_formula_structural   Y16CdIn3(IrRh)2
_chemical_formula_sum   'Y16 Cd1 In3 Ir2 Rh2'
_cell_volume   645.79414118
_cell_formula_units_Z   1
loop_
 _symmetry_equiv_pos_site_id
 _symmetry_equiv_pos_as_xyz
  1  'x, y, z'
loop_
 _atom_site_type_symbol
 _atom_site_label
 _atom_site_symmetry_multiplicity
 _atom_site_fract_x
 _atom_site_fract_y
 _atom_site_fract_z
 _atom_site_occupancy
  Y  Y0  1  0.350143  0.349830  0.346526  1
  Y  Y1  1  0.350143  0.349830  0.953501  1
  Y  Y2  1  0.351866  0.950328  0.348903  1
  Y  Y3  1  0.949849  0.352204  0.348974  1
  Y  Y4  1  0.807133  0.190552  0.192159  1
  Y  Y5  1  0.189145  0.808953  0.811382  1
  Y  Y6  1  0.189145  0.808953  0.190521  1
  Y  Y7  1  0.807133  0.190552  0.810157  1
  Y  Y8  1  0.190110  0.189583  0.810153  1
  Y  Y9  1  0.807928  0.808359  0.191856  1
  Y  Y10  1  0.939887  0.563488  0.560790  1
  Y  Y11  1  0.563932  0.938014  0.937744  1
  Y  Y12  1  0.563932  0.938014  0.560311  1
  Y  Y13  1  0.939887  0.563488  0.935835  1
  Y  Y14  1  0.562789  0.560733  0.938239  1
  Y  Y15  1  0.939554  0.936575  0.561936  1
  Cd  Cd16  1  0.253429  0.581732  0.582420  1
  In  In17  1  0.581522  0.583282  0.583493  1
  In  In18  1  0.581522  0.583282  0.251704  1
  In  In19  1  0.580976  0.251958  0.583534  1
  Ir  Ir20  1  0.141163  0.575440  0.141699  1
  Ir  Ir21  1  0.575775  0.141301  0.141463  1
  Rh  Rh22  1  0.141520  0.141775  0.141904  1
  Rh  Rh23  1  0.141520  0.141775  0.574802  1
