# generated using pymatgen
data_PrMnSb3
_symmetry_space_group_name_H-M   'P 1'
_cell_length_a   6.09598900
_cell_length_b   6.25191600
_cell_length_c   13.26470500
_cell_angle_alpha   90.00000000
_cell_angle_beta   90.00000000
_cell_angle_gamma   90.00000000
_symmetry_Int_Tables_number   1
_chemical_formula_structural   PrMnSb3
_chemical_formula_sum   'Pr4 Mn4 Sb12'
_cell_volume   505.53927918
_cell_formula_units_Z   4
loop_
 _symmetry_equiv_pos_site_id
 _symmetry_equiv_pos_as_xyz
  1  'x, y, z'
loop_
 _atom_site_type_symbol
 _atom_site_label
 _atom_site_symmetry_multiplicity
 _atom_site_fract_x
 _atom_site_fract_y
 _atom_site_fract_z
 _atom_site_occupancy
  Pr  Pr0  1  0.250000  0.503371  0.307277  1
  Pr  Pr1  1  0.750000  0.496629  0.692723  1
  Pr  Pr2  1  0.250000  0.003371  0.692723  1
  Pr  Pr3  1  0.750000  0.996629  0.307277  1
  Mn  Mn4  1  0.000000  0.750000  0.908136  1
  Mn  Mn5  1  0.000000  0.250000  0.091864  1
  Mn  Mn6  1  0.500000  0.250000  0.091864  1
  Mn  Mn7  1  0.500000  0.750000  0.908136  1
  Sb  Sb8  1  0.000000  0.750000  0.501498  1
  Sb  Sb9  1  0.000000  0.250000  0.498502  1
  Sb  Sb10  1  0.500000  0.250000  0.498502  1
  Sb  Sb11  1  0.500000  0.750000  0.501498  1
  Sb  Sb12  1  0.250000  0.601108  0.061546  1
  Sb  Sb13  1  0.750000  0.398892  0.938454  1
  Sb  Sb14  1  0.250000  0.101108  0.938454  1
  Sb  Sb15  1  0.750000  0.898892  0.061546  1
  Sb  Sb16  1  0.250000  0.001409  0.218591  1
  Sb  Sb17  1  0.750000  0.998591  0.781409  1
  Sb  Sb18  1  0.250000  0.501409  0.781409  1
  Sb  Sb19  1  0.750000  0.498591  0.218591  1
