# generated using pymatgen
data_Dy3Lu7Cd3Ni
_symmetry_space_group_name_H-M   'P 1'
_cell_length_a   9.50334300
_cell_length_b   9.50334408
_cell_length_c   9.50931000
_cell_angle_alpha   90.00000000
_cell_angle_beta   90.00000000
_cell_angle_gamma   119.99999274
_symmetry_Int_Tables_number   1
_chemical_formula_structural   Dy3Lu7Cd3Ni
_chemical_formula_sum   'Dy6 Lu14 Cd6 Ni2'
_cell_volume   743.75950204
_cell_formula_units_Z   2
loop_
 _symmetry_equiv_pos_site_id
 _symmetry_equiv_pos_as_xyz
  1  'x, y, z'
loop_
 _atom_site_type_symbol
 _atom_site_label
 _atom_site_symmetry_multiplicity
 _atom_site_fract_x
 _atom_site_fract_y
 _atom_site_fract_z
 _atom_site_occupancy
  Dy  Dy0  1  0.542361  0.457639  0.250000  1
  Dy  Dy1  1  0.542361  0.084720  0.250000  1
  Dy  Dy2  1  0.915280  0.457639  0.250000  1
  Dy  Dy3  1  0.457639  0.542361  0.750000  1
  Dy  Dy4  1  0.457639  0.915280  0.750000  1
  Dy  Dy5  1  0.084720  0.542361  0.750000  1
  Lu  Lu6  1  0.000000  0.000000  0.500000  1
  Lu  Lu7  1  0.000000  0.000000  0.000000  1
  Lu  Lu8  1  0.211199  0.788801  0.437677  1
  Lu  Lu9  1  0.211199  0.422398  0.437677  1
  Lu  Lu10  1  0.577602  0.788801  0.437677  1
  Lu  Lu11  1  0.788801  0.211199  0.562323  1
  Lu  Lu12  1  0.788801  0.577602  0.562323  1
  Lu  Lu13  1  0.422398  0.211199  0.562323  1
  Lu  Lu14  1  0.788801  0.211199  0.937677  1
  Lu  Lu15  1  0.788801  0.577602  0.937677  1
  Lu  Lu16  1  0.422398  0.211199  0.937677  1
  Lu  Lu17  1  0.211199  0.788801  0.062323  1
  Lu  Lu18  1  0.211199  0.422398  0.062323  1
  Lu  Lu19  1  0.577602  0.788801  0.062323  1
  Cd  Cd20  1  0.885593  0.114407  0.250000  1
  Cd  Cd21  1  0.885593  0.771185  0.250000  1
  Cd  Cd22  1  0.228815  0.114407  0.250000  1
  Cd  Cd23  1  0.114407  0.885593  0.750000  1
  Cd  Cd24  1  0.114407  0.228815  0.750000  1
  Cd  Cd25  1  0.771185  0.885593  0.750000  1
  Ni  Ni26  1  0.333333  0.666667  0.250000  1
  Ni  Ni27  1  0.666667  0.333333  0.750000  1
