# generated using pymatgen
data_Tb2Ho(In2Ni)2
_symmetry_space_group_name_H-M   'P 1'
_cell_length_a   7.75620822
_cell_length_b   7.75706351
_cell_length_c   3.77502400
_cell_angle_alpha   90.00000000
_cell_angle_beta   90.00000000
_cell_angle_gamma   119.93217200
_symmetry_Int_Tables_number   1
_chemical_formula_structural   Tb2Ho(In2Ni)2
_chemical_formula_sum   'Tb2 Ho1 In4 Ni2'
_cell_volume   196.83103719
_cell_formula_units_Z   1
loop_
 _symmetry_equiv_pos_site_id
 _symmetry_equiv_pos_as_xyz
  1  'x, y, z'
loop_
 _atom_site_type_symbol
 _atom_site_label
 _atom_site_symmetry_multiplicity
 _atom_site_fract_x
 _atom_site_fract_y
 _atom_site_fract_z
 _atom_site_occupancy
  Tb  Tb0  1  0.053596  0.299963  0.500000  1
  Tb  Tb1  1  0.700352  0.753372  0.500000  1
  Ho  Ho2  1  0.246733  0.947884  0.500000  1
  In  In3  1  0.666768  0.085377  0.000000  1
  In  In4  1  0.914843  0.581780  0.000000  1
  In  In5  1  0.417700  0.332002  0.000000  1
  In  In6  1  0.332953  0.667619  0.000000  1
  Ni  Ni7  1  0.665479  0.332440  0.500000  1
  Ni  Ni8  1  0.001576  0.999563  0.000000  1
