# generated using pymatgen
data_Nd5Y3(SiO5)4
_symmetry_space_group_name_H-M   'P 1'
_cell_length_a   8.17027947
_cell_length_b   8.15912309
_cell_length_c   10.82393797
_cell_angle_alpha   60.97188969
_cell_angle_beta   61.30411536
_cell_angle_gamma   50.28915420
_symmetry_Int_Tables_number   1
_chemical_formula_structural   Nd5Y3(SiO5)4
_chemical_formula_sum   'Nd5 Y3 Si4 O20'
_cell_volume   469.56304368
_cell_formula_units_Z   1
loop_
 _symmetry_equiv_pos_site_id
 _symmetry_equiv_pos_as_xyz
  1  'x, y, z'
loop_
 _atom_site_type_symbol
 _atom_site_label
 _atom_site_symmetry_multiplicity
 _atom_site_fract_x
 _atom_site_fract_y
 _atom_site_fract_z
 _atom_site_occupancy
  Nd  Nd0  1  0.785557  0.286674  0.036925  1
  Nd  Nd1  1  0.708104  0.219857  0.464732  1
  Nd  Nd2  1  0.222243  0.706407  0.962623  1
  Nd  Nd3  1  0.292361  0.787461  0.532845  1
  Nd  Nd4  1  0.224085  0.489544  0.335462  1
  Y  Y5  1  0.530646  0.760229  0.158916  1
  Y  Y6  1  0.758624  0.519760  0.669088  1
  Y  Y7  1  0.473449  0.238491  0.836441  1
  Si  Si8  1  0.725371  0.906592  0.309926  1
  Si  Si9  1  0.098103  0.267731  0.189908  1
  Si  Si10  1  0.268544  0.095277  0.696661  1
  Si  Si11  1  0.905640  0.728652  0.804875  1
  O  O12  1  0.431798  0.611767  0.100829  1
  O  O13  1  0.394023  0.584728  0.387893  1
  O  O14  1  0.579448  0.382462  0.893698  1
  O  O15  1  0.608146  0.423092  0.609490  1
  O  O16  1  0.846751  0.730844  0.444808  1
  O  O17  1  0.275526  0.124996  0.067040  1
  O  O18  1  0.124030  0.270443  0.573664  1
  O  O19  1  0.727852  0.870467  0.928710  1
  O  O20  1  0.562196  0.852829  0.313044  1
  O  O21  1  0.160062  0.433981  0.171273  1
  O  O22  1  0.433440  0.158869  0.679174  1
  O  O23  1  0.844280  0.563397  0.819807  1
  O  O24  1  0.159715  0.589690  0.821757  1
  O  O25  1  0.405482  0.838863  0.683611  1
  O  O26  1  0.843358  0.407668  0.174096  1
  O  O27  1  0.592860  0.162425  0.319875  1
  O  O28  1  0.912850  0.903186  0.641673  1
  O  O29  1  0.096596  0.089263  0.859758  1
  O  O30  1  0.087908  0.099581  0.355174  1
  O  O31  1  0.920951  0.894774  0.156224  1
