# generated using pymatgen
data_Y7Th(ZnCo)2
_symmetry_space_group_name_H-M   'P 1'
_cell_length_a   9.43755009
_cell_length_b   9.43755102
_cell_length_c   9.44940700
_cell_angle_alpha   59.95843117
_cell_angle_beta   59.95842792
_cell_angle_gamma   60.12867034
_symmetry_Int_Tables_number   1
_chemical_formula_structural   Y7Th(ZnCo)2
_chemical_formula_sum   'Y14 Th2 Zn4 Co4'
_cell_volume   595.32617446
_cell_formula_units_Z   2
loop_
 _symmetry_equiv_pos_site_id
 _symmetry_equiv_pos_as_xyz
  1  'x, y, z'
loop_
 _atom_site_type_symbol
 _atom_site_label
 _atom_site_symmetry_multiplicity
 _atom_site_fract_x
 _atom_site_fract_y
 _atom_site_fract_z
 _atom_site_occupancy
  Y  Y0  1  0.603565  0.192684  0.601875  1
  Y  Y1  1  0.192684  0.603565  0.601875  1
  Y  Y2  1  0.059986  0.441200  0.439887  1
  Y  Y3  1  0.441200  0.059986  0.058926  1
  Y  Y4  1  0.441200  0.059986  0.439887  1
  Y  Y5  1  0.059986  0.441200  0.058926  1
  Y  Y6  1  0.439359  0.439359  0.060641  1
  Y  Y7  1  0.060910  0.060910  0.439090  1
  Y  Y8  1  0.188532  0.813941  0.813857  1
  Y  Y9  1  0.813941  0.188532  0.183671  1
  Y  Y10  1  0.813941  0.188532  0.813857  1
  Y  Y11  1  0.188532  0.813941  0.183671  1
  Y  Y12  1  0.813964  0.813964  0.186036  1
  Y  Y13  1  0.189187  0.189187  0.810813  1
  Th  Th14  1  0.594357  0.594357  0.598925  1
  Th  Th15  1  0.594357  0.594357  0.212361  1
  Zn  Zn16  1  0.827669  0.827669  0.827451  1
  Zn  Zn17  1  0.827669  0.827669  0.517210  1
  Zn  Zn18  1  0.827880  0.512632  0.829743  1
  Zn  Zn19  1  0.512632  0.827880  0.829743  1
  Co  Co20  1  0.394980  0.394980  0.390106  1
  Co  Co21  1  0.394980  0.394980  0.819934  1
  Co  Co22  1  0.399639  0.818846  0.390758  1
  Co  Co23  1  0.818846  0.399639  0.390758  1
