# generated using pymatgen
data_Ca4YEr3Hg8
_symmetry_space_group_name_H-M   'P 1'
_cell_length_a   7.49845200
_cell_length_b   7.49229600
_cell_length_c   7.42100600
_cell_angle_alpha   90.00000000
_cell_angle_beta   89.99840222
_cell_angle_gamma   90.00000000
_symmetry_Int_Tables_number   1
_chemical_formula_structural   Ca4YEr3Hg8
_chemical_formula_sum   'Ca4 Y1 Er3 Hg8'
_cell_volume   416.91673231
_cell_formula_units_Z   1
loop_
 _symmetry_equiv_pos_site_id
 _symmetry_equiv_pos_as_xyz
  1  'x, y, z'
loop_
 _atom_site_type_symbol
 _atom_site_label
 _atom_site_symmetry_multiplicity
 _atom_site_fract_x
 _atom_site_fract_y
 _atom_site_fract_z
 _atom_site_occupancy
  Ca  Ca0  1  0.749498  0.250000  0.000116  1
  Ca  Ca1  1  0.249511  0.750000  0.499875  1
  Ca  Ca2  1  0.750483  0.250000  0.500119  1
  Ca  Ca3  1  0.250504  0.750000  0.999870  1
  Y  Y4  1  0.249260  0.250000  0.500011  1
  Er  Er5  1  0.250615  0.250000  0.000010  1
  Er  Er6  1  0.749339  0.750000  0.000020  1
  Er  Er7  1  0.750700  0.750000  0.499973  1
  Hg  Hg8  1  0.999755  0.500621  0.248009  1
  Hg  Hg9  1  0.999755  0.999381  0.248009  1
  Hg  Hg10  1  0.500697  0.999623  0.250876  1
  Hg  Hg11  1  0.500697  0.500377  0.250876  1
  Hg  Hg12  1  0.500270  0.500641  0.749131  1
  Hg  Hg13  1  0.500270  0.999361  0.749131  1
  Hg  Hg14  1  0.999322  0.999629  0.751987  1
  Hg  Hg15  1  0.999322  0.500371  0.751987  1
