# generated using pymatgen
data_Yb5Cr2N7
_symmetry_space_group_name_H-M   'P 1'
_cell_length_a   5.92803558
_cell_length_b   8.44117755
_cell_length_c   8.53843476
_cell_angle_alpha   114.73838000
_cell_angle_beta   97.40211188
_cell_angle_gamma   90.25025083
_symmetry_Int_Tables_number   1
_chemical_formula_structural   Yb5Cr2N7
_chemical_formula_sum   'Yb10 Cr4 N14'
_cell_volume   384.00905230
_cell_formula_units_Z   2
loop_
 _symmetry_equiv_pos_site_id
 _symmetry_equiv_pos_as_xyz
  1  'x, y, z'
loop_
 _atom_site_type_symbol
 _atom_site_label
 _atom_site_symmetry_multiplicity
 _atom_site_fract_x
 _atom_site_fract_y
 _atom_site_fract_z
 _atom_site_occupancy
  Yb  Yb0  1  0.849086  0.590325  0.333737  1
  Yb  Yb1  1  0.267969  0.990666  0.575968  1
  Yb  Yb2  1  0.714594  0.415833  0.851775  1
  Yb  Yb3  1  0.285406  0.584167  0.148225  1
  Yb  Yb4  1  0.404996  0.784561  0.918794  1
  Yb  Yb5  1  0.595004  0.215439  0.081206  1
  Yb  Yb6  1  0.150914  0.409675  0.666263  1
  Yb  Yb7  1  0.888995  0.843753  0.768065  1
  Yb  Yb8  1  0.111005  0.156247  0.231935  1
  Yb  Yb9  1  0.732031  0.009334  0.424032  1
  Cr  Cr10  1  0.577268  0.359334  0.474386  1
  Cr  Cr11  1  0.422732  0.640666  0.525614  1
  Cr  Cr12  1  0.118469  0.216274  0.907819  1
  Cr  Cr13  1  0.881531  0.783726  0.092181  1
  N  N14  1  0.554508  0.558404  0.681632  1
  N  N15  1  0.445492  0.441596  0.318368  1
  N  N16  1  0.155296  0.698637  0.573206  1
  N  N17  1  0.844704  0.301363  0.426794  1
  N  N18  1  0.410781  0.190555  0.471752  1
  N  N19  1  0.589219  0.809445  0.528248  1
  N  N20  1  0.941664  0.142630  0.708642  1
  N  N21  1  0.058336  0.857370  0.291358  1
  N  N22  1  0.232087  0.045002  0.949081  1
  N  N23  1  0.767913  0.954998  0.050919  1
  N  N24  1  0.354784  0.331444  0.894178  1
  N  N25  1  0.968554  0.348027  0.076827  1
  N  N26  1  0.031446  0.651973  0.923173  1
  N  N27  1  0.645216  0.668556  0.105822  1
