# generated using pymatgen
data_YEr4Tl2(InRu)2
_symmetry_space_group_name_H-M   'P 1'
_cell_length_a   3.67040200
_cell_length_b   7.88490700
_cell_length_c   18.32418300
_cell_angle_alpha   90.00000000
_cell_angle_beta   90.00000000
_cell_angle_gamma   90.00000000
_symmetry_Int_Tables_number   1
_chemical_formula_structural   YEr4Tl2(InRu)2
_chemical_formula_sum   'Y2 Er8 Tl4 In4 Ru4'
_cell_volume   530.31611998
_cell_formula_units_Z   2
loop_
 _symmetry_equiv_pos_site_id
 _symmetry_equiv_pos_as_xyz
  1  'x, y, z'
loop_
 _atom_site_type_symbol
 _atom_site_label
 _atom_site_symmetry_multiplicity
 _atom_site_fract_x
 _atom_site_fract_y
 _atom_site_fract_z
 _atom_site_occupancy
  Y  Y0  1  0.000000  0.500000  0.500000  1
  Y  Y1  1  0.000000  0.000000  0.000000  1
  Er  Er2  1  0.000000  0.743157  0.280729  1
  Er  Er3  1  0.000000  0.256843  0.719271  1
  Er  Er4  1  0.000000  0.756843  0.780729  1
  Er  Er5  1  0.000000  0.243157  0.219271  1
  Er  Er6  1  0.000000  0.613837  0.091655  1
  Er  Er7  1  0.000000  0.386163  0.908345  1
  Er  Er8  1  0.000000  0.886163  0.591655  1
  Er  Er9  1  0.000000  0.113837  0.408345  1
  Tl  Tl10  1  0.500000  0.705507  0.934618  1
  Tl  Tl11  1  0.500000  0.294493  0.065382  1
  Tl  Tl12  1  0.500000  0.794493  0.434618  1
  Tl  Tl13  1  0.500000  0.205507  0.565382  1
  In  In14  1  0.500000  0.579547  0.651421  1
  In  In15  1  0.500000  0.420453  0.348579  1
  In  In16  1  0.500000  0.920453  0.151421  1
  In  In17  1  0.500000  0.079547  0.848579  1
  Ru  Ru18  1  0.500000  0.528312  0.199161  1
  Ru  Ru19  1  0.500000  0.471688  0.800839  1
  Ru  Ru20  1  0.500000  0.971688  0.699161  1
  Ru  Ru21  1  0.500000  0.028312  0.300839  1
