# generated using pymatgen
data_Tb8CoAg2Ir
_symmetry_space_group_name_H-M   'P 1'
_cell_length_a   9.54258879
_cell_length_b   9.54258858
_cell_length_c   9.44225400
_cell_angle_alpha   60.34720824
_cell_angle_beta   60.34720898
_cell_angle_gamma   60.61129088
_symmetry_Int_Tables_number   1
_chemical_formula_structural   Tb8CoAg2Ir
_chemical_formula_sum   'Tb16 Co2 Ag4 Ir2'
_cell_volume   613.95956193
_cell_formula_units_Z   2
loop_
 _symmetry_equiv_pos_site_id
 _symmetry_equiv_pos_as_xyz
  1  'x, y, z'
loop_
 _atom_site_type_symbol
 _atom_site_label
 _atom_site_symmetry_multiplicity
 _atom_site_fract_x
 _atom_site_fract_y
 _atom_site_fract_z
 _atom_site_occupancy
  Tb  Tb0  1  0.092683  0.703742  0.101787  1
  Tb  Tb1  1  0.936455  0.936455  0.563545  1
  Tb  Tb2  1  0.937864  0.566810  0.938023  1
  Tb  Tb3  1  0.314141  0.686687  0.311399  1
  Tb  Tb4  1  0.937864  0.566810  0.557303  1
  Tb  Tb5  1  0.310562  0.310562  0.689438  1
  Tb  Tb6  1  0.097972  0.097972  0.108214  1
  Tb  Tb7  1  0.560890  0.560890  0.939110  1
  Tb  Tb8  1  0.097972  0.097972  0.695843  1
  Tb  Tb9  1  0.686687  0.314141  0.687773  1
  Tb  Tb10  1  0.685351  0.685351  0.314649  1
  Tb  Tb11  1  0.686687  0.314141  0.311399  1
  Tb  Tb12  1  0.314141  0.686687  0.687773  1
  Tb  Tb13  1  0.566810  0.937864  0.557303  1
  Tb  Tb14  1  0.703742  0.092683  0.101787  1
  Tb  Tb15  1  0.566810  0.937864  0.938023  1
  Co  Co16  1  0.892069  0.892069  0.889890  1
  Co  Co17  1  0.892069  0.892069  0.325972  1
  Ag  Ag18  1  0.332385  0.332385  0.330609  1
  Ag  Ag19  1  0.004840  0.333194  0.330983  1
  Ag  Ag20  1  0.333194  0.004840  0.330983  1
  Ag  Ag21  1  0.332385  0.332385  0.004619  1
  Ir  Ir22  1  0.322617  0.893810  0.891787  1
  Ir  Ir23  1  0.893810  0.322617  0.891787  1
