# generated using pymatgen
data_La14Tb2Cd3Co4Hg
_symmetry_space_group_name_H-M   'P 1'
_cell_length_a   9.94676260
_cell_length_b   9.93861840
_cell_length_c   9.88454061
_cell_angle_alpha   60.18906799
_cell_angle_beta   59.92950346
_cell_angle_gamma   60.08035456
_symmetry_Int_Tables_number   1
_chemical_formula_structural   La14Tb2Cd3Co4Hg
_chemical_formula_sum   'La14 Tb2 Cd3 Co4 Hg1'
_cell_volume   691.98538770
_cell_formula_units_Z   1
loop_
 _symmetry_equiv_pos_site_id
 _symmetry_equiv_pos_as_xyz
  1  'x, y, z'
loop_
 _atom_site_type_symbol
 _atom_site_label
 _atom_site_symmetry_multiplicity
 _atom_site_fract_x
 _atom_site_fract_y
 _atom_site_fract_z
 _atom_site_occupancy
  La  La0  1  0.562705  0.940500  0.932863  1
  La  La1  1  0.689109  0.692066  0.311975  1
  La  La2  1  0.154620  0.151602  0.538889  1
  La  La3  1  0.308409  0.695870  0.688270  1
  La  La4  1  0.153960  0.155560  0.155948  1
  La  La5  1  0.535491  0.153766  0.157382  1
  La  La6  1  0.306995  0.692689  0.311379  1
  La  La7  1  0.311677  0.309555  0.687344  1
  La  La8  1  0.691254  0.309969  0.686848  1
  La  La9  1  0.936718  0.565515  0.560766  1
  La  La10  1  0.560325  0.559828  0.938931  1
  La  La11  1  0.153848  0.537248  0.154859  1
  La  La12  1  0.690041  0.306735  0.314216  1
  La  La13  1  0.939542  0.560179  0.937066  1
  Tb  Tb14  1  0.935524  0.940346  0.559160  1
  Tb  Tb15  1  0.562168  0.941087  0.560803  1
  Cd  Cd16  1  0.921115  0.922126  0.919646  1
  Cd  Cd17  1  0.917697  0.922682  0.241199  1
  Cd  Cd18  1  0.921072  0.235732  0.922001  1
  Co  Co19  1  0.918311  0.354222  0.362684  1
  Co  Co20  1  0.360283  0.359262  0.919052  1
  Co  Co21  1  0.355809  0.919540  0.364121  1
  Co  Co22  1  0.362549  0.355711  0.361290  1
  Hg  Hg23  1  0.250775  0.918208  0.913305  1
