# generated using pymatgen
data_Tb3DyAl2(CdPt2)2
_symmetry_space_group_name_H-M   'P 1'
_cell_length_a   4.37437800
_cell_length_b   6.98041142
_cell_length_c   8.24045163
_cell_angle_alpha   92.36096617
_cell_angle_beta   90.00000000
_cell_angle_gamma   90.00000000
_symmetry_Int_Tables_number   1
_chemical_formula_structural   Tb3DyAl2(CdPt2)2
_chemical_formula_sum   'Tb3 Dy1 Al2 Cd2 Pt4'
_cell_volume   251.40825045
_cell_formula_units_Z   1
loop_
 _symmetry_equiv_pos_site_id
 _symmetry_equiv_pos_as_xyz
  1  'x, y, z'
loop_
 _atom_site_type_symbol
 _atom_site_label
 _atom_site_symmetry_multiplicity
 _atom_site_fract_x
 _atom_site_fract_y
 _atom_site_fract_z
 _atom_site_occupancy
  Tb  Tb0  1  0.250000  0.463442  0.185782  1
  Tb  Tb1  1  0.750000  0.536591  0.814301  1
  Tb  Tb2  1  0.750000  0.036269  0.676975  1
  Dy  Dy3  1  0.250000  0.963450  0.322943  1
  Al  Al4  1  0.750000  0.639368  0.442825  1
  Al  Al5  1  0.250000  0.360667  0.557036  1
  Cd  Cd6  1  0.250000  0.858025  0.935465  1
  Cd  Cd7  1  0.750000  0.141907  0.064764  1
  Pt  Pt8  1  0.250000  0.731127  0.599867  1
  Pt  Pt9  1  0.750000  0.268795  0.399781  1
  Pt  Pt10  1  0.750000  0.739150  0.143688  1
  Pt  Pt11  1  0.250000  0.261208  0.856573  1
