# generated using pymatgen
data_Th8Ir5Pd3
_symmetry_space_group_name_H-M   'P 1'
_cell_length_a   4.34440700
_cell_length_b   5.95516432
_cell_length_c   14.76211500
_cell_angle_alpha   90.01879981
_cell_angle_beta   90.00000000
_cell_angle_gamma   90.00000000
_symmetry_Int_Tables_number   1
_chemical_formula_structural   Th8Ir5Pd3
_chemical_formula_sum   'Th8 Ir5 Pd3'
_cell_volume   381.92036359
_cell_formula_units_Z   1
loop_
 _symmetry_equiv_pos_site_id
 _symmetry_equiv_pos_as_xyz
  1  'x, y, z'
loop_
 _atom_site_type_symbol
 _atom_site_label
 _atom_site_symmetry_multiplicity
 _atom_site_fract_x
 _atom_site_fract_y
 _atom_site_fract_z
 _atom_site_occupancy
  Th  Th0  1  0.250000  0.548081  0.286591  1
  Th  Th1  1  0.750000  0.459282  0.717327  1
  Th  Th2  1  0.250000  0.958449  0.781585  1
  Th  Th3  1  0.250000  0.760508  0.533383  1
  Th  Th4  1  0.250000  0.739963  0.039222  1
  Th  Th5  1  0.750000  0.263693  0.962209  1
  Th  Th6  1  0.750000  0.039846  0.218510  1
  Th  Th7  1  0.750000  0.244664  0.459957  1
  Ir  Ir8  1  0.250000  0.071782  0.348573  1
  Ir  Ir9  1  0.750000  0.569272  0.147175  1
  Ir  Ir10  1  0.750000  0.720024  0.402702  1
  Ir  Ir11  1  0.250000  0.428853  0.850676  1
  Ir  Ir12  1  0.750000  0.928916  0.651492  1
  Pd  Pd13  1  0.750000  0.771604  0.900768  1
  Pd  Pd14  1  0.250000  0.228504  0.099959  1
  Pd  Pd15  1  0.250000  0.266560  0.599868  1
