# generated using pymatgen
data_Sc4IrRu2Rh
_symmetry_space_group_name_H-M   'P 1'
_cell_length_a   6.40409600
_cell_length_b   4.56134100
_cell_length_c   9.14414300
_cell_angle_alpha   90.00000000
_cell_angle_beta   90.00000000
_cell_angle_gamma   90.00000000
_symmetry_Int_Tables_number   1
_chemical_formula_structural   Sc4IrRu2Rh
_chemical_formula_sum   'Sc8 Ir2 Ru4 Rh2'
_cell_volume   267.11199034
_cell_formula_units_Z   2
loop_
 _symmetry_equiv_pos_site_id
 _symmetry_equiv_pos_as_xyz
  1  'x, y, z'
loop_
 _atom_site_type_symbol
 _atom_site_label
 _atom_site_symmetry_multiplicity
 _atom_site_fract_x
 _atom_site_fract_y
 _atom_site_fract_z
 _atom_site_occupancy
  Sc  Sc0  1  0.999967  0.750000  0.124759  1
  Sc  Sc1  1  0.499712  0.750000  0.124778  1
  Sc  Sc2  1  0.999711  0.250000  0.375222  1
  Sc  Sc3  1  0.499968  0.250000  0.375240  1
  Sc  Sc4  1  0.500348  0.750000  0.625231  1
  Sc  Sc5  1  0.999981  0.750000  0.625245  1
  Sc  Sc6  1  0.499980  0.250000  0.874755  1
  Sc  Sc7  1  0.000347  0.250000  0.874769  1
  Ir  Ir8  1  0.750120  0.250000  0.624803  1
  Ir  Ir9  1  0.250119  0.750000  0.875196  1
  Ru  Ru10  1  0.249893  0.250000  0.125079  1
  Ru  Ru11  1  0.749892  0.750000  0.374920  1
  Ru  Ru12  1  0.250104  0.250000  0.624935  1
  Ru  Ru13  1  0.750103  0.750000  0.875064  1
  Rh  Rh14  1  0.749878  0.250000  0.125172  1
  Rh  Rh15  1  0.249877  0.750000  0.374828  1
