# generated using pymatgen
data_DyYErRuI3
_symmetry_space_group_name_H-M   'P 1'
_cell_length_a   4.22597800
_cell_length_b   8.86647586
_cell_length_c   12.24553303
_cell_angle_alpha   86.03375850
_cell_angle_beta   90.00000000
_cell_angle_gamma   90.00000000
_symmetry_Int_Tables_number   1
_chemical_formula_structural   DyYErRuI3
_chemical_formula_sum   'Dy2 Y2 Er2 Ru2 I6'
_cell_volume   457.73547200
_cell_formula_units_Z   2
loop_
 _symmetry_equiv_pos_site_id
 _symmetry_equiv_pos_as_xyz
  1  'x, y, z'
loop_
 _atom_site_type_symbol
 _atom_site_label
 _atom_site_symmetry_multiplicity
 _atom_site_fract_x
 _atom_site_fract_y
 _atom_site_fract_z
 _atom_site_occupancy
  Dy  Dy0  1  0.750000  0.098252  0.684443  1
  Dy  Dy1  1  0.250000  0.901748  0.315557  1
  Y  Y2  1  0.250000  0.261231  0.897448  1
  Y  Y3  1  0.750000  0.738769  0.102552  1
  Er  Er4  1  0.750000  0.129275  0.125125  1
  Er  Er5  1  0.250000  0.870725  0.874875  1
  Ru  Ru6  1  0.750000  0.051548  0.907795  1
  Ru  Ru7  1  0.250000  0.948452  0.092205  1
  I  I8  1  0.250000  0.353390  0.636330  1
  I  I9  1  0.750000  0.646610  0.363670  1
  I  I10  1  0.750000  0.143052  0.392410  1
  I  I11  1  0.250000  0.856948  0.607590  1
  I  I12  1  0.250000  0.425883  0.133158  1
  I  I13  1  0.750000  0.574117  0.866842  1
