# generated using pymatgen
data_Sr4YTm(MoO6)2
_symmetry_space_group_name_H-M   'P 1'
_cell_length_a   5.85078431
_cell_length_b   8.29336862
_cell_length_c   5.88771509
_cell_angle_alpha   89.91451073
_cell_angle_beta   90.12068462
_cell_angle_gamma   90.60308731
_symmetry_Int_Tables_number   1
_chemical_formula_structural   Sr4YTm(MoO6)2
_chemical_formula_sum   'Sr4 Y1 Tm1 Mo2 O12'
_cell_volume   285.67112935
_cell_formula_units_Z   1
loop_
 _symmetry_equiv_pos_site_id
 _symmetry_equiv_pos_as_xyz
  1  'x, y, z'
loop_
 _atom_site_type_symbol
 _atom_site_label
 _atom_site_symmetry_multiplicity
 _atom_site_fract_x
 _atom_site_fract_y
 _atom_site_fract_z
 _atom_site_occupancy
  Sr  Sr0  1  0.493512  0.249113  0.533243  1
  Sr  Sr1  1  0.006352  0.246448  0.032539  1
  Sr  Sr2  1  0.993646  0.753548  0.967460  1
  Sr  Sr3  1  0.506478  0.750885  0.466757  1
  Y  Y4  1  0.999998  0.499998  0.499998  1
  Tm  Tm5  1  0.500037  0.000011  0.000009  1
  Mo  Mo6  1  0.000018  0.000007  0.499996  1
  Mo  Mo7  1  0.499992  0.500011  0.000007  1
  O  O8  1  0.770119  0.535696  0.195177  1
  O  O9  1  0.229873  0.464301  0.804821  1
  O  O10  1  0.271534  0.034780  0.299689  1
  O  O11  1  0.728460  0.965216  0.700312  1
  O  O12  1  0.575864  0.261843  0.985100  1
  O  O13  1  0.923392  0.234224  0.485380  1
  O  O14  1  0.076603  0.765773  0.514621  1
  O  O15  1  0.424131  0.738153  0.014896  1
  O  O16  1  0.299854  0.456621  0.275501  1
  O  O17  1  0.796380  0.957427  0.224280  1
  O  O18  1  0.203616  0.042570  0.775717  1
  O  O19  1  0.700140  0.543376  0.724497  1
