# generated using pymatgen
data_Er2ThSnRh3Pb2
_symmetry_space_group_name_H-M   'P 1'
_cell_length_a   7.64293807
_cell_length_b   7.66966462
_cell_length_c   3.91189600
_cell_angle_alpha   90.00000000
_cell_angle_beta   90.00000000
_cell_angle_gamma   118.89360700
_symmetry_Int_Tables_number   1
_chemical_formula_structural   Er2ThSnRh3Pb2
_chemical_formula_sum   'Er2 Th1 Sn1 Rh3 Pb2'
_cell_volume   200.76560644
_cell_formula_units_Z   1
loop_
 _symmetry_equiv_pos_site_id
 _symmetry_equiv_pos_as_xyz
  1  'x, y, z'
loop_
 _atom_site_type_symbol
 _atom_site_label
 _atom_site_symmetry_multiplicity
 _atom_site_fract_x
 _atom_site_fract_y
 _atom_site_fract_z
 _atom_site_occupancy
  Er  Er0  1  0.005920  0.601221  0.000000  1
  Er  Er1  1  0.590145  0.997740  0.000000  1
  Th  Th2  1  0.410938  0.408508  0.000000  1
  Sn  Sn3  1  0.261012  0.988046  0.500000  1
  Rh  Rh4  1  0.020695  0.008439  0.000000  1
  Rh  Rh5  1  0.642065  0.325745  0.500000  1
  Rh  Rh6  1  0.330803  0.658212  0.500000  1
  Pb  Pb7  1  0.752283  0.751162  0.500000  1
  Pb  Pb8  1  0.986138  0.260926  0.500000  1
