# generated using pymatgen
data_La10Sn6P
_symmetry_space_group_name_H-M   'P 1'
_cell_length_a   6.94278300
_cell_length_b   9.50980438
_cell_length_c   9.50981300
_cell_angle_alpha   119.99997782
_cell_angle_beta   89.99795336
_cell_angle_gamma   90.00409603
_symmetry_Int_Tables_number   1
_chemical_formula_structural   La10Sn6P
_chemical_formula_sum   'La10 Sn6 P1'
_cell_volume   543.76077976
_cell_formula_units_Z   1
loop_
 _symmetry_equiv_pos_site_id
 _symmetry_equiv_pos_as_xyz
  1  'x, y, z'
loop_
 _atom_site_type_symbol
 _atom_site_label
 _atom_site_symmetry_multiplicity
 _atom_site_fract_x
 _atom_site_fract_y
 _atom_site_fract_z
 _atom_site_occupancy
  La  La0  1  0.500000  0.333337  0.666676  1
  La  La1  1  0.500000  0.666662  0.333324  1
  La  La2  1  0.000000  0.666650  0.333301  1
  La  La3  1  0.000000  0.333351  0.666699  1
  La  La4  1  0.746180  0.246065  0.000000  1
  La  La5  1  0.746166  0.753954  0.753939  1
  La  La6  1  0.746166  0.000013  0.246061  1
  La  La7  1  0.253820  0.753935  0.000000  1
  La  La8  1  0.253834  0.246048  0.246061  1
  La  La9  1  0.253834  0.999988  0.753939  1
  Sn  Sn10  1  0.750404  0.605071  0.000000  1
  Sn  Sn11  1  0.750394  0.394915  0.394897  1
  Sn  Sn12  1  0.750394  0.000018  0.605103  1
  Sn  Sn13  1  0.249596  0.394929  0.000000  1
  Sn  Sn14  1  0.249606  0.605085  0.605103  1
  Sn  Sn15  1  0.249606  0.999982  0.394897  1
  P  P16  1  0.499999  0.000001  0.000000  1
