# generated using pymatgen
data_Yb5HoAl17Si7Os8
_symmetry_space_group_name_H-M   'P 1'
_cell_length_a   8.68637836
_cell_length_b   8.67047824
_cell_length_c   9.57983100
_cell_angle_alpha   90.00000000
_cell_angle_beta   90.00000000
_cell_angle_gamma   120.25818076
_symmetry_Int_Tables_number   1
_chemical_formula_structural   Yb5HoAl17Si7Os8
_chemical_formula_sum   'Yb5 Ho1 Al17 Si7 Os8'
_cell_volume   623.21015909
_cell_formula_units_Z   1
loop_
 _symmetry_equiv_pos_site_id
 _symmetry_equiv_pos_as_xyz
  1  'x, y, z'
loop_
 _atom_site_type_symbol
 _atom_site_label
 _atom_site_symmetry_multiplicity
 _atom_site_fract_x
 _atom_site_fract_y
 _atom_site_fract_z
 _atom_site_occupancy
  Yb  Yb0  1  0.193578  0.389086  0.250000  1
  Yb  Yb1  1  0.805877  0.612179  0.750000  1
  Yb  Yb2  1  0.609485  0.806478  0.250000  1
  Yb  Yb3  1  0.390434  0.192051  0.750000  1
  Yb  Yb4  1  0.801037  0.192030  0.750000  1
  Ho  Ho5  1  0.196520  0.805392  0.250000  1
  Al  Al6  1  0.165311  0.332836  0.576077  1
  Al  Al7  1  0.832794  0.668504  0.422803  1
  Al  Al8  1  0.668236  0.834342  0.575511  1
  Al  Al9  1  0.832794  0.668504  0.077197  1
  Al  Al10  1  0.332583  0.167283  0.423708  1
  Al  Al11  1  0.165311  0.332836  0.923923  1
  Al  Al12  1  0.165460  0.833022  0.576231  1
  Al  Al13  1  0.332583  0.167283  0.076292  1
  Al  Al14  1  0.833784  0.165349  0.424085  1
  Al  Al15  1  0.668236  0.834342  0.924489  1
  Al  Al16  1  0.833784  0.165349  0.075915  1
  Al  Al17  1  0.165460  0.833022  0.923769  1
  Al  Al18  1  0.125756  0.565971  0.750000  1
  Al  Al19  1  0.563964  0.434837  0.250000  1
  Al  Al20  1  0.438971  0.567002  0.750000  1
  Al  Al21  1  0.999708  0.999363  0.250000  1
  Al  Al22  1  0.000102  0.001342  0.750000  1
  Si  Si23  1  0.333587  0.664375  0.036911  1
  Si  Si24  1  0.666901  0.335310  0.964447  1
  Si  Si25  1  0.666901  0.335310  0.535553  1
  Si  Si26  1  0.333587  0.664375  0.463089  1
  Si  Si27  1  0.566712  0.125708  0.250000  1
  Si  Si28  1  0.435548  0.872146  0.750000  1
  Si  Si29  1  0.873417  0.432002  0.250000  1
  Os  Os30  1  0.499799  0.000139  0.002584  1
  Os  Os31  1  0.999357  0.500633  0.008481  1
  Os  Os32  1  0.499799  0.000139  0.497416  1
  Os  Os33  1  0.500804  0.500108  0.000701  1
  Os  Os34  1  0.999357  0.500633  0.491519  1
  Os  Os35  1  0.500804  0.500108  0.499299  1
  Os  Os36  1  0.000829  0.000302  0.999949  1
  Os  Os37  1  0.000829  0.000302  0.500051  1
