# generated using pymatgen
data_La4Pr4TmPd24
_symmetry_space_group_name_H-M   'P 1'
_cell_length_a   8.58886118
_cell_length_b   8.58772419
_cell_length_c   8.58772400
_cell_angle_alpha   90.00188813
_cell_angle_beta   90.03004592
_cell_angle_gamma   90.03004890
_symmetry_Int_Tables_number   1
_chemical_formula_structural   La4Pr4TmPd24
_chemical_formula_sum   'La4 Pr4 Tm1 Pd24'
_cell_volume   633.41979244
_cell_formula_units_Z   1
loop_
 _symmetry_equiv_pos_site_id
 _symmetry_equiv_pos_as_xyz
  1  'x, y, z'
loop_
 _atom_site_type_symbol
 _atom_site_label
 _atom_site_symmetry_multiplicity
 _atom_site_fract_x
 _atom_site_fract_y
 _atom_site_fract_z
 _atom_site_occupancy
  La  La0  1  0.253928  0.253440  0.745751  1
  La  La1  1  0.253928  0.745751  0.253440  1
  La  La2  1  0.254187  0.746288  0.746288  1
  La  La3  1  0.745633  0.254055  0.254055  1
  Pr  Pr4  1  0.252177  0.252418  0.252418  1
  Pr  Pr5  1  0.747667  0.747275  0.747275  1
  Pr  Pr6  1  0.747440  0.747738  0.253006  1
  Pr  Pr7  1  0.747440  0.253006  0.747738  1
  Tm  Tm8  1  0.998905  0.000066  0.000066  1
  Pd  Pd9  1  0.268970  0.500263  0.999681  1
  Pd  Pd10  1  0.730922  0.499772  0.000296  1
  Pd  Pd11  1  0.999621  0.269016  0.499999  1
  Pd  Pd12  1  0.500176  0.268992  0.000053  1
  Pd  Pd13  1  0.000225  0.730963  0.500023  1
  Pd  Pd14  1  0.499676  0.730959  0.999913  1
  Pd  Pd15  1  0.500176  0.000053  0.268992  1
  Pd  Pd16  1  0.268970  0.999681  0.500263  1
  Pd  Pd17  1  0.499676  0.999913  0.730959  1
  Pd  Pd18  1  0.730922  0.000296  0.499772  1
  Pd  Pd19  1  0.999621  0.499999  0.269016  1
  Pd  Pd20  1  0.000225  0.500023  0.730963  1
  Pd  Pd21  1  0.255238  0.499668  0.499668  1
  Pd  Pd22  1  0.745068  0.500395  0.500395  1
  Pd  Pd23  1  0.499903  0.255155  0.500026  1
  Pd  Pd24  1  0.500603  0.744825  0.500030  1
  Pd  Pd25  1  0.499903  0.500026  0.255155  1
  Pd  Pd26  1  0.500603  0.500030  0.744825  1
  Pd  Pd27  1  0.320043  0.000902  0.000902  1
  Pd  Pd28  1  0.678843  0.999032  0.999032  1
  Pd  Pd29  1  0.000770  0.320659  0.000007  1
  Pd  Pd30  1  0.998885  0.679392  0.999946  1
  Pd  Pd31  1  0.000770  0.000007  0.320659  1
  Pd  Pd32  1  0.998885  0.999946  0.679392  1
