# generated using pymatgen
data_Er2Co6Ni3Mo3As7
_symmetry_space_group_name_H-M   'P 1'
_cell_length_a   9.41553300
_cell_length_b   9.41553208
_cell_length_c   3.83868700
_cell_angle_alpha   90.00000000
_cell_angle_beta   90.00000000
_cell_angle_gamma   120.00000579
_symmetry_Int_Tables_number   1
_chemical_formula_structural   Er2Co6Ni3Mo3As7
_chemical_formula_sum   'Er2 Co6 Ni3 Mo3 As7'
_cell_volume   294.71557358
_cell_formula_units_Z   1
loop_
 _symmetry_equiv_pos_site_id
 _symmetry_equiv_pos_as_xyz
  1  'x, y, z'
loop_
 _atom_site_type_symbol
 _atom_site_label
 _atom_site_symmetry_multiplicity
 _atom_site_fract_x
 _atom_site_fract_y
 _atom_site_fract_z
 _atom_site_occupancy
  Er  Er0  1  0.333333  0.666667  0.000000  1
  Er  Er1  1  0.000000  0.000000  0.500000  1
  Co  Co2  1  0.282191  0.384953  0.500000  1
  Co  Co3  1  0.615047  0.897236  0.500000  1
  Co  Co4  1  0.102764  0.717809  0.500000  1
  Co  Co5  1  0.508394  0.458135  0.000000  1
  Co  Co6  1  0.541865  0.050260  0.000000  1
  Co  Co7  1  0.949740  0.491606  0.000000  1
  Ni  Ni8  1  0.729073  0.762714  0.000000  1
  Ni  Ni9  1  0.237286  0.966360  0.000000  1
  Ni  Ni10  1  0.033640  0.270927  0.000000  1
  Mo  Mo11  1  0.766746  0.550644  0.500000  1
  Mo  Mo12  1  0.449356  0.216102  0.500000  1
  Mo  Mo13  1  0.783898  0.233254  0.500000  1
  As  As14  1  0.969470  0.746840  0.000000  1
  As  As15  1  0.253160  0.222629  0.000000  1
  As  As16  1  0.777371  0.030530  0.000000  1
  As  As17  1  0.666667  0.333333  0.000000  1
  As  As18  1  0.544060  0.622458  0.500000  1
  As  As19  1  0.377542  0.921603  0.500000  1
  As  As20  1  0.078397  0.455940  0.500000  1
