# generated using pymatgen
data_Gd2CBr3
_symmetry_space_group_name_H-M   'P 1'
_cell_length_a   13.12560400
_cell_length_b   8.08508705
_cell_length_c   15.99772800
_cell_angle_alpha   59.77007604
_cell_angle_beta   90.00000000
_cell_angle_gamma   90.00000000
_symmetry_Int_Tables_number   1
_chemical_formula_structural   Gd2CBr3
_chemical_formula_sum   'Gd16 C8 Br24'
_cell_volume   1466.83770842
_cell_formula_units_Z   8
loop_
 _symmetry_equiv_pos_site_id
 _symmetry_equiv_pos_as_xyz
  1  'x, y, z'
loop_
 _atom_site_type_symbol
 _atom_site_label
 _atom_site_symmetry_multiplicity
 _atom_site_fract_x
 _atom_site_fract_y
 _atom_site_fract_z
 _atom_site_occupancy
  Gd  Gd0  1  0.608179  0.131247  0.581491  1
  Gd  Gd1  1  0.403022  0.301680  0.427604  1
  Gd  Gd2  1  0.108179  0.868753  0.918509  1
  Gd  Gd3  1  0.903022  0.698320  0.072396  1
  Gd  Gd4  1  0.391821  0.868753  0.418509  1
  Gd  Gd5  1  0.596978  0.698320  0.572396  1
  Gd  Gd6  1  0.891821  0.131247  0.081491  1
  Gd  Gd7  1  0.096978  0.301680  0.927604  1
  Gd  Gd8  1  0.612523  0.633622  0.364961  1
  Gd  Gd9  1  0.387477  0.366378  0.635039  1
  Gd  Gd10  1  0.112523  0.366378  0.135039  1
  Gd  Gd11  1  0.887477  0.633622  0.864961  1
  Gd  Gd12  1  0.361441  0.834018  0.666109  1
  Gd  Gd13  1  0.638559  0.165982  0.333891  1
  Gd  Gd14  1  0.861441  0.165982  0.833891  1
  Gd  Gd15  1  0.138559  0.834018  0.166109  1
  C  C16  1  0.466760  0.960480  0.539650  1
  C  C17  1  0.533240  0.039520  0.460350  1
  C  C18  1  0.966760  0.039520  0.960350  1
  C  C19  1  0.033240  0.960480  0.039650  1
  C  C20  1  0.522763  0.410980  0.517108  1
  C  C21  1  0.022763  0.589020  0.982892  1
  C  C22  1  0.477237  0.589020  0.482892  1
  C  C23  1  0.977237  0.410980  0.017108  1
  Br  Br24  1  0.763866  0.326001  0.425521  1
  Br  Br25  1  0.239105  0.183840  0.574125  1
  Br  Br26  1  0.263866  0.673999  0.074479  1
  Br  Br27  1  0.739105  0.816160  0.925875  1
  Br  Br28  1  0.236134  0.673999  0.574479  1
  Br  Br29  1  0.760895  0.816160  0.425875  1
  Br  Br30  1  0.736134  0.326001  0.925521  1
  Br  Br31  1  0.260895  0.183840  0.074125  1
  Br  Br32  1  0.728949  0.337171  0.663995  1
  Br  Br33  1  0.271051  0.662829  0.336005  1
  Br  Br34  1  0.228949  0.662829  0.836005  1
  Br  Br35  1  0.771051  0.337171  0.163995  1
  Br  Br36  1  0.483496  0.992096  0.761203  1
  Br  Br37  1  0.513588  0.512998  0.242842  1
  Br  Br38  1  0.983496  0.007904  0.738797  1
  Br  Br39  1  0.013588  0.487002  0.257158  1
  Br  Br40  1  0.516504  0.007904  0.238797  1
  Br  Br41  1  0.486412  0.487002  0.757158  1
  Br  Br42  1  0.016504  0.992096  0.261203  1
  Br  Br43  1  0.986412  0.512998  0.742842  1
  Br  Br44  1  0.744904  0.801664  0.680702  1
  Br  Br45  1  0.255096  0.198336  0.319298  1
  Br  Br46  1  0.244904  0.198336  0.819298  1
  Br  Br47  1  0.755096  0.801664  0.180702  1
