# generated using pymatgen
data_La2DyTh(Re2Si)8
_symmetry_space_group_name_H-M   'P 1'
_cell_length_a   4.16913100
_cell_length_b   7.32447811
_cell_length_c   15.59995188
_cell_angle_alpha   90.16893540
_cell_angle_beta   90.00000000
_cell_angle_gamma   90.00000000
_symmetry_Int_Tables_number   1
_chemical_formula_structural   La2DyTh(Re2Si)8
_chemical_formula_sum   'La2 Dy1 Th1 Re16 Si8'
_cell_volume   476.36911626
_cell_formula_units_Z   1
loop_
 _symmetry_equiv_pos_site_id
 _symmetry_equiv_pos_as_xyz
  1  'x, y, z'
loop_
 _atom_site_type_symbol
 _atom_site_label
 _atom_site_symmetry_multiplicity
 _atom_site_fract_x
 _atom_site_fract_y
 _atom_site_fract_z
 _atom_site_occupancy
  La  La0  1  0.500000  0.078977  0.379932  1
  La  La1  1  0.500000  0.917211  0.617440  1
  Dy  Dy2  1  0.000000  0.582821  0.118137  1
  Th  Th3  1  0.000000  0.420173  0.883628  1
  Re  Re4  1  0.000000  0.149293  0.052206  1
  Re  Re5  1  0.000000  0.864445  0.951088  1
  Re  Re6  1  0.500000  0.634173  0.446998  1
  Re  Re7  1  0.500000  0.362296  0.552259  1
  Re  Re8  1  0.000000  0.731673  0.317959  1
  Re  Re9  1  0.000000  0.266040  0.680894  1
  Re  Re10  1  0.500000  0.239241  0.176992  1
  Re  Re11  1  0.500000  0.763340  0.823061  1
  Re  Re12  1  0.000000  0.431724  0.417890  1
  Re  Re13  1  0.000000  0.564484  0.580789  1
  Re  Re14  1  0.500000  0.935188  0.083009  1
  Re  Re15  1  0.500000  0.072683  0.921605  1
  Re  Re16  1  0.000000  0.989287  0.203390  1
  Re  Re17  1  0.000000  0.003701  0.795530  1
  Re  Re18  1  0.500000  0.494251  0.291517  1
  Re  Re19  1  0.500000  0.502114  0.708399  1
  Si  Si20  1  0.000000  0.822889  0.473574  1
  Si  Si21  1  0.000000  0.173692  0.524777  1
  Si  Si22  1  0.500000  0.337811  0.025676  1
  Si  Si23  1  0.500000  0.674663  0.978287  1
  Si  Si24  1  0.000000  0.296613  0.270366  1
  Si  Si25  1  0.000000  0.702681  0.726360  1
  Si  Si26  1  0.500000  0.789464  0.223336  1
  Si  Si27  1  0.500000  0.199077  0.774904  1
