# generated using pymatgen
data_GdTlBi2(SbO4)4
_symmetry_space_group_name_H-M   'P 1'
_cell_length_a   5.24116924
_cell_length_b   5.28165015
_cell_length_c   13.78614100
_cell_angle_alpha   68.61433659
_cell_angle_beta   90.01730515
_cell_angle_gamma   90.14303960
_symmetry_Int_Tables_number   1
_chemical_formula_structural   GdTlBi2(SbO4)4
_chemical_formula_sum   'Gd1 Tl1 Bi2 Sb4 O16'
_cell_volume   355.35086174
_cell_formula_units_Z   1
loop_
 _symmetry_equiv_pos_site_id
 _symmetry_equiv_pos_as_xyz
  1  'x, y, z'
loop_
 _atom_site_type_symbol
 _atom_site_label
 _atom_site_symmetry_multiplicity
 _atom_site_fract_x
 _atom_site_fract_y
 _atom_site_fract_z
 _atom_site_occupancy
  Gd  Gd0  1  0.258586  0.333009  0.167912  1
  Tl  Tl1  1  0.246264  0.334740  0.669301  1
  Bi  Bi2  1  0.757631  0.668721  0.326888  1
  Bi  Bi3  1  0.743061  0.675168  0.826259  1
  Sb  Sb4  1  0.747112  0.928799  0.068383  1
  Sb  Sb5  1  0.751888  0.926884  0.569121  1
  Sb  Sb6  1  0.247796  0.077499  0.930429  1
  Sb  Sb7  1  0.252272  0.066505  0.431759  1
  O  O8  1  0.428710  0.743467  0.042379  1
  O  O9  1  0.068928  0.731443  0.544940  1
  O  O10  1  0.559342  0.255423  0.963440  1
  O  O11  1  0.937049  0.242517  0.459909  1
  O  O12  1  0.600185  0.020318  0.184366  1
  O  O13  1  0.900422  0.023234  0.684162  1
  O  O14  1  0.396860  0.984471  0.815520  1
  O  O15  1  0.105782  0.975822  0.315964  1
  O  O16  1  0.064747  0.163016  0.049286  1
  O  O17  1  0.434547  0.164194  0.548240  1
  O  O18  1  0.932135  0.845138  0.952000  1
  O  O19  1  0.568197  0.837599  0.454054  1
  O  O20  1  0.894224  0.599453  0.176187  1
  O  O21  1  0.603203  0.602298  0.679352  1
  O  O22  1  0.108003  0.408144  0.820595  1
  O  O23  1  0.393058  0.392138  0.319558  1
