# generated using pymatgen
data_Dy3HoSe4
_symmetry_space_group_name_H-M   'P 1'
_cell_length_a   13.18160397
_cell_length_b   13.18160385
_cell_length_c   13.18160267
_cell_angle_alpha   17.97301320
_cell_angle_beta   17.97301630
_cell_angle_gamma   17.97301522
_symmetry_Int_Tables_number   1
_chemical_formula_structural   Dy3HoSe4
_chemical_formula_sum   'Dy3 Ho1 Se4'
_cell_volume   190.40840407
_cell_formula_units_Z   1
loop_
 _symmetry_equiv_pos_site_id
 _symmetry_equiv_pos_as_xyz
  1  'x, y, z'
loop_
 _atom_site_type_symbol
 _atom_site_label
 _atom_site_symmetry_multiplicity
 _atom_site_fract_x
 _atom_site_fract_y
 _atom_site_fract_z
 _atom_site_occupancy
  Dy  Dy0  1  0.250518  0.250518  0.250518  1
  Dy  Dy1  1  0.500000  0.500000  0.500000  1
  Dy  Dy2  1  0.749482  0.749482  0.749482  1
  Ho  Ho3  1  0.000000  0.000000  0.000000  1
  Se  Se4  1  0.374326  0.374326  0.374326  1
  Se  Se5  1  0.124741  0.124741  0.124741  1
  Se  Se6  1  0.625674  0.625674  0.625674  1
  Se  Se7  1  0.875259  0.875259  0.875259  1
