# generated using pymatgen
data_AcPr(BOs)8
_symmetry_space_group_name_H-M   'P 1'
_cell_length_a   4.00748300
_cell_length_b   7.69730500
_cell_length_c   7.69730500
_cell_angle_alpha   90.00000000
_cell_angle_beta   90.00000000
_cell_angle_gamma   90.00000000
_symmetry_Int_Tables_number   1
_chemical_formula_structural   AcPr(BOs)8
_chemical_formula_sum   'Ac1 Pr1 B8 Os8'
_cell_volume   237.43737361
_cell_formula_units_Z   1
loop_
 _symmetry_equiv_pos_site_id
 _symmetry_equiv_pos_as_xyz
  1  'x, y, z'
loop_
 _atom_site_type_symbol
 _atom_site_label
 _atom_site_symmetry_multiplicity
 _atom_site_fract_x
 _atom_site_fract_y
 _atom_site_fract_z
 _atom_site_occupancy
  Ac  Ac0  1  0.250000  0.250000  0.250000  1
  Pr  Pr1  1  0.750000  0.750000  0.750000  1
  B  B2  1  0.360339  0.913426  0.028236  1
  B  B3  1  0.360339  0.586574  0.471764  1
  B  B4  1  0.856708  0.535292  0.083197  1
  B  B5  1  0.856708  0.964708  0.416803  1
  B  B6  1  0.643292  0.083197  0.964708  1
  B  B7  1  0.643292  0.416803  0.535292  1
  B  B8  1  0.139661  0.471764  0.913426  1
  B  B9  1  0.139661  0.028236  0.586574  1
  Os  Os10  1  0.140803  0.397281  0.645390  1
  Os  Os11  1  0.140803  0.102719  0.854610  1
  Os  Os12  1  0.641380  0.143002  0.606674  1
  Os  Os13  1  0.641380  0.356998  0.893326  1
  Os  Os14  1  0.858620  0.606674  0.356998  1
  Os  Os15  1  0.858620  0.893326  0.143002  1
  Os  Os16  1  0.359197  0.854610  0.397281  1
  Os  Os17  1  0.359197  0.645390  0.102719  1
