# generated using pymatgen
data_TbHo6CoSn23Os5
_symmetry_space_group_name_H-M   'P 1'
_cell_length_a   9.81823141
_cell_length_b   9.81823085
_cell_length_c   10.08845716
_cell_angle_alpha   89.92658894
_cell_angle_beta   90.07341165
_cell_angle_gamma   119.91766382
_symmetry_Int_Tables_number   1
_chemical_formula_structural   TbHo6CoSn23Os5
_chemical_formula_sum   'Tb1 Ho6 Co1 Sn23 Os5'
_cell_volume   842.90986808
_cell_formula_units_Z   1
loop_
 _symmetry_equiv_pos_site_id
 _symmetry_equiv_pos_as_xyz
  1  'x, y, z'
loop_
 _atom_site_type_symbol
 _atom_site_label
 _atom_site_symmetry_multiplicity
 _atom_site_fract_x
 _atom_site_fract_y
 _atom_site_fract_z
 _atom_site_occupancy
  Tb  Tb0  1  0.005958  0.994042  0.991886  1
  Ho  Ho1  1  0.514708  0.485292  0.698318  1
  Ho  Ho2  1  0.514889  0.029946  0.697744  1
  Ho  Ho3  1  0.970054  0.485111  0.697744  1
  Ho  Ho4  1  0.031884  0.517589  0.303965  1
  Ho  Ho5  1  0.482411  0.968116  0.303965  1
  Ho  Ho6  1  0.483732  0.516268  0.302701  1
  Co  Co7  1  0.828612  0.171388  0.200736  1
  Sn  Sn8  1  0.667968  0.332032  0.178743  1
  Sn  Sn9  1  0.666925  0.333075  0.871906  1
  Sn  Sn10  1  0.333039  0.666961  0.129291  1
  Sn  Sn11  1  0.350205  0.350040  0.000170  1
  Sn  Sn12  1  0.998770  0.646798  0.000375  1
  Sn  Sn13  1  0.655251  0.002468  0.005755  1
  Sn  Sn14  1  0.649960  0.649795  0.000170  1
  Sn  Sn15  1  0.333074  0.666926  0.825002  1
  Sn  Sn16  1  0.439849  0.220510  0.462577  1
  Sn  Sn17  1  0.220108  0.779892  0.538941  1
  Sn  Sn18  1  0.219905  0.439814  0.537737  1
  Sn  Sn19  1  0.560186  0.780095  0.537737  1
  Sn  Sn20  1  0.118099  0.881901  0.275344  1
  Sn  Sn21  1  0.779490  0.560151  0.462577  1
  Sn  Sn22  1  0.781612  0.218388  0.456092  1
  Sn  Sn23  1  0.353202  0.001230  0.000375  1
  Sn  Sn24  1  0.110000  0.232464  0.272923  1
  Sn  Sn25  1  0.767536  0.890000  0.272923  1
  Sn  Sn26  1  0.235708  0.118835  0.721297  1
  Sn  Sn27  1  0.881165  0.764292  0.721297  1
  Sn  Sn28  1  0.881570  0.118430  0.724317  1
  Sn  Sn29  1  0.999558  0.000442  0.498289  1
  Sn  Sn30  1  0.997532  0.344749  0.005755  1
  Os  Os31  1  0.168991  0.831009  0.800194  1
  Os  Os32  1  0.168576  0.340079  0.799229  1
  Os  Os33  1  0.659921  0.831424  0.799229  1
  Os  Os34  1  0.339857  0.170304  0.202346  1
  Os  Os35  1  0.829696  0.660143  0.202346  1
