# generated using pymatgen
data_CrCu4(Ni2Pt)5
_symmetry_space_group_name_H-M   'P 1'
_cell_length_a   3.66143600
_cell_length_b   3.66143600
_cell_length_c   18.23801300
_cell_angle_alpha   90.00000000
_cell_angle_beta   90.00000000
_cell_angle_gamma   90.00000000
_symmetry_Int_Tables_number   1
_chemical_formula_structural   CrCu4(Ni2Pt)5
_chemical_formula_sum   'Cr1 Cu4 Ni10 Pt5'
_cell_volume   244.50087379
_cell_formula_units_Z   1
loop_
 _symmetry_equiv_pos_site_id
 _symmetry_equiv_pos_as_xyz
  1  'x, y, z'
loop_
 _atom_site_type_symbol
 _atom_site_label
 _atom_site_symmetry_multiplicity
 _atom_site_fract_x
 _atom_site_fract_y
 _atom_site_fract_z
 _atom_site_occupancy
  Cr  Cr0  1  0.000000  0.000000  0.000000  1
  Cu  Cu1  1  0.000000  0.000000  0.199585  1
  Cu  Cu2  1  0.000000  0.000000  0.400116  1
  Cu  Cu3  1  0.000000  0.000000  0.599884  1
  Cu  Cu4  1  0.000000  0.000000  0.800415  1
  Ni  Ni5  1  0.500000  0.000000  0.097501  1
  Ni  Ni6  1  0.500000  0.000000  0.299818  1
  Ni  Ni7  1  0.500000  0.000000  0.500000  1
  Ni  Ni8  1  0.500000  0.000000  0.700182  1
  Ni  Ni9  1  0.500000  0.000000  0.902499  1
  Ni  Ni10  1  0.000000  0.500000  0.097501  1
  Ni  Ni11  1  0.000000  0.500000  0.299818  1
  Ni  Ni12  1  0.000000  0.500000  0.500000  1
  Ni  Ni13  1  0.000000  0.500000  0.700182  1
  Ni  Ni14  1  0.000000  0.500000  0.902499  1
  Pt  Pt15  1  0.500000  0.500000  0.000000  1
  Pt  Pt16  1  0.500000  0.500000  0.198933  1
  Pt  Pt17  1  0.500000  0.500000  0.400093  1
  Pt  Pt18  1  0.500000  0.500000  0.599907  1
  Pt  Pt19  1  0.500000  0.500000  0.801067  1
