# generated using pymatgen
data_Dy4Sc6Sn7Pt
_symmetry_space_group_name_H-M   'P 1'
_cell_length_a   7.55377827
_cell_length_b   7.96657626
_cell_length_c   14.82691200
_cell_angle_alpha   90.00000000
_cell_angle_beta   90.00000000
_cell_angle_gamma   89.36726870
_symmetry_Int_Tables_number   1
_chemical_formula_structural   Dy4Sc6Sn7Pt
_chemical_formula_sum   'Dy8 Sc12 Sn14 Pt2'
_cell_volume   892.19580820
_cell_formula_units_Z   2
loop_
 _symmetry_equiv_pos_site_id
 _symmetry_equiv_pos_as_xyz
  1  'x, y, z'
loop_
 _atom_site_type_symbol
 _atom_site_label
 _atom_site_symmetry_multiplicity
 _atom_site_fract_x
 _atom_site_fract_y
 _atom_site_fract_z
 _atom_site_occupancy
  Dy  Dy0  1  0.994615  0.175803  0.093700  1
  Dy  Dy1  1  0.005385  0.824197  0.906300  1
  Dy  Dy2  1  0.503319  0.682044  0.907028  1
  Dy  Dy3  1  0.005385  0.824197  0.593700  1
  Dy  Dy4  1  0.496681  0.317956  0.092972  1
  Dy  Dy5  1  0.994615  0.175803  0.406300  1
  Dy  Dy6  1  0.496681  0.317956  0.407028  1
  Dy  Dy7  1  0.503319  0.682044  0.592972  1
  Sc  Sc8  1  0.164747  0.489476  0.750000  1
  Sc  Sc9  1  0.835253  0.510524  0.250000  1
  Sc  Sc10  1  0.312130  0.990473  0.250000  1
  Sc  Sc11  1  0.687870  0.009527  0.750000  1
  Sc  Sc12  1  0.315400  0.159129  0.630010  1
  Sc  Sc13  1  0.684600  0.840871  0.369990  1
  Sc  Sc14  1  0.147728  0.675343  0.368220  1
  Sc  Sc15  1  0.684600  0.840871  0.130010  1
  Sc  Sc16  1  0.852272  0.324657  0.631780  1
  Sc  Sc17  1  0.315400  0.159129  0.869990  1
  Sc  Sc18  1  0.852272  0.324657  0.868220  1
  Sc  Sc19  1  0.147728  0.675343  0.131780  1
  Sn  Sn20  1  0.470432  0.620508  0.250000  1
  Sn  Sn21  1  0.529568  0.379492  0.750000  1
  Sn  Sn22  1  0.297922  0.856193  0.750000  1
  Sn  Sn23  1  0.702078  0.143807  0.250000  1
  Sn  Sn24  1  0.197225  0.353071  0.250000  1
  Sn  Sn25  1  0.802775  0.646929  0.750000  1
  Sn  Sn26  1  0.181814  0.461722  0.539076  1
  Sn  Sn27  1  0.818186  0.538278  0.460924  1
  Sn  Sn28  1  0.322476  0.957970  0.457197  1
  Sn  Sn29  1  0.818186  0.538278  0.039076  1
  Sn  Sn30  1  0.677524  0.042030  0.542803  1
  Sn  Sn31  1  0.181814  0.461722  0.960924  1
  Sn  Sn32  1  0.677524  0.042030  0.957197  1
  Sn  Sn33  1  0.322476  0.957970  0.042803  1
  Pt  Pt34  1  0.032824  0.123758  0.750000  1
  Pt  Pt35  1  0.967176  0.876242  0.250000  1
