# generated using pymatgen
data_Er4U2CoTc5
_symmetry_space_group_name_H-M   'P 1'
_cell_length_a   5.72783077
_cell_length_b   5.72783021
_cell_length_c   8.13427100
_cell_angle_alpha   90.00000000
_cell_angle_beta   90.00000000
_cell_angle_gamma   119.90997131
_symmetry_Int_Tables_number   1
_chemical_formula_structural   Er4U2CoTc5
_chemical_formula_sum   'Er4 U2 Co1 Tc5'
_cell_volume   231.32515146
_cell_formula_units_Z   1
loop_
 _symmetry_equiv_pos_site_id
 _symmetry_equiv_pos_as_xyz
  1  'x, y, z'
loop_
 _atom_site_type_symbol
 _atom_site_label
 _atom_site_symmetry_multiplicity
 _atom_site_fract_x
 _atom_site_fract_y
 _atom_site_fract_z
 _atom_site_occupancy
  Er  Er0  1  0.332737  0.667263  0.439203  1
  Er  Er1  1  0.666669  0.333331  0.556199  1
  Er  Er2  1  0.666669  0.333331  0.943801  1
  Er  Er3  1  0.332737  0.667263  0.060797  1
  U  U4  1  0.000342  0.999658  0.498023  1
  U  U5  1  0.000342  0.999658  0.001977  1
  Co  Co6  1  0.839793  0.160207  0.250000  1
  Tc  Tc7  1  0.833017  0.671628  0.250000  1
  Tc  Tc8  1  0.328372  0.166983  0.250000  1
  Tc  Tc9  1  0.163697  0.836303  0.750000  1
  Tc  Tc10  1  0.164945  0.329320  0.750000  1
  Tc  Tc11  1  0.670680  0.835055  0.750000  1
