# generated using pymatgen
data_Lu10In2BiSb3
_symmetry_space_group_name_H-M   'P 1'
_cell_length_a   6.35048901
_cell_length_b   8.81484196
_cell_length_c   8.81373655
_cell_angle_alpha   120.00416208
_cell_angle_beta   90.00037011
_cell_angle_gamma   89.99926660
_symmetry_Int_Tables_number   1
_chemical_formula_structural   Lu10In2BiSb3
_chemical_formula_sum   'Lu10 In2 Bi1 Sb3'
_cell_volume   427.26191213
_cell_formula_units_Z   1
loop_
 _symmetry_equiv_pos_site_id
 _symmetry_equiv_pos_as_xyz
  1  'x, y, z'
loop_
 _atom_site_type_symbol
 _atom_site_label
 _atom_site_symmetry_multiplicity
 _atom_site_fract_x
 _atom_site_fract_y
 _atom_site_fract_z
 _atom_site_occupancy
  Lu  Lu0  1  0.501988  0.332442  0.660790  1
  Lu  Lu1  1  0.501988  0.671652  0.339210  1
  Lu  Lu2  1  0.998013  0.671647  0.339204  1
  Lu  Lu3  1  0.998013  0.332443  0.660796  1
  Lu  Lu4  1  0.750013  0.237889  0.000000  1
  Lu  Lu5  1  0.750007  0.761231  0.759627  1
  Lu  Lu6  1  0.750007  0.001604  0.240373  1
  Lu  Lu7  1  0.250030  0.765540  0.000000  1
  Lu  Lu8  1  0.250004  0.234394  0.243362  1
  Lu  Lu9  1  0.250004  0.991032  0.756638  1
  In  In10  1  0.249995  0.605033  0.605558  1
  In  In11  1  0.249995  0.999475  0.394442  1
  Bi  Bi12  1  0.249988  0.390545  0.000000  1
  Sb  Sb13  1  0.749976  0.608080  0.000000  1
  Sb  Sb14  1  0.749992  0.393531  0.390068  1
  Sb  Sb15  1  0.749992  0.003462  0.609932  1
