# generated using pymatgen
data_La3NdP7Ir8
_symmetry_space_group_name_H-M   'P 1'
_cell_length_a   4.01690900
_cell_length_b   12.89039831
_cell_length_c   13.34615164
_cell_angle_alpha   81.01184806
_cell_angle_beta   90.00000000
_cell_angle_gamma   90.00000000
_symmetry_Int_Tables_number   1
_chemical_formula_structural   La3NdP7Ir8
_chemical_formula_sum   'La6 Nd2 P14 Ir16'
_cell_volume   682.57209111
_cell_formula_units_Z   2
loop_
 _symmetry_equiv_pos_site_id
 _symmetry_equiv_pos_as_xyz
  1  'x, y, z'
loop_
 _atom_site_type_symbol
 _atom_site_label
 _atom_site_symmetry_multiplicity
 _atom_site_fract_x
 _atom_site_fract_y
 _atom_site_fract_z
 _atom_site_occupancy
  La  La0  1  0.250000  0.103733  0.789522  1
  La  La1  1  0.750000  0.896267  0.210478  1
  La  La2  1  0.250000  0.280481  0.105109  1
  La  La3  1  0.750000  0.719519  0.894891  1
  La  La4  1  0.250000  0.516441  0.292909  1
  La  La5  1  0.750000  0.483559  0.707091  1
  Nd  Nd6  1  0.250000  0.208827  0.439359  1
  Nd  Nd7  1  0.750000  0.791173  0.560641  1
  P  P8  1  0.250000  0.053234  0.097935  1
  P  P9  1  0.750000  0.946766  0.902065  1
  P  P10  1  0.250000  0.313905  0.687185  1
  P  P11  1  0.750000  0.686095  0.312815  1
  P  P12  1  0.250000  0.607983  0.561135  1
  P  P13  1  0.750000  0.392017  0.438865  1
  P  P14  1  0.250000  0.844974  0.717493  1
  P  P15  1  0.750000  0.155026  0.282507  1
  P  P16  1  0.750000  0.258200  0.918862  1
  P  P17  1  0.250000  0.741800  0.081138  1
  P  P18  1  0.750000  0.091097  0.589324  1
  P  P19  1  0.250000  0.908903  0.410676  1
  P  P20  1  0.750000  0.474231  0.126340  1
  P  P21  1  0.250000  0.525769  0.873660  1
  Ir  Ir22  1  0.250000  0.988690  0.576168  1
  Ir  Ir23  1  0.750000  0.011310  0.423832  1
  Ir  Ir24  1  0.250000  0.663293  0.730515  1
  Ir  Ir25  1  0.750000  0.336707  0.269485  1
  Ir  Ir26  1  0.250000  0.552998  0.046837  1
  Ir  Ir27  1  0.750000  0.447002  0.953163  1
  Ir  Ir28  1  0.250000  0.061431  0.272988  1
  Ir  Ir29  1  0.750000  0.938569  0.727012  1
  Ir  Ir30  1  0.250000  0.423250  0.527166  1
  Ir  Ir31  1  0.750000  0.576750  0.472834  1
  Ir  Ir32  1  0.250000  0.916076  0.997881  1
  Ir  Ir33  1  0.750000  0.083924  0.002119  1
  Ir  Ir34  1  0.250000  0.728559  0.396462  1
  Ir  Ir35  1  0.750000  0.271441  0.603538  1
  Ir  Ir36  1  0.250000  0.340797  0.859119  1
  Ir  Ir37  1  0.750000  0.659203  0.140881  1
