# generated using pymatgen
data_Ba3NpBi2O9
_symmetry_space_group_name_H-M   'P 1'
_cell_length_a   6.35419100
_cell_length_b   6.35419140
_cell_length_c   15.25465600
_cell_angle_alpha   90.00000000
_cell_angle_beta   90.00000000
_cell_angle_gamma   120.00000312
_symmetry_Int_Tables_number   1
_chemical_formula_structural   Ba3NpBi2O9
_chemical_formula_sum   'Ba6 Np2 Bi4 O18'
_cell_volume   533.40071576
_cell_formula_units_Z   2
loop_
 _symmetry_equiv_pos_site_id
 _symmetry_equiv_pos_as_xyz
  1  'x, y, z'
loop_
 _atom_site_type_symbol
 _atom_site_label
 _atom_site_symmetry_multiplicity
 _atom_site_fract_x
 _atom_site_fract_y
 _atom_site_fract_z
 _atom_site_occupancy
  Ba  Ba0  1  0.333333  0.666667  0.086353  1
  Ba  Ba1  1  0.666667  0.333333  0.913647  1
  Ba  Ba2  1  0.333333  0.666667  0.586353  1
  Ba  Ba3  1  0.666667  0.333333  0.413647  1
  Ba  Ba4  1  0.000000  0.000000  0.250000  1
  Ba  Ba5  1  0.000000  0.000000  0.750000  1
  Np  Np6  1  0.000000  0.000000  0.000000  1
  Np  Np7  1  0.000000  0.000000  0.500000  1
  Bi  Bi8  1  0.333333  0.666667  0.831320  1
  Bi  Bi9  1  0.666667  0.333333  0.168680  1
  Bi  Bi10  1  0.333333  0.666667  0.331320  1
  Bi  Bi11  1  0.666667  0.333333  0.668680  1
  O  O12  1  0.925710  0.700606  0.577716  1
  O  O13  1  0.000000  0.568419  0.250000  1
  O  O14  1  0.225104  0.299394  0.922284  1
  O  O15  1  0.925710  0.225104  0.077716  1
  O  O16  1  0.774896  0.074290  0.577716  1
  O  O17  1  0.774896  0.700606  0.077716  1
  O  O18  1  0.700606  0.774896  0.422284  1
  O  O19  1  0.431581  0.000000  0.750000  1
  O  O20  1  0.568419  0.568419  0.750000  1
  O  O21  1  0.299394  0.225104  0.577716  1
  O  O22  1  0.074290  0.299394  0.422284  1
  O  O23  1  0.225104  0.925710  0.422284  1
  O  O24  1  0.299394  0.074290  0.077716  1
  O  O25  1  0.568419  0.000000  0.250000  1
  O  O26  1  0.431581  0.431581  0.250000  1
  O  O27  1  0.000000  0.431581  0.750000  1
  O  O28  1  0.074290  0.774896  0.922284  1
  O  O29  1  0.700606  0.925710  0.922284  1
