# generated using pymatgen
data_Ho3Mg3Hg2Ru
_symmetry_space_group_name_H-M   'P 1'
_cell_length_a   7.93075000
_cell_length_b   7.93074866
_cell_length_c   3.87581200
_cell_angle_alpha   90.00000000
_cell_angle_beta   90.00000000
_cell_angle_gamma   119.99999725
_symmetry_Int_Tables_number   1
_chemical_formula_structural   Ho3Mg3Hg2Ru
_chemical_formula_sum   'Ho3 Mg3 Hg2 Ru1'
_cell_volume   211.11631322
_cell_formula_units_Z   1
loop_
 _symmetry_equiv_pos_site_id
 _symmetry_equiv_pos_as_xyz
  1  'x, y, z'
loop_
 _atom_site_type_symbol
 _atom_site_label
 _atom_site_symmetry_multiplicity
 _atom_site_fract_x
 _atom_site_fract_y
 _atom_site_fract_z
 _atom_site_occupancy
  Ho  Ho0  1  0.566223  0.958757  0.000000  1
  Ho  Ho1  1  0.041243  0.607466  0.000000  1
  Ho  Ho2  1  0.392534  0.433777  0.000000  1
  Mg  Mg3  1  0.264244  0.001218  0.500000  1
  Mg  Mg4  1  0.998782  0.263026  0.500000  1
  Mg  Mg5  1  0.736974  0.735756  0.500000  1
  Hg  Hg6  1  0.666667  0.333333  0.500000  1
  Hg  Hg7  1  0.000000  0.000000  0.000000  1
  Ru  Ru8  1  0.333333  0.666667  0.500000  1
