# generated using pymatgen
data_Cs2Hf7BeBr18
_symmetry_space_group_name_H-M   'P 1'
_cell_length_a   11.10657259
_cell_length_b   11.10657349
_cell_length_c   11.10657304
_cell_angle_alpha   55.67455568
_cell_angle_beta   55.67455055
_cell_angle_gamma   55.67455658
_symmetry_Int_Tables_number   1
_chemical_formula_structural   Cs2Hf7BeBr18
_chemical_formula_sum   'Cs2 Hf7 Be1 Br18'
_cell_volume   871.56014525
_cell_formula_units_Z   1
loop_
 _symmetry_equiv_pos_site_id
 _symmetry_equiv_pos_as_xyz
  1  'x, y, z'
loop_
 _atom_site_type_symbol
 _atom_site_label
 _atom_site_symmetry_multiplicity
 _atom_site_fract_x
 _atom_site_fract_y
 _atom_site_fract_z
 _atom_site_occupancy
  Cs  Cs0  1  0.775319  0.775319  0.775319  1
  Cs  Cs1  1  0.224681  0.224681  0.224681  1
  Hf  Hf2  1  0.155723  0.902737  0.799133  1
  Hf  Hf3  1  0.844277  0.097263  0.200867  1
  Hf  Hf4  1  0.097263  0.200867  0.844277  1
  Hf  Hf5  1  0.200867  0.844277  0.097263  1
  Hf  Hf6  1  0.902737  0.799133  0.155723  1
  Hf  Hf7  1  0.799133  0.155723  0.902737  1
  Hf  Hf8  1  0.500000  0.500000  0.500000  1
  Be  Be9  1  0.000000  0.000000  0.000000  1
  Br  Br10  1  0.225754  0.469153  0.642146  1
  Br  Br11  1  0.774246  0.530847  0.357854  1
  Br  Br12  1  0.343415  0.053132  0.933526  1
  Br  Br13  1  0.656585  0.946868  0.066474  1
  Br  Br14  1  0.933526  0.343415  0.053132  1
  Br  Br15  1  0.712741  0.878411  0.410702  1
  Br  Br16  1  0.357854  0.774246  0.530847  1
  Br  Br17  1  0.589298  0.287259  0.121589  1
  Br  Br18  1  0.287259  0.121589  0.589298  1
  Br  Br19  1  0.121589  0.589298  0.287259  1
  Br  Br20  1  0.946868  0.066474  0.656585  1
  Br  Br21  1  0.410702  0.712741  0.878411  1
  Br  Br22  1  0.878411  0.410702  0.712741  1
  Br  Br23  1  0.066474  0.656585  0.946868  1
  Br  Br24  1  0.469153  0.642146  0.225754  1
  Br  Br25  1  0.642146  0.225754  0.469153  1
  Br  Br26  1  0.530847  0.357854  0.774246  1
  Br  Br27  1  0.053132  0.933526  0.343415  1
