# generated using pymatgen
data_Er3TmMg2(B2Rh5)2
_symmetry_space_group_name_H-M   'P 1'
_cell_length_a   9.59697714
_cell_length_b   9.59671814
_cell_length_c   3.17413300
_cell_angle_alpha   90.00000000
_cell_angle_beta   90.00000000
_cell_angle_gamma   89.98014288
_symmetry_Int_Tables_number   1
_chemical_formula_structural   Er3TmMg2(B2Rh5)2
_chemical_formula_sum   'Er3 Tm1 Mg2 B4 Rh10'
_cell_volume   292.33599607
_cell_formula_units_Z   1
loop_
 _symmetry_equiv_pos_site_id
 _symmetry_equiv_pos_as_xyz
  1  'x, y, z'
loop_
 _atom_site_type_symbol
 _atom_site_label
 _atom_site_symmetry_multiplicity
 _atom_site_fract_x
 _atom_site_fract_y
 _atom_site_fract_z
 _atom_site_occupancy
  Er  Er0  1  0.675535  0.175517  0.000000  1
  Er  Er1  1  0.324481  0.824470  0.000000  1
  Er  Er2  1  0.175537  0.324462  0.000000  1
  Tm  Tm3  1  0.824402  0.675599  0.000000  1
  Mg  Mg4  1  0.999983  0.999960  0.000000  1
  Mg  Mg5  1  0.500030  0.500018  0.000000  1
  B  B6  1  0.122848  0.622946  0.000000  1
  B  B7  1  0.877048  0.377159  0.000000  1
  B  B8  1  0.623005  0.876994  0.000000  1
  B  B9  1  0.377109  0.122886  0.000000  1
  Rh  Rh10  1  0.499999  0.999989  0.500000  1
  Rh  Rh11  1  0.999783  0.500219  0.500000  1
  Rh  Rh12  1  0.223546  0.070628  0.500000  1
  Rh  Rh13  1  0.776543  0.929088  0.500000  1
  Rh  Rh14  1  0.070435  0.776371  0.500000  1
  Rh  Rh15  1  0.723641  0.429569  0.500000  1
  Rh  Rh16  1  0.929363  0.223562  0.500000  1
  Rh  Rh17  1  0.276434  0.570646  0.500000  1
  Rh  Rh18  1  0.570917  0.723464  0.500000  1
  Rh  Rh19  1  0.429363  0.276453  0.500000  1
