# generated using pymatgen
data_Sc3V(Ni4P3)2
_symmetry_space_group_name_H-M   'P 1'
_cell_length_a   3.62698100
_cell_length_b   10.48795900
_cell_length_c   12.12091300
_cell_angle_alpha   90.00000000
_cell_angle_beta   90.00000000
_cell_angle_gamma   90.00000000
_symmetry_Int_Tables_number   1
_chemical_formula_structural   Sc3V(Ni4P3)2
_chemical_formula_sum   'Sc6 V2 Ni16 P12'
_cell_volume   461.07502180
_cell_formula_units_Z   2
loop_
 _symmetry_equiv_pos_site_id
 _symmetry_equiv_pos_as_xyz
  1  'x, y, z'
loop_
 _atom_site_type_symbol
 _atom_site_label
 _atom_site_symmetry_multiplicity
 _atom_site_fract_x
 _atom_site_fract_y
 _atom_site_fract_z
 _atom_site_occupancy
  Sc  Sc0  1  0.751957  0.000000  0.474614  1
  Sc  Sc1  1  0.251957  0.500000  0.525386  1
  Sc  Sc2  1  0.251927  0.680740  0.792747  1
  Sc  Sc3  1  0.251927  0.319260  0.792747  1
  Sc  Sc4  1  0.751927  0.819260  0.207253  1
  Sc  Sc5  1  0.751927  0.180740  0.207253  1
  V  V6  1  0.251785  0.000000  0.844151  1
  V  V7  1  0.751785  0.500000  0.155849  1
  Ni  Ni8  1  0.751888  0.000000  0.015077  1
  Ni  Ni9  1  0.251888  0.500000  0.984923  1
  Ni  Ni10  1  0.251967  0.197468  0.568842  1
  Ni  Ni11  1  0.251967  0.802532  0.568842  1
  Ni  Ni12  1  0.751967  0.302532  0.431158  1
  Ni  Ni13  1  0.751967  0.697468  0.431158  1
  Ni  Ni14  1  0.251618  0.623864  0.292592  1
  Ni  Ni15  1  0.251618  0.376136  0.292592  1
  Ni  Ni16  1  0.751618  0.876136  0.707408  1
  Ni  Ni17  1  0.751618  0.123864  0.707408  1
  Ni  Ni18  1  0.251516  0.166530  0.012702  1
  Ni  Ni19  1  0.251516  0.833470  0.012702  1
  Ni  Ni20  1  0.751516  0.333470  0.987298  1
  Ni  Ni21  1  0.751516  0.666530  0.987298  1
  Ni  Ni22  1  0.252102  0.000000  0.299933  1
  Ni  Ni23  1  0.752102  0.500000  0.700067  1
  P  P24  1  0.251884  0.182137  0.383608  1
  P  P25  1  0.251884  0.817863  0.383608  1
  P  P26  1  0.751884  0.317863  0.616392  1
  P  P27  1  0.751884  0.682137  0.616392  1
  P  P28  1  0.251771  0.000000  0.125183  1
  P  P29  1  0.751771  0.500000  0.874817  1
  P  P30  1  0.251746  0.656409  0.111390  1
  P  P31  1  0.251746  0.343591  0.111390  1
  P  P32  1  0.751746  0.843591  0.888610  1
  P  P33  1  0.751746  0.156409  0.888610  1
  P  P34  1  0.251984  0.000000  0.647447  1
  P  P35  1  0.751984  0.500000  0.352553  1
