# generated using pymatgen
data_ZrMn(As2O7)2
_symmetry_space_group_name_H-M   'P 1'
_cell_length_a   5.11856628
_cell_length_b   8.43111155
_cell_length_c   7.42340269
_cell_angle_alpha   90.85986594
_cell_angle_beta   105.92557013
_cell_angle_gamma   91.41522499
_symmetry_Int_Tables_number   1
_chemical_formula_structural   ZrMn(As2O7)2
_chemical_formula_sum   'Zr1 Mn1 As4 O14'
_cell_volume   307.88970965
_cell_formula_units_Z   1
loop_
 _symmetry_equiv_pos_site_id
 _symmetry_equiv_pos_as_xyz
  1  'x, y, z'
loop_
 _atom_site_type_symbol
 _atom_site_label
 _atom_site_symmetry_multiplicity
 _atom_site_fract_x
 _atom_site_fract_y
 _atom_site_fract_z
 _atom_site_occupancy
  Zr  Zr0  1  0.217097  0.507433  0.732674  1
  Mn  Mn1  1  0.784203  0.007719  0.271107  1
  As  As2  1  0.404363  0.173770  0.500976  1
  As  As3  1  0.213580  0.792015  0.109865  1
  As  As4  1  0.750366  0.255549  0.905603  1
  As  As5  1  0.621270  0.696516  0.485926  1
  O  O6  1  0.007419  0.322690  0.821520  1
  O  O7  1  0.136419  0.684540  0.906540  1
  O  O8  1  0.154011  0.030630  0.433817  1
  O  O9  1  0.304329  0.361986  0.522721  1
  O  O10  1  0.457859  0.685886  0.654727  1
  O  O11  1  0.554825  0.410276  0.929101  1
  O  O12  1  0.561137  0.112781  0.736269  1
  O  O13  1  0.386721  0.645247  0.265987  1
  O  O14  1  0.422437  0.954915  0.108633  1
  O  O15  1  0.639114  0.186290  0.373527  1
  O  O16  1  0.719341  0.891219  0.474297  1
  O  O17  1  0.873360  0.565878  0.515136  1
  O  O18  1  0.888827  0.151433  0.101526  1
  O  O19  1  0.908623  0.826786  0.154649  1
