# generated using pymatgen
data_Al4Cu2IrRh
_symmetry_space_group_name_H-M   'P 1'
_cell_length_a   4.80193927
_cell_length_b   4.80193891
_cell_length_c   5.21257800
_cell_angle_alpha   90.00000000
_cell_angle_beta   90.00000000
_cell_angle_gamma   115.73324738
_symmetry_Int_Tables_number   1
_chemical_formula_structural   Al4Cu2IrRh
_chemical_formula_sum   'Al4 Cu2 Ir1 Rh1'
_cell_volume   108.27455330
_cell_formula_units_Z   1
loop_
 _symmetry_equiv_pos_site_id
 _symmetry_equiv_pos_as_xyz
  1  'x, y, z'
loop_
 _atom_site_type_symbol
 _atom_site_label
 _atom_site_symmetry_multiplicity
 _atom_site_fract_x
 _atom_site_fract_y
 _atom_site_fract_z
 _atom_site_occupancy
  Al  Al0  1  0.250000  0.250000  0.497601  1
  Al  Al1  1  0.750000  0.750000  0.497601  1
  Al  Al2  1  0.750000  0.250000  0.173123  1
  Al  Al3  1  0.250000  0.750000  0.828952  1
  Cu  Cu4  1  0.250000  0.250000  0.001778  1
  Cu  Cu5  1  0.750000  0.750000  0.001778  1
  Ir  Ir6  1  0.750000  0.250000  0.677798  1
  Rh  Rh7  1  0.250000  0.750000  0.321369  1
