# generated using pymatgen
data_Tm5Bi2Ru
_symmetry_space_group_name_H-M   'P 1'
_cell_length_a   7.88192700
_cell_length_b   8.94107300
_cell_length_c   12.28609800
_cell_angle_alpha   90.00000000
_cell_angle_beta   90.00000000
_cell_angle_gamma   90.00000000
_symmetry_Int_Tables_number   1
_chemical_formula_structural   Tm5Bi2Ru
_chemical_formula_sum   'Tm20 Bi8 Ru4'
_cell_volume   865.83676762
_cell_formula_units_Z   4
loop_
 _symmetry_equiv_pos_site_id
 _symmetry_equiv_pos_as_xyz
  1  'x, y, z'
loop_
 _atom_site_type_symbol
 _atom_site_label
 _atom_site_symmetry_multiplicity
 _atom_site_fract_x
 _atom_site_fract_y
 _atom_site_fract_z
 _atom_site_occupancy
  Tm  Tm0  1  0.841219  0.750000  0.792576  1
  Tm  Tm1  1  0.158781  0.250000  0.207424  1
  Tm  Tm2  1  0.341219  0.250000  0.707424  1
  Tm  Tm3  1  0.658781  0.750000  0.292576  1
  Tm  Tm4  1  0.380667  0.750000  0.691131  1
  Tm  Tm5  1  0.619333  0.250000  0.308869  1
  Tm  Tm6  1  0.880667  0.250000  0.808869  1
  Tm  Tm7  1  0.119333  0.750000  0.191131  1
  Tm  Tm8  1  0.944453  0.750000  0.503308  1
  Tm  Tm9  1  0.055547  0.250000  0.496692  1
  Tm  Tm10  1  0.444453  0.250000  0.996692  1
  Tm  Tm11  1  0.555547  0.750000  0.003308  1
  Tm  Tm12  1  0.674312  0.043112  0.564103  1
  Tm  Tm13  1  0.325688  0.956888  0.435897  1
  Tm  Tm14  1  0.174312  0.956888  0.935897  1
  Tm  Tm15  1  0.325688  0.543112  0.435897  1
  Tm  Tm16  1  0.825688  0.043112  0.064103  1
  Tm  Tm17  1  0.674312  0.456888  0.564103  1
  Tm  Tm18  1  0.825688  0.456888  0.064103  1
  Tm  Tm19  1  0.174312  0.543112  0.935897  1
  Bi  Bi20  1  0.569508  0.491419  0.827968  1
  Bi  Bi21  1  0.430492  0.508581  0.172032  1
  Bi  Bi22  1  0.069508  0.508581  0.672032  1
  Bi  Bi23  1  0.430492  0.991419  0.172032  1
  Bi  Bi24  1  0.930492  0.491419  0.327968  1
  Bi  Bi25  1  0.569508  0.008581  0.827968  1
  Bi  Bi26  1  0.930492  0.008581  0.327968  1
  Bi  Bi27  1  0.069508  0.991419  0.672032  1
  Ru  Ru28  1  0.575044  0.750000  0.509898  1
  Ru  Ru29  1  0.424956  0.250000  0.490102  1
  Ru  Ru30  1  0.075044  0.250000  0.990102  1
  Ru  Ru31  1  0.924956  0.750000  0.009898  1
