# generated using pymatgen
data_La7Nd(GeI6)2
_symmetry_space_group_name_H-M   'P 1'
_cell_length_a   4.40042900
_cell_length_b   14.69687765
_cell_length_c   15.48611500
_cell_angle_alpha   90.01705204
_cell_angle_beta   90.00000000
_cell_angle_gamma   90.00000000
_symmetry_Int_Tables_number   1
_chemical_formula_structural   La7Nd(GeI6)2
_chemical_formula_sum   'La7 Nd1 Ge2 I12'
_cell_volume   1001.52675974
_cell_formula_units_Z   1
loop_
 _symmetry_equiv_pos_site_id
 _symmetry_equiv_pos_as_xyz
  1  'x, y, z'
loop_
 _atom_site_type_symbol
 _atom_site_label
 _atom_site_symmetry_multiplicity
 _atom_site_fract_x
 _atom_site_fract_y
 _atom_site_fract_z
 _atom_site_occupancy
  La  La0  1  0.500000  0.117525  0.343180  1
  La  La1  1  0.500000  0.883143  0.656037  1
  La  La2  1  0.500000  0.615701  0.156511  1
  La  La3  1  0.500000  0.382467  0.844606  1
  La  La4  1  0.000000  0.115276  0.577348  1
  La  La5  1  0.000000  0.884729  0.422547  1
  La  La6  1  0.000000  0.614567  0.922946  1
  Nd  Nd7  1  0.000000  0.386790  0.075967  1
  Ge  Ge8  1  0.500000  0.000103  0.499778  1
  Ge  Ge9  1  0.500000  0.499179  0.000413  1
  I  I10  1  0.500000  0.246893  0.162223  1
  I  I11  1  0.500000  0.756335  0.836802  1
  I  I12  1  0.500000  0.743013  0.336736  1
  I  I13  1  0.500000  0.256599  0.663555  1
  I  I14  1  0.000000  0.260134  0.415290  1
  I  I15  1  0.000000  0.739953  0.584752  1
  I  I16  1  0.000000  0.759314  0.085146  1
  I  I17  1  0.000000  0.240898  0.917600  1
  I  I18  1  0.000000  0.998134  0.239220  1
  I  I19  1  0.000000  0.001922  0.760660  1
  I  I20  1  0.000000  0.495904  0.258994  1
  I  I21  1  0.000000  0.501418  0.739687  1
