# generated using pymatgen
data_Ce2CoP7Ru11
_symmetry_space_group_name_H-M   'P 1'
_cell_length_a   9.47887258
_cell_length_b   9.43684883
_cell_length_c   3.90479400
_cell_angle_alpha   90.00000000
_cell_angle_beta   90.00000000
_cell_angle_gamma   120.18783924
_symmetry_Int_Tables_number   1
_chemical_formula_structural   Ce2CoP7Ru11
_chemical_formula_sum   'Ce2 Co1 P7 Ru11'
_cell_volume   301.91681221
_cell_formula_units_Z   1
loop_
 _symmetry_equiv_pos_site_id
 _symmetry_equiv_pos_as_xyz
  1  'x, y, z'
loop_
 _atom_site_type_symbol
 _atom_site_label
 _atom_site_symmetry_multiplicity
 _atom_site_fract_x
 _atom_site_fract_y
 _atom_site_fract_z
 _atom_site_occupancy
  Ce  Ce0  1  0.331982  0.666545  0.000000  1
  Ce  Ce1  1  0.999431  0.997698  0.500000  1
  Co  Co2  1  0.553187  0.493862  0.000000  1
  P  P3  1  0.975304  0.223144  0.000000  1
  P  P4  1  0.251833  0.027411  0.000000  1
  P  P5  1  0.771884  0.741427  0.000000  1
  P  P6  1  0.063401  0.619712  0.500000  1
  P  P7  1  0.554124  0.933678  0.500000  1
  P  P8  1  0.381275  0.445316  0.500000  1
  P  P9  1  0.663017  0.341178  0.000000  1
  Ru  Ru10  1  0.734533  0.967901  0.000000  1
  Ru  Ru11  1  0.243922  0.269767  0.000000  1
  Ru  Ru12  1  0.027078  0.762691  0.000000  1
  Ru  Ru13  1  0.934858  0.444048  0.000000  1
  Ru  Ru14  1  0.511331  0.065088  0.000000  1
  Ru  Ru15  1  0.107995  0.385750  0.500000  1
  Ru  Ru16  1  0.278920  0.894192  0.500000  1
  Ru  Ru17  1  0.609341  0.714692  0.500000  1
  Ru  Ru18  1  0.758232  0.207565  0.500000  1
  Ru  Ru19  1  0.461081  0.249456  0.500000  1
  Ru  Ru20  1  0.787271  0.548881  0.500000  1
