# generated using pymatgen
data_Ti5CuBi2Pb
_symmetry_space_group_name_H-M   'P 1'
_cell_length_a   8.35221600
_cell_length_b   8.38956743
_cell_length_c   5.62794100
_cell_angle_alpha   90.00000000
_cell_angle_beta   90.00000000
_cell_angle_gamma   119.85283372
_symmetry_Int_Tables_number   1
_chemical_formula_structural   Ti5CuBi2Pb
_chemical_formula_sum   'Ti10 Cu2 Bi4 Pb2'
_cell_volume   342.02951194
_cell_formula_units_Z   2
loop_
 _symmetry_equiv_pos_site_id
 _symmetry_equiv_pos_as_xyz
  1  'x, y, z'
loop_
 _atom_site_type_symbol
 _atom_site_label
 _atom_site_symmetry_multiplicity
 _atom_site_fract_x
 _atom_site_fract_y
 _atom_site_fract_z
 _atom_site_occupancy
  Ti  Ti0  1  0.264264  0.000000  0.750000  1
  Ti  Ti1  1  0.735736  0.000000  0.250000  1
  Ti  Ti2  1  0.998251  0.263480  0.750000  1
  Ti  Ti3  1  0.001749  0.736520  0.250000  1
  Ti  Ti4  1  0.734770  0.736520  0.750000  1
  Ti  Ti5  1  0.265230  0.263480  0.250000  1
  Ti  Ti6  1  0.333363  0.666726  0.500000  1
  Ti  Ti7  1  0.666637  0.333274  0.500000  1
  Ti  Ti8  1  0.666637  0.333274  0.000000  1
  Ti  Ti9  1  0.333363  0.666726  0.000000  1
  Cu  Cu10  1  0.000000  0.000000  0.500000  1
  Cu  Cu11  1  0.000000  0.000000  0.000000  1
  Bi  Bi12  1  0.000664  0.617853  0.750000  1
  Bi  Bi13  1  0.999336  0.382147  0.250000  1
  Bi  Bi14  1  0.382812  0.382147  0.750000  1
  Bi  Bi15  1  0.617188  0.617853  0.250000  1
  Pb  Pb16  1  0.615930  0.000000  0.750000  1
  Pb  Pb17  1  0.384070  0.000000  0.250000  1
