# generated using pymatgen
data_Mn3V17Si11As
_symmetry_space_group_name_H-M   'P 1'
_cell_length_a   7.01145925
_cell_length_b   7.01386591
_cell_length_c   13.23120400
_cell_angle_alpha   90.00000000
_cell_angle_beta   90.00000000
_cell_angle_gamma   140.66972727
_symmetry_Int_Tables_number   1
_chemical_formula_structural   Mn3V17Si11As
_chemical_formula_sum   'Mn3 V17 Si11 As1'
_cell_volume   412.39214155
_cell_formula_units_Z   1
loop_
 _symmetry_equiv_pos_site_id
 _symmetry_equiv_pos_as_xyz
  1  'x, y, z'
loop_
 _atom_site_type_symbol
 _atom_site_label
 _atom_site_symmetry_multiplicity
 _atom_site_fract_x
 _atom_site_fract_y
 _atom_site_fract_z
 _atom_site_occupancy
  Mn  Mn0  1  0.501151  0.501212  0.000000  1
  Mn  Mn1  1  0.498012  0.493715  0.500000  1
  Mn  Mn2  1  0.999771  0.999806  0.000000  1
  V  V3  1  0.068424  0.422825  0.399057  1
  V  V4  1  0.574671  0.929204  0.902283  1
  V  V5  1  0.420686  0.069904  0.600738  1
  V  V6  1  0.929441  0.574492  0.097472  1
  V  V7  1  0.851858  0.654434  0.677268  1
  V  V8  1  0.348081  0.152162  0.176196  1
  V  V9  1  0.654017  0.851226  0.320997  1
  V  V10  1  0.152213  0.348010  0.824265  1
  V  V11  1  0.654017  0.851226  0.679003  1
  V  V12  1  0.152213  0.348010  0.175735  1
  V  V13  1  0.851858  0.654434  0.322732  1
  V  V14  1  0.348081  0.152162  0.823804  1
  V  V15  1  0.420686  0.069904  0.399262  1
  V  V16  1  0.929441  0.574492  0.902528  1
  V  V17  1  0.068424  0.422825  0.600943  1
  V  V18  1  0.574671  0.929204  0.097717  1
  V  V19  1  0.004139  0.000451  0.500000  1
  Si  Si20  1  0.250487  0.749433  0.751645  1
  Si  Si21  1  0.749423  0.250905  0.248422  1
  Si  Si22  1  0.749423  0.250905  0.751578  1
  Si  Si23  1  0.250487  0.749433  0.248355  1
  Si  Si24  1  0.255302  0.256210  0.664050  1
  Si  Si25  1  0.752153  0.751539  0.159933  1
  Si  Si26  1  0.255302  0.256210  0.335950  1
  Si  Si27  1  0.752153  0.751539  0.840067  1
  Si  Si28  1  0.090757  0.410284  0.000000  1
  Si  Si29  1  0.903588  0.577396  0.500000  1
  Si  Si30  1  0.410354  0.090792  0.000000  1
  As  As31  1  0.578714  0.905657  0.500000  1
