# generated using pymatgen
data_Ho7ErRe2(B12Ir)2
_symmetry_space_group_name_H-M   'P 1'
_cell_length_a   3.65788500
_cell_length_b   9.13357711
_cell_length_c   11.52081104
_cell_angle_alpha   90.32650656
_cell_angle_beta   90.00000000
_cell_angle_gamma   90.00000000
_symmetry_Int_Tables_number   1
_chemical_formula_structural   Ho7ErRe2(B12Ir)2
_chemical_formula_sum   'Ho7 Er1 Re2 B24 Ir2'
_cell_volume   384.89914744
_cell_formula_units_Z   1
loop_
 _symmetry_equiv_pos_site_id
 _symmetry_equiv_pos_as_xyz
  1  'x, y, z'
loop_
 _atom_site_type_symbol
 _atom_site_label
 _atom_site_symmetry_multiplicity
 _atom_site_fract_x
 _atom_site_fract_y
 _atom_site_fract_z
 _atom_site_occupancy
  Ho  Ho0  1  0.000000  0.316906  0.409809  1
  Ho  Ho1  1  0.000000  0.683070  0.590250  1
  Ho  Ho2  1  0.000000  0.826329  0.082239  1
  Ho  Ho3  1  0.000000  0.173653  0.917684  1
  Ho  Ho4  1  0.000000  0.945829  0.372300  1
  Ho  Ho5  1  0.000000  0.054166  0.627729  1
  Ho  Ho6  1  0.000000  0.441773  0.125781  1
  Er  Er7  1  0.000000  0.558363  0.874107  1
  Re  Re8  1  0.000000  0.138157  0.179885  1
  Re  Re9  1  0.000000  0.861567  0.820116  1
  B  B10  1  0.500000  0.553969  0.434089  1
  B  B11  1  0.500000  0.446029  0.565934  1
  B  B12  1  0.500000  0.053085  0.067155  1
  B  B13  1  0.500000  0.946857  0.932828  1
  B  B14  1  0.500000  0.749245  0.421360  1
  B  B15  1  0.500000  0.250778  0.578646  1
  B  B16  1  0.500000  0.247750  0.080562  1
  B  B17  1  0.500000  0.752036  0.919431  1
  B  B18  1  0.500000  0.790703  0.266089  1
  B  B19  1  0.500000  0.209347  0.733923  1
  B  B20  1  0.500000  0.292126  0.234355  1
  B  B21  1  0.500000  0.707669  0.765720  1
  B  B22  1  0.500000  0.631651  0.184013  1
  B  B23  1  0.500000  0.368548  0.816060  1
  B  B24  1  0.500000  0.131465  0.314778  1
  B  B25  1  0.500000  0.868504  0.685248  1
  B  B26  1  0.500000  0.982470  0.213033  1
  B  B27  1  0.500000  0.017516  0.786972  1
  B  B28  1  0.500000  0.482232  0.287376  1
  B  B29  1  0.500000  0.517856  0.712779  1
  B  B30  1  0.500000  0.606879  0.029760  1
  B  B31  1  0.500000  0.393331  0.969855  1
  B  B32  1  0.500000  0.107561  0.470768  1
  B  B33  1  0.500000  0.892436  0.529232  1
  Ir  Ir34  1  0.000000  0.636471  0.322352  1
  Ir  Ir35  1  0.000000  0.363675  0.677780  1
