# generated using pymatgen
data_Tb6TcRu
_symmetry_space_group_name_H-M   'P 1'
_cell_length_a   6.30581500
_cell_length_b   7.40650900
_cell_length_c   9.24173100
_cell_angle_alpha   90.00000000
_cell_angle_beta   90.00000000
_cell_angle_gamma   90.00000000
_symmetry_Int_Tables_number   1
_chemical_formula_structural   Tb6TcRu
_chemical_formula_sum   'Tb12 Tc2 Ru2'
_cell_volume   431.62650284
_cell_formula_units_Z   2
loop_
 _symmetry_equiv_pos_site_id
 _symmetry_equiv_pos_as_xyz
  1  'x, y, z'
loop_
 _atom_site_type_symbol
 _atom_site_label
 _atom_site_symmetry_multiplicity
 _atom_site_fract_x
 _atom_site_fract_y
 _atom_site_fract_z
 _atom_site_occupancy
  Tb  Tb0  1  0.332407  0.675661  0.065004  1
  Tb  Tb1  1  0.167593  0.175661  0.434996  1
  Tb  Tb2  1  0.666569  0.324956  0.563700  1
  Tb  Tb3  1  0.833431  0.824956  0.936300  1
  Tb  Tb4  1  0.666569  0.324956  0.936300  1
  Tb  Tb5  1  0.833431  0.824956  0.563700  1
  Tb  Tb6  1  0.332407  0.675661  0.434996  1
  Tb  Tb7  1  0.167593  0.175661  0.065004  1
  Tb  Tb8  1  0.871935  0.540972  0.250000  1
  Tb  Tb9  1  0.628065  0.040972  0.250000  1
  Tb  Tb10  1  0.135452  0.456397  0.750000  1
  Tb  Tb11  1  0.364548  0.956397  0.750000  1
  Tc  Tc12  1  0.038518  0.885601  0.250000  1
  Tc  Tc13  1  0.461482  0.385601  0.250000  1
  Ru  Ru14  1  0.959699  0.115795  0.750000  1
  Ru  Ru15  1  0.540301  0.615795  0.750000  1
