# generated using pymatgen
data_Ba4Nd7HoSe16
_symmetry_space_group_name_H-M   'P 1'
_cell_length_a   4.32566800
_cell_length_b   13.06360001
_cell_length_c   15.55196101
_cell_angle_alpha   89.85831845
_cell_angle_beta   90.00000000
_cell_angle_gamma   90.00000000
_symmetry_Int_Tables_number   1
_chemical_formula_structural   Ba4Nd7HoSe16
_chemical_formula_sum   'Ba4 Nd7 Ho1 Se16'
_cell_volume   878.81991326
_cell_formula_units_Z   1
loop_
 _symmetry_equiv_pos_site_id
 _symmetry_equiv_pos_as_xyz
  1  'x, y, z'
loop_
 _atom_site_type_symbol
 _atom_site_label
 _atom_site_symmetry_multiplicity
 _atom_site_fract_x
 _atom_site_fract_y
 _atom_site_fract_z
 _atom_site_occupancy
  Ba  Ba0  1  0.250000  0.758273  0.337546  1
  Ba  Ba1  1  0.250000  0.257246  0.165358  1
  Ba  Ba2  1  0.750000  0.240449  0.660455  1
  Ba  Ba3  1  0.750000  0.742549  0.836419  1
  Nd  Nd4  1  0.250000  0.428904  0.392160  1
  Nd  Nd5  1  0.250000  0.933521  0.111166  1
  Nd  Nd6  1  0.750000  0.568406  0.608375  1
  Nd  Nd7  1  0.750000  0.068688  0.891807  1
  Nd  Nd8  1  0.250000  0.419832  0.899567  1
  Nd  Nd9  1  0.250000  0.922677  0.598343  1
  Nd  Nd10  1  0.750000  0.579467  0.100758  1
  Ho  Ho11  1  0.750000  0.078503  0.398648  1
  Se  Se12  1  0.250000  0.207021  0.827016  1
  Se  Se13  1  0.250000  0.708377  0.670200  1
  Se  Se14  1  0.750000  0.793172  0.172729  1
  Se  Se15  1  0.750000  0.286785  0.331870  1
  Se  Se16  1  0.250000  0.129242  0.518900  1
  Se  Se17  1  0.250000  0.629665  0.973747  1
  Se  Se18  1  0.750000  0.875800  0.470409  1
  Se  Se19  1  0.750000  0.369922  0.026806  1
  Se  Se20  1  0.250000  0.522126  0.217734  1
  Se  Se21  1  0.250000  0.026293  0.287732  1
  Se  Se22  1  0.750000  0.476245  0.782841  1
  Se  Se23  1  0.750000  0.977166  0.716209  1
  Se  Se24  1  0.250000  0.414821  0.579961  1
  Se  Se25  1  0.250000  0.915396  0.922409  1
  Se  Se26  1  0.750000  0.583807  0.420445  1
  Se  Se27  1  0.750000  0.085649  0.080393  1
