# generated using pymatgen
data_TbYFe4(CoB2)4
_symmetry_space_group_name_H-M   'P 1'
_cell_length_a   6.95404822
_cell_length_b   6.95569108
_cell_length_c   3.81381000
_cell_angle_alpha   90.00000000
_cell_angle_beta   90.00000000
_cell_angle_gamma   89.96998683
_symmetry_Int_Tables_number   1
_chemical_formula_structural   TbYFe4(CoB2)4
_chemical_formula_sum   'Tb1 Y1 Fe4 Co4 B8'
_cell_volume   184.47476975
_cell_formula_units_Z   1
loop_
 _symmetry_equiv_pos_site_id
 _symmetry_equiv_pos_as_xyz
  1  'x, y, z'
loop_
 _atom_site_type_symbol
 _atom_site_label
 _atom_site_symmetry_multiplicity
 _atom_site_fract_x
 _atom_site_fract_y
 _atom_site_fract_z
 _atom_site_occupancy
  Tb  Tb0  1  0.000000  0.000000  0.001625  1
  Y  Y1  1  0.500000  0.500000  0.501238  1
  Fe  Fe2  1  0.384434  0.133139  0.892588  1
  Fe  Fe3  1  0.615566  0.866861  0.892588  1
  Fe  Fe4  1  0.367040  0.884712  0.392285  1
  Fe  Fe5  1  0.632960  0.115288  0.392285  1
  Co  Co6  1  0.116558  0.361847  0.609772  1
  Co  Co7  1  0.883442  0.638153  0.609772  1
  Co  Co8  1  0.138429  0.616854  0.109283  1
  Co  Co9  1  0.861571  0.383146  0.109283  1
  B  B10  1  0.798174  0.663789  0.104797  1
  B  B11  1  0.201826  0.336211  0.104797  1
  B  B12  1  0.835765  0.297642  0.604082  1
  B  B13  1  0.164235  0.702358  0.604082  1
  B  B14  1  0.698274  0.833981  0.393158  1
  B  B15  1  0.301726  0.166019  0.393158  1
  B  B16  1  0.665538  0.198041  0.892602  1
  B  B17  1  0.334462  0.801959  0.892602  1
