# generated using pymatgen
data_Ba3Tl11
_symmetry_space_group_name_H-M   'P 1'
_cell_length_a   9.97878776
_cell_length_b   9.97878740
_cell_length_c   9.97878800
_cell_angle_alpha   149.97851688
_cell_angle_beta   107.05690245
_cell_angle_gamma   80.84190384
_symmetry_Int_Tables_number   1
_chemical_formula_structural   Ba3Tl11
_chemical_formula_sum   'Ba3 Tl11'
_cell_volume   465.84975216
_cell_formula_units_Z   1
loop_
 _symmetry_equiv_pos_site_id
 _symmetry_equiv_pos_as_xyz
  1  'x, y, z'
loop_
 _atom_site_type_symbol
 _atom_site_label
 _atom_site_symmetry_multiplicity
 _atom_site_fract_x
 _atom_site_fract_y
 _atom_site_fract_z
 _atom_site_occupancy
  Ba  Ba0  1  0.690544  0.690544  0.000000  1
  Ba  Ba1  1  0.309456  0.309456  0.000000  1
  Ba  Ba2  1  0.000000  0.000000  0.000000  1
  Tl  Tl3  1  0.500000  0.000000  0.500000  1
  Tl  Tl4  1  0.714746  0.343105  0.371641  1
  Tl  Tl5  1  0.971464  0.343105  0.628359  1
  Tl  Tl6  1  0.285254  0.656896  0.628360  1
  Tl  Tl7  1  0.028536  0.656896  0.371643  1
  Tl  Tl8  1  0.426313  0.147469  0.278844  1
  Tl  Tl9  1  0.868625  0.147469  0.721157  1
  Tl  Tl10  1  0.573687  0.852533  0.721157  1
  Tl  Tl11  1  0.131375  0.852533  0.278846  1
  Tl  Tl12  1  0.693370  0.500000  0.193370  1
  Tl  Tl13  1  0.306630  0.500001  0.806631  1
