# generated using pymatgen
data_MgZr6Zn22P
_symmetry_space_group_name_H-M   'P 1'
_cell_length_a   8.81727996
_cell_length_b   8.81727967
_cell_length_c   8.81728100
_cell_angle_alpha   60.00000626
_cell_angle_beta   60.00000734
_cell_angle_gamma   60.00000165
_symmetry_Int_Tables_number   1
_chemical_formula_structural   MgZr6Zn22P
_chemical_formula_sum   'Mg1 Zr6 Zn22 P1'
_cell_volume   484.71781326
_cell_formula_units_Z   1
loop_
 _symmetry_equiv_pos_site_id
 _symmetry_equiv_pos_as_xyz
  1  'x, y, z'
loop_
 _atom_site_type_symbol
 _atom_site_label
 _atom_site_symmetry_multiplicity
 _atom_site_fract_x
 _atom_site_fract_y
 _atom_site_fract_z
 _atom_site_occupancy
  Mg  Mg0  1  0.000000  0.000000  0.000000  1
  Zr  Zr1  1  0.706904  0.293096  0.293096  1
  Zr  Zr2  1  0.293096  0.706904  0.706904  1
  Zr  Zr3  1  0.293096  0.706904  0.293096  1
  Zr  Zr4  1  0.706904  0.293096  0.706904  1
  Zr  Zr5  1  0.293096  0.293096  0.706904  1
  Zr  Zr6  1  0.706904  0.706904  0.293096  1
  Zn  Zn7  1  0.125063  0.125063  0.125063  1
  Zn  Zn8  1  0.874937  0.874937  0.874937  1
  Zn  Zn9  1  0.125063  0.125063  0.624813  1
  Zn  Zn10  1  0.125063  0.624813  0.125063  1
  Zn  Zn11  1  0.874937  0.874937  0.375187  1
  Zn  Zn12  1  0.874937  0.375187  0.874937  1
  Zn  Zn13  1  0.624813  0.125063  0.125063  1
  Zn  Zn14  1  0.375187  0.874937  0.874937  1
  Zn  Zn15  1  0.500000  0.000000  0.000000  1
  Zn  Zn16  1  0.000000  0.500000  0.500000  1
  Zn  Zn17  1  0.000000  0.500000  0.000000  1
  Zn  Zn18  1  0.500000  0.000000  0.500000  1
  Zn  Zn19  1  0.000000  0.000000  0.500000  1
  Zn  Zn20  1  0.500000  0.500000  0.000000  1
  Zn  Zn21  1  0.334173  0.334173  0.334173  1
  Zn  Zn22  1  0.665827  0.665827  0.665827  1
  Zn  Zn23  1  0.334173  0.334173  0.997482  1
  Zn  Zn24  1  0.334173  0.997482  0.334173  1
  Zn  Zn25  1  0.665827  0.665827  0.002518  1
  Zn  Zn26  1  0.665827  0.002518  0.665827  1
  Zn  Zn27  1  0.997482  0.334173  0.334173  1
  Zn  Zn28  1  0.002518  0.665827  0.665827  1
  P  P29  1  0.500000  0.500000  0.500000  1
