# generated using pymatgen
data_Sm3DyIr3RhO14
_symmetry_space_group_name_H-M   'P 1'
_cell_length_a   7.34903582
_cell_length_b   7.37835964
_cell_length_c   7.37836000
_cell_angle_alpha   59.99999837
_cell_angle_beta   59.86791696
_cell_angle_gamma   59.86792056
_symmetry_Int_Tables_number   1
_chemical_formula_structural   Sm3DyIr3RhO14
_chemical_formula_sum   'Sm3 Dy1 Ir3 Rh1 O14'
_cell_volume   282.33524885
_cell_formula_units_Z   1
loop_
 _symmetry_equiv_pos_site_id
 _symmetry_equiv_pos_as_xyz
  1  'x, y, z'
loop_
 _atom_site_type_symbol
 _atom_site_label
 _atom_site_symmetry_multiplicity
 _atom_site_fract_x
 _atom_site_fract_y
 _atom_site_fract_z
 _atom_site_occupancy
  Sm  Sm0  1  0.125000  0.625000  0.125000  1
  Sm  Sm1  1  0.125000  0.125000  0.625000  1
  Sm  Sm2  1  0.125000  0.125000  0.125000  1
  Dy  Dy3  1  0.625000  0.125000  0.125000  1
  Ir  Ir4  1  0.625000  0.125000  0.625000  1
  Ir  Ir5  1  0.625000  0.625000  0.125000  1
  Ir  Ir6  1  0.625000  0.625000  0.625000  1
  Rh  Rh7  1  0.125000  0.625000  0.625000  1
  O  O8  1  0.699193  0.715368  0.292720  1
  O  O9  1  0.292119  0.285126  0.711377  1
  O  O10  1  0.699193  0.292720  0.715368  1
  O  O11  1  0.292119  0.711377  0.285126  1
  O  O12  1  0.292119  0.711377  0.711377  1
  O  O13  1  0.699193  0.292720  0.292720  1
  O  O14  1  0.550807  0.534632  0.957280  1
  O  O15  1  0.957881  0.964874  0.538623  1
  O  O16  1  0.550807  0.957280  0.534632  1
  O  O17  1  0.957881  0.538623  0.964874  1
  O  O18  1  0.957881  0.538623  0.538623  1
  O  O19  1  0.550807  0.957280  0.957280  1
  O  O20  1  0.257432  0.247523  0.247523  1
  O  O21  1  0.992568  0.002477  0.002477  1
