# generated using pymatgen
data_Ba3YRhS6
_symmetry_space_group_name_H-M   'P 1'
_cell_length_a   8.25268011
_cell_length_b   8.25268061
_cell_length_c   8.25268100
_cell_angle_alpha   93.45297327
_cell_angle_beta   93.45296652
_cell_angle_gamma   93.45298344
_symmetry_Int_Tables_number   1
_chemical_formula_structural   Ba3YRhS6
_chemical_formula_sum   'Ba6 Y2 Rh2 S12'
_cell_volume   558.87290188
_cell_formula_units_Z   2
loop_
 _symmetry_equiv_pos_site_id
 _symmetry_equiv_pos_as_xyz
  1  'x, y, z'
loop_
 _atom_site_type_symbol
 _atom_site_label
 _atom_site_symmetry_multiplicity
 _atom_site_fract_x
 _atom_site_fract_y
 _atom_site_fract_z
 _atom_site_occupancy
  Ba  Ba0  1  0.370513  0.750000  0.129487  1
  Ba  Ba1  1  0.129487  0.370513  0.750000  1
  Ba  Ba2  1  0.750000  0.129487  0.370513  1
  Ba  Ba3  1  0.629487  0.250000  0.870513  1
  Ba  Ba4  1  0.870513  0.629487  0.250000  1
  Ba  Ba5  1  0.250000  0.870513  0.629487  1
  Y  Y6  1  0.250000  0.250000  0.250000  1
  Y  Y7  1  0.750000  0.750000  0.750000  1
  Rh  Rh8  1  0.500000  0.500000  0.500000  1
  Rh  Rh9  1  0.000000  0.000000  0.000000  1
  S  S10  1  0.538369  0.416633  0.213900  1
  S  S11  1  0.213900  0.538369  0.416633  1
  S  S12  1  0.416633  0.213900  0.538369  1
  S  S13  1  0.961631  0.286100  0.083367  1
  S  S14  1  0.083367  0.961631  0.286100  1
  S  S15  1  0.286100  0.083367  0.961631  1
  S  S16  1  0.461631  0.583367  0.786100  1
  S  S17  1  0.786100  0.461631  0.583367  1
  S  S18  1  0.583367  0.786100  0.461631  1
  S  S19  1  0.038369  0.713900  0.916633  1
  S  S20  1  0.713900  0.916633  0.038369  1
  S  S21  1  0.916633  0.038369  0.713900  1
