# generated using pymatgen
data_Tb3Y8In9Au4
_symmetry_space_group_name_H-M   'P 1'
_cell_length_a   13.20799163
_cell_length_b   13.20799099
_cell_length_c   3.77249700
_cell_angle_alpha   90.00000000
_cell_angle_beta   90.00000000
_cell_angle_gamma   110.52186111
_symmetry_Int_Tables_number   1
_chemical_formula_structural   Tb3Y8In9Au4
_chemical_formula_sum   'Tb3 Y8 In9 Au4'
_cell_volume   616.35097541
_cell_formula_units_Z   1
loop_
 _symmetry_equiv_pos_site_id
 _symmetry_equiv_pos_as_xyz
  1  'x, y, z'
loop_
 _atom_site_type_symbol
 _atom_site_label
 _atom_site_symmetry_multiplicity
 _atom_site_fract_x
 _atom_site_fract_y
 _atom_site_fract_z
 _atom_site_occupancy
  Tb  Tb0  1  0.632965  0.367035  0.000000  1
  Tb  Tb1  1  0.301917  0.302021  0.000000  1
  Tb  Tb2  1  0.697979  0.698083  0.000000  1
  Y  Y3  1  0.416462  0.068359  0.000000  1
  Y  Y4  1  0.583621  0.931551  0.000000  1
  Y  Y5  1  0.068449  0.416379  0.000000  1
  Y  Y6  1  0.931641  0.583538  0.000000  1
  Y  Y7  1  0.159750  0.840250  0.000000  1
  Y  Y8  1  0.840224  0.159776  0.000000  1
  Y  Y9  1  0.366975  0.633025  0.000000  1
  Y  Y10  1  0.000006  0.999994  0.000000  1
  In  In11  1  0.366230  0.845945  0.500000  1
  In  In12  1  0.633781  0.153930  0.500000  1
  In  In13  1  0.846070  0.366219  0.500000  1
  In  In14  1  0.154055  0.633770  0.500000  1
  In  In15  1  0.213939  0.066736  0.500000  1
  In  In16  1  0.785967  0.933191  0.500000  1
  In  In17  1  0.066809  0.214033  0.500000  1
  In  In18  1  0.933264  0.786061  0.500000  1
  In  In19  1  0.499955  0.500045  0.500000  1
  Au  Au20  1  0.452021  0.250317  0.500000  1
  Au  Au21  1  0.548008  0.749772  0.500000  1
  Au  Au22  1  0.250228  0.451992  0.500000  1
  Au  Au23  1  0.749683  0.547979  0.500000  1
