# generated using pymatgen
data_Ho3B6Ir7Os
_symmetry_space_group_name_H-M   'P 1'
_cell_length_a   9.98250615
_cell_length_b   9.16628463
_cell_length_c   5.56456824
_cell_angle_alpha   81.35443254
_cell_angle_beta   65.20321283
_cell_angle_gamma   33.44237007
_symmetry_Int_Tables_number   1
_chemical_formula_structural   Ho3B6Ir7Os
_chemical_formula_sum   'Ho3 B6 Ir7 Os1'
_cell_volume   233.57048923
_cell_formula_units_Z   1
loop_
 _symmetry_equiv_pos_site_id
 _symmetry_equiv_pos_as_xyz
  1  'x, y, z'
loop_
 _atom_site_type_symbol
 _atom_site_label
 _atom_site_symmetry_multiplicity
 _atom_site_fract_x
 _atom_site_fract_y
 _atom_site_fract_z
 _atom_site_occupancy
  Ho  Ho0  1  0.000000  0.000000  0.000000  1
  Ho  Ho1  1  0.178961  0.178961  0.821039  1
  Ho  Ho2  1  0.821039  0.821039  0.178961  1
  B  B3  1  0.821115  0.529488  0.482451  1
  B  B4  1  0.166945  0.482451  0.529488  1
  B  B5  1  0.482451  0.166945  0.821115  1
  B  B6  1  0.670169  0.329831  0.670169  1
  B  B7  1  0.529488  0.821115  0.166945  1
  B  B8  1  0.329831  0.670169  0.329831  1
  Ir  Ir9  1  0.414237  0.414237  0.585763  1
  Ir  Ir10  1  0.585592  0.585592  0.914408  1
  Ir  Ir11  1  0.085923  0.085923  0.414077  1
  Ir  Ir12  1  0.914408  0.914408  0.585592  1
  Ir  Ir13  1  0.585763  0.585763  0.414237  1
  Ir  Ir14  1  0.250000  0.250000  0.250000  1
  Ir  Ir15  1  0.414077  0.414077  0.085923  1
  Os  Os16  1  0.750000  0.750000  0.750000  1
