# generated using pymatgen
data_Er9Tm3In2Fe2Ru
_symmetry_space_group_name_H-M   'P 1'
_cell_length_a   8.29043789
_cell_length_b   8.28643547
_cell_length_c   8.28641613
_cell_angle_alpha   108.67772497
_cell_angle_beta   108.60137129
_cell_angle_gamma   111.12747222
_symmetry_Int_Tables_number   1
_chemical_formula_structural   Er9Tm3In2Fe2Ru
_chemical_formula_sum   'Er9 Tm3 In2 Fe2 Ru1'
_cell_volume   438.04806697
_cell_formula_units_Z   1
loop_
 _symmetry_equiv_pos_site_id
 _symmetry_equiv_pos_as_xyz
  1  'x, y, z'
loop_
 _atom_site_type_symbol
 _atom_site_label
 _atom_site_symmetry_multiplicity
 _atom_site_fract_x
 _atom_site_fract_y
 _atom_site_fract_z
 _atom_site_occupancy
  Er  Er0  1  0.193560  0.955266  0.762103  1
  Er  Er1  1  0.046178  0.807379  0.238798  1
  Er  Er2  1  0.806307  0.045313  0.238429  1
  Er  Er3  1  0.193570  0.431458  0.238290  1
  Er  Er4  1  0.806306  0.567879  0.760996  1
  Er  Er5  1  0.306910  0.307475  0.614099  1
  Er  Er6  1  0.692852  0.692904  0.386390  1
  Er  Er7  1  0.306903  0.692809  0.999432  1
  Er  Er8  1  0.692863  0.306469  0.999956  1
  Tm  Tm9  1  0.430939  0.192732  0.238212  1
  Tm  Tm10  1  0.569438  0.807728  0.761711  1
  Tm  Tm11  1  0.954329  0.192311  0.762018  1
  In  In12  1  0.500719  0.000448  0.500263  1
  In  In13  1  0.000029  0.500068  0.499964  1
  Fe  Fe14  1  0.385379  0.385321  0.000060  1
  Fe  Fe15  1  0.613872  0.614100  0.999771  1
  Ru  Ru16  1  0.999845  0.000338  0.999508  1
