# generated using pymatgen
data_La8Be3Si12Rh
_symmetry_space_group_name_H-M   'P 1'
_cell_length_a   8.10328111
_cell_length_b   8.10091573
_cell_length_c   8.89211200
_cell_angle_alpha   90.00005257
_cell_angle_beta   89.99985841
_cell_angle_gamma   119.99082684
_symmetry_Int_Tables_number   1
_chemical_formula_structural   La8Be3Si12Rh
_chemical_formula_sum   'La8 Be3 Si12 Rh1'
_cell_volume   505.55768008
_cell_formula_units_Z   1
loop_
 _symmetry_equiv_pos_site_id
 _symmetry_equiv_pos_as_xyz
  1  'x, y, z'
loop_
 _atom_site_type_symbol
 _atom_site_label
 _atom_site_symmetry_multiplicity
 _atom_site_fract_x
 _atom_site_fract_y
 _atom_site_fract_z
 _atom_site_occupancy
  La  La0  1  0.000010  0.000005  0.750624  1
  La  La1  1  0.000003  0.000004  0.249287  1
  La  La2  1  0.500052  0.499975  0.749881  1
  La  La3  1  0.500088  0.000101  0.749836  1
  La  La4  1  0.999916  0.499941  0.749870  1
  La  La5  1  0.500355  0.499679  0.250103  1
  La  La6  1  0.999316  0.499641  0.250111  1
  La  La7  1  0.500384  0.000704  0.250139  1
  Be  Be8  1  0.666661  0.333331  0.999671  1
  Be  Be9  1  0.666643  0.333273  0.500849  1
  Be  Be10  1  0.333330  0.666727  0.498729  1
  Si  Si11  1  0.831708  0.168281  0.000104  1
  Si  Si12  1  0.831710  0.663383  0.000104  1
  Si  Si13  1  0.336628  0.168289  0.000102  1
  Si  Si14  1  0.827708  0.172225  0.499749  1
  Si  Si15  1  0.827825  0.655598  0.499748  1
  Si  Si16  1  0.344432  0.172156  0.499748  1
  Si  Si17  1  0.172463  0.827567  0.499778  1
  Si  Si18  1  0.655131  0.827584  0.499778  1
  Si  Si19  1  0.172410  0.344828  0.499778  1
  Si  Si20  1  0.167858  0.831998  0.000406  1
  Si  Si21  1  0.664159  0.832158  0.000406  1
  Si  Si22  1  0.167762  0.335827  0.000406  1
  Rh  Rh23  1  0.333448  0.666728  0.000787  1
