# generated using pymatgen
data_Zr10InHgBiPb5
_symmetry_space_group_name_H-M   'P 1'
_cell_length_a   8.96233072
_cell_length_b   8.96233005
_cell_length_c   6.03667402
_cell_angle_alpha   89.99590587
_cell_angle_beta   89.99591088
_cell_angle_gamma   119.91086481
_symmetry_Int_Tables_number   1
_chemical_formula_structural   Zr10InHgBiPb5
_chemical_formula_sum   'Zr10 In1 Hg1 Bi1 Pb5'
_cell_volume   420.30022972
_cell_formula_units_Z   1
loop_
 _symmetry_equiv_pos_site_id
 _symmetry_equiv_pos_as_xyz
  1  'x, y, z'
loop_
 _atom_site_type_symbol
 _atom_site_label
 _atom_site_symmetry_multiplicity
 _atom_site_fract_x
 _atom_site_fract_y
 _atom_site_fract_z
 _atom_site_occupancy
  Zr  Zr0  1  0.667060  0.333421  0.000511  1
  Zr  Zr1  1  0.333421  0.667060  0.000511  1
  Zr  Zr2  1  0.333475  0.667099  0.499481  1
  Zr  Zr3  1  0.667099  0.333475  0.499481  1
  Zr  Zr4  1  0.720868  0.720868  0.749037  1
  Zr  Zr5  1  0.278988  0.999033  0.748744  1
  Zr  Zr6  1  0.999033  0.278988  0.748744  1
  Zr  Zr7  1  0.278926  0.278926  0.251147  1
  Zr  Zr8  1  0.720666  0.999887  0.251221  1
  Zr  Zr9  1  0.999887  0.720666  0.251221  1
  In  In10  1  0.999444  0.999444  0.499904  1
  Hg  Hg11  1  0.999341  0.999341  0.000247  1
  Bi  Bi12  1  0.383221  0.383221  0.750182  1
  Pb  Pb13  1  0.618002  0.000083  0.750218  1
  Pb  Pb14  1  0.000083  0.618002  0.750218  1
  Pb  Pb15  1  0.618332  0.618332  0.249746  1
  Pb  Pb16  1  0.382266  0.999886  0.249694  1
  Pb  Pb17  1  0.999886  0.382266  0.249694  1
