# generated using pymatgen
data_Tm2Al9Co2Pd
_symmetry_space_group_name_H-M   'P 1'
_cell_length_a   7.37078425
_cell_length_b   7.37078343
_cell_length_c   9.31189300
_cell_angle_alpha   89.78425756
_cell_angle_beta   89.78426535
_cell_angle_gamma   119.32152746
_symmetry_Int_Tables_number   1
_chemical_formula_structural   Tm2Al9Co2Pd
_chemical_formula_sum   'Tm4 Al18 Co4 Pd2'
_cell_volume   441.07519478
_cell_formula_units_Z   2
loop_
 _symmetry_equiv_pos_site_id
 _symmetry_equiv_pos_as_xyz
  1  'x, y, z'
loop_
 _atom_site_type_symbol
 _atom_site_label
 _atom_site_symmetry_multiplicity
 _atom_site_fract_x
 _atom_site_fract_y
 _atom_site_fract_z
 _atom_site_occupancy
  Tm  Tm0  1  0.003663  0.325709  0.749672  1
  Tm  Tm1  1  0.327724  0.006745  0.749810  1
  Tm  Tm2  1  0.993255  0.672276  0.250190  1
  Tm  Tm3  1  0.674291  0.996337  0.250328  1
  Al  Al4  1  0.656373  0.001458  0.924918  1
  Al  Al5  1  0.011281  0.672438  0.573340  1
  Al  Al6  1  0.129394  0.127823  0.256891  1
  Al  Al7  1  0.660634  0.661607  0.047586  1
  Al  Al8  1  0.325078  0.331831  0.548484  1
  Al  Al9  1  0.338393  0.339366  0.952414  1
  Al  Al10  1  0.668169  0.674922  0.451516  1
  Al  Al11  1  0.342950  0.996559  0.074300  1
  Al  Al12  1  0.007187  0.336233  0.426302  1
  Al  Al13  1  0.340762  0.558292  0.249889  1
  Al  Al14  1  0.998542  0.343627  0.075082  1
  Al  Al15  1  0.550781  0.339849  0.241871  1
  Al  Al16  1  0.660151  0.449219  0.758129  1
  Al  Al17  1  0.872177  0.870606  0.743109  1
  Al  Al18  1  0.003441  0.657050  0.925700  1
  Al  Al19  1  0.663767  0.992813  0.573698  1
  Al  Al20  1  0.327562  0.988719  0.426660  1
  Al  Al21  1  0.441708  0.659238  0.750111  1
  Co  Co22  1  0.671921  0.328079  0.000000  1
  Co  Co23  1  0.329575  0.670425  0.500000  1
  Co  Co24  1  0.000270  0.999730  0.500000  1
  Co  Co25  1  0.328586  0.671414  0.000000  1
  Pd  Pd26  1  0.672374  0.327626  0.500000  1
  Pd  Pd27  1  0.999993  0.000007  0.000000  1
