# generated using pymatgen
data_Ho16Er4Si15Pt
_symmetry_space_group_name_H-M   'P 1'
_cell_length_a   7.39250843
_cell_length_b   7.63733825
_cell_length_c   14.51667000
_cell_angle_alpha   89.79482297
_cell_angle_beta   89.62628589
_cell_angle_gamma   90.20598115
_symmetry_Int_Tables_number   1
_chemical_formula_structural   Ho16Er4Si15Pt
_chemical_formula_sum   'Ho16 Er4 Si15 Pt1'
_cell_volume   819.56988594
_cell_formula_units_Z   1
loop_
 _symmetry_equiv_pos_site_id
 _symmetry_equiv_pos_as_xyz
  1  'x, y, z'
loop_
 _atom_site_type_symbol
 _atom_site_label
 _atom_site_symmetry_multiplicity
 _atom_site_fract_x
 _atom_site_fract_y
 _atom_site_fract_z
 _atom_site_occupancy
  Ho  Ho0  1  0.974870  0.817662  0.098467  1
  Ho  Ho1  1  0.471880  0.682991  0.401514  1
  Ho  Ho2  1  0.527959  0.322332  0.901281  1
  Ho  Ho3  1  0.028901  0.183731  0.599019  1
  Ho  Ho4  1  0.027932  0.182818  0.901187  1
  Ho  Ho5  1  0.528798  0.317593  0.598160  1
  Ho  Ho6  1  0.475193  0.681817  0.100185  1
  Ho  Ho7  1  0.969772  0.816971  0.400371  1
  Ho  Ho8  1  0.680855  0.815499  0.880539  1
  Ho  Ho9  1  0.178974  0.681083  0.621719  1
  Ho  Ho10  1  0.818639  0.330944  0.120338  1
  Ho  Ho11  1  0.316820  0.177730  0.376115  1
  Ho  Ho12  1  0.321663  0.178577  0.123870  1
  Ho  Ho13  1  0.819486  0.320295  0.377295  1
  Ho  Ho14  1  0.177581  0.674664  0.877609  1
  Ho  Ho15  1  0.682060  0.820548  0.622554  1
  Er  Er16  1  0.648419  0.992623  0.249292  1
  Er  Er17  1  0.149420  0.510905  0.248108  1
  Er  Er18  1  0.846281  0.487636  0.755584  1
  Er  Er19  1  0.351330  0.010812  0.751552  1
  Si  Si20  1  0.766647  0.630477  0.252449  1
  Si  Si21  1  0.267019  0.871719  0.250953  1
  Si  Si22  1  0.732270  0.124267  0.748856  1
  Si  Si23  1  0.232725  0.372781  0.746174  1
  Si  Si24  1  0.019546  0.105816  0.249324  1
  Si  Si25  1  0.522967  0.396423  0.251875  1
  Si  Si26  1  0.472693  0.606124  0.746605  1
  Si  Si27  1  0.977651  0.895857  0.748209  1
  Si  Si28  1  0.353546  0.972237  0.540115  1
  Si  Si29  1  0.648380  0.027187  0.042465  1
  Si  Si30  1  0.148319  0.470023  0.459968  1
  Si  Si31  1  0.157793  0.471960  0.041818  1
  Si  Si32  1  0.644763  0.028744  0.459138  1
  Si  Si33  1  0.352229  0.968553  0.961678  1
  Si  Si34  1  0.853612  0.529315  0.539309  1
  Pt  Pt35  1  0.853011  0.521290  0.956305  1
