# generated using pymatgen
data_Ho6CuNi17P12
_symmetry_space_group_name_H-M   'P 1'
_cell_length_a   3.77886269
_cell_length_b   10.49538840
_cell_length_c   12.27992762
_cell_angle_alpha   89.86082915
_cell_angle_beta   90.10088481
_cell_angle_gamma   89.96248838
_symmetry_Int_Tables_number   1
_chemical_formula_structural   Ho6CuNi17P12
_chemical_formula_sum   'Ho6 Cu1 Ni17 P12'
_cell_volume   487.02738930
_cell_formula_units_Z   1
loop_
 _symmetry_equiv_pos_site_id
 _symmetry_equiv_pos_as_xyz
  1  'x, y, z'
loop_
 _atom_site_type_symbol
 _atom_site_label
 _atom_site_symmetry_multiplicity
 _atom_site_fract_x
 _atom_site_fract_y
 _atom_site_fract_z
 _atom_site_occupancy
  Ho  Ho0  1  0.751837  0.000115  0.477564  1
  Ho  Ho1  1  0.251665  0.500024  0.521909  1
  Ho  Ho2  1  0.251658  0.682325  0.793651  1
  Ho  Ho3  1  0.251692  0.317593  0.793771  1
  Ho  Ho4  1  0.751581  0.817238  0.204790  1
  Ho  Ho5  1  0.751647  0.182604  0.204972  1
  Cu  Cu6  1  0.252933  0.000378  0.843289  1
  Ni  Ni7  1  0.751233  0.999791  0.013315  1
  Ni  Ni8  1  0.253648  0.499918  0.983938  1
  Ni  Ni9  1  0.250951  0.199634  0.570161  1
  Ni  Ni10  1  0.253374  0.801057  0.570606  1
  Ni  Ni11  1  0.752568  0.301311  0.428587  1
  Ni  Ni12  1  0.749584  0.698851  0.428331  1
  Ni  Ni13  1  0.251099  0.621053  0.289544  1
  Ni  Ni14  1  0.251036  0.378938  0.289580  1
  Ni  Ni15  1  0.750715  0.879322  0.710199  1
  Ni  Ni16  1  0.751403  0.120493  0.711067  1
  Ni  Ni17  1  0.251360  0.168789  0.005150  1
  Ni  Ni18  1  0.251421  0.830702  0.004536  1
  Ni  Ni19  1  0.753348  0.335319  0.998378  1
  Ni  Ni20  1  0.752569  0.664525  0.997900  1
  Ni  Ni21  1  0.753968  0.500324  0.159461  1
  Ni  Ni22  1  0.252216  0.000153  0.299626  1
  Ni  Ni23  1  0.750968  0.499768  0.699685  1
  P  P24  1  0.251984  0.186484  0.384740  1
  P  P25  1  0.251082  0.813604  0.384907  1
  P  P26  1  0.751330  0.313518  0.614052  1
  P  P27  1  0.752087  0.686519  0.613880  1
  P  P28  1  0.251501  0.999698  0.122293  1
  P  P29  1  0.752430  0.499895  0.876692  1
  P  P30  1  0.251854  0.651283  0.108584  1
  P  P31  1  0.252259  0.348496  0.108756  1
  P  P32  1  0.751710  0.841455  0.894337  1
  P  P33  1  0.751747  0.158567  0.894790  1
  P  P34  1  0.251576  0.000145  0.652073  1
  P  P35  1  0.751573  0.500113  0.344882  1
