# generated using pymatgen
data_Tb6Si24TcOs7
_symmetry_space_group_name_H-M   'P 1'
_cell_length_a   10.17137338
_cell_length_b   10.17137362
_cell_length_c   8.18637047
_cell_angle_alpha   90.08107194
_cell_angle_beta   90.08106333
_cell_angle_gamma   132.57204713
_symmetry_Int_Tables_number   1
_chemical_formula_structural   Tb6Si24TcOs7
_chemical_formula_sum   'Tb6 Si24 Tc1 Os7'
_cell_volume   623.70287760
_cell_formula_units_Z   1
loop_
 _symmetry_equiv_pos_site_id
 _symmetry_equiv_pos_as_xyz
  1  'x, y, z'
loop_
 _atom_site_type_symbol
 _atom_site_label
 _atom_site_symmetry_multiplicity
 _atom_site_fract_x
 _atom_site_fract_y
 _atom_site_fract_z
 _atom_site_occupancy
  Tb  Tb0  1  0.501466  0.501466  0.501073  1
  Tb  Tb1  1  0.998993  0.998993  0.998079  1
  Tb  Tb2  1  0.500954  0.001942  0.750163  1
  Tb  Tb3  1  0.998621  0.499342  0.249535  1
  Tb  Tb4  1  0.499342  0.998621  0.249535  1
  Tb  Tb5  1  0.001942  0.500954  0.750163  1
  Si  Si6  1  0.795559  0.204563  0.499920  1
  Si  Si7  1  0.295965  0.703946  0.999791  1
  Si  Si8  1  0.204563  0.795559  0.499920  1
  Si  Si9  1  0.703946  0.295965  0.999791  1
  Si  Si10  1  0.332336  0.332336  0.833329  1
  Si  Si11  1  0.668136  0.668136  0.166368  1
  Si  Si12  1  0.166983  0.166983  0.333373  1
  Si  Si13  1  0.831856  0.831856  0.667540  1
  Si  Si14  1  0.121607  0.887205  0.728303  1
  Si  Si15  1  0.112405  0.878466  0.271811  1
  Si  Si16  1  0.611140  0.377398  0.228781  1
  Si  Si17  1  0.624099  0.390498  0.771325  1
  Si  Si18  1  0.878466  0.112405  0.271811  1
  Si  Si19  1  0.887205  0.121607  0.728303  1
  Si  Si20  1  0.390498  0.624099  0.771325  1
  Si  Si21  1  0.377398  0.611140  0.228781  1
  Si  Si22  1  0.344947  0.111714  0.505126  1
  Si  Si23  1  0.888408  0.654987  0.495311  1
  Si  Si24  1  0.386970  0.154424  0.005054  1
  Si  Si25  1  0.845302  0.612829  0.993004  1
  Si  Si26  1  0.654987  0.888408  0.495311  1
  Si  Si27  1  0.111714  0.344947  0.505126  1
  Si  Si28  1  0.612829  0.845302  0.993004  1
  Si  Si29  1  0.154424  0.386970  0.005054  1
  Tc  Tc30  1  0.625746  0.625746  0.873186  1
  Os  Os31  1  0.669379  0.330028  0.499859  1
  Os  Os32  1  0.170100  0.829761  0.000778  1
  Os  Os33  1  0.330028  0.669379  0.499859  1
  Os  Os34  1  0.829761  0.170100  0.000778  1
  Os  Os35  1  0.126137  0.126137  0.626947  1
  Os  Os36  1  0.873451  0.873451  0.373238  1
  Os  Os37  1  0.372332  0.372332  0.129344  1
