# generated using pymatgen
data_Yb2Y7Er(In2Pt)4
_symmetry_space_group_name_H-M   'P 1'
_cell_length_a   3.61126300
_cell_length_b   8.22816628
_cell_length_c   18.38924297
_cell_angle_alpha   90.06453841
_cell_angle_beta   90.00000000
_cell_angle_gamma   90.00000000
_symmetry_Int_Tables_number   1
_chemical_formula_structural   Yb2Y7Er(In2Pt)4
_chemical_formula_sum   'Yb2 Y7 Er1 In8 Pt4'
_cell_volume   546.41895126
_cell_formula_units_Z   1
loop_
 _symmetry_equiv_pos_site_id
 _symmetry_equiv_pos_as_xyz
  1  'x, y, z'
loop_
 _atom_site_type_symbol
 _atom_site_label
 _atom_site_symmetry_multiplicity
 _atom_site_fract_x
 _atom_site_fract_y
 _atom_site_fract_z
 _atom_site_occupancy
  Yb  Yb0  1  0.000000  0.999988  0.000130  1
  Yb  Yb1  1  0.000000  0.499848  0.499919  1
  Y  Y2  1  0.000000  0.119697  0.414149  1
  Y  Y3  1  0.000000  0.879656  0.585199  1
  Y  Y4  1  0.000000  0.379629  0.914803  1
  Y  Y5  1  0.000000  0.620629  0.085766  1
  Y  Y6  1  0.000000  0.243047  0.220771  1
  Y  Y7  1  0.000000  0.757232  0.779535  1
  Y  Y8  1  0.000000  0.257197  0.720640  1
  Er  Er9  1  0.000000  0.743649  0.278731  1
  In  In10  1  0.500000  0.427862  0.351164  1
  In  In11  1  0.500000  0.573592  0.648840  1
  In  In12  1  0.500000  0.073950  0.851291  1
  In  In13  1  0.500000  0.925980  0.148853  1
  In  In14  1  0.500000  0.293594  0.067596  1
  In  In15  1  0.500000  0.706711  0.932768  1
  In  In16  1  0.500000  0.206622  0.567180  1
  In  In17  1  0.500000  0.792324  0.431907  1
  Pt  Pt18  1  0.500000  0.017941  0.302579  1
  Pt  Pt19  1  0.500000  0.977669  0.696865  1
  Pt  Pt20  1  0.500000  0.477804  0.803295  1
  Pt  Pt21  1  0.500000  0.525379  0.198017  1
