# generated using pymatgen
data_La3NdAl18(Pt2Rh)2
_symmetry_space_group_name_H-M   'P 1'
_cell_length_a   7.70299128
_cell_length_b   7.70493676
_cell_length_c   9.62180100
_cell_angle_alpha   90.00000000
_cell_angle_beta   90.00000000
_cell_angle_gamma   119.61980504
_symmetry_Int_Tables_number   1
_chemical_formula_structural   La3NdAl18(Pt2Rh)2
_chemical_formula_sum   'La3 Nd1 Al18 Pt4 Rh2'
_cell_volume   496.43980365
_cell_formula_units_Z   1
loop_
 _symmetry_equiv_pos_site_id
 _symmetry_equiv_pos_as_xyz
  1  'x, y, z'
loop_
 _atom_site_type_symbol
 _atom_site_label
 _atom_site_symmetry_multiplicity
 _atom_site_fract_x
 _atom_site_fract_y
 _atom_site_fract_z
 _atom_site_occupancy
  La  La0  1  0.994329  0.666267  0.750000  1
  La  La1  1  0.005414  0.333469  0.250000  1
  La  La2  1  0.666453  0.994461  0.750000  1
  Nd  Nd3  1  0.333809  0.005907  0.250000  1
  Al  Al4  1  0.129197  0.128735  0.750000  1
  Al  Al5  1  0.873071  0.871998  0.250000  1
  Al  Al6  1  0.002994  0.330219  0.573289  1
  Al  Al7  1  0.998439  0.671173  0.425872  1
  Al  Al8  1  0.998439  0.671173  0.074128  1
  Al  Al9  1  0.330156  0.002692  0.927722  1
  Al  Al10  1  0.002994  0.330219  0.926711  1
  Al  Al11  1  0.668487  0.997063  0.074087  1
  Al  Al12  1  0.668487  0.997063  0.425913  1
  Al  Al13  1  0.330156  0.002692  0.572278  1
  Al  Al14  1  0.331765  0.330663  0.051824  1
  Al  Al15  1  0.668156  0.668156  0.949454  1
  Al  Al16  1  0.668156  0.668156  0.550546  1
  Al  Al17  1  0.331765  0.330663  0.448176  1
  Al  Al18  1  0.340431  0.541925  0.750000  1
  Al  Al19  1  0.658445  0.456444  0.250000  1
  Al  Al20  1  0.541386  0.339967  0.750000  1
  Al  Al21  1  0.457752  0.660862  0.250000  1
  Pt  Pt22  1  0.670583  0.328785  0.499825  1
  Pt  Pt23  1  0.329073  0.671162  0.499851  1
  Pt  Pt24  1  0.329073  0.671162  0.000149  1
  Pt  Pt25  1  0.670583  0.328785  0.000175  1
  Rh  Rh26  1  0.000204  0.000069  0.499822  1
  Rh  Rh27  1  0.000204  0.000069  0.000178  1
