# generated using pymatgen
data_Ca7Ga(SnN)2
_symmetry_space_group_name_H-M   'P 1'
_cell_length_a   12.26655675
_cell_length_b   12.26655544
_cell_length_c   4.89439100
_cell_angle_alpha   90.00000000
_cell_angle_beta   90.00000000
_cell_angle_gamma   156.84334288
_symmetry_Int_Tables_number   1
_chemical_formula_structural   Ca7Ga(SnN)2
_chemical_formula_sum   'Ca7 Ga1 Sn2 N2'
_cell_volume   289.60684194
_cell_formula_units_Z   1
loop_
 _symmetry_equiv_pos_site_id
 _symmetry_equiv_pos_as_xyz
  1  'x, y, z'
loop_
 _atom_site_type_symbol
 _atom_site_label
 _atom_site_symmetry_multiplicity
 _atom_site_fract_x
 _atom_site_fract_y
 _atom_site_fract_z
 _atom_site_occupancy
  Ca  Ca0  1  0.901849  0.098150  0.000000  1
  Ca  Ca1  1  0.698623  0.301376  0.000000  1
  Ca  Ca2  1  0.500505  0.499495  0.000000  1
  Ca  Ca3  1  0.300494  0.699505  0.000000  1
  Ca  Ca4  1  0.099085  0.900914  0.000000  1
  Ca  Ca5  1  0.598406  0.401594  0.500001  1
  Ca  Ca6  1  0.402593  0.597407  0.500001  1
  Ga  Ga7  1  0.789975  0.210024  0.500001  1
  Sn  Sn8  1  0.999288  0.000712  0.500001  1
  Sn  Sn9  1  0.210515  0.789484  0.500001  1
  N  N10  1  0.602863  0.397136  0.000000  1
  N  N11  1  0.395800  0.604199  0.000000  1
