# generated using pymatgen
data_LaTb3HfMo3O14
_symmetry_space_group_name_H-M   'P 1'
_cell_length_a   7.38674317
_cell_length_b   7.51868562
_cell_length_c   7.38674300
_cell_angle_alpha   60.57882141
_cell_angle_beta   59.99999630
_cell_angle_gamma   60.57881504
_symmetry_Int_Tables_number   1
_chemical_formula_structural   LaTb3HfMo3O14
_chemical_formula_sum   'La1 Tb3 Hf1 Mo3 O14'
_cell_volume   292.60219619
_cell_formula_units_Z   1
loop_
 _symmetry_equiv_pos_site_id
 _symmetry_equiv_pos_as_xyz
  1  'x, y, z'
loop_
 _atom_site_type_symbol
 _atom_site_label
 _atom_site_symmetry_multiplicity
 _atom_site_fract_x
 _atom_site_fract_y
 _atom_site_fract_z
 _atom_site_occupancy
  La  La0  1  0.125000  0.625000  0.125000  1
  Tb  Tb1  1  0.125000  0.125000  0.125000  1
  Tb  Tb2  1  0.625000  0.125000  0.125000  1
  Tb  Tb3  1  0.125000  0.125000  0.625000  1
  Hf  Hf4  1  0.625000  0.125000  0.625000  1
  Mo  Mo5  1  0.625000  0.625000  0.625000  1
  Mo  Mo6  1  0.125000  0.625000  0.625000  1
  Mo  Mo7  1  0.625000  0.625000  0.125000  1
  O  O8  1  0.997808  0.006575  0.997808  1
  O  O9  1  0.252192  0.243425  0.252192  1
  O  O10  1  0.284639  0.288279  0.713541  1
  O  O11  1  0.546779  0.533365  0.959928  1
  O  O12  1  0.713541  0.288279  0.713541  1
  O  O13  1  0.713541  0.288279  0.284639  1
  O  O14  1  0.290072  0.716635  0.703221  1
  O  O15  1  0.290072  0.716635  0.290072  1
  O  O16  1  0.703221  0.716635  0.290072  1
  O  O17  1  0.959928  0.533365  0.546779  1
  O  O18  1  0.536459  0.961721  0.965361  1
  O  O19  1  0.965361  0.961721  0.536459  1
  O  O20  1  0.959928  0.533365  0.959928  1
  O  O21  1  0.536459  0.961721  0.536459  1
