# generated using pymatgen
data_Ho4Er3Sn23Os6
_symmetry_space_group_name_H-M   'P 1'
_cell_length_a   9.84311649
_cell_length_b   9.84188350
_cell_length_c   10.10137604
_cell_angle_alpha   89.99086765
_cell_angle_beta   90.00807731
_cell_angle_gamma   119.96876786
_symmetry_Int_Tables_number   1
_chemical_formula_structural   Ho4Er3Sn23Os6
_chemical_formula_sum   'Ho4 Er3 Sn23 Os6'
_cell_volume   847.73204888
_cell_formula_units_Z   1
loop_
 _symmetry_equiv_pos_site_id
 _symmetry_equiv_pos_as_xyz
  1  'x, y, z'
loop_
 _atom_site_type_symbol
 _atom_site_label
 _atom_site_symmetry_multiplicity
 _atom_site_fract_x
 _atom_site_fract_y
 _atom_site_fract_z
 _atom_site_occupancy
  Ho  Ho0  1  0.486729  0.513307  0.301137  1
  Ho  Ho1  1  0.513282  0.486729  0.698855  1
  Ho  Ho2  1  0.486726  0.973459  0.301109  1
  Ho  Ho3  1  0.999997  0.000001  0.999998  1
  Er  Er4  1  0.513076  0.026123  0.699079  1
  Er  Er5  1  0.026136  0.513102  0.300927  1
  Er  Er6  1  0.973885  0.486939  0.699065  1
  Sn  Sn7  1  0.117903  0.881993  0.277186  1
  Sn  Sn8  1  0.882022  0.118004  0.722780  1
  Sn  Sn9  1  0.117909  0.235876  0.277244  1
  Sn  Sn10  1  0.882100  0.764141  0.722755  1
  Sn  Sn11  1  0.764198  0.882077  0.277217  1
  Sn  Sn12  1  0.235879  0.117929  0.722753  1
  Sn  Sn13  1  0.779217  0.221004  0.464448  1
  Sn  Sn14  1  0.220831  0.779054  0.535671  1
  Sn  Sn15  1  0.779242  0.558316  0.464382  1
  Sn  Sn16  1  0.220772  0.441706  0.535603  1
  Sn  Sn17  1  0.441684  0.220881  0.464445  1
  Sn  Sn18  1  0.558319  0.779185  0.535678  1
  Sn  Sn19  1  0.349865  0.000006  0.999951  1
  Sn  Sn20  1  0.650144  0.000006  0.999986  1
  Sn  Sn21  1  0.000014  0.349898  0.000015  1
  Sn  Sn22  1  0.000001  0.650131  0.999979  1
  Sn  Sn23  1  0.650226  0.650221  0.999998  1
  Sn  Sn24  1  0.349785  0.349799  0.999997  1
  Sn  Sn25  1  0.333183  0.666556  0.133894  1
  Sn  Sn26  1  0.666741  0.333287  0.866017  1
  Sn  Sn27  1  0.333311  0.666694  0.828138  1
  Sn  Sn28  1  0.666711  0.333359  0.171827  1
  Sn  Sn29  1  0.000007  0.000014  0.499997  1
  Os  Os30  1  0.829573  0.170674  0.202539  1
  Os  Os31  1  0.170577  0.829418  0.797404  1
  Os  Os32  1  0.829578  0.658849  0.202522  1
  Os  Os33  1  0.170438  0.341167  0.797464  1
  Os  Os34  1  0.341076  0.170514  0.202475  1
  Os  Os35  1  0.658862  0.829581  0.797465  1
