# generated using pymatgen
data_Ba2AlCo(IO6)2
_symmetry_space_group_name_H-M   'P 1'
_cell_length_a   5.13022600
_cell_length_b   5.13022596
_cell_length_c   11.78072500
_cell_angle_alpha   90.00000000
_cell_angle_beta   90.00000000
_cell_angle_gamma   120.00000024
_symmetry_Int_Tables_number   1
_chemical_formula_structural   Ba2AlCo(IO6)2
_chemical_formula_sum   'Ba2 Al1 Co1 I2 O12'
_cell_volume   268.51938291
_cell_formula_units_Z   1
loop_
 _symmetry_equiv_pos_site_id
 _symmetry_equiv_pos_as_xyz
  1  'x, y, z'
loop_
 _atom_site_type_symbol
 _atom_site_label
 _atom_site_symmetry_multiplicity
 _atom_site_fract_x
 _atom_site_fract_y
 _atom_site_fract_z
 _atom_site_occupancy
  Ba  Ba0  1  0.666667  0.333333  0.249734  1
  Ba  Ba1  1  0.666667  0.333333  0.750266  1
  Al  Al2  1  0.333333  0.666667  0.000000  1
  Co  Co3  1  0.333333  0.666667  0.500000  1
  I  I4  1  0.000000  0.000000  0.000000  1
  I  I5  1  0.000000  0.000000  0.500000  1
  O  O6  1  0.046407  0.330199  0.408088  1
  O  O7  1  0.052683  0.329779  0.907788  1
  O  O8  1  0.283792  0.953593  0.408088  1
  O  O9  1  0.277096  0.947317  0.907788  1
  O  O10  1  0.277096  0.329779  0.092212  1
  O  O11  1  0.283792  0.330199  0.591912  1
  O  O12  1  0.669801  0.716208  0.408088  1
  O  O13  1  0.670221  0.722904  0.907788  1
  O  O14  1  0.670221  0.947317  0.092212  1
  O  O15  1  0.669801  0.953593  0.591912  1
  O  O16  1  0.052683  0.722904  0.092212  1
  O  O17  1  0.046407  0.716208  0.591912  1
