# generated using pymatgen
data_PrDyYGa8Ag3
_symmetry_space_group_name_H-M   'P 1'
_cell_length_a   4.37480266
_cell_length_b   8.44217048
_cell_length_c   8.44216969
_cell_angle_alpha   69.09355110
_cell_angle_beta   74.98308602
_cell_angle_gamma   74.98308046
_symmetry_Int_Tables_number   1
_chemical_formula_structural   PrDyYGa8Ag3
_chemical_formula_sum   'Pr1 Dy1 Y1 Ga8 Ag3'
_cell_volume   276.47924845
_cell_formula_units_Z   1
loop_
 _symmetry_equiv_pos_site_id
 _symmetry_equiv_pos_as_xyz
  1  'x, y, z'
loop_
 _atom_site_type_symbol
 _atom_site_label
 _atom_site_symmetry_multiplicity
 _atom_site_fract_x
 _atom_site_fract_y
 _atom_site_fract_z
 _atom_site_occupancy
  Pr  Pr0  1  0.500167  0.499833  0.499833  1
  Dy  Dy1  1  0.199418  0.800582  0.800582  1
  Y  Y2  1  0.800738  0.199262  0.199262  1
  Ga  Ga3  1  0.644073  0.072944  0.638910  1
  Ga  Ga4  1  0.355878  0.927301  0.360943  1
  Ga  Ga5  1  0.644073  0.638910  0.072944  1
  Ga  Ga6  1  0.355878  0.360943  0.927301  1
  Ga  Ga7  1  0.838662  0.793670  0.529005  1
  Ga  Ga8  1  0.161515  0.206127  0.470846  1
  Ga  Ga9  1  0.838662  0.529005  0.793670  1
  Ga  Ga10  1  0.161515  0.470846  0.206127  1
  Ag  Ag11  1  0.499794  0.000206  0.000206  1
  Ag  Ag12  1  0.999813  0.805381  0.194992  1
  Ag  Ag13  1  0.999813  0.194992  0.805381  1
