# generated using pymatgen
data_Sc2Fe10P7Rh2
_symmetry_space_group_name_H-M   'P 1'
_cell_length_a   8.91492306
_cell_length_b   8.93411651
_cell_length_c   3.65126100
_cell_angle_alpha   90.00000000
_cell_angle_beta   90.00000000
_cell_angle_gamma   120.11638446
_symmetry_Int_Tables_number   1
_chemical_formula_structural   Sc2Fe10P7Rh2
_chemical_formula_sum   'Sc2 Fe10 P7 Rh2'
_cell_volume   251.55456306
_cell_formula_units_Z   1
loop_
 _symmetry_equiv_pos_site_id
 _symmetry_equiv_pos_as_xyz
  1  'x, y, z'
loop_
 _atom_site_type_symbol
 _atom_site_label
 _atom_site_symmetry_multiplicity
 _atom_site_fract_x
 _atom_site_fract_y
 _atom_site_fract_z
 _atom_site_occupancy
  Sc  Sc0  1  0.001259  0.002212  0.000000  1
  Sc  Sc1  1  0.667495  0.334588  0.500000  1
  Fe  Fe2  1  0.392513  0.299290  0.000000  1
  Fe  Fe3  1  0.903909  0.607277  0.000000  1
  Fe  Fe4  1  0.701806  0.094803  0.000000  1
  Fe  Fe5  1  0.612646  0.785463  0.000000  1
  Fe  Fe6  1  0.173519  0.386406  0.000000  1
  Fe  Fe7  1  0.212342  0.825582  0.000000  1
  Fe  Fe8  1  0.770831  0.716436  0.500000  1
  Fe  Fe9  1  0.944680  0.224889  0.500000  1
  Fe  Fe10  1  0.281851  0.056276  0.500000  1
  Fe  Fe11  1  0.433221  0.542506  0.500000  1
  P  P12  1  0.634809  0.550328  0.000000  1
  P  P13  1  0.912210  0.361157  0.000000  1
  P  P14  1  0.448165  0.087791  0.000000  1
  P  P15  1  0.747182  0.953923  0.500000  1
  P  P16  1  0.214710  0.260922  0.500000  1
  P  P17  1  0.043712  0.792025  0.500000  1
  P  P18  1  0.335058  0.663475  0.000000  1
  Rh  Rh19  1  0.110780  0.567906  0.500000  1
  Rh  Rh20  1  0.457303  0.886744  0.500000  1
