# generated using pymatgen
data_Dy6Er5Tm5(In3Co)2
_symmetry_space_group_name_H-M   'P 1'
_cell_length_a   10.29595704
_cell_length_b   10.29595776
_cell_length_c   6.99359003
_cell_angle_alpha   89.99087469
_cell_angle_beta   90.00912426
_cell_angle_gamma   120.00405083
_symmetry_Int_Tables_number   1
_chemical_formula_structural   Dy6Er5Tm5(In3Co)2
_chemical_formula_sum   'Dy6 Er5 Tm5 In6 Co2'
_cell_volume   642.01701717
_cell_formula_units_Z   1
loop_
 _symmetry_equiv_pos_site_id
 _symmetry_equiv_pos_as_xyz
  1  'x, y, z'
loop_
 _atom_site_type_symbol
 _atom_site_label
 _atom_site_symmetry_multiplicity
 _atom_site_fract_x
 _atom_site_fract_y
 _atom_site_fract_z
 _atom_site_occupancy
  Dy  Dy0  1  0.534690  0.068979  0.790738  1
  Dy  Dy1  1  0.931021  0.465310  0.790738  1
  Dy  Dy2  1  0.534385  0.465615  0.790851  1
  Dy  Dy3  1  0.465892  0.931269  0.291179  1
  Dy  Dy4  1  0.068731  0.534108  0.291179  1
  Dy  Dy5  1  0.465615  0.534385  0.290922  1
  Er  Er6  1  0.177932  0.822068  0.998872  1
  Er  Er7  1  0.666671  0.333329  0.184127  1
  Er  Er8  1  0.333489  0.666511  0.683278  1
  Er  Er9  1  0.999988  0.000012  0.779420  1
  Er  Er10  1  0.999837  0.000163  0.279878  1
  Tm  Tm11  1  0.821797  0.643527  0.498897  1
  Tm  Tm12  1  0.356473  0.178203  0.498897  1
  Tm  Tm13  1  0.821768  0.178232  0.498838  1
  Tm  Tm14  1  0.178259  0.356548  0.998864  1
  Tm  Tm15  1  0.643452  0.821741  0.998864  1
  In  In16  1  0.836822  0.674554  0.039560  1
  In  In17  1  0.325446  0.163178  0.039560  1
  In  In18  1  0.837439  0.162561  0.039599  1
  In  In19  1  0.162560  0.325085  0.539541  1
  In  In20  1  0.674915  0.837440  0.539541  1
  In  In21  1  0.162528  0.837472  0.539065  1
  Co  Co22  1  0.666677  0.333323  0.566681  1
  Co  Co23  1  0.333613  0.666387  0.066810  1
