# generated using pymatgen
data_Tb14Dy2In3AgIr4
_symmetry_space_group_name_H-M   'P 1'
_cell_length_a   9.67078724
_cell_length_b   9.67304102
_cell_length_c   9.66895546
_cell_angle_alpha   60.06612304
_cell_angle_beta   60.05374996
_cell_angle_gamma   60.05887037
_symmetry_Int_Tables_number   1
_chemical_formula_structural   Tb14Dy2In3AgIr4
_chemical_formula_sum   'Tb14 Dy2 In3 Ag1 Ir4'
_cell_volume   640.43559487
_cell_formula_units_Z   1
loop_
 _symmetry_equiv_pos_site_id
 _symmetry_equiv_pos_as_xyz
  1  'x, y, z'
loop_
 _atom_site_type_symbol
 _atom_site_label
 _atom_site_symmetry_multiplicity
 _atom_site_fract_x
 _atom_site_fract_y
 _atom_site_fract_z
 _atom_site_occupancy
  Tb  Tb0  1  0.941412  0.558431  0.941255  1
  Tb  Tb1  1  0.311081  0.686438  0.311309  1
  Tb  Tb2  1  0.939389  0.559606  0.559279  1
  Tb  Tb3  1  0.311265  0.311314  0.686252  1
  Tb  Tb4  1  0.099129  0.099039  0.099407  1
  Tb  Tb5  1  0.559281  0.559438  0.939411  1
  Tb  Tb6  1  0.099698  0.099666  0.701639  1
  Tb  Tb7  1  0.689584  0.310016  0.689365  1
  Tb  Tb8  1  0.689533  0.689448  0.310077  1
  Tb  Tb9  1  0.686328  0.311204  0.311387  1
  Tb  Tb10  1  0.309891  0.689608  0.689500  1
  Tb  Tb11  1  0.559630  0.939288  0.559470  1
  Tb  Tb12  1  0.701781  0.099693  0.099706  1
  Tb  Tb13  1  0.558500  0.941353  0.941139  1
  Dy  Dy14  1  0.099612  0.702175  0.099588  1
  Dy  Dy15  1  0.941273  0.941345  0.558364  1
  In  In16  1  0.004751  0.332153  0.332092  1
  In  In17  1  0.332014  0.004725  0.332190  1
  In  In18  1  0.332016  0.332247  0.004801  1
  Ag  Ag19  1  0.332583  0.332801  0.332589  1
  Ir  Ir20  1  0.892450  0.891830  0.892032  1
  Ir  Ir21  1  0.891807  0.891190  0.325886  1
  Ir  Ir22  1  0.325574  0.891106  0.891794  1
  Ir  Ir23  1  0.891419  0.325883  0.891466  1
