# generated using pymatgen
data_Tb2YPa(ReB6)2
_symmetry_space_group_name_H-M   'P 1'
_cell_length_a   3.71142700
_cell_length_b   9.20226887
_cell_length_c   11.56524501
_cell_angle_alpha   89.60198946
_cell_angle_beta   90.00000000
_cell_angle_gamma   90.00000000
_symmetry_Int_Tables_number   1
_chemical_formula_structural   Tb2YPa(ReB6)2
_chemical_formula_sum   'Tb4 Y2 Pa2 Re4 B24'
_cell_volume   394.98463383
_cell_formula_units_Z   2
loop_
 _symmetry_equiv_pos_site_id
 _symmetry_equiv_pos_as_xyz
  1  'x, y, z'
loop_
 _atom_site_type_symbol
 _atom_site_label
 _atom_site_symmetry_multiplicity
 _atom_site_fract_x
 _atom_site_fract_y
 _atom_site_fract_z
 _atom_site_occupancy
  Tb  Tb0  1  0.000000  0.324290  0.414102  1
  Tb  Tb1  1  0.000000  0.675710  0.585898  1
  Tb  Tb2  1  0.000000  0.444804  0.126914  1
  Tb  Tb3  1  0.000000  0.555196  0.873086  1
  Y  Y4  1  0.000000  0.943846  0.373546  1
  Y  Y5  1  0.000000  0.056154  0.626454  1
  Pa  Pa6  1  0.000000  0.822304  0.087050  1
  Pa  Pa7  1  0.000000  0.177696  0.912950  1
  Re  Re8  1  0.000000  0.134732  0.174605  1
  Re  Re9  1  0.000000  0.865268  0.825395  1
  Re  Re10  1  0.000000  0.640678  0.318095  1
  Re  Re11  1  0.000000  0.359322  0.681905  1
  B  B12  1  0.500000  0.052957  0.066929  1
  B  B13  1  0.500000  0.947043  0.933072  1
  B  B14  1  0.500000  0.553446  0.432262  1
  B  B15  1  0.500000  0.446554  0.567737  1
  B  B16  1  0.500000  0.246744  0.079985  1
  B  B17  1  0.500000  0.753256  0.920015  1
  B  B18  1  0.500000  0.747322  0.419458  1
  B  B19  1  0.500000  0.252678  0.580542  1
  B  B20  1  0.500000  0.290660  0.233552  1
  B  B21  1  0.500000  0.709340  0.766448  1
  B  B22  1  0.500000  0.792128  0.266201  1
  B  B23  1  0.500000  0.207872  0.733799  1
  B  B24  1  0.500000  0.131464  0.313765  1
  B  B25  1  0.500000  0.868536  0.686235  1
  B  B26  1  0.500000  0.633192  0.186245  1
  B  B27  1  0.500000  0.366808  0.813755  1
  B  B28  1  0.500000  0.482984  0.287514  1
  B  B29  1  0.500000  0.517016  0.712486  1
  B  B30  1  0.500000  0.982951  0.212936  1
  B  B31  1  0.500000  0.017049  0.787064  1
  B  B32  1  0.500000  0.105954  0.470171  1
  B  B33  1  0.500000  0.894046  0.529829  1
  B  B34  1  0.500000  0.615023  0.031782  1
  B  B35  1  0.500000  0.384977  0.968218  1
