# generated using pymatgen
data_Hf9ZrSn2(BSb2)2
_symmetry_space_group_name_H-M   'P 1'
_cell_length_a   8.45770311
_cell_length_b   8.45742393
_cell_length_c   5.75072516
_cell_angle_alpha   89.97330066
_cell_angle_beta   90.01773774
_cell_angle_gamma   119.99184095
_symmetry_Int_Tables_number   1
_chemical_formula_structural   Hf9ZrSn2(BSb2)2
_chemical_formula_sum   'Hf9 Zr1 Sn2 B2 Sb4'
_cell_volume   356.27014575
_cell_formula_units_Z   1
loop_
 _symmetry_equiv_pos_site_id
 _symmetry_equiv_pos_as_xyz
  1  'x, y, z'
loop_
 _atom_site_type_symbol
 _atom_site_label
 _atom_site_symmetry_multiplicity
 _atom_site_fract_x
 _atom_site_fract_y
 _atom_site_fract_z
 _atom_site_occupancy
  Hf  Hf0  1  0.666548  0.334427  0.001041  1
  Hf  Hf1  1  0.334507  0.666555  0.000804  1
  Hf  Hf2  1  0.334468  0.666525  0.499048  1
  Hf  Hf3  1  0.769354  0.769393  0.750221  1
  Hf  Hf4  1  0.228789  0.999033  0.750205  1
  Hf  Hf5  1  0.999104  0.228812  0.750119  1
  Hf  Hf6  1  0.231257  0.231217  0.249699  1
  Hf  Hf7  1  0.769110  0.001060  0.249649  1
  Hf  Hf8  1  0.001058  0.769074  0.249662  1
  Zr  Zr9  1  0.666538  0.334689  0.499586  1
  Sn  Sn10  1  0.399326  0.999735  0.249205  1
  Sn  Sn11  1  0.000879  0.399821  0.249261  1
  B  B12  1  0.999793  0.999772  0.000818  1
  B  B13  1  0.999816  0.999828  0.499107  1
  Sb  Sb14  1  0.398056  0.398784  0.750816  1
  Sb  Sb15  1  0.598367  0.000119  0.750799  1
  Sb  Sb16  1  0.001505  0.599027  0.750784  1
  Sb  Sb17  1  0.601522  0.602126  0.249173  1
