# generated using pymatgen
data_Zr9TaRe3Ni
_symmetry_space_group_name_H-M   'P 1'
_cell_length_a   8.76886700
_cell_length_b   8.76886761
_cell_length_c   8.54958400
_cell_angle_alpha   90.00000000
_cell_angle_beta   90.00000000
_cell_angle_gamma   120.00000147
_symmetry_Int_Tables_number   1
_chemical_formula_structural   Zr9TaRe3Ni
_chemical_formula_sum   'Zr18 Ta2 Re6 Ni2'
_cell_volume   569.32808117
_cell_formula_units_Z   2
loop_
 _symmetry_equiv_pos_site_id
 _symmetry_equiv_pos_as_xyz
  1  'x, y, z'
loop_
 _atom_site_type_symbol
 _atom_site_label
 _atom_site_symmetry_multiplicity
 _atom_site_fract_x
 _atom_site_fract_y
 _atom_site_fract_z
 _atom_site_occupancy
  Zr  Zr0  1  0.199556  0.800444  0.442435  1
  Zr  Zr1  1  0.199556  0.399113  0.442435  1
  Zr  Zr2  1  0.600887  0.800444  0.442435  1
  Zr  Zr3  1  0.800444  0.199556  0.557565  1
  Zr  Zr4  1  0.800444  0.600887  0.557565  1
  Zr  Zr5  1  0.399113  0.199556  0.557565  1
  Zr  Zr6  1  0.800444  0.199556  0.942435  1
  Zr  Zr7  1  0.800444  0.600887  0.942435  1
  Zr  Zr8  1  0.399113  0.199556  0.942435  1
  Zr  Zr9  1  0.199556  0.800444  0.057565  1
  Zr  Zr10  1  0.199556  0.399113  0.057565  1
  Zr  Zr11  1  0.600887  0.800444  0.057565  1
  Zr  Zr12  1  0.542620  0.457380  0.250000  1
  Zr  Zr13  1  0.542620  0.085239  0.250000  1
  Zr  Zr14  1  0.914761  0.457380  0.250000  1
  Zr  Zr15  1  0.457380  0.542620  0.750000  1
  Zr  Zr16  1  0.457380  0.914761  0.750000  1
  Zr  Zr17  1  0.085239  0.542620  0.750000  1
  Ta  Ta18  1  0.000000  0.000000  0.500000  1
  Ta  Ta19  1  0.000000  0.000000  0.000000  1
  Re  Re20  1  0.888701  0.111299  0.250000  1
  Re  Re21  1  0.888701  0.777401  0.250000  1
  Re  Re22  1  0.222599  0.111299  0.250000  1
  Re  Re23  1  0.111299  0.888701  0.750000  1
  Re  Re24  1  0.111299  0.222599  0.750000  1
  Re  Re25  1  0.777401  0.888701  0.750000  1
  Ni  Ni26  1  0.333333  0.666667  0.250000  1
  Ni  Ni27  1  0.666667  0.333333  0.750000  1
