# generated using pymatgen
data_Zr6Zn17Ni6Bi
_symmetry_space_group_name_H-M   'P 1'
_cell_length_a   8.67212650
_cell_length_b   8.67212659
_cell_length_c   8.67212700
_cell_angle_alpha   60.00000225
_cell_angle_beta   60.00000191
_cell_angle_gamma   60.00000381
_symmetry_Int_Tables_number   1
_chemical_formula_structural   Zr6Zn17Ni6Bi
_chemical_formula_sum   'Zr6 Zn17 Ni6 Bi1'
_cell_volume   461.17087386
_cell_formula_units_Z   1
loop_
 _symmetry_equiv_pos_site_id
 _symmetry_equiv_pos_as_xyz
  1  'x, y, z'
loop_
 _atom_site_type_symbol
 _atom_site_label
 _atom_site_symmetry_multiplicity
 _atom_site_fract_x
 _atom_site_fract_y
 _atom_site_fract_z
 _atom_site_occupancy
  Zr  Zr0  1  0.737308  0.262692  0.262692  1
  Zr  Zr1  1  0.262692  0.737308  0.737308  1
  Zr  Zr2  1  0.262692  0.737308  0.262692  1
  Zr  Zr3  1  0.737308  0.262692  0.737308  1
  Zr  Zr4  1  0.262692  0.262692  0.737308  1
  Zr  Zr5  1  0.737308  0.737308  0.262692  1
  Zn  Zn6  1  0.132830  0.132830  0.132830  1
  Zn  Zn7  1  0.867170  0.867170  0.867170  1
  Zn  Zn8  1  0.132830  0.132830  0.601511  1
  Zn  Zn9  1  0.132830  0.601511  0.132830  1
  Zn  Zn10  1  0.867170  0.867170  0.398489  1
  Zn  Zn11  1  0.867170  0.398489  0.867170  1
  Zn  Zn12  1  0.601511  0.132830  0.132830  1
  Zn  Zn13  1  0.398489  0.867170  0.867170  1
  Zn  Zn14  1  0.343419  0.343419  0.343419  1
  Zn  Zn15  1  0.656581  0.656581  0.656581  1
  Zn  Zn16  1  0.343419  0.343419  0.969743  1
  Zn  Zn17  1  0.343419  0.969743  0.343419  1
  Zn  Zn18  1  0.656581  0.656581  0.030257  1
  Zn  Zn19  1  0.656581  0.030257  0.656581  1
  Zn  Zn20  1  0.969743  0.343419  0.343419  1
  Zn  Zn21  1  0.030257  0.656581  0.656581  1
  Zn  Zn22  1  0.000000  0.000000  0.000000  1
  Ni  Ni23  1  0.500000  0.000000  0.000000  1
  Ni  Ni24  1  0.000000  0.500000  0.500000  1
  Ni  Ni25  1  0.000000  0.500000  0.000000  1
  Ni  Ni26  1  0.500000  0.000000  0.500000  1
  Ni  Ni27  1  0.000000  0.000000  0.500000  1
  Ni  Ni28  1  0.500000  0.500000  0.000000  1
  Bi  Bi29  1  0.500000  0.500000  0.500000  1
