# generated using pymatgen
data_La3PrHf3PtF28
_symmetry_space_group_name_H-M   'P 1'
_cell_length_a   5.85081463
_cell_length_b   9.38475001
_cell_length_c   12.58748712
_cell_angle_alpha   62.03902488
_cell_angle_beta   89.97710117
_cell_angle_gamma   89.93544144
_symmetry_Int_Tables_number   1
_chemical_formula_structural   La3PrHf3PtF28
_chemical_formula_sum   'La3 Pr1 Hf3 Pt1 F28'
_cell_volume   610.47781429
_cell_formula_units_Z   1
loop_
 _symmetry_equiv_pos_site_id
 _symmetry_equiv_pos_as_xyz
  1  'x, y, z'
loop_
 _atom_site_type_symbol
 _atom_site_label
 _atom_site_symmetry_multiplicity
 _atom_site_fract_x
 _atom_site_fract_y
 _atom_site_fract_z
 _atom_site_occupancy
  La  La0  1  0.757965  0.812571  0.764507  1
  La  La1  1  0.257281  0.187860  0.732376  1
  La  La2  1  0.240405  0.186364  0.238785  1
  Pr  Pr3  1  0.742715  0.809079  0.266399  1
  Hf  Hf4  1  0.754483  0.272565  0.958033  1
  Hf  Hf5  1  0.255256  0.724937  0.542278  1
  Hf  Hf6  1  0.244989  0.725348  0.044652  1
  Pt  Pt7  1  0.742039  0.275433  0.455770  1
  F  F8  1  0.451123  0.711145  0.922800  1
  F  F9  1  0.930019  0.292993  0.579031  1
  F  F10  1  0.545717  0.287760  0.078334  1
  F  F11  1  0.048433  0.713102  0.420006  1
  F  F12  1  0.459457  0.284023  0.538291  1
  F  F13  1  0.962116  0.718597  0.955378  1
  F  F14  1  0.539109  0.717021  0.454033  1
  F  F15  1  0.036271  0.280687  0.047253  1
  F  F16  1  0.769111  0.514111  0.863143  1
  F  F17  1  0.267269  0.483634  0.636347  1
  F  F18  1  0.229691  0.484439  0.139253  1
  F  F19  1  0.735482  0.513092  0.361098  1
  F  F20  1  0.760091  0.031464  0.056975  1
  F  F21  1  0.262432  0.965691  0.447686  1
  F  F22  1  0.239265  0.966024  0.944797  1
  F  F23  1  0.741485  0.038223  0.546912  1
  F  F24  1  0.983577  0.730948  0.637497  1
  F  F25  1  0.486173  0.267294  0.860415  1
  F  F26  1  0.020361  0.271796  0.368974  1
  F  F27  1  0.515704  0.732603  0.140084  1
  F  F28  1  0.045686  0.746247  0.167558  1
  F  F29  1  0.557100  0.261070  0.329954  1
  F  F30  1  0.956423  0.254546  0.834419  1
  F  F31  1  0.454163  0.742336  0.666802  1
  F  F32  1  0.415714  0.968048  0.233787  1
  F  F33  1  0.913953  0.028902  0.269369  1
  F  F34  1  0.588551  0.033148  0.767411  1
  F  F35  1  0.090387  0.966897  0.729593  1
