# generated using pymatgen
data_LaEr2As4Pd7
_symmetry_space_group_name_H-M   'P 1'
_cell_length_a   8.12950433
_cell_length_b   8.12950479
_cell_length_c   9.73662080
_cell_angle_alpha   56.02206374
_cell_angle_beta   56.02206192
_cell_angle_gamma   29.43302957
_symmetry_Int_Tables_number   1
_chemical_formula_structural   LaEr2As4Pd7
_chemical_formula_sum   'La1 Er2 As4 Pd7'
_cell_volume   258.07785179
_cell_formula_units_Z   1
loop_
 _symmetry_equiv_pos_site_id
 _symmetry_equiv_pos_as_xyz
  1  'x, y, z'
loop_
 _atom_site_type_symbol
 _atom_site_label
 _atom_site_symmetry_multiplicity
 _atom_site_fract_x
 _atom_site_fract_y
 _atom_site_fract_z
 _atom_site_occupancy
  La  La0  1  0.500000  0.500000  0.500000  1
  Er  Er1  1  0.823991  0.823991  0.168970  1
  Er  Er2  1  0.176009  0.176009  0.831030  1
  As  As3  1  0.392263  0.392263  0.317947  1
  As  As4  1  0.607737  0.607737  0.682053  1
  As  As5  1  0.836133  0.836133  0.758423  1
  As  As6  1  0.163867  0.163867  0.241577  1
  Pd  Pd7  1  0.669180  0.669180  0.068863  1
  Pd  Pd8  1  0.012197  0.012197  0.203336  1
  Pd  Pd9  1  0.987803  0.987803  0.796664  1
  Pd  Pd10  1  0.500000  0.500000  0.000000  1
  Pd  Pd11  1  0.194250  0.194250  0.473012  1
  Pd  Pd12  1  0.805750  0.805750  0.526988  1
  Pd  Pd13  1  0.330820  0.330820  0.931137  1
