# generated using pymatgen
data_Tb2CeCo2
_symmetry_space_group_name_H-M   'P 1'
_cell_length_a   5.99330185
_cell_length_b   5.99330257
_cell_length_c   5.99330266
_cell_angle_alpha   144.34357151
_cell_angle_beta   118.94729751
_cell_angle_gamma   72.75058459
_symmetry_Int_Tables_number   1
_chemical_formula_structural   Tb2CeCo2
_chemical_formula_sum   'Tb2 Ce1 Co2'
_cell_volume   107.81948126
_cell_formula_units_Z   1
loop_
 _symmetry_equiv_pos_site_id
 _symmetry_equiv_pos_as_xyz
  1  'x, y, z'
loop_
 _atom_site_type_symbol
 _atom_site_label
 _atom_site_symmetry_multiplicity
 _atom_site_fract_x
 _atom_site_fract_y
 _atom_site_fract_z
 _atom_site_occupancy
  Tb  Tb0  1  0.689130  0.189131  0.500000  1
  Tb  Tb1  1  0.310869  0.810869  0.500000  1
  Ce  Ce2  1  0.000000  0.000000  0.000000  1
  Co  Co3  1  0.706986  0.500000  0.206986  1
  Co  Co4  1  0.293013  0.500000  0.793014  1
