# generated using pymatgen
data_Ca2Ho2Sb6Rh7
_symmetry_space_group_name_H-M   'P 1'
_cell_length_a   7.59122287
_cell_length_b   7.63761830
_cell_length_c   7.63761799
_cell_angle_alpha   109.71679442
_cell_angle_beta   109.47158351
_cell_angle_gamma   109.47158462
_symmetry_Int_Tables_number   1
_chemical_formula_structural   Ca2Ho2Sb6Rh7
_chemical_formula_sum   'Ca2 Ho2 Sb6 Rh7'
_cell_volume   339.84162612
_cell_formula_units_Z   1
loop_
 _symmetry_equiv_pos_site_id
 _symmetry_equiv_pos_as_xyz
  1  'x, y, z'
loop_
 _atom_site_type_symbol
 _atom_site_label
 _atom_site_symmetry_multiplicity
 _atom_site_fract_x
 _atom_site_fract_y
 _atom_site_fract_z
 _atom_site_occupancy
  Ca  Ca0  1  0.500000  0.000000  0.000000  1
  Ca  Ca1  1  0.500000  0.500000  0.500000  1
  Ho  Ho2  1  0.000000  0.500000  0.000000  1
  Ho  Ho3  1  0.000000  0.000000  0.500000  1
  Sb  Sb4  1  0.320506  0.001930  0.318575  1
  Sb  Sb5  1  0.000000  0.681046  0.681046  1
  Sb  Sb6  1  0.679494  0.681425  0.998070  1
  Sb  Sb7  1  0.679494  0.998070  0.681425  1
  Sb  Sb8  1  0.000000  0.318954  0.318954  1
  Sb  Sb9  1  0.320506  0.318575  0.001930  1
  Rh  Rh10  1  0.244932  0.494691  0.750241  1
  Rh  Rh11  1  0.500000  0.250000  0.750000  1
  Rh  Rh12  1  0.755068  0.249759  0.505309  1
  Rh  Rh13  1  0.500000  0.750000  0.250000  1
  Rh  Rh14  1  0.000000  0.000000  0.000000  1
  Rh  Rh15  1  0.244932  0.750241  0.494691  1
  Rh  Rh16  1  0.755068  0.505309  0.249759  1
