# generated using pymatgen
data_Dy2ErTmMnRu7
_symmetry_space_group_name_H-M   'P 1'
_cell_length_a   5.32483433
_cell_length_b   5.32940452
_cell_length_c   8.65398628
_cell_angle_alpha   89.99999961
_cell_angle_beta   89.99241006
_cell_angle_gamma   59.97157463
_symmetry_Int_Tables_number   1
_chemical_formula_structural   Dy2ErTmMnRu7
_chemical_formula_sum   'Dy2 Er1 Tm1 Mn1 Ru7'
_cell_volume   212.62148528
_cell_formula_units_Z   1
loop_
 _symmetry_equiv_pos_site_id
 _symmetry_equiv_pos_as_xyz
  1  'x, y, z'
loop_
 _atom_site_type_symbol
 _atom_site_label
 _atom_site_symmetry_multiplicity
 _atom_site_fract_x
 _atom_site_fract_y
 _atom_site_fract_z
 _atom_site_occupancy
  Dy  Dy0  1  0.333417  0.333291  0.565121  1
  Dy  Dy1  1  0.666568  0.666717  0.434989  1
  Er  Er2  1  0.666760  0.666620  0.067461  1
  Tm  Tm3  1  0.333468  0.333266  0.932481  1
  Mn  Mn4  1  0.999978  0.000011  0.999847  1
  Ru  Ru5  1  0.000043  0.999979  0.499941  1
  Ru  Ru6  1  0.828797  0.342422  0.755073  1
  Ru  Ru7  1  0.342455  0.828772  0.755035  1
  Ru  Ru8  1  0.828797  0.828780  0.755073  1
  Ru  Ru9  1  0.171156  0.657424  0.244990  1
  Ru  Ru10  1  0.657406  0.171297  0.244998  1
  Ru  Ru11  1  0.171156  0.171421  0.244990  1
