# generated using pymatgen
data_Pr12Si8Ir5Rh7
_symmetry_space_group_name_H-M   'P 1'
_cell_length_a   5.76955155
_cell_length_b   7.83731450
_cell_length_c   15.01146901
_cell_angle_alpha   89.96627304
_cell_angle_beta   89.91268096
_cell_angle_gamma   89.93735209
_symmetry_Int_Tables_number   1
_chemical_formula_structural   Pr12Si8Ir5Rh7
_chemical_formula_sum   'Pr12 Si8 Ir5 Rh7'
_cell_volume   678.78414175
_cell_formula_units_Z   1
loop_
 _symmetry_equiv_pos_site_id
 _symmetry_equiv_pos_as_xyz
  1  'x, y, z'
loop_
 _atom_site_type_symbol
 _atom_site_label
 _atom_site_symmetry_multiplicity
 _atom_site_fract_x
 _atom_site_fract_y
 _atom_site_fract_z
 _atom_site_occupancy
  Pr  Pr0  1  0.137408  0.473197  0.890115  1
  Pr  Pr1  1  0.361932  0.975177  0.890565  1
  Pr  Pr2  1  0.603918  0.332435  0.750146  1
  Pr  Pr3  1  0.395528  0.667394  0.249852  1
  Pr  Pr4  1  0.638089  0.025781  0.390458  1
  Pr  Pr5  1  0.863360  0.525994  0.109965  1
  Pr  Pr6  1  0.861673  0.526472  0.390384  1
  Pr  Pr7  1  0.361566  0.974050  0.609887  1
  Pr  Pr8  1  0.895215  0.832286  0.750076  1
  Pr  Pr9  1  0.138209  0.473307  0.609829  1
  Pr  Pr10  1  0.637961  0.026140  0.109661  1
  Pr  Pr11  1  0.104681  0.167731  0.249926  1
  Si  Si12  1  0.373708  0.370833  0.097957  1
  Si  Si13  1  0.628361  0.628683  0.901670  1
  Si  Si14  1  0.869865  0.128024  0.901910  1
  Si  Si15  1  0.370868  0.371598  0.401718  1
  Si  Si16  1  0.870441  0.128087  0.597991  1
  Si  Si17  1  0.629180  0.628465  0.598330  1
  Si  Si18  1  0.129339  0.871590  0.401609  1
  Si  Si19  1  0.129195  0.871963  0.098514  1
  Ir  Ir20  1  0.606562  0.340120  0.961079  1
  Ir  Ir21  1  0.573475  0.320561  0.250342  1
  Ir  Ir22  1  0.071952  0.179091  0.749634  1
  Ir  Ir23  1  0.427193  0.679594  0.750009  1
  Ir  Ir24  1  0.927160  0.820690  0.250183  1
  Rh  Rh25  1  0.392946  0.661040  0.037994  1
  Rh  Rh26  1  0.393594  0.659841  0.462374  1
  Rh  Rh27  1  0.106158  0.160159  0.462163  1
  Rh  Rh28  1  0.105874  0.160454  0.038069  1
  Rh  Rh29  1  0.606221  0.340058  0.537746  1
  Rh  Rh30  1  0.894452  0.839695  0.537843  1
  Rh  Rh31  1  0.893917  0.839490  0.961999  1
