# generated using pymatgen
data_DyHf2Sn3IrRh2
_symmetry_space_group_name_H-M   'P 1'
_cell_length_a   7.49204496
_cell_length_b   7.47401325
_cell_length_c   7.35888560
_cell_angle_alpha   90.04614326
_cell_angle_beta   89.97346366
_cell_angle_gamma   120.03597792
_symmetry_Int_Tables_number   1
_chemical_formula_structural   DyHf2Sn3IrRh2
_chemical_formula_sum   'Dy2 Hf4 Sn6 Ir2 Rh4'
_cell_volume   356.72965809
_cell_formula_units_Z   2
loop_
 _symmetry_equiv_pos_site_id
 _symmetry_equiv_pos_as_xyz
  1  'x, y, z'
loop_
 _atom_site_type_symbol
 _atom_site_label
 _atom_site_symmetry_multiplicity
 _atom_site_fract_x
 _atom_site_fract_y
 _atom_site_fract_z
 _atom_site_occupancy
  Dy  Dy0  1  0.001603  0.406272  0.250420  1
  Dy  Dy1  1  0.596045  0.593164  0.250402  1
  Hf  Hf2  1  0.995276  0.390333  0.748976  1
  Hf  Hf3  1  0.604553  0.610220  0.748989  1
  Hf  Hf4  1  0.394505  0.999466  0.749617  1
  Hf  Hf5  1  0.402185  0.998368  0.256317  1
  Sn  Sn6  1  0.266851  0.267332  0.508253  1
  Sn  Sn7  1  0.998611  0.732604  0.508596  1
  Sn  Sn8  1  0.000317  0.732158  0.991820  1
  Sn  Sn9  1  0.735067  0.000290  0.495786  1
  Sn  Sn10  1  0.731154  0.000394  0.005115  1
  Sn  Sn11  1  0.268929  0.267663  0.992241  1
  Ir  Ir12  1  0.334596  0.674591  0.529065  1
  Ir  Ir13  1  0.660846  0.326124  0.530609  1
  Rh  Rh14  1  0.334686  0.672852  0.967356  1
  Rh  Rh15  1  0.995498  0.000452  0.750306  1
  Rh  Rh16  1  0.016685  0.999913  0.250186  1
  Rh  Rh17  1  0.662592  0.327802  0.965946  1
