# generated using pymatgen
data_Th4B20IrRh
_symmetry_space_group_name_H-M   'P 1'
_cell_length_a   4.20174500
_cell_length_b   5.73786409
_cell_length_c   11.44507717
_cell_angle_alpha   89.98011715
_cell_angle_beta   90.00000000
_cell_angle_gamma   90.00000000
_symmetry_Int_Tables_number   1
_chemical_formula_structural   Th4B20IrRh
_chemical_formula_sum   'Th4 B20 Ir1 Rh1'
_cell_volume   275.92982660
_cell_formula_units_Z   1
loop_
 _symmetry_equiv_pos_site_id
 _symmetry_equiv_pos_as_xyz
  1  'x, y, z'
loop_
 _atom_site_type_symbol
 _atom_site_label
 _atom_site_symmetry_multiplicity
 _atom_site_fract_x
 _atom_site_fract_y
 _atom_site_fract_z
 _atom_site_occupancy
  Th  Th0  1  0.500000  0.297751  0.864256  1
  Th  Th1  1  0.500000  0.702249  0.135744  1
  Th  Th2  1  0.500000  0.796925  0.636398  1
  Th  Th3  1  0.500000  0.203075  0.363602  1
  B  B4  1  0.000000  0.117586  0.543279  1
  B  B5  1  0.000000  0.882414  0.456721  1
  B  B6  1  0.000000  0.617545  0.956605  1
  B  B7  1  0.000000  0.382455  0.043395  1
  B  B8  1  0.000000  0.137135  0.697844  1
  B  B9  1  0.000000  0.862865  0.302156  1
  B  B10  1  0.302218  0.217679  0.118875  1
  B  B11  1  0.302218  0.782321  0.881125  1
  B  B12  1  0.697784  0.717871  0.381222  1
  B  B13  1  0.697784  0.282129  0.618778  1
  B  B14  1  0.697782  0.782321  0.881125  1
  B  B15  1  0.697782  0.217679  0.118875  1
  B  B16  1  0.302216  0.282129  0.618778  1
  B  B17  1  0.302216  0.717871  0.381222  1
  B  B18  1  0.000000  0.054860  0.193074  1
  B  B19  1  0.000000  0.945140  0.806926  1
  B  B20  1  0.000000  0.554990  0.306602  1
  B  B21  1  0.000000  0.445010  0.693398  1
  B  B22  1  0.000000  0.362978  0.197645  1
  B  B23  1  0.000000  0.637022  0.802355  1
  Ir  Ir24  1  0.000000  0.500000  0.500000  1
  Rh  Rh25  1  0.000000  0.000000  0.000000  1
