# generated using pymatgen
data_Y2Tm7Lu7(In3Ru)2
_symmetry_space_group_name_H-M   'P 1'
_cell_length_a   10.21321799
_cell_length_b   10.21321796
_cell_length_c   7.03732905
_cell_angle_alpha   89.99345750
_cell_angle_beta   90.00653901
_cell_angle_gamma   119.94851489
_symmetry_Int_Tables_number   1
_chemical_formula_structural   Y2Tm7Lu7(In3Ru)2
_chemical_formula_sum   'Y2 Tm7 Lu7 In6 Ru2'
_cell_volume   636.04635085
_cell_formula_units_Z   1
loop_
 _symmetry_equiv_pos_site_id
 _symmetry_equiv_pos_as_xyz
  1  'x, y, z'
loop_
 _atom_site_type_symbol
 _atom_site_label
 _atom_site_symmetry_multiplicity
 _atom_site_fract_x
 _atom_site_fract_y
 _atom_site_fract_z
 _atom_site_occupancy
  Y  Y0  1  0.000164  0.999836  0.496685  1
  Y  Y1  1  0.000245  0.999755  0.996413  1
  Tm  Tm2  1  0.466639  0.533361  0.480424  1
  Tm  Tm3  1  0.066618  0.533379  0.480216  1
  Tm  Tm4  1  0.466621  0.933382  0.480216  1
  Tm  Tm5  1  0.533374  0.466626  0.980740  1
  Tm  Tm6  1  0.933885  0.467663  0.979601  1
  Tm  Tm7  1  0.532337  0.066115  0.979601  1
  Tm  Tm8  1  0.821812  0.178188  0.277504  1
  Lu  Lu9  1  0.356826  0.178254  0.278757  1
  Lu  Lu10  1  0.821746  0.643174  0.278757  1
  Lu  Lu11  1  0.178479  0.821521  0.778211  1
  Lu  Lu12  1  0.643176  0.821766  0.778347  1
  Lu  Lu13  1  0.178234  0.356824  0.778347  1
  Lu  Lu14  1  0.333190  0.666810  0.098819  1
  Lu  Lu15  1  0.666571  0.333429  0.599172  1
  In  In16  1  0.163548  0.836452  0.231765  1
  In  In17  1  0.672313  0.835454  0.231124  1
  In  In18  1  0.164546  0.327687  0.231124  1
  In  In19  1  0.836430  0.163570  0.732262  1
  In  In20  1  0.327526  0.163885  0.731741  1
  In  In21  1  0.836115  0.672474  0.731741  1
  Ru  Ru22  1  0.333262  0.666738  0.706382  1
  Ru  Ru23  1  0.666343  0.333657  0.206602  1
