# generated using pymatgen
data_Th6RuAu7
_symmetry_space_group_name_H-M   'P 1'
_cell_length_a   8.26349586
_cell_length_b   8.26349594
_cell_length_c   8.26349665
_cell_angle_alpha   114.01038936
_cell_angle_beta   114.01040084
_cell_angle_gamma   114.01037880
_symmetry_Int_Tables_number   1
_chemical_formula_structural   Th6RuAu7
_chemical_formula_sum   'Th6 Ru1 Au7'
_cell_volume   342.56257517
_cell_formula_units_Z   1
loop_
 _symmetry_equiv_pos_site_id
 _symmetry_equiv_pos_as_xyz
  1  'x, y, z'
loop_
 _atom_site_type_symbol
 _atom_site_label
 _atom_site_symmetry_multiplicity
 _atom_site_fract_x
 _atom_site_fract_y
 _atom_site_fract_z
 _atom_site_occupancy
  Th  Th0  1  0.015775  0.380032  0.265531  1
  Th  Th1  1  0.380032  0.265531  0.015775  1
  Th  Th2  1  0.734469  0.984225  0.619968  1
  Th  Th3  1  0.265531  0.015775  0.380032  1
  Th  Th4  1  0.619968  0.734469  0.984225  1
  Th  Th5  1  0.984225  0.619968  0.734469  1
  Ru  Ru6  1  0.000000  0.000000  0.000000  1
  Au  Au7  1  0.500000  0.500000  0.500000  1
  Au  Au8  1  0.425135  0.924206  0.759630  1
  Au  Au9  1  0.924206  0.759630  0.425135  1
  Au  Au10  1  0.240370  0.574865  0.075794  1
  Au  Au11  1  0.759630  0.425135  0.924206  1
  Au  Au12  1  0.075794  0.240370  0.574865  1
  Au  Au13  1  0.574865  0.075794  0.240370  1
