# generated using pymatgen
data_Ho4Hf3CrF28
_symmetry_space_group_name_H-M   'P 1'
_cell_length_a   5.65159311
_cell_length_b   8.95660795
_cell_length_c   11.98654064
_cell_angle_alpha   62.62504209
_cell_angle_beta   89.92803793
_cell_angle_gamma   90.03261850
_symmetry_Int_Tables_number   1
_chemical_formula_structural   Ho4Hf3CrF28
_chemical_formula_sum   'Ho4 Hf3 Cr1 F28'
_cell_volume   538.80127431
_cell_formula_units_Z   1
loop_
 _symmetry_equiv_pos_site_id
 _symmetry_equiv_pos_as_xyz
  1  'x, y, z'
loop_
 _atom_site_type_symbol
 _atom_site_label
 _atom_site_symmetry_multiplicity
 _atom_site_fract_x
 _atom_site_fract_y
 _atom_site_fract_z
 _atom_site_occupancy
  Ho  Ho0  1  0.757666  0.815860  0.765672  1
  Ho  Ho1  1  0.261238  0.187165  0.727868  1
  Ho  Ho2  1  0.240867  0.187552  0.240687  1
  Ho  Ho3  1  0.742771  0.815138  0.267275  1
  Hf  Hf4  1  0.757052  0.273613  0.955615  1
  Hf  Hf5  1  0.254891  0.725914  0.543435  1
  Hf  Hf6  1  0.245178  0.726414  0.045413  1
  Cr  Cr7  1  0.741981  0.273709  0.454495  1
  F  F8  1  0.464557  0.707531  0.921527  1
  F  F9  1  0.942528  0.288731  0.570885  1
  F  F10  1  0.535917  0.290197  0.079877  1
  F  F11  1  0.037382  0.708728  0.418790  1
  F  F12  1  0.467219  0.280717  0.545076  1
  F  F13  1  0.952830  0.721372  0.950596  1
  F  F14  1  0.549274  0.714612  0.452625  1
  F  F15  1  0.046544  0.278709  0.052023  1
  F  F16  1  0.773674  0.524566  0.857744  1
  F  F17  1  0.260491  0.474973  0.639166  1
  F  F18  1  0.229235  0.475767  0.144594  1
  F  F19  1  0.733235  0.504751  0.363281  1
  F  F20  1  0.757051  0.022876  0.057601  1
  F  F21  1  0.261703  0.976218  0.445895  1
  F  F22  1  0.243945  0.975818  0.941629  1
  F  F23  1  0.742107  0.042831  0.545015  1
  F  F24  1  0.977744  0.736643  0.643872  1
  F  F25  1  0.486816  0.268899  0.848525  1
  F  F26  1  0.005212  0.267702  0.359109  1
  F  F27  1  0.516502  0.729516  0.151947  1
  F  F28  1  0.034526  0.746620  0.173539  1
  F  F29  1  0.543831  0.256467  0.334946  1
  F  F30  1  0.968350  0.251949  0.827116  1
  F  F31  1  0.464829  0.747099  0.671827  1
  F  F32  1  0.426572  0.974455  0.237898  1
  F  F33  1  0.926676  0.026446  0.268696  1
  F  F34  1  0.574799  0.026110  0.766316  1
  F  F35  1  0.074805  0.974327  0.729425  1
