# generated using pymatgen
data_Er8Sc12Ga12Si3Ge
_symmetry_space_group_name_H-M   'P 1'
_cell_length_a   7.19920953
_cell_length_b   7.47662355
_cell_length_c   14.36330000
_cell_angle_alpha   90.00000000
_cell_angle_beta   90.00000000
_cell_angle_gamma   90.04406948
_symmetry_Int_Tables_number   1
_chemical_formula_structural   Er8Sc12Ga12Si3Ge
_chemical_formula_sum   'Er8 Sc12 Ga12 Si3 Ge1'
_cell_volume   773.11559075
_cell_formula_units_Z   1
loop_
 _symmetry_equiv_pos_site_id
 _symmetry_equiv_pos_as_xyz
  1  'x, y, z'
loop_
 _atom_site_type_symbol
 _atom_site_label
 _atom_site_symmetry_multiplicity
 _atom_site_fract_x
 _atom_site_fract_y
 _atom_site_fract_z
 _atom_site_occupancy
  Er  Er0  1  0.011245  0.178835  0.096259  1
  Er  Er1  1  0.987674  0.821426  0.904115  1
  Er  Er2  1  0.489909  0.677679  0.904549  1
  Er  Er3  1  0.987674  0.821426  0.595885  1
  Er  Er4  1  0.511223  0.321208  0.096323  1
  Er  Er5  1  0.011245  0.178835  0.403741  1
  Er  Er6  1  0.511223  0.321208  0.403677  1
  Er  Er7  1  0.489909  0.677679  0.595451  1
  Sc  Sc8  1  0.161534  0.505394  0.750000  1
  Sc  Sc9  1  0.837964  0.492522  0.250000  1
  Sc  Sc10  1  0.337942  0.007398  0.250000  1
  Sc  Sc11  1  0.664018  0.993408  0.750000  1
  Sc  Sc12  1  0.329893  0.173829  0.622357  1
  Sc  Sc13  1  0.669929  0.827249  0.377429  1
  Sc  Sc14  1  0.170244  0.672621  0.377441  1
  Sc  Sc15  1  0.669929  0.827249  0.122571  1
  Sc  Sc16  1  0.829550  0.327510  0.622576  1
  Sc  Sc17  1  0.329893  0.173829  0.877643  1
  Sc  Sc18  1  0.829550  0.327510  0.877424  1
  Sc  Sc19  1  0.170244  0.672621  0.122559  1
  Ga  Ga20  1  0.030723  0.116637  0.750000  1
  Ga  Ga21  1  0.967102  0.886483  0.250000  1
  Ga  Ga22  1  0.467276  0.613403  0.250000  1
  Ga  Ga23  1  0.533109  0.386571  0.750000  1
  Ga  Ga24  1  0.160917  0.465566  0.541538  1
  Ga  Ga25  1  0.838745  0.534479  0.458807  1
  Ga  Ga26  1  0.338821  0.965466  0.458792  1
  Ga  Ga27  1  0.838745  0.534479  0.041193  1
  Ga  Ga28  1  0.660716  0.034635  0.541555  1
  Ga  Ga29  1  0.160917  0.465566  0.958462  1
  Ga  Ga30  1  0.660716  0.034635  0.958445  1
  Ga  Ga31  1  0.338821  0.965466  0.041208  1
  Si  Si32  1  0.715160  0.126612  0.250000  1
  Si  Si33  1  0.215049  0.373369  0.250000  1
  Si  Si34  1  0.784816  0.626685  0.750000  1
  Ge  Ge35  1  0.287576  0.870513  0.750000  1
