# generated using pymatgen
data_Lu12Co4SbOs
_symmetry_space_group_name_H-M   'P 1'
_cell_length_a   8.09035121
_cell_length_b   8.09035333
_cell_length_c   8.09035193
_cell_angle_alpha   111.72429324
_cell_angle_beta   110.53526275
_cell_angle_gamma   106.20504284
_symmetry_Int_Tables_number   1
_chemical_formula_structural   Lu12Co4SbOs
_chemical_formula_sum   'Lu12 Co4 Sb1 Os1'
_cell_volume   406.61050092
_cell_formula_units_Z   1
loop_
 _symmetry_equiv_pos_site_id
 _symmetry_equiv_pos_as_xyz
  1  'x, y, z'
loop_
 _atom_site_type_symbol
 _atom_site_label
 _atom_site_symmetry_multiplicity
 _atom_site_fract_x
 _atom_site_fract_y
 _atom_site_fract_z
 _atom_site_occupancy
  Lu  Lu0  1  0.417799  0.220782  0.197017  1
  Lu  Lu1  1  0.582201  0.779218  0.802983  1
  Lu  Lu2  1  0.023765  0.220782  0.802983  1
  Lu  Lu3  1  0.976235  0.779218  0.197017  1
  Lu  Lu4  1  0.180899  0.277132  0.458031  1
  Lu  Lu5  1  0.819101  0.722868  0.541969  1
  Lu  Lu6  1  0.180899  0.722868  0.903768  1
  Lu  Lu7  1  0.819101  0.277132  0.096232  1
  Lu  Lu8  1  0.313402  0.621333  0.307931  1
  Lu  Lu9  1  0.686598  0.378667  0.692069  1
  Lu  Lu10  1  0.313402  0.005470  0.692069  1
  Lu  Lu11  1  0.686598  0.994530  0.307931  1
  Co  Co12  1  0.371069  0.000000  0.371069  1
  Co  Co13  1  0.628931  0.000000  0.628931  1
  Co  Co14  1  0.112487  0.612487  0.500000  1
  Co  Co15  1  0.887513  0.387513  0.500000  1
  Sb  Sb16  1  0.500000  0.500000  0.000000  1
  Os  Os17  1  0.000000  0.000000  0.000000  1
