# generated using pymatgen
data_Gd4PdPb3O14
_symmetry_space_group_name_H-M   'P 1'
_cell_length_a   7.57565533
_cell_length_b   7.57292474
_cell_length_c   7.57292500
_cell_angle_alpha   60.00001199
_cell_angle_beta   60.01193460
_cell_angle_gamma   60.01194422
_symmetry_Int_Tables_number   1
_chemical_formula_structural   Gd4PdPb3O14
_chemical_formula_sum   'Gd4 Pd1 Pb3 O14'
_cell_volume   307.26344584
_cell_formula_units_Z   1
loop_
 _symmetry_equiv_pos_site_id
 _symmetry_equiv_pos_as_xyz
  1  'x, y, z'
loop_
 _atom_site_type_symbol
 _atom_site_label
 _atom_site_symmetry_multiplicity
 _atom_site_fract_x
 _atom_site_fract_y
 _atom_site_fract_z
 _atom_site_occupancy
  Gd  Gd0  1  0.625000  0.625000  0.125000  1
  Gd  Gd1  1  0.625000  0.625000  0.625000  1
  Gd  Gd2  1  0.625000  0.125000  0.625000  1
  Gd  Gd3  1  0.125000  0.625000  0.625000  1
  Pd  Pd4  1  0.625000  0.125000  0.125000  1
  Pb  Pb5  1  0.125000  0.125000  0.125000  1
  Pb  Pb6  1  0.125000  0.625000  0.125000  1
  Pb  Pb7  1  0.125000  0.125000  0.625000  1
  O  O8  1  0.017193  0.475789  0.475789  1
  O  O9  1  0.775888  0.797600  0.213255  1
  O  O10  1  0.775888  0.213255  0.213255  1
  O  O11  1  0.474112  0.036745  0.452400  1
  O  O12  1  0.747076  0.750975  0.750975  1
  O  O13  1  0.017193  0.031229  0.475789  1
  O  O14  1  0.017193  0.475789  0.031229  1
  O  O15  1  0.232807  0.774211  0.218771  1
  O  O16  1  0.232807  0.218771  0.774211  1
  O  O17  1  0.775888  0.213255  0.797600  1
  O  O18  1  0.502924  0.499025  0.499025  1
  O  O19  1  0.474112  0.036745  0.036745  1
  O  O20  1  0.474112  0.452400  0.036745  1
  O  O21  1  0.232807  0.774211  0.774211  1
