# generated using pymatgen
data_Tb4Dy(CoTe)2
_symmetry_space_group_name_H-M   'P 1'
_cell_length_a   7.79690963
_cell_length_b   7.79690965
_cell_length_c   15.05904800
_cell_angle_alpha   90.00000000
_cell_angle_beta   90.00000000
_cell_angle_gamma   150.33592227
_symmetry_Int_Tables_number   1
_chemical_formula_structural   Tb4Dy(CoTe)2
_chemical_formula_sum   'Tb8 Dy2 Co4 Te4'
_cell_volume   453.07722775
_cell_formula_units_Z   2
loop_
 _symmetry_equiv_pos_site_id
 _symmetry_equiv_pos_as_xyz
  1  'x, y, z'
loop_
 _atom_site_type_symbol
 _atom_site_label
 _atom_site_symmetry_multiplicity
 _atom_site_fract_x
 _atom_site_fract_y
 _atom_site_fract_z
 _atom_site_occupancy
  Tb  Tb0  1  0.960812  0.039188  0.126148  1
  Tb  Tb1  1  0.039188  0.960812  0.873852  1
  Tb  Tb2  1  0.039188  0.960812  0.626148  1
  Tb  Tb3  1  0.960812  0.039188  0.373852  1
  Tb  Tb4  1  0.742655  0.257345  0.630177  1
  Tb  Tb5  1  0.257345  0.742655  0.369823  1
  Tb  Tb6  1  0.257345  0.742655  0.130177  1
  Tb  Tb7  1  0.742655  0.257345  0.869823  1
  Dy  Dy8  1  0.605465  0.394535  0.250000  1
  Dy  Dy9  1  0.394535  0.605465  0.750000  1
  Co  Co10  1  0.410209  0.589791  0.250000  1
  Co  Co11  1  0.589791  0.410209  0.750000  1
  Co  Co12  1  0.818889  0.181111  0.250000  1
  Co  Co13  1  0.181111  0.818889  0.750000  1
  Te  Te14  1  0.617354  0.382646  0.038096  1
  Te  Te15  1  0.382646  0.617354  0.961904  1
  Te  Te16  1  0.382646  0.617354  0.538096  1
  Te  Te17  1  0.617354  0.382646  0.461904  1
