# generated using pymatgen
data_InReTc5As13
_symmetry_space_group_name_H-M   'P 1'
_cell_length_a   7.66750865
_cell_length_b   7.66750842
_cell_length_c   7.66750788
_cell_angle_alpha   110.56001853
_cell_angle_beta   107.36237762
_cell_angle_gamma   110.51162207
_symmetry_Int_Tables_number   1
_chemical_formula_structural   InReTc5As13
_chemical_formula_sum   'In1 Re1 Tc5 As13'
_cell_volume   346.65812009
_cell_formula_units_Z   1
loop_
 _symmetry_equiv_pos_site_id
 _symmetry_equiv_pos_as_xyz
  1  'x, y, z'
loop_
 _atom_site_type_symbol
 _atom_site_label
 _atom_site_symmetry_multiplicity
 _atom_site_fract_x
 _atom_site_fract_y
 _atom_site_fract_z
 _atom_site_occupancy
  In  In0  1  0.749679  0.500000  0.249679  1
  Re  Re1  1  0.657453  0.000000  0.657453  1
  Tc  Tc2  1  0.343192  0.000000  0.343192  1
  Tc  Tc3  1  0.011795  0.334773  0.346568  1
  Tc  Tc4  1  0.011795  0.665227  0.677023  1
  Tc  Tc5  1  0.322784  0.335053  0.987731  1
  Tc  Tc6  1  0.652678  0.664947  0.987731  1
  As  As7  1  0.495971  0.747918  0.243890  1
  As  As8  1  0.495971  0.252082  0.748052  1
  As  As9  1  0.756364  0.252143  0.504221  1
  As  As10  1  0.252079  0.747857  0.504221  1
  As  As11  1  0.249436  0.500000  0.749436  1
  As  As12  1  0.996827  0.991867  0.325976  1
  As  As13  1  0.673578  0.007780  0.003668  1
  As  As14  1  0.996827  0.670852  0.004960  1
  As  As15  1  0.334109  0.329148  0.325976  1
  As  As16  1  0.995888  0.330091  0.003668  1
  As  As17  1  0.673578  0.669909  0.665797  1
  As  As18  1  0.334109  0.008133  0.004960  1
  As  As19  1  0.995888  0.992220  0.665797  1
