# generated using pymatgen
data_LiHf6Co16P12W
_symmetry_space_group_name_H-M   'P 1'
_cell_length_a   11.88986723
_cell_length_b   11.93658927
_cell_length_c   3.62656500
_cell_angle_alpha   90.00000000
_cell_angle_beta   90.00000000
_cell_angle_gamma   119.78037875
_symmetry_Int_Tables_number   1
_chemical_formula_structural   LiHf6Co16P12W
_chemical_formula_sum   'Li1 Hf6 Co16 P12 W1'
_cell_volume   446.72496174
_cell_formula_units_Z   1
loop_
 _symmetry_equiv_pos_site_id
 _symmetry_equiv_pos_as_xyz
  1  'x, y, z'
loop_
 _atom_site_type_symbol
 _atom_site_label
 _atom_site_symmetry_multiplicity
 _atom_site_fract_x
 _atom_site_fract_y
 _atom_site_fract_z
 _atom_site_occupancy
  Li  Li0  1  0.556493  0.999365  0.000000  1
  Hf  Hf1  1  0.820057  0.819551  0.500000  1
  Hf  Hf2  1  0.998468  0.174796  0.500000  1
  Hf  Hf3  1  0.336692  0.667589  0.000000  1
  Hf  Hf4  1  0.668032  0.333533  0.000000  1
  Hf  Hf5  1  0.002678  0.556161  0.000000  1
  Hf  Hf6  1  0.184052  0.999023  0.500000  1
  Co  Co7  1  0.621976  0.821115  0.000000  1
  Co  Co8  1  0.371768  0.196809  0.000000  1
  Co  Co9  1  0.999440  0.720654  0.500000  1
  Co  Co10  1  0.279955  0.280299  0.500000  1
  Co  Co11  1  0.873986  0.350815  0.500000  1
  Co  Co12  1  0.715251  0.998761  0.500000  1
  Co  Co13  1  0.819785  0.627899  0.000000  1
  Co  Co14  1  0.180579  0.810407  0.000000  1
  Co  Co15  1  0.355486  0.875349  0.500000  1
  Co  Co16  1  0.131527  0.482259  0.500000  1
  Co  Co17  1  0.643639  0.516545  0.500000  1
  Co  Co18  1  0.997758  0.999710  0.000000  1
  Co  Co19  1  0.517041  0.646213  0.500000  1
  Co  Co20  1  0.483002  0.132653  0.500000  1
  Co  Co21  1  0.195462  0.369342  0.000000  1
  Co  Co22  1  0.799203  0.175627  0.000000  1
  P  P23  1  0.997476  0.342113  0.000000  1
  P  P24  1  0.826482  0.514542  0.500000  1
  P  P25  1  0.682077  0.166394  0.500000  1
  P  P26  1  0.174236  0.172002  0.000000  1
  P  P27  1  0.644352  0.648290  0.000000  1
  P  P28  1  0.819515  0.997793  0.000000  1
  P  P29  1  0.515198  0.833466  0.500000  1
  P  P30  1  0.176330  0.692420  0.500000  1
  P  P31  1  0.363593  0.004417  0.000000  1
  P  P32  1  0.482478  0.315261  0.500000  1
  P  P33  1  0.000309  0.825991  0.000000  1
  P  P34  1  0.315819  0.482509  0.500000  1
  W  W35  1  0.449806  0.450323  0.000000  1
