# generated using pymatgen
data_RbTcAs2Pt
_symmetry_space_group_name_H-M   'P 1'
_cell_length_a   7.71385686
_cell_length_b   7.71385590
_cell_length_c   7.71385656
_cell_angle_alpha   149.00138333
_cell_angle_beta   149.00137485
_cell_angle_gamma   44.40927409
_symmetry_Int_Tables_number   1
_chemical_formula_structural   RbTcAs2Pt
_chemical_formula_sum   'Rb1 Tc1 As2 Pt1'
_cell_volume   121.38654279
_cell_formula_units_Z   1
loop_
 _symmetry_equiv_pos_site_id
 _symmetry_equiv_pos_as_xyz
  1  'x, y, z'
loop_
 _atom_site_type_symbol
 _atom_site_label
 _atom_site_symmetry_multiplicity
 _atom_site_fract_x
 _atom_site_fract_y
 _atom_site_fract_z
 _atom_site_occupancy
  Rb  Rb0  1  0.000000  0.000000  0.000000  1
  Tc  Tc1  1  0.750000  0.250000  0.500000  1
  As  As2  1  0.347734  0.347734  0.000000  1
  As  As3  1  0.652266  0.652266  0.000000  1
  Pt  Pt4  1  0.250000  0.750000  0.500000  1
