# generated using pymatgen
data_Tb2HoCuRu2
_symmetry_space_group_name_H-M   'P 1'
_cell_length_a   3.40021700
_cell_length_b   3.40021700
_cell_length_c   10.49294500
_cell_angle_alpha   90.00000000
_cell_angle_beta   90.00000000
_cell_angle_gamma   90.00000000
_symmetry_Int_Tables_number   1
_chemical_formula_structural   Tb2HoCuRu2
_chemical_formula_sum   'Tb2 Ho1 Cu1 Ru2'
_cell_volume   121.31392808
_cell_formula_units_Z   1
loop_
 _symmetry_equiv_pos_site_id
 _symmetry_equiv_pos_as_xyz
  1  'x, y, z'
loop_
 _atom_site_type_symbol
 _atom_site_label
 _atom_site_symmetry_multiplicity
 _atom_site_fract_x
 _atom_site_fract_y
 _atom_site_fract_z
 _atom_site_occupancy
  Tb  Tb0  1  0.500000  0.500000  0.323142  1
  Tb  Tb1  1  0.500000  0.500000  0.676858  1
  Ho  Ho2  1  0.500000  0.500000  0.000000  1
  Cu  Cu3  1  0.000000  0.000000  0.500000  1
  Ru  Ru4  1  0.000000  0.000000  0.166203  1
  Ru  Ru5  1  0.000000  0.000000  0.833797  1
