# generated using pymatgen
data_Tm2Sc3Ga4
_symmetry_space_group_name_H-M   'P 1'
_cell_length_a   7.22859900
_cell_length_b   7.53387100
_cell_length_c   14.42005600
_cell_angle_alpha   90.00000000
_cell_angle_beta   90.00000000
_cell_angle_gamma   90.00000000
_symmetry_Int_Tables_number   1
_chemical_formula_structural   Tm2Sc3Ga4
_chemical_formula_sum   'Tm8 Sc12 Ga16'
_cell_volume   785.30662260
_cell_formula_units_Z   4
loop_
 _symmetry_equiv_pos_site_id
 _symmetry_equiv_pos_as_xyz
  1  'x, y, z'
loop_
 _atom_site_type_symbol
 _atom_site_label
 _atom_site_symmetry_multiplicity
 _atom_site_fract_x
 _atom_site_fract_y
 _atom_site_fract_z
 _atom_site_occupancy
  Tm  Tm0  1  0.010677  0.179237  0.094841  1
  Tm  Tm1  1  0.989323  0.820763  0.905159  1
  Tm  Tm2  1  0.489323  0.679237  0.905159  1
  Tm  Tm3  1  0.989323  0.820763  0.594841  1
  Tm  Tm4  1  0.510677  0.320763  0.094841  1
  Tm  Tm5  1  0.010677  0.179237  0.405159  1
  Tm  Tm6  1  0.510677  0.320763  0.405159  1
  Tm  Tm7  1  0.489323  0.679237  0.594841  1
  Sc  Sc8  1  0.162784  0.503905  0.750000  1
  Sc  Sc9  1  0.837216  0.496095  0.250000  1
  Sc  Sc10  1  0.337216  0.003905  0.250000  1
  Sc  Sc11  1  0.662784  0.996095  0.750000  1
  Sc  Sc12  1  0.330125  0.174032  0.624482  1
  Sc  Sc13  1  0.669875  0.825968  0.375518  1
  Sc  Sc14  1  0.169875  0.674032  0.375518  1
  Sc  Sc15  1  0.669875  0.825968  0.124482  1
  Sc  Sc16  1  0.830125  0.325968  0.624482  1
  Sc  Sc17  1  0.330125  0.174032  0.875518  1
  Sc  Sc18  1  0.830125  0.325968  0.875518  1
  Sc  Sc19  1  0.169875  0.674032  0.124482  1
  Ga  Ga20  1  0.031211  0.115912  0.750000  1
  Ga  Ga21  1  0.968789  0.884088  0.250000  1
  Ga  Ga22  1  0.468789  0.615912  0.250000  1
  Ga  Ga23  1  0.531211  0.384088  0.750000  1
  Ga  Ga24  1  0.283761  0.870158  0.750000  1
  Ga  Ga25  1  0.716239  0.129842  0.250000  1
  Ga  Ga26  1  0.216239  0.370158  0.250000  1
  Ga  Ga27  1  0.783761  0.629842  0.750000  1
  Ga  Ga28  1  0.161899  0.465685  0.540245  1
  Ga  Ga29  1  0.838101  0.534315  0.459755  1
  Ga  Ga30  1  0.338101  0.965685  0.459755  1
  Ga  Ga31  1  0.838101  0.534315  0.040245  1
  Ga  Ga32  1  0.661899  0.034315  0.540245  1
  Ga  Ga33  1  0.161899  0.465685  0.959755  1
  Ga  Ga34  1  0.661899  0.034315  0.959755  1
  Ga  Ga35  1  0.338101  0.965685  0.040245  1
