# generated using pymatgen
data_Th2CoSi4Rh3
_symmetry_space_group_name_H-M   'P 1'
_cell_length_a   4.14078400
_cell_length_b   4.14078400
_cell_length_c   9.86071500
_cell_angle_alpha   90.00000000
_cell_angle_beta   90.00000000
_cell_angle_gamma   90.00000000
_symmetry_Int_Tables_number   1
_chemical_formula_structural   Th2CoSi4Rh3
_chemical_formula_sum   'Th2 Co1 Si4 Rh3'
_cell_volume   169.07272790
_cell_formula_units_Z   1
loop_
 _symmetry_equiv_pos_site_id
 _symmetry_equiv_pos_as_xyz
  1  'x, y, z'
loop_
 _atom_site_type_symbol
 _atom_site_label
 _atom_site_symmetry_multiplicity
 _atom_site_fract_x
 _atom_site_fract_y
 _atom_site_fract_z
 _atom_site_occupancy
  Th  Th0  1  0.000000  0.500000  0.255897  1
  Th  Th1  1  0.500000  0.000000  0.741683  1
  Co  Co2  1  0.000000  0.500000  0.622917  1
  Si  Si3  1  0.000000  0.000000  0.509493  1
  Si  Si4  1  0.500000  0.500000  0.509493  1
  Si  Si5  1  0.000000  0.500000  0.859150  1
  Si  Si6  1  0.500000  0.000000  0.129285  1
  Rh  Rh7  1  0.000000  0.000000  0.997165  1
  Rh  Rh8  1  0.500000  0.500000  0.997165  1
  Rh  Rh9  1  0.500000  0.000000  0.377753  1
