# generated using pymatgen
data_HoTmRh2F14
_symmetry_space_group_name_H-M   'P 1'
_cell_length_a   5.49495100
_cell_length_b   8.79657471
_cell_length_c   11.85407107
_cell_angle_alpha   62.65409824
_cell_angle_beta   90.00000000
_cell_angle_gamma   90.00000000
_symmetry_Int_Tables_number   1
_chemical_formula_structural   HoTmRh2F14
_chemical_formula_sum   'Ho2 Tm2 Rh4 F28'
_cell_volume   508.95562768
_cell_formula_units_Z   2
loop_
 _symmetry_equiv_pos_site_id
 _symmetry_equiv_pos_as_xyz
  1  'x, y, z'
loop_
 _atom_site_type_symbol
 _atom_site_label
 _atom_site_symmetry_multiplicity
 _atom_site_fract_x
 _atom_site_fract_y
 _atom_site_fract_z
 _atom_site_occupancy
  Ho  Ho0  1  0.239113  0.187300  0.234555  1
  Ho  Ho1  1  0.739113  0.812700  0.265445  1
  Tm  Tm2  1  0.761052  0.814639  0.765089  1
  Tm  Tm3  1  0.261052  0.185361  0.734911  1
  Rh  Rh4  1  0.758096  0.274232  0.954746  1
  Rh  Rh5  1  0.258096  0.725768  0.545254  1
  Rh  Rh6  1  0.242036  0.727385  0.042635  1
  Rh  Rh7  1  0.742036  0.272615  0.457365  1
  F  F8  1  0.439313  0.704717  0.914544  1
  F  F9  1  0.939313  0.295283  0.585456  1
  F  F10  1  0.563185  0.296353  0.083634  1
  F  F11  1  0.063185  0.703647  0.416366  1
  F  F12  1  0.438974  0.276680  0.544590  1
  F  F13  1  0.938974  0.723320  0.955410  1
  F  F14  1  0.559624  0.721666  0.458123  1
  F  F15  1  0.059624  0.278334  0.041877  1
  F  F16  1  0.774382  0.521402  0.858677  1
  F  F17  1  0.274382  0.478598  0.641323  1
  F  F18  1  0.225064  0.480194  0.140359  1
  F  F19  1  0.725064  0.519806  0.359641  1
  F  F20  1  0.755282  0.027518  0.048798  1
  F  F21  1  0.255282  0.972482  0.451202  1
  F  F22  1  0.244996  0.974714  0.949014  1
  F  F23  1  0.744996  0.025286  0.550986  1
  F  F24  1  0.963900  0.726913  0.637350  1
  F  F25  1  0.463900  0.273087  0.862650  1
  F  F26  1  0.035920  0.274067  0.364164  1
  F  F27  1  0.535920  0.725933  0.135836  1
  F  F28  1  0.051316  0.746302  0.175145  1
  F  F29  1  0.551316  0.253698  0.324855  1
  F  F30  1  0.951293  0.253267  0.823746  1
  F  F31  1  0.451293  0.746733  0.676254  1
  F  F32  1  0.412634  0.969053  0.231188  1
  F  F33  1  0.912634  0.030947  0.268812  1
  F  F34  1  0.583822  0.029322  0.768117  1
  F  F35  1  0.083822  0.970678  0.731883  1
