# generated using pymatgen
data_Ho11Th5(CdTc)4
_symmetry_space_group_name_H-M   'P 1'
_cell_length_a   9.67129238
_cell_length_b   9.73781818
_cell_length_c   9.73781884
_cell_angle_alpha   59.89857491
_cell_angle_beta   60.22573641
_cell_angle_gamma   60.22573921
_symmetry_Int_Tables_number   1
_chemical_formula_structural   Ho11Th5(CdTc)4
_chemical_formula_sum   'Ho11 Th5 Cd4 Tc4'
_cell_volume   650.17467153
_cell_formula_units_Z   1
loop_
 _symmetry_equiv_pos_site_id
 _symmetry_equiv_pos_as_xyz
  1  'x, y, z'
loop_
 _atom_site_type_symbol
 _atom_site_label
 _atom_site_symmetry_multiplicity
 _atom_site_fract_x
 _atom_site_fract_y
 _atom_site_fract_z
 _atom_site_occupancy
  Ho  Ho0  1  0.188682  0.811318  0.811318  1
  Ho  Ho1  1  0.193283  0.806182  0.188683  1
  Ho  Ho2  1  0.811851  0.188683  0.806182  1
  Ho  Ho3  1  0.193283  0.188683  0.806182  1
  Ho  Ho4  1  0.811851  0.806182  0.188683  1
  Ho  Ho5  1  0.934174  0.565826  0.565826  1
  Ho  Ho6  1  0.562307  0.937693  0.937693  1
  Ho  Ho7  1  0.560199  0.938065  0.562142  1
  Ho  Ho8  1  0.939594  0.562142  0.938065  1
  Ho  Ho9  1  0.560199  0.562142  0.938065  1
  Ho  Ho10  1  0.939594  0.938065  0.562142  1
  Th  Th11  1  0.343706  0.349470  0.349470  1
  Th  Th12  1  0.346534  0.347842  0.959090  1
  Th  Th13  1  0.346534  0.959090  0.347842  1
  Th  Th14  1  0.957354  0.349470  0.349470  1
  Th  Th15  1  0.814027  0.185973  0.185973  1
  Cd  Cd16  1  0.581478  0.582699  0.582699  1
  Cd  Cd17  1  0.580757  0.584725  0.253762  1
  Cd  Cd18  1  0.580757  0.253762  0.584725  1
  Cd  Cd19  1  0.253124  0.582699  0.582699  1
  Tc  Tc20  1  0.125956  0.143598  0.143598  1
  Tc  Tc21  1  0.143954  0.140327  0.571765  1
  Tc  Tc22  1  0.143954  0.571765  0.140327  1
  Tc  Tc23  1  0.586849  0.143598  0.143598  1
