# generated using pymatgen
data_Sr20CdAu15
_symmetry_space_group_name_H-M   'P 1'
_cell_length_a   8.36279685
_cell_length_b   8.53847829
_cell_length_c   16.28595000
_cell_angle_alpha   90.00000000
_cell_angle_beta   90.00000000
_cell_angle_gamma   90.18053261
_symmetry_Int_Tables_number   1
_chemical_formula_structural   Sr20CdAu15
_chemical_formula_sum   'Sr20 Cd1 Au15'
_cell_volume   1162.90159656
_cell_formula_units_Z   1
loop_
 _symmetry_equiv_pos_site_id
 _symmetry_equiv_pos_as_xyz
  1  'x, y, z'
loop_
 _atom_site_type_symbol
 _atom_site_label
 _atom_site_symmetry_multiplicity
 _atom_site_fract_x
 _atom_site_fract_y
 _atom_site_fract_z
 _atom_site_occupancy
  Sr  Sr0  1  0.332058  0.832419  0.879133  1
  Sr  Sr1  1  0.832175  0.668710  0.620937  1
  Sr  Sr2  1  0.668759  0.168253  0.381594  1
  Sr  Sr3  1  0.163942  0.323973  0.116180  1
  Sr  Sr4  1  0.668759  0.168253  0.118406  1
  Sr  Sr5  1  0.163942  0.323973  0.383820  1
  Sr  Sr6  1  0.332058  0.832419  0.620867  1
  Sr  Sr7  1  0.832175  0.668710  0.879063  1
  Sr  Sr8  1  0.490100  0.321248  0.898792  1
  Sr  Sr9  1  0.989117  0.179114  0.602212  1
  Sr  Sr10  1  0.513876  0.681613  0.405173  1
  Sr  Sr11  1  0.005796  0.824806  0.094574  1
  Sr  Sr12  1  0.513876  0.681613  0.094827  1
  Sr  Sr13  1  0.005796  0.824806  0.405426  1
  Sr  Sr14  1  0.490100  0.321248  0.601208  1
  Sr  Sr15  1  0.989117  0.179114  0.897788  1
  Sr  Sr16  1  0.168091  0.488540  0.750000  1
  Sr  Sr17  1  0.666988  0.012713  0.750000  1
  Sr  Sr18  1  0.824711  0.509072  0.250000  1
  Sr  Sr19  1  0.336703  0.996023  0.250000  1
  Cd  Cd20  1  0.221680  0.625344  0.250000  1
  Au  Au21  1  0.335030  0.015927  0.049081  1
  Au  Au22  1  0.833720  0.481694  0.451183  1
  Au  Au23  1  0.668762  0.981245  0.549206  1
  Au  Au24  1  0.168250  0.521782  0.951401  1
  Au  Au25  1  0.668762  0.981245  0.950794  1
  Au  Au26  1  0.168250  0.521782  0.548599  1
  Au  Au27  1  0.335030  0.015927  0.450919  1
  Au  Au28  1  0.833720  0.481694  0.048817  1
  Au  Au29  1  0.536816  0.609715  0.750000  1
  Au  Au30  1  0.037218  0.889406  0.750000  1
  Au  Au31  1  0.458043  0.386037  0.250000  1
  Au  Au32  1  0.960940  0.107473  0.250000  1
  Au  Au33  1  0.284741  0.128215  0.750000  1
  Au  Au34  1  0.785797  0.373557  0.750000  1
  Au  Au35  1  0.715103  0.872337  0.250000  1
