# generated using pymatgen
data_Na4CaRhO6
_symmetry_space_group_name_H-M   'P 1'
_cell_length_a   5.71145657
_cell_length_b   5.71138684
_cell_length_c   5.76537821
_cell_angle_alpha   99.75324593
_cell_angle_beta   99.75112369
_cell_angle_gamma   119.90016863
_symmetry_Int_Tables_number   1
_chemical_formula_structural   Na4CaRhO6
_chemical_formula_sum   'Na4 Ca1 Rh1 O6'
_cell_volume   153.42502269
_cell_formula_units_Z   1
loop_
 _symmetry_equiv_pos_site_id
 _symmetry_equiv_pos_as_xyz
  1  'x, y, z'
loop_
 _atom_site_type_symbol
 _atom_site_label
 _atom_site_symmetry_multiplicity
 _atom_site_fract_x
 _atom_site_fract_y
 _atom_site_fract_z
 _atom_site_occupancy
  Na  Na0  1  0.499143  0.500725  0.999937  1
  Na  Na1  1  0.007878  0.992264  0.500083  1
  Na  Na2  1  0.660309  0.339635  0.500015  1
  Na  Na3  1  0.335392  0.664723  0.500045  1
  Ca  Ca4  1  0.833995  0.165859  0.999943  1
  Rh  Rh5  1  0.166984  0.832980  0.000042  1
  O  O6  1  0.955106  0.615230  0.206292  1
  O  O7  1  0.526751  0.912252  0.215965  1
  O  O8  1  0.230778  0.188887  0.215560  1
  O  O9  1  0.811079  0.769209  0.784438  1
  O  O10  1  0.087740  0.473257  0.784065  1
  O  O11  1  0.384849  0.044983  0.793620  1
