# generated using pymatgen
data_Nd2Y3Bi3C
_symmetry_space_group_name_H-M   'P 1'
_cell_length_a   9.35607000
_cell_length_b   9.35607011
_cell_length_c   6.55244800
_cell_angle_alpha   90.00000000
_cell_angle_beta   90.00000000
_cell_angle_gamma   119.99999255
_symmetry_Int_Tables_number   1
_chemical_formula_structural   Nd2Y3Bi3C
_chemical_formula_sum   'Nd4 Y6 Bi6 C2'
_cell_volume   496.73090039
_cell_formula_units_Z   2
loop_
 _symmetry_equiv_pos_site_id
 _symmetry_equiv_pos_as_xyz
  1  'x, y, z'
loop_
 _atom_site_type_symbol
 _atom_site_label
 _atom_site_symmetry_multiplicity
 _atom_site_fract_x
 _atom_site_fract_y
 _atom_site_fract_z
 _atom_site_occupancy
  Nd  Nd0  1  0.666667  0.333333  0.000000  1
  Nd  Nd1  1  0.333333  0.666667  0.000000  1
  Nd  Nd2  1  0.333333  0.666667  0.500000  1
  Nd  Nd3  1  0.666667  0.333333  0.500000  1
  Y  Y4  1  0.795668  0.795668  0.750000  1
  Y  Y5  1  0.204332  0.000000  0.750000  1
  Y  Y6  1  0.000000  0.204332  0.750000  1
  Y  Y7  1  0.204332  0.204332  0.250000  1
  Y  Y8  1  0.795668  0.000000  0.250000  1
  Y  Y9  1  0.000000  0.795668  0.250000  1
  Bi  Bi10  1  0.395156  0.395156  0.750000  1
  Bi  Bi11  1  0.604844  0.000000  0.750000  1
  Bi  Bi12  1  0.000000  0.604844  0.750000  1
  Bi  Bi13  1  0.604844  0.604844  0.250000  1
  Bi  Bi14  1  0.395156  0.000000  0.250000  1
  Bi  Bi15  1  0.000000  0.395156  0.250000  1
  C  C16  1  0.000000  0.000000  0.000000  1
  C  C17  1  0.000000  0.000000  0.500000  1
