# generated using pymatgen
data_Ho3Co4
_symmetry_space_group_name_H-M   'P 1'
_cell_length_a   5.45123653
_cell_length_b   5.45123589
_cell_length_c   12.56731300
_cell_angle_alpha   90.00000000
_cell_angle_beta   90.00000000
_cell_angle_gamma   137.41659321
_symmetry_Int_Tables_number   1
_chemical_formula_structural   Ho3Co4
_chemical_formula_sum   'Ho6 Co8'
_cell_volume   252.69969147
_cell_formula_units_Z   2
loop_
 _symmetry_equiv_pos_site_id
 _symmetry_equiv_pos_as_xyz
  1  'x, y, z'
loop_
 _atom_site_type_symbol
 _atom_site_label
 _atom_site_symmetry_multiplicity
 _atom_site_fract_x
 _atom_site_fract_y
 _atom_site_fract_z
 _atom_site_occupancy
  Ho  Ho0  1  0.999462  0.000538  0.250000  1
  Ho  Ho1  1  0.000538  0.999462  0.750000  1
  Ho  Ho2  1  0.714533  0.285467  0.605188  1
  Ho  Ho3  1  0.285467  0.714533  0.394812  1
  Ho  Ho4  1  0.285467  0.714533  0.105188  1
  Ho  Ho5  1  0.714533  0.285467  0.894812  1
  Co  Co6  1  0.000000  0.000000  0.000000  1
  Co  Co7  1  0.000000  0.000000  0.500000  1
  Co  Co8  1  0.693365  0.306635  0.250000  1
  Co  Co9  1  0.306635  0.693365  0.750000  1
  Co  Co10  1  0.427601  0.572399  0.588124  1
  Co  Co11  1  0.572399  0.427601  0.411876  1
  Co  Co12  1  0.572399  0.427601  0.088124  1
  Co  Co13  1  0.427601  0.572399  0.911876  1
