# generated using pymatgen
data_Zr8Pa2CoNiSb6
_symmetry_space_group_name_H-M   'P 1'
_cell_length_a   5.90109273
_cell_length_b   8.84756874
_cell_length_c   8.84755391
_cell_angle_alpha   122.09669901
_cell_angle_beta   89.58392796
_cell_angle_gamma   89.58375372
_symmetry_Int_Tables_number   1
_chemical_formula_structural   Zr8Pa2CoNiSb6
_chemical_formula_sum   'Zr8 Pa2 Co1 Ni1 Sb6'
_cell_volume   391.28421126
_cell_formula_units_Z   1
loop_
 _symmetry_equiv_pos_site_id
 _symmetry_equiv_pos_as_xyz
  1  'x, y, z'
loop_
 _atom_site_type_symbol
 _atom_site_label
 _atom_site_symmetry_multiplicity
 _atom_site_fract_x
 _atom_site_fract_y
 _atom_site_fract_z
 _atom_site_occupancy
  Zr  Zr0  1  0.751375  0.993626  0.261124  1
  Zr  Zr1  1  0.248426  0.006134  0.739526  1
  Zr  Zr2  1  0.751531  0.260953  0.993615  1
  Zr  Zr3  1  0.248557  0.739364  0.006113  1
  Zr  Zr4  1  0.000119  0.664023  0.335993  1
  Zr  Zr5  1  0.000123  0.336018  0.664022  1
  Zr  Zr6  1  0.500248  0.337128  0.662840  1
  Zr  Zr7  1  0.500247  0.662795  0.337142  1
  Pa  Pa8  1  0.736686  0.768084  0.767989  1
  Pa  Pa9  1  0.263588  0.231573  0.231470  1
  Co  Co10  1  0.500712  0.999943  0.999887  1
  Ni  Ni11  1  0.997720  0.000235  0.000250  1
  Sb  Sb12  1  0.756146  0.385869  0.385884  1
  Sb  Sb13  1  0.244176  0.614094  0.614103  1
  Sb  Sb14  1  0.748603  0.005350  0.606554  1
  Sb  Sb15  1  0.251512  0.994640  0.393587  1
  Sb  Sb16  1  0.748660  0.606565  0.005293  1
  Sb  Sb17  1  0.251572  0.393608  0.994606  1
