# generated using pymatgen
data_CaTbY2(Mo2O7)2
_symmetry_space_group_name_H-M   'P 1'
_cell_length_a   7.33959547
_cell_length_b   7.34500039
_cell_length_c   7.43564633
_cell_angle_alpha   60.44614289
_cell_angle_beta   60.42641007
_cell_angle_gamma   60.02434529
_symmetry_Int_Tables_number   1
_chemical_formula_structural   CaTbY2(Mo2O7)2
_chemical_formula_sum   'Ca1 Tb1 Y2 Mo4 O14'
_cell_volume   285.35214724
_cell_formula_units_Z   1
loop_
 _symmetry_equiv_pos_site_id
 _symmetry_equiv_pos_as_xyz
  1  'x, y, z'
loop_
 _atom_site_type_symbol
 _atom_site_label
 _atom_site_symmetry_multiplicity
 _atom_site_fract_x
 _atom_site_fract_y
 _atom_site_fract_z
 _atom_site_occupancy
  Ca  Ca0  1  0.125000  0.125000  0.625000  1
  Tb  Tb1  1  0.125000  0.625000  0.125000  1
  Y  Y2  1  0.125000  0.125000  0.125000  1
  Y  Y3  1  0.625000  0.125000  0.125000  1
  Mo  Mo4  1  0.625000  0.625000  0.625000  1
  Mo  Mo5  1  0.125000  0.625000  0.625000  1
  Mo  Mo6  1  0.625000  0.125000  0.625000  1
  Mo  Mo7  1  0.625000  0.625000  0.125000  1
  O  O8  1  0.253240  0.251715  0.241805  1
  O  O9  1  0.996760  0.998285  0.008195  1
  O  O10  1  0.554180  0.960046  0.525320  1
  O  O11  1  0.297728  0.707869  0.286361  1
  O  O12  1  0.541958  0.542131  0.963639  1
  O  O13  1  0.960338  0.554019  0.525307  1
  O  O14  1  0.542239  0.951877  0.963644  1
  O  O15  1  0.960455  0.960046  0.525320  1
  O  O16  1  0.952272  0.542131  0.963639  1
  O  O17  1  0.707761  0.298123  0.286356  1
  O  O18  1  0.289662  0.695981  0.724693  1
  O  O19  1  0.708042  0.707869  0.286361  1
  O  O20  1  0.289545  0.289954  0.724680  1
  O  O21  1  0.695820  0.289954  0.724680  1
