# generated using pymatgen
data_TbYB24
_symmetry_space_group_name_H-M   'P 1'
_cell_length_a   5.30381300
_cell_length_b   5.30381189
_cell_length_c   9.18821905
_cell_angle_alpha   73.22462884
_cell_angle_beta   90.00000000
_cell_angle_gamma   120.00000066
_symmetry_Int_Tables_number   1
_chemical_formula_structural   TbYB24
_chemical_formula_sum   'Tb1 Y1 B24'
_cell_volume   211.04367548
_cell_formula_units_Z   1
loop_
 _symmetry_equiv_pos_site_id
 _symmetry_equiv_pos_as_xyz
  1  'x, y, z'
loop_
 _atom_site_type_symbol
 _atom_site_label
 _atom_site_symmetry_multiplicity
 _atom_site_fract_x
 _atom_site_fract_y
 _atom_site_fract_z
 _atom_site_occupancy
  Tb  Tb0  1  0.000000  0.000000  0.000000  1
  Y  Y1  1  0.500000  0.000000  0.500000  1
  B  B2  1  0.912026  0.499748  0.250274  1
  B  B3  1  0.412276  0.500252  0.749726  1
  B  B4  1  0.081086  0.499998  0.418916  1
  B  B5  1  0.581182  0.500227  0.918591  1
  B  B6  1  0.249977  0.837701  0.250274  1
  B  B7  1  0.750023  0.837997  0.749726  1
  B  B8  1  0.081086  0.162171  0.418916  1
  B  B9  1  0.581182  0.162365  0.918591  1
  B  B10  1  0.912026  0.162003  0.250274  1
  B  B11  1  0.412276  0.162299  0.749726  1
  B  B12  1  0.249977  0.162003  0.250274  1
  B  B13  1  0.750023  0.162299  0.749726  1
  B  B14  1  0.418818  0.837635  0.081409  1
  B  B15  1  0.918914  0.837829  0.581084  1
  B  B16  1  0.418818  0.499773  0.081409  1
  B  B17  1  0.918914  0.500002  0.581084  1
  B  B18  1  0.080955  0.499773  0.081409  1
  B  B19  1  0.581088  0.500002  0.581084  1
  B  B20  1  0.587724  0.499748  0.250274  1
  B  B21  1  0.087974  0.500252  0.749726  1
  B  B22  1  0.587724  0.837701  0.250274  1
  B  B23  1  0.087974  0.837997  0.749726  1
  B  B24  1  0.418912  0.499998  0.418916  1
  B  B25  1  0.919045  0.500227  0.918591  1
