# generated using pymatgen
data_K2Pu2O7
_symmetry_space_group_name_H-M   'P 1'
_cell_length_a   6.85610110
_cell_length_b   8.06076624
_cell_length_c   7.07255861
_cell_angle_alpha   89.98885677
_cell_angle_beta   108.74866050
_cell_angle_gamma   90.02751223
_symmetry_Int_Tables_number   1
_chemical_formula_structural   K2Pu2O7
_chemical_formula_sum   'K4 Pu4 O14'
_cell_volume   370.12756190
_cell_formula_units_Z   2
loop_
 _symmetry_equiv_pos_site_id
 _symmetry_equiv_pos_as_xyz
  1  'x, y, z'
loop_
 _atom_site_type_symbol
 _atom_site_label
 _atom_site_symmetry_multiplicity
 _atom_site_fract_x
 _atom_site_fract_y
 _atom_site_fract_z
 _atom_site_occupancy
  K  K0  1  0.975806  0.250811  0.494781  1
  K  K1  1  0.488088  0.497000  0.496495  1
  K  K2  1  0.511931  0.996965  0.503478  1
  K  K3  1  0.024175  0.750727  0.505235  1
  Pu  Pu4  1  0.536551  0.743422  0.005942  1
  Pu  Pu5  1  0.014599  0.004998  0.003030  1
  Pu  Pu6  1  0.985462  0.505042  0.996987  1
  Pu  Pu7  1  0.463389  0.243396  0.994052  1
  O  O8  1  0.719540  0.075217  0.995289  1
  O  O9  1  0.886605  0.757342  0.017864  1
  O  O10  1  0.329871  0.970793  0.011645  1
  O  O11  1  0.556882  0.249742  0.271009  1
  O  O12  1  0.074760  0.492508  0.275786  1
  O  O13  1  0.624318  0.740637  0.282400  1
  O  O14  1  0.104806  0.013895  0.281597  1
  O  O15  1  0.895132  0.513863  0.718243  1
  O  O16  1  0.375686  0.240592  0.717616  1
  O  O17  1  0.925311  0.992517  0.724384  1
  O  O18  1  0.443102  0.749739  0.728962  1
  O  O19  1  0.670156  0.470741  0.988362  1
  O  O20  1  0.113387  0.257333  0.982139  1
  O  O21  1  0.280440  0.575320  0.004701  1
