# generated using pymatgen
data_La8Bi11Sb5Rh12
_symmetry_space_group_name_H-M   'P 1'
_cell_length_a   4.71252100
_cell_length_b   11.30654357
_cell_length_c   16.70199480
_cell_angle_alpha   90.03587638
_cell_angle_beta   90.00000000
_cell_angle_gamma   90.00000000
_symmetry_Int_Tables_number   1
_chemical_formula_structural   La8Bi11Sb5Rh12
_chemical_formula_sum   'La8 Bi11 Sb5 Rh12'
_cell_volume   889.92092386
_cell_formula_units_Z   1
loop_
 _symmetry_equiv_pos_site_id
 _symmetry_equiv_pos_as_xyz
  1  'x, y, z'
loop_
 _atom_site_type_symbol
 _atom_site_label
 _atom_site_symmetry_multiplicity
 _atom_site_fract_x
 _atom_site_fract_y
 _atom_site_fract_z
 _atom_site_occupancy
  La  La0  1  0.250000  0.588944  0.752089  1
  La  La1  1  0.250000  0.910534  0.253532  1
  La  La2  1  0.750000  0.410655  0.247585  1
  La  La3  1  0.750000  0.092438  0.744644  1
  La  La4  1  0.250000  0.747892  0.507051  1
  La  La5  1  0.250000  0.752603  0.006459  1
  La  La6  1  0.750000  0.253201  0.499311  1
  La  La7  1  0.750000  0.247305  0.992835  1
  Bi  Bi8  1  0.250000  0.230602  0.147727  1
  Bi  Bi9  1  0.750000  0.730254  0.352488  1
  Bi  Bi10  1  0.750000  0.769320  0.851635  1
  Bi  Bi11  1  0.250000  0.884324  0.713543  1
  Bi  Bi12  1  0.250000  0.615585  0.213671  1
  Bi  Bi13  1  0.750000  0.115969  0.286719  1
  Bi  Bi14  1  0.750000  0.385396  0.784568  1
  Bi  Bi15  1  0.250000  0.062557  0.893625  1
  Bi  Bi16  1  0.250000  0.435899  0.397022  1
  Bi  Bi17  1  0.750000  0.938859  0.105096  1
  Bi  Bi18  1  0.750000  0.561218  0.604929  1
  Sb  Sb19  1  0.250000  0.444288  0.928645  1
  Sb  Sb20  1  0.250000  0.054796  0.431175  1
  Sb  Sb21  1  0.750000  0.553486  0.069588  1
  Sb  Sb22  1  0.750000  0.947672  0.570000  1
  Sb  Sb23  1  0.250000  0.268247  0.648668  1
  Rh  Rh24  1  0.250000  0.276892  0.814137  1
  Rh  Rh25  1  0.250000  0.223107  0.318904  1
  Rh  Rh26  1  0.750000  0.723220  0.180607  1
  Rh  Rh27  1  0.750000  0.776539  0.680026  1
  Rh  Rh28  1  0.250000  0.052830  0.589427  1
  Rh  Rh29  1  0.250000  0.452102  0.086359  1
  Rh  Rh30  1  0.750000  0.953058  0.412977  1
  Rh  Rh31  1  0.750000  0.546874  0.912347  1
  Rh  Rh32  1  0.250000  0.458952  0.558668  1
  Rh  Rh33  1  0.250000  0.034013  0.054521  1
  Rh  Rh34  1  0.750000  0.533493  0.445193  1
  Rh  Rh35  1  0.750000  0.966878  0.944228  1
