# generated using pymatgen
data_YbNb2(SnRu2)3
_symmetry_space_group_name_H-M   'P 1'
_cell_length_a   4.56750000
_cell_length_b   6.42826300
_cell_length_c   13.65321102
_cell_angle_alpha   90.00000000
_cell_angle_beta   89.99800163
_cell_angle_gamma   90.00000000
_symmetry_Int_Tables_number   1
_chemical_formula_structural   YbNb2(SnRu2)3
_chemical_formula_sum   'Yb2 Nb4 Sn6 Ru12'
_cell_volume   400.87317464
_cell_formula_units_Z   2
loop_
 _symmetry_equiv_pos_site_id
 _symmetry_equiv_pos_as_xyz
  1  'x, y, z'
loop_
 _atom_site_type_symbol
 _atom_site_label
 _atom_site_symmetry_multiplicity
 _atom_site_fract_x
 _atom_site_fract_y
 _atom_site_fract_z
 _atom_site_occupancy
  Yb  Yb0  1  0.000002  0.000000  0.999043  1
  Yb  Yb1  1  0.499967  0.500001  0.167622  1
  Nb  Nb2  1  0.999947  0.000000  0.328500  1
  Nb  Nb3  1  0.499997  0.500001  0.497598  1
  Nb  Nb4  1  0.000044  0.000000  0.669085  1
  Nb  Nb5  1  0.500042  0.500001  0.838156  1
  Sn  Sn6  1  0.000000  0.500001  0.003821  1
  Sn  Sn7  1  0.499975  0.000000  0.162843  1
  Sn  Sn8  1  0.999957  0.500001  0.332563  1
  Sn  Sn9  1  0.499994  0.000000  0.502437  1
  Sn  Sn10  1  0.000053  0.500001  0.664252  1
  Sn  Sn11  1  0.500031  0.000000  0.834090  1
  Ru  Ru12  1  0.500011  0.259112  0.991887  1
  Ru  Ru13  1  0.500011  0.740889  0.991887  1
  Ru  Ru14  1  0.999954  0.240908  0.174754  1
  Ru  Ru15  1  0.999954  0.759092  0.174754  1
  Ru  Ru16  1  0.499951  0.242884  0.342525  1
  Ru  Ru17  1  0.499951  0.757115  0.342525  1
  Ru  Ru18  1  0.999991  0.251622  0.502017  1
  Ru  Ru19  1  0.999991  0.748378  0.502017  1
  Ru  Ru20  1  0.500044  0.248373  0.664659  1
  Ru  Ru21  1  0.500044  0.751626  0.664659  1
  Ru  Ru22  1  0.000045  0.257146  0.824155  1
  Ru  Ru23  1  0.000045  0.742854  0.824155  1
