# generated using pymatgen
data_Pu(BeAs)3
_symmetry_space_group_name_H-M   'P 1'
_cell_length_a   3.77744200
_cell_length_b   10.68466400
_cell_length_c   11.60464800
_cell_angle_alpha   90.00000000
_cell_angle_beta   90.00000000
_cell_angle_gamma   90.00000000
_symmetry_Int_Tables_number   1
_chemical_formula_structural   Pu(BeAs)3
_chemical_formula_sum   'Pu4 Be12 As12'
_cell_volume   468.37169970
_cell_formula_units_Z   4
loop_
 _symmetry_equiv_pos_site_id
 _symmetry_equiv_pos_as_xyz
  1  'x, y, z'
loop_
 _atom_site_type_symbol
 _atom_site_label
 _atom_site_symmetry_multiplicity
 _atom_site_fract_x
 _atom_site_fract_y
 _atom_site_fract_z
 _atom_site_occupancy
  Pu  Pu0  1  0.750000  0.945297  0.338182  1
  Pu  Pu1  1  0.250000  0.445297  0.161818  1
  Pu  Pu2  1  0.750000  0.554703  0.838182  1
  Pu  Pu3  1  0.250000  0.054703  0.661818  1
  Be  Be4  1  0.750000  0.239927  0.456712  1
  Be  Be5  1  0.250000  0.739927  0.043288  1
  Be  Be6  1  0.750000  0.260073  0.956712  1
  Be  Be7  1  0.250000  0.760073  0.543288  1
  Be  Be8  1  0.750000  0.643521  0.285430  1
  Be  Be9  1  0.250000  0.143521  0.214570  1
  Be  Be10  1  0.750000  0.856479  0.785430  1
  Be  Be11  1  0.250000  0.356479  0.714570  1
  Be  Be12  1  0.750000  0.038380  0.064826  1
  Be  Be13  1  0.250000  0.538380  0.435174  1
  Be  Be14  1  0.750000  0.461620  0.564826  1
  Be  Be15  1  0.250000  0.961620  0.935174  1
  As  As16  1  0.750000  0.435184  0.368089  1
  As  As17  1  0.250000  0.935184  0.131911  1
  As  As18  1  0.750000  0.064816  0.868089  1
  As  As19  1  0.250000  0.564816  0.631911  1
  As  As20  1  0.750000  0.231418  0.149607  1
  As  As21  1  0.250000  0.731418  0.350393  1
  As  As22  1  0.750000  0.268582  0.649607  1
  As  As23  1  0.250000  0.768582  0.850393  1
  As  As24  1  0.750000  0.634742  0.087495  1
  As  As25  1  0.250000  0.134742  0.412505  1
  As  As26  1  0.750000  0.865258  0.587495  1
  As  As27  1  0.250000  0.365258  0.912505  1
