# generated using pymatgen
data_La4Nd12Cd4TcPd3
_symmetry_space_group_name_H-M   'P 1'
_cell_length_a   10.10964300
_cell_length_b   10.10961022
_cell_length_c   10.10968856
_cell_angle_alpha   59.27244307
_cell_angle_beta   59.27273924
_cell_angle_gamma   59.27258177
_symmetry_Int_Tables_number   1
_chemical_formula_structural   La4Nd12Cd4TcPd3
_chemical_formula_sum   'La4 Nd12 Cd4 Tc1 Pd3'
_cell_volume   718.51899589
_cell_formula_units_Z   1
loop_
 _symmetry_equiv_pos_site_id
 _symmetry_equiv_pos_as_xyz
  1  'x, y, z'
loop_
 _atom_site_type_symbol
 _atom_site_label
 _atom_site_symmetry_multiplicity
 _atom_site_fract_x
 _atom_site_fract_y
 _atom_site_fract_z
 _atom_site_occupancy
  La  La0  1  0.352979  0.352988  0.352983  1
  La  La1  1  0.346592  0.346600  0.951554  1
  La  La2  1  0.346602  0.951532  0.346597  1
  La  La3  1  0.951537  0.346599  0.346617  1
  Nd  Nd4  1  0.817955  0.187810  0.187802  1
  Nd  Nd5  1  0.189126  0.808376  0.808381  1
  Nd  Nd6  1  0.187803  0.817955  0.187807  1
  Nd  Nd7  1  0.808383  0.189128  0.808373  1
  Nd  Nd8  1  0.187808  0.187807  0.817949  1
  Nd  Nd9  1  0.808377  0.808381  0.189124  1
  Nd  Nd10  1  0.933719  0.565719  0.565726  1
  Nd  Nd11  1  0.557572  0.936944  0.936935  1
  Nd  Nd12  1  0.565725  0.933724  0.565714  1
  Nd  Nd13  1  0.936941  0.557572  0.936942  1
  Nd  Nd14  1  0.565732  0.565723  0.933702  1
  Nd  Nd15  1  0.936937  0.936937  0.557570  1
  Cd  Cd16  1  0.580068  0.580066  0.580065  1
  Cd  Cd17  1  0.580576  0.580573  0.256238  1
  Cd  Cd18  1  0.580570  0.256239  0.580581  1
  Cd  Cd19  1  0.256240  0.580572  0.580576  1
  Tc  Tc20  1  0.144282  0.144288  0.144291  1
  Pd  Pd21  1  0.145663  0.145653  0.573154  1
  Pd  Pd22  1  0.145657  0.573157  0.145663  1
  Pd  Pd23  1  0.573159  0.145657  0.145658  1
