# generated using pymatgen
data_Sm6Mn5P12Rh13
_symmetry_space_group_name_H-M   'P 1'
_cell_length_a   3.91404900
_cell_length_b   11.18424323
_cell_length_c   12.78118441
_cell_angle_alpha   90.08544945
_cell_angle_beta   90.00000000
_cell_angle_gamma   90.00000000
_symmetry_Int_Tables_number   1
_chemical_formula_structural   Sm6Mn5P12Rh13
_chemical_formula_sum   'Sm6 Mn5 P12 Rh13'
_cell_volume   559.50436617
_cell_formula_units_Z   1
loop_
 _symmetry_equiv_pos_site_id
 _symmetry_equiv_pos_as_xyz
  1  'x, y, z'
loop_
 _atom_site_type_symbol
 _atom_site_label
 _atom_site_symmetry_multiplicity
 _atom_site_fract_x
 _atom_site_fract_y
 _atom_site_fract_z
 _atom_site_occupancy
  Sm  Sm0  1  0.000000  0.501135  0.516998  1
  Sm  Sm1  1  0.500000  0.999140  0.483060  1
  Sm  Sm2  1  0.500000  0.820701  0.199469  1
  Sm  Sm3  1  0.500000  0.180123  0.201878  1
  Sm  Sm4  1  0.000000  0.677737  0.799121  1
  Sm  Sm5  1  0.000000  0.320938  0.796661  1
  Mn  Mn6  1  0.500000  0.489054  0.157787  1
  Mn  Mn7  1  0.000000  0.003131  0.843437  1
  Mn  Mn8  1  0.000000  0.495228  0.988469  1
  Mn  Mn9  1  0.500000  0.002193  0.009955  1
  Mn  Mn10  1  0.500000  0.336784  0.998824  1
  P  P11  1  0.500000  0.495592  0.885595  1
  P  P12  1  0.000000  0.001852  0.112331  1
  P  P13  1  0.500000  0.501531  0.341579  1
  P  P14  1  0.000000  0.999691  0.658754  1
  P  P15  1  0.500000  0.311441  0.617903  1
  P  P16  1  0.500000  0.688675  0.618120  1
  P  P17  1  0.000000  0.188122  0.381654  1
  P  P18  1  0.000000  0.812726  0.380596  1
  P  P19  1  0.500000  0.849944  0.896135  1
  P  P20  1  0.500000  0.154928  0.895902  1
  P  P21  1  0.000000  0.647636  0.103519  1
  P  P22  1  0.000000  0.350740  0.107622  1
  Rh  Rh23  1  0.500000  0.500000  0.699329  1
  Rh  Rh24  1  0.000000  0.000763  0.298089  1
  Rh  Rh25  1  0.500000  0.662535  0.998182  1
  Rh  Rh26  1  0.000000  0.172104  0.004200  1
  Rh  Rh27  1  0.000000  0.834712  0.002125  1
  Rh  Rh28  1  0.500000  0.292653  0.431156  1
  Rh  Rh29  1  0.500000  0.707458  0.429654  1
  Rh  Rh30  1  0.000000  0.206129  0.569715  1
  Rh  Rh31  1  0.000000  0.793723  0.569476  1
  Rh  Rh32  1  0.500000  0.874581  0.713404  1
  Rh  Rh33  1  0.500000  0.124730  0.712623  1
  Rh  Rh34  1  0.000000  0.625386  0.286282  1
  Rh  Rh35  1  0.000000  0.376183  0.290398  1
