# generated using pymatgen
data_Ho4Lu2Si24Os5Ru3
_symmetry_space_group_name_H-M   'P 1'
_cell_length_a   10.09852714
_cell_length_b   10.09852767
_cell_length_c   8.13334003
_cell_angle_alpha   90.00163905
_cell_angle_beta   90.00163228
_cell_angle_gamma   132.49132204
_symmetry_Int_Tables_number   1
_chemical_formula_structural   Ho4Lu2Si24Os5Ru3
_chemical_formula_sum   'Ho4 Lu2 Si24 Os5 Ru3'
_cell_volume   611.61224902
_cell_formula_units_Z   1
loop_
 _symmetry_equiv_pos_site_id
 _symmetry_equiv_pos_as_xyz
  1  'x, y, z'
loop_
 _atom_site_type_symbol
 _atom_site_label
 _atom_site_symmetry_multiplicity
 _atom_site_fract_x
 _atom_site_fract_y
 _atom_site_fract_z
 _atom_site_occupancy
  Ho  Ho0  1  0.501698  0.001629  0.749497  1
  Ho  Ho1  1  0.998232  0.498314  0.250521  1
  Ho  Ho2  1  0.498314  0.998232  0.250521  1
  Ho  Ho3  1  0.001629  0.501698  0.749497  1
  Lu  Lu4  1  0.499474  0.499474  0.500096  1
  Lu  Lu5  1  0.000001  0.000001  0.999361  1
  Si  Si6  1  0.795660  0.204554  0.500214  1
  Si  Si7  1  0.295911  0.704054  0.000238  1
  Si  Si8  1  0.204554  0.795660  0.500214  1
  Si  Si9  1  0.704054  0.295911  0.000238  1
  Si  Si10  1  0.332904  0.332904  0.833357  1
  Si  Si11  1  0.667764  0.667764  0.167209  1
  Si  Si12  1  0.166642  0.166642  0.331194  1
  Si  Si13  1  0.830779  0.830779  0.666066  1
  Si  Si14  1  0.120576  0.886588  0.728226  1
  Si  Si15  1  0.113748  0.880450  0.271904  1
  Si  Si16  1  0.610965  0.378305  0.228669  1
  Si  Si17  1  0.622361  0.389122  0.771621  1
  Si  Si18  1  0.880450  0.113748  0.271904  1
  Si  Si19  1  0.886588  0.120576  0.728226  1
  Si  Si20  1  0.389122  0.622361  0.771621  1
  Si  Si21  1  0.378305  0.610965  0.228669  1
  Si  Si22  1  0.345202  0.111920  0.503904  1
  Si  Si23  1  0.887862  0.655236  0.496466  1
  Si  Si24  1  0.387695  0.154892  0.005920  1
  Si  Si25  1  0.845049  0.612786  0.994520  1
  Si  Si26  1  0.655236  0.887862  0.496466  1
  Si  Si27  1  0.111920  0.345202  0.503904  1
  Si  Si28  1  0.612786  0.845049  0.994520  1
  Si  Si29  1  0.154892  0.387695  0.005920  1
  Os  Os30  1  0.669150  0.330889  0.499944  1
  Os  Os31  1  0.169520  0.830293  0.000033  1
  Os  Os32  1  0.330889  0.669150  0.499944  1
  Os  Os33  1  0.830293  0.169520  0.000033  1
  Os  Os34  1  0.126545  0.126545  0.627237  1
  Ru  Ru35  1  0.873408  0.873408  0.372419  1
  Ru  Ru36  1  0.372358  0.372358  0.128058  1
  Ru  Ru37  1  0.627461  0.627461  0.871648  1
