# generated using pymatgen
data_Yb8Si10Ni17Ru
_symmetry_space_group_name_H-M   'P 1'
_cell_length_a   5.22881827
_cell_length_b   5.22881790
_cell_length_c   21.96236600
_cell_angle_alpha   89.91124265
_cell_angle_beta   90.08875734
_cell_angle_gamma   120.41749504
_symmetry_Int_Tables_number   1
_chemical_formula_structural   Yb8Si10Ni17Ru
_chemical_formula_sum   'Yb8 Si10 Ni17 Ru1'
_cell_volume   517.81384269
_cell_formula_units_Z   1
loop_
 _symmetry_equiv_pos_site_id
 _symmetry_equiv_pos_as_xyz
  1  'x, y, z'
loop_
 _atom_site_type_symbol
 _atom_site_label
 _atom_site_symmetry_multiplicity
 _atom_site_fract_x
 _atom_site_fract_y
 _atom_site_fract_z
 _atom_site_occupancy
  Yb  Yb0  1  0.331528  0.668472  0.529236  1
  Yb  Yb1  1  0.665081  0.334919  0.472442  1
  Yb  Yb2  1  0.666880  0.333120  0.028007  1
  Yb  Yb3  1  0.333158  0.666842  0.971481  1
  Yb  Yb4  1  0.333356  0.666644  0.674143  1
  Yb  Yb5  1  0.668247  0.331753  0.329115  1
  Yb  Yb6  1  0.667351  0.332649  0.173824  1
  Yb  Yb7  1  0.333672  0.666328  0.827108  1
  Si  Si8  1  0.000057  0.999943  0.999932  1
  Si  Si9  1  0.998937  0.001063  0.500779  1
  Si  Si10  1  0.333858  0.666142  0.165646  1
  Si  Si11  1  0.665305  0.334695  0.833677  1
  Si  Si12  1  0.667743  0.332257  0.667587  1
  Si  Si13  1  0.339909  0.660091  0.330642  1
  Si  Si14  1  0.000632  0.999368  0.167721  1
  Si  Si15  1  0.002326  0.997674  0.831163  1
  Si  Si16  1  0.999426  0.000574  0.669882  1
  Si  Si17  1  0.998169  0.001831  0.329169  1
  Ni  Ni18  1  0.166242  0.331481  0.086589  1
  Ni  Ni19  1  0.834112  0.668705  0.912922  1
  Ni  Ni20  1  0.668519  0.833758  0.086589  1
  Ni  Ni21  1  0.832519  0.669261  0.588586  1
  Ni  Ni22  1  0.331295  0.165888  0.912922  1
  Ni  Ni23  1  0.161046  0.334881  0.413114  1
  Ni  Ni24  1  0.165795  0.834205  0.086939  1
  Ni  Ni25  1  0.330739  0.167481  0.588586  1
  Ni  Ni26  1  0.834997  0.165003  0.911892  1
  Ni  Ni27  1  0.665119  0.838954  0.413114  1
  Ni  Ni28  1  0.834279  0.165721  0.588196  1
  Ni  Ni29  1  0.169536  0.334420  0.248262  1
  Ni  Ni30  1  0.832599  0.663297  0.750381  1
  Ni  Ni31  1  0.665580  0.830464  0.248262  1
  Ni  Ni32  1  0.336703  0.167401  0.750381  1
  Ni  Ni33  1  0.169207  0.830793  0.248904  1
  Ni  Ni34  1  0.832098  0.167902  0.751258  1
  Ru  Ru35  1  0.163982  0.836018  0.411545  1
