# generated using pymatgen
data_La11Ho(Si2Ni)4
_symmetry_space_group_name_H-M   'P 1'
_cell_length_a   4.27446600
_cell_length_b   11.68864653
_cell_length_c   11.80422943
_cell_angle_alpha   90.23552311
_cell_angle_beta   90.00000000
_cell_angle_gamma   90.00000000
_symmetry_Int_Tables_number   1
_chemical_formula_structural   La11Ho(Si2Ni)4
_chemical_formula_sum   'La11 Ho1 Si8 Ni4'
_cell_volume   589.76645256
_cell_formula_units_Z   1
loop_
 _symmetry_equiv_pos_site_id
 _symmetry_equiv_pos_as_xyz
  1  'x, y, z'
loop_
 _atom_site_type_symbol
 _atom_site_label
 _atom_site_symmetry_multiplicity
 _atom_site_fract_x
 _atom_site_fract_y
 _atom_site_fract_z
 _atom_site_occupancy
  La  La0  1  0.250000  0.375893  0.558093  1
  La  La1  1  0.750000  0.559489  0.116807  1
  La  La2  1  0.750000  0.197798  0.787907  1
  La  La3  1  0.250000  0.698059  0.711488  1
  La  La4  1  0.750000  0.622766  0.441384  1
  La  La5  1  0.750000  0.877532  0.941656  1
  La  La6  1  0.250000  0.802994  0.211844  1
  La  La7  1  0.250000  0.440407  0.882790  1
  La  La8  1  0.750000  0.301389  0.288041  1
  La  La9  1  0.250000  0.123139  0.059528  1
  La  La10  1  0.750000  0.940139  0.616746  1
  Ho  Ho11  1  0.250000  0.057576  0.384567  1
  Si  Si12  1  0.250000  0.491358  0.300581  1
  Si  Si13  1  0.250000  0.814906  0.469475  1
  Si  Si14  1  0.250000  0.686470  0.969905  1
  Si  Si15  1  0.750000  0.993827  0.202658  1
  Si  Si16  1  0.750000  0.508535  0.699305  1
  Si  Si17  1  0.250000  0.008572  0.800472  1
  Si  Si18  1  0.750000  0.184219  0.528221  1
  Si  Si19  1  0.750000  0.313453  0.029814  1
  Ni  Ni20  1  0.250000  0.134405  0.628491  1
  Ni  Ni21  1  0.750000  0.866148  0.370947  1
  Ni  Ni22  1  0.250000  0.365528  0.128922  1
  Ni  Ni23  1  0.750000  0.635394  0.870359  1
