# generated using pymatgen
data_Pr3Nd3Al21Si3Os8
_symmetry_space_group_name_H-M   'P 1'
_cell_length_a   8.84422728
_cell_length_b   8.84111326
_cell_length_c   9.72858306
_cell_angle_alpha   90.00941865
_cell_angle_beta   89.98833849
_cell_angle_gamma   120.03826263
_symmetry_Int_Tables_number   1
_chemical_formula_structural   Pr3Nd3Al21Si3Os8
_chemical_formula_sum   'Pr3 Nd3 Al21 Si3 Os8'
_cell_volume   658.53594619
_cell_formula_units_Z   1
loop_
 _symmetry_equiv_pos_site_id
 _symmetry_equiv_pos_as_xyz
  1  'x, y, z'
loop_
 _atom_site_type_symbol
 _atom_site_label
 _atom_site_symmetry_multiplicity
 _atom_site_fract_x
 _atom_site_fract_y
 _atom_site_fract_z
 _atom_site_occupancy
  Pr  Pr0  1  0.192699  0.385421  0.247354  1
  Pr  Pr1  1  0.806174  0.612418  0.753060  1
  Pr  Pr2  1  0.614576  0.807253  0.247381  1
  Nd  Nd3  1  0.388130  0.194058  0.753062  1
  Nd  Nd4  1  0.192752  0.807174  0.247135  1
  Nd  Nd5  1  0.805892  0.194036  0.753052  1
  Al  Al6  1  0.333145  0.666809  0.488598  1
  Al  Al7  1  0.163525  0.327051  0.571977  1
  Al  Al8  1  0.836021  0.671469  0.425806  1
  Al  Al9  1  0.672887  0.836756  0.571892  1
  Al  Al10  1  0.835943  0.671275  0.074301  1
  Al  Al11  1  0.328503  0.163911  0.426135  1
  Al  Al12  1  0.164293  0.328632  0.925732  1
  Al  Al13  1  0.163851  0.836770  0.571546  1
  Al  Al14  1  0.328703  0.164013  0.073937  1
  Al  Al15  1  0.835654  0.164239  0.426232  1
  Al  Al16  1  0.671278  0.835985  0.925837  1
  Al  Al17  1  0.835554  0.164374  0.073841  1
  Al  Al18  1  0.164662  0.835987  0.926163  1
  Al  Al19  1  0.564244  0.129080  0.248594  1
  Al  Al20  1  0.436298  0.872619  0.748627  1
  Al  Al21  1  0.870910  0.435739  0.248601  1
  Al  Al22  1  0.127857  0.563646  0.748636  1
  Al  Al23  1  0.564756  0.435224  0.248579  1
  Al  Al24  1  0.435781  0.563624  0.748660  1
  Al  Al25  1  0.000335  0.999606  0.249190  1
  Al  Al26  1  0.000303  0.000631  0.749739  1
  Si  Si27  1  0.333033  0.666930  0.025289  1
  Si  Si28  1  0.666328  0.332728  0.973266  1
  Si  Si29  1  0.666394  0.332804  0.528386  1
  Os  Os30  1  0.499232  0.998911  0.998936  1
  Os  Os31  1  0.001215  0.500594  0.999097  1
  Os  Os32  1  0.504158  0.008708  0.501235  1
  Os  Os33  1  0.499194  0.500328  0.998989  1
  Os  Os34  1  0.991319  0.495633  0.501070  1
  Os  Os35  1  0.504158  0.495395  0.501227  1
  Os  Os36  1  0.000130  0.000101  0.999410  1
  Os  Os37  1  0.000115  0.000064  0.499420  1
