# generated using pymatgen
data_Nd4In2Ni2Sn3
_symmetry_space_group_name_H-M   'P 1'
_cell_length_a   7.45974883
_cell_length_b   7.45974779
_cell_length_c   10.96888204
_cell_angle_alpha   53.68179721
_cell_angle_beta   53.68180421
_cell_angle_gamma   35.77101701
_symmetry_Int_Tables_number   1
_chemical_formula_structural   Nd4In2Ni2Sn3
_chemical_formula_sum   'Nd4 In2 Ni2 Sn3'
_cell_volume   279.28606463
_cell_formula_units_Z   1
loop_
 _symmetry_equiv_pos_site_id
 _symmetry_equiv_pos_as_xyz
  1  'x, y, z'
loop_
 _atom_site_type_symbol
 _atom_site_label
 _atom_site_symmetry_multiplicity
 _atom_site_fract_x
 _atom_site_fract_y
 _atom_site_fract_z
 _atom_site_occupancy
  Nd  Nd0  1  0.938686  0.938686  0.719137  1
  Nd  Nd1  1  0.061397  0.061397  0.281914  1
  Nd  Nd2  1  0.328078  0.328078  0.288917  1
  Nd  Nd3  1  0.669656  0.669656  0.712947  1
  In  In4  1  0.646744  0.646744  0.025748  1
  In  In5  1  0.001522  0.001522  0.002650  1
  Ni  Ni6  1  0.770037  0.770037  0.139850  1
  Ni  Ni7  1  0.233850  0.233850  0.854877  1
  Sn  Sn8  1  0.349260  0.349260  0.976546  1
  Sn  Sn9  1  0.626763  0.626763  0.445768  1
  Sn  Sn10  1  0.374006  0.374006  0.551646  1
