# generated using pymatgen
data_Yb8ThRh6
_symmetry_space_group_name_H-M   'P 1'
_cell_length_a   7.31414738
_cell_length_b   7.37408129
_cell_length_c   7.41056101
_cell_angle_alpha   71.44567752
_cell_angle_beta   71.21545044
_cell_angle_gamma   71.10398278
_symmetry_Int_Tables_number   1
_chemical_formula_structural   Yb8ThRh6
_chemical_formula_sum   'Yb8 Th1 Rh6'
_cell_volume   347.64776128
_cell_formula_units_Z   1
loop_
 _symmetry_equiv_pos_site_id
 _symmetry_equiv_pos_as_xyz
  1  'x, y, z'
loop_
 _atom_site_type_symbol
 _atom_site_label
 _atom_site_symmetry_multiplicity
 _atom_site_fract_x
 _atom_site_fract_y
 _atom_site_fract_z
 _atom_site_occupancy
  Yb  Yb0  1  0.990020  0.008731  0.997986  1
  Yb  Yb1  1  0.198686  0.200096  0.200623  1
  Yb  Yb2  1  0.855619  0.595209  0.328325  1
  Yb  Yb3  1  0.672401  0.150716  0.401509  1
  Yb  Yb4  1  0.329444  0.849521  0.600643  1
  Yb  Yb5  1  0.144788  0.399275  0.677316  1
  Yb  Yb6  1  0.810639  0.807024  0.791668  1
  Yb  Yb7  1  0.597425  0.325075  0.845822  1
  Th  Th8  1  0.401911  0.678744  0.140601  1
  Rh  Rh9  1  0.805858  0.431903  0.052463  1
  Rh  Rh10  1  0.585561  0.937785  0.172850  1
  Rh  Rh11  1  0.065865  0.827821  0.401760  1
  Rh  Rh12  1  0.955405  0.163551  0.586065  1
  Rh  Rh13  1  0.410348  0.038827  0.842569  1
  Rh  Rh14  1  0.176031  0.585722  0.959799  1
