# generated using pymatgen
data_NdFe2GeP
_symmetry_space_group_name_H-M   'P 1'
_cell_length_a   5.75589462
_cell_length_b   5.75589456
_cell_length_c   5.75589407
_cell_angle_alpha   139.69558911
_cell_angle_beta   139.69560333
_cell_angle_gamma   58.31577795
_symmetry_Int_Tables_number   1
_chemical_formula_structural   NdFe2GeP
_chemical_formula_sum   'Nd1 Fe2 Ge1 P1'
_cell_volume   79.06218771
_cell_formula_units_Z   1
loop_
 _symmetry_equiv_pos_site_id
 _symmetry_equiv_pos_as_xyz
  1  'x, y, z'
loop_
 _atom_site_type_symbol
 _atom_site_label
 _atom_site_symmetry_multiplicity
 _atom_site_fract_x
 _atom_site_fract_y
 _atom_site_fract_z
 _atom_site_occupancy
  Nd  Nd0  1  0.003130  0.003130  0.000000  1
  Fe  Fe1  1  0.742400  0.242400  0.500000  1
  Fe  Fe2  1  0.242400  0.742400  0.500000  1
  Ge  Ge3  1  0.367323  0.367323  0.000000  1
  P  P4  1  0.644747  0.644747  0.000000  1
