# generated using pymatgen
data_Nd5Sm3(Cd3Au10)2
_symmetry_space_group_name_H-M   'P 1'
_cell_length_a   8.74422709
_cell_length_b   8.74420779
_cell_length_c   10.41060900
_cell_angle_alpha   89.95914562
_cell_angle_beta   89.96041032
_cell_angle_gamma   108.24561643
_symmetry_Int_Tables_number   1
_chemical_formula_structural   Nd5Sm3(Cd3Au10)2
_chemical_formula_sum   'Nd5 Sm3 Cd6 Au20'
_cell_volume   755.98767365
_cell_formula_units_Z   1
loop_
 _symmetry_equiv_pos_site_id
 _symmetry_equiv_pos_as_xyz
  1  'x, y, z'
loop_
 _atom_site_type_symbol
 _atom_site_label
 _atom_site_symmetry_multiplicity
 _atom_site_fract_x
 _atom_site_fract_y
 _atom_site_fract_z
 _atom_site_occupancy
  Nd  Nd0  1  0.201192  0.798814  0.499996  1
  Nd  Nd1  1  0.303139  0.302443  0.205659  1
  Nd  Nd2  1  0.697556  0.696858  0.794342  1
  Nd  Nd3  1  0.197443  0.197281  0.706414  1
  Nd  Nd4  1  0.802721  0.802548  0.293585  1
  Sm  Sm5  1  0.700571  0.299434  0.000005  1
  Sm  Sm6  1  0.299660  0.700344  0.000002  1
  Sm  Sm7  1  0.799059  0.200940  0.499998  1
  Cd  Cd8  1  0.020655  0.519755  0.250242  1
  Cd  Cd9  1  0.980066  0.480260  0.749519  1
  Cd  Cd10  1  0.480235  0.979346  0.749751  1
  Cd  Cd11  1  0.519742  0.019936  0.250481  1
  Cd  Cd12  1  0.999284  0.000718  0.999994  1
  Cd  Cd13  1  0.499244  0.500752  0.500006  1
  Au  Au14  1  0.097272  0.098163  0.405713  1
  Au  Au15  1  0.901834  0.902727  0.594288  1
  Au  Au16  1  0.401450  0.400785  0.907371  1
  Au  Au17  1  0.599213  0.598550  0.092624  1
  Au  Au18  1  0.883605  0.167009  0.210695  1
  Au  Au19  1  0.114840  0.833170  0.790929  1
  Au  Au20  1  0.614956  0.332450  0.711178  1
  Au  Au21  1  0.667547  0.385051  0.288830  1
  Au  Au22  1  0.385961  0.666513  0.287796  1
  Au  Au23  1  0.333485  0.614039  0.712211  1
  Au  Au24  1  0.832980  0.116396  0.789300  1
  Au  Au25  1  0.166833  0.885161  0.209068  1
  Au  Au26  1  0.932552  0.652773  0.015204  1
  Au  Au27  1  0.067789  0.347828  0.985389  1
  Au  Au28  1  0.570027  0.847461  0.514394  1
  Au  Au29  1  0.152534  0.429975  0.485608  1
  Au  Au30  1  0.432533  0.155391  0.484850  1
  Au  Au31  1  0.844611  0.567468  0.515152  1
  Au  Au32  1  0.347238  0.067447  0.984800  1
  Au  Au33  1  0.652170  0.932214  0.014607  1
