# generated using pymatgen
data_AlCo3(BiO4)4
_symmetry_space_group_name_H-M   'P 1'
_cell_length_a   4.76663643
_cell_length_b   4.97228680
_cell_length_c   11.74216400
_cell_angle_alpha   90.00000000
_cell_angle_beta   90.00000000
_cell_angle_gamma   89.86040055
_symmetry_Int_Tables_number   1
_chemical_formula_structural   AlCo3(BiO4)4
_chemical_formula_sum   'Al1 Co3 Bi4 O16'
_cell_volume   278.30118239
_cell_formula_units_Z   1
loop_
 _symmetry_equiv_pos_site_id
 _symmetry_equiv_pos_as_xyz
  1  'x, y, z'
loop_
 _atom_site_type_symbol
 _atom_site_label
 _atom_site_symmetry_multiplicity
 _atom_site_fract_x
 _atom_site_fract_y
 _atom_site_fract_z
 _atom_site_occupancy
  Al  Al0  1  0.500000  0.250000  0.935793  1
  Co  Co1  1  0.000000  0.250000  0.435733  1
  Co  Co2  1  0.000000  0.750000  0.564407  1
  Co  Co3  1  0.500000  0.750000  0.065213  1
  Bi  Bi4  1  0.000000  0.250000  0.163594  1
  Bi  Bi5  1  0.000000  0.750000  0.836326  1
  Bi  Bi6  1  0.500000  0.250000  0.663821  1
  Bi  Bi7  1  0.500000  0.750000  0.336710  1
  O  O8  1  0.223880  0.110239  0.317625  1
  O  O9  1  0.225123  0.609752  0.682280  1
  O  O10  1  0.223719  0.554976  0.458396  1
  O  O11  1  0.223894  0.054650  0.541565  1
  O  O12  1  0.278300  0.061326  0.045065  1
  O  O13  1  0.276012  0.560497  0.955691  1
  O  O14  1  0.273961  0.610202  0.182386  1
  O  O15  1  0.278416  0.102037  0.816193  1
  O  O16  1  0.726039  0.889798  0.182386  1
  O  O17  1  0.721584  0.397963  0.816193  1
  O  O18  1  0.721700  0.438674  0.045065  1
  O  O19  1  0.723988  0.939503  0.955691  1
  O  O20  1  0.776281  0.945024  0.458396  1
  O  O21  1  0.776106  0.445350  0.541565  1
  O  O22  1  0.776120  0.389761  0.317625  1
  O  O23  1  0.774877  0.890248  0.682280  1
