# generated using pymatgen
data_Ce(AlB14)2
_symmetry_space_group_name_H-M   'P 1'
_cell_length_a   7.25157358
_cell_length_b   7.25157286
_cell_length_c   5.81234011
_cell_angle_alpha   66.66805056
_cell_angle_beta   66.66804826
_cell_angle_gamma   92.74121678
_symmetry_Int_Tables_number   1
_chemical_formula_structural   Ce(AlB14)2
_chemical_formula_sum   'Ce1 Al2 B28'
_cell_volume   249.99073163
_cell_formula_units_Z   1
loop_
 _symmetry_equiv_pos_site_id
 _symmetry_equiv_pos_as_xyz
  1  'x, y, z'
loop_
 _atom_site_type_symbol
 _atom_site_label
 _atom_site_symmetry_multiplicity
 _atom_site_fract_x
 _atom_site_fract_y
 _atom_site_fract_z
 _atom_site_occupancy
  Ce  Ce0  1  0.895106  0.895106  0.368773  1
  Al  Al1  1  0.497446  0.497446  0.502942  1
  Al  Al2  1  0.149849  0.149849  0.511749  1
  B  B3  1  0.418214  0.736222  0.170235  1
  B  B4  1  0.581777  0.257708  0.835204  1
  B  B5  1  0.257708  0.581777  0.835204  1
  B  B6  1  0.736222  0.418214  0.170235  1
  B  B7  1  0.696524  0.863469  0.968572  1
  B  B8  1  0.305255  0.133856  0.036185  1
  B  B9  1  0.133856  0.305255  0.036185  1
  B  B10  1  0.863469  0.696524  0.968572  1
  B  B11  1  0.535360  0.873210  0.297237  1
  B  B12  1  0.470358  0.123702  0.206005  1
  B  B13  1  0.123702  0.470358  0.206005  1
  B  B14  1  0.873210  0.535360  0.297237  1
  B  B15  1  0.461345  0.121821  0.710908  1
  B  B16  1  0.531715  0.872163  0.800089  1
  B  B17  1  0.872163  0.531715  0.800089  1
  B  B18  1  0.121821  0.461345  0.710908  1
  B  B19  1  0.721892  0.102085  0.999076  1
  B  B20  1  0.283268  0.891857  0.324624  1
  B  B21  1  0.891857  0.283268  0.324624  1
  B  B22  1  0.102085  0.721892  0.999076  1
  B  B23  1  0.278765  0.895066  0.007288  1
  B  B24  1  0.718013  0.104202  0.683331  1
  B  B25  1  0.104202  0.718013  0.683331  1
  B  B26  1  0.895066  0.278765  0.007288  1
  B  B27  1  0.272103  0.470460  0.378376  1
  B  B28  1  0.715190  0.522000  0.641136  1
  B  B29  1  0.522000  0.715190  0.641136  1
  B  B30  1  0.470460  0.272103  0.378376  1
