# generated using pymatgen
data_TbNd7InAgIr2
_symmetry_space_group_name_H-M   'P 1'
_cell_length_a   9.90083857
_cell_length_b   9.86385417
_cell_length_c   9.86385329
_cell_angle_alpha   60.31623595
_cell_angle_beta   60.37409011
_cell_angle_gamma   60.37409035
_symmetry_Int_Tables_number   1
_chemical_formula_structural   TbNd7InAgIr2
_chemical_formula_sum   'Tb2 Nd14 In2 Ag2 Ir4'
_cell_volume   686.62834596
_cell_formula_units_Z   2
loop_
 _symmetry_equiv_pos_site_id
 _symmetry_equiv_pos_as_xyz
  1  'x, y, z'
loop_
 _atom_site_type_symbol
 _atom_site_label
 _atom_site_symmetry_multiplicity
 _atom_site_fract_x
 _atom_site_fract_y
 _atom_site_fract_z
 _atom_site_occupancy
  Tb  Tb0  1  0.702104  0.098285  0.098285  1
  Tb  Tb1  1  0.555942  0.944377  0.944377  1
  Nd  Nd2  1  0.099849  0.701558  0.099524  1
  Nd  Nd3  1  0.940391  0.939512  0.560235  1
  Nd  Nd4  1  0.940391  0.560235  0.939512  1
  Nd  Nd5  1  0.315386  0.686394  0.308717  1
  Nd  Nd6  1  0.939349  0.559186  0.559186  1
  Nd  Nd7  1  0.315386  0.308717  0.686394  1
  Nd  Nd8  1  0.098631  0.098681  0.098681  1
  Nd  Nd9  1  0.557191  0.559859  0.941297  1
  Nd  Nd10  1  0.099849  0.099524  0.701558  1
  Nd  Nd11  1  0.693562  0.305611  0.689596  1
  Nd  Nd12  1  0.693562  0.689596  0.305611  1
  Nd  Nd13  1  0.693923  0.307845  0.307845  1
  Nd  Nd14  1  0.312901  0.688016  0.688016  1
  Nd  Nd15  1  0.557191  0.941297  0.559859  1
  In  In16  1  0.329822  0.011935  0.330421  1
  In  In17  1  0.329822  0.330421  0.011935  1
  Ag  Ag18  1  0.333570  0.329931  0.329931  1
  Ag  Ag19  1  0.005643  0.331296  0.331296  1
  Ir  Ir20  1  0.882859  0.895834  0.895834  1
  Ir  Ir21  1  0.887643  0.894478  0.323627  1
  Ir  Ir22  1  0.327389  0.893785  0.893785  1
  Ir  Ir23  1  0.887643  0.323627  0.894478  1
