# generated using pymatgen
data_Ho3Lu3Al14(Si5Ru4)2
_symmetry_space_group_name_H-M   'P 1'
_cell_length_a   8.65000975
_cell_length_b   8.65248213
_cell_length_c   9.29569100
_cell_angle_alpha   90.00000000
_cell_angle_beta   90.00000000
_cell_angle_gamma   120.03957987
_symmetry_Int_Tables_number   1
_chemical_formula_structural   Ho3Lu3Al14(Si5Ru4)2
_chemical_formula_sum   'Ho3 Lu3 Al14 Si10 Ru8'
_cell_volume   602.27698732
_cell_formula_units_Z   1
loop_
 _symmetry_equiv_pos_site_id
 _symmetry_equiv_pos_as_xyz
  1  'x, y, z'
loop_
 _atom_site_type_symbol
 _atom_site_label
 _atom_site_symmetry_multiplicity
 _atom_site_fract_x
 _atom_site_fract_y
 _atom_site_fract_z
 _atom_site_occupancy
  Ho  Ho0  1  0.618045  0.808533  0.250000  1
  Ho  Ho1  1  0.806777  0.614016  0.750000  1
  Ho  Ho2  1  0.191159  0.383063  0.250000  1
  Lu  Lu3  1  0.808055  0.197031  0.750000  1
  Lu  Lu4  1  0.194955  0.803602  0.250000  1
  Lu  Lu5  1  0.388769  0.196871  0.750000  1
  Al  Al6  1  0.833282  0.167010  0.420740  1
  Al  Al7  1  0.164348  0.837821  0.581069  1
  Al  Al8  1  0.329139  0.164027  0.419143  1
  Al  Al9  1  0.164348  0.837821  0.918931  1
  Al  Al10  1  0.671083  0.836976  0.581314  1
  Al  Al11  1  0.833282  0.167010  0.079260  1
  Al  Al12  1  0.835261  0.668951  0.419561  1
  Al  Al13  1  0.671083  0.836976  0.918686  1
  Al  Al14  1  0.163908  0.327901  0.581726  1
  Al  Al15  1  0.329139  0.164027  0.080857  1
  Al  Al16  1  0.163908  0.327901  0.918274  1
  Al  Al17  1  0.835261  0.668951  0.080439  1
  Al  Al18  1  0.435226  0.872100  0.750000  1
  Al  Al19  1  0.001934  0.003047  0.750000  1
  Si  Si20  1  0.665436  0.331448  0.956401  1
  Si  Si21  1  0.334661  0.668263  0.041415  1
  Si  Si22  1  0.334661  0.668263  0.458585  1
  Si  Si23  1  0.665436  0.331448  0.543599  1
  Si  Si24  1  0.435338  0.560456  0.750000  1
  Si  Si25  1  0.562745  0.435296  0.250000  1
  Si  Si26  1  0.126019  0.561102  0.750000  1
  Si  Si27  1  0.876900  0.438997  0.250000  1
  Si  Si28  1  0.560305  0.124514  0.250000  1
  Si  Si29  1  0.007557  0.994636  0.250000  1
  Ru  Ru30  1  0.500140  0.497856  0.000399  1
  Ru  Ru31  1  0.999742  0.500116  0.000574  1
  Ru  Ru32  1  0.500140  0.497856  0.499601  1
  Ru  Ru33  1  0.499562  0.001407  0.005734  1
  Ru  Ru34  1  0.999742  0.500116  0.499426  1
  Ru  Ru35  1  0.499562  0.001407  0.494266  1
  Ru  Ru36  1  0.996544  0.001591  0.007090  1
  Ru  Ru37  1  0.996544  0.001591  0.492910  1
