# generated using pymatgen
data_Hf6CoBiTe
_symmetry_space_group_name_H-M   'P 1'
_cell_length_a   7.82058000
_cell_length_b   7.82057954
_cell_length_c   3.59428600
_cell_angle_alpha   90.00000000
_cell_angle_beta   90.00000000
_cell_angle_gamma   119.99999348
_symmetry_Int_Tables_number   1
_chemical_formula_structural   Hf6CoBiTe
_chemical_formula_sum   'Hf6 Co1 Bi1 Te1'
_cell_volume   190.37994278
_cell_formula_units_Z   1
loop_
 _symmetry_equiv_pos_site_id
 _symmetry_equiv_pos_as_xyz
  1  'x, y, z'
loop_
 _atom_site_type_symbol
 _atom_site_label
 _atom_site_symmetry_multiplicity
 _atom_site_fract_x
 _atom_site_fract_y
 _atom_site_fract_z
 _atom_site_occupancy
  Hf  Hf0  1  0.602288  0.991986  0.500000  1
  Hf  Hf1  1  0.389698  0.397712  0.500000  1
  Hf  Hf2  1  0.008014  0.610302  0.500000  1
  Hf  Hf3  1  0.236276  0.999753  0.000000  1
  Hf  Hf4  1  0.763477  0.763724  0.000000  1
  Hf  Hf5  1  0.000247  0.236523  0.000000  1
  Co  Co6  1  0.000000  0.000000  0.500000  1
  Bi  Bi7  1  0.666667  0.333333  0.000000  1
  Te  Te8  1  0.333333  0.666667  0.000000  1
