# generated using pymatgen
data_Rb12Li4Si15Sn
_symmetry_space_group_name_H-M   'P 1'
_cell_length_a   7.94024856
_cell_length_b   9.97307900
_cell_length_c   12.98389806
_cell_angle_alpha   90.00000000
_cell_angle_beta   89.67059338
_cell_angle_gamma   90.00000000
_symmetry_Int_Tables_number   1
_chemical_formula_structural   Rb12Li4Si15Sn
_chemical_formula_sum   'Rb12 Li4 Si15 Sn1'
_cell_volume   1028.16135503
_cell_formula_units_Z   1
loop_
 _symmetry_equiv_pos_site_id
 _symmetry_equiv_pos_as_xyz
  1  'x, y, z'
loop_
 _atom_site_type_symbol
 _atom_site_label
 _atom_site_symmetry_multiplicity
 _atom_site_fract_x
 _atom_site_fract_y
 _atom_site_fract_z
 _atom_site_occupancy
  Rb  Rb0  1  0.655437  0.250000  0.401437  1
  Rb  Rb1  1  0.154092  0.250000  0.100100  1
  Rb  Rb2  1  0.343721  0.750000  0.590806  1
  Rb  Rb3  1  0.854832  0.750000  0.901573  1
  Rb  Rb4  1  0.652641  0.447272  0.694601  1
  Rb  Rb5  1  0.150765  0.062364  0.805435  1
  Rb  Rb6  1  0.344986  0.946892  0.308344  1
  Rb  Rb7  1  0.843114  0.554109  0.194530  1
  Rb  Rb8  1  0.344986  0.553108  0.308344  1
  Rb  Rb9  1  0.843114  0.945891  0.194530  1
  Rb  Rb10  1  0.652641  0.052728  0.694601  1
  Rb  Rb11  1  0.150765  0.437636  0.805435  1
  Li  Li12  1  0.500703  0.496543  0.003148  1
  Li  Li13  1  0.999203  0.999731  0.500204  1
  Li  Li14  1  0.500703  0.003457  0.003148  1
  Li  Li15  1  0.999203  0.500269  0.500204  1
  Si  Si16  1  0.863212  0.750000  0.593678  1
  Si  Si17  1  0.635640  0.250000  0.095134  1
  Si  Si18  1  0.137045  0.250000  0.405044  1
  Si  Si19  1  0.723188  0.630359  0.453004  1
  Si  Si20  1  0.222896  0.869844  0.051823  1
  Si  Si21  1  0.276078  0.130430  0.546154  1
  Si  Si22  1  0.777701  0.369625  0.954243  1
  Si  Si23  1  0.012000  0.250000  0.578621  1
  Si  Si24  1  0.515135  0.250000  0.920586  1
  Si  Si25  1  0.986476  0.750000  0.419254  1
  Si  Si26  1  0.486254  0.750000  0.084658  1
  Si  Si27  1  0.222896  0.630156  0.051823  1
  Si  Si28  1  0.723188  0.869641  0.453004  1
  Si  Si29  1  0.777701  0.130375  0.954243  1
  Si  Si30  1  0.276078  0.369570  0.546154  1
  Sn  Sn31  1  0.373603  0.750000  0.886139  1
