# generated using pymatgen
data_CeEr4Cr2O12
_symmetry_space_group_name_H-M   'P 1'
_cell_length_a   6.76174875
_cell_length_b   6.76175033
_cell_length_c   7.20471466
_cell_angle_alpha   74.71252426
_cell_angle_beta   74.71252904
_cell_angle_gamma   50.84266311
_symmetry_Int_Tables_number   1
_chemical_formula_structural   CeEr4Cr2O12
_chemical_formula_sum   'Ce1 Er4 Cr2 O12'
_cell_volume   244.30196385
_cell_formula_units_Z   1
loop_
 _symmetry_equiv_pos_site_id
 _symmetry_equiv_pos_as_xyz
  1  'x, y, z'
loop_
 _atom_site_type_symbol
 _atom_site_label
 _atom_site_symmetry_multiplicity
 _atom_site_fract_x
 _atom_site_fract_y
 _atom_site_fract_z
 _atom_site_occupancy
  Ce  Ce0  1  0.308093  0.308093  0.356496  1
  Er  Er1  1  0.692338  0.692338  0.646384  1
  Er  Er2  1  0.306882  0.306882  0.839046  1
  Er  Er3  1  0.692553  0.692553  0.160857  1
  Er  Er4  1  0.000179  0.000179  0.507319  1
  Cr  Cr5  1  0.760139  0.243408  0.998416  1
  Cr  Cr6  1  0.243408  0.760139  0.998416  1
  O  O7  1  0.900278  0.424970  0.916466  1
  O  O8  1  0.424970  0.900278  0.916466  1
  O  O9  1  0.099278  0.573510  0.081139  1
  O  O10  1  0.573510  0.099278  0.081139  1
  O  O11  1  0.095239  0.596874  0.575643  1
  O  O12  1  0.596874  0.095239  0.575643  1
  O  O13  1  0.903886  0.402856  0.424974  1
  O  O14  1  0.402856  0.903886  0.424974  1
  O  O15  1  0.999792  0.999792  0.812754  1
  O  O16  1  0.998799  0.998799  0.177326  1
  O  O17  1  0.498659  0.498659  0.818609  1
  O  O18  1  0.502267  0.502267  0.187935  1
