# generated using pymatgen
data_Ho8Ti11Si16Tc
_symmetry_space_group_name_H-M   'P 1'
_cell_length_a   7.01880341
_cell_length_b   7.01880343
_cell_length_c   12.88633701
_cell_angle_alpha   89.98699046
_cell_angle_beta   90.01300628
_cell_angle_gamma   89.94755508
_symmetry_Int_Tables_number   1
_chemical_formula_structural   Ho8Ti11Si16Tc
_chemical_formula_sum   'Ho8 Ti11 Si16 Tc1'
_cell_volume   634.82707220
_cell_formula_units_Z   1
loop_
 _symmetry_equiv_pos_site_id
 _symmetry_equiv_pos_as_xyz
  1  'x, y, z'
loop_
 _atom_site_type_symbol
 _atom_site_label
 _atom_site_symmetry_multiplicity
 _atom_site_fract_x
 _atom_site_fract_y
 _atom_site_fract_z
 _atom_site_occupancy
  Ho  Ho0  1  0.340664  0.003472  0.467331  1
  Ho  Ho1  1  0.497182  0.840450  0.717892  1
  Ho  Ho2  1  0.500182  0.159632  0.214893  1
  Ho  Ho3  1  0.840450  0.497182  0.282108  1
  Ho  Ho4  1  0.159632  0.500182  0.785107  1
  Ho  Ho5  1  0.657872  0.998990  0.967900  1
  Ho  Ho6  1  0.003472  0.340664  0.532669  1
  Ho  Ho7  1  0.998990  0.657872  0.032100  1
  Ti  Ti8  1  0.174471  0.827271  0.248903  1
  Ti  Ti9  1  0.827271  0.174471  0.751097  1
  Ti  Ti10  1  0.673641  0.673641  0.500000  1
  Ti  Ti11  1  0.152255  0.006299  0.875885  1
  Ti  Ti12  1  0.492014  0.653537  0.124993  1
  Ti  Ti13  1  0.507119  0.348810  0.627267  1
  Ti  Ti14  1  0.653537  0.492014  0.875007  1
  Ti  Ti15  1  0.348810  0.507119  0.372733  1
  Ti  Ti16  1  0.848691  0.993180  0.375487  1
  Ti  Ti17  1  0.006299  0.152255  0.124115  1
  Ti  Ti18  1  0.993180  0.848691  0.624513  1
  Si  Si19  1  0.202594  0.131133  0.684562  1
  Si  Si20  1  0.371597  0.700274  0.934063  1
  Si  Si21  1  0.631089  0.297004  0.434108  1
  Si  Si22  1  0.700274  0.371597  0.065937  1
  Si  Si23  1  0.297004  0.631089  0.565892  1
  Si  Si24  1  0.796939  0.868870  0.183932  1
  Si  Si25  1  0.131133  0.202594  0.315438  1
  Si  Si26  1  0.868870  0.796939  0.816068  1
  Si  Si27  1  0.288838  0.953873  0.064482  1
  Si  Si28  1  0.546848  0.792212  0.315297  1
  Si  Si29  1  0.451186  0.208870  0.817113  1
  Si  Si30  1  0.792212  0.546848  0.684703  1
  Si  Si31  1  0.208870  0.451186  0.182887  1
  Si  Si32  1  0.708454  0.047715  0.565388  1
  Si  Si33  1  0.953873  0.288838  0.935518  1
  Si  Si34  1  0.047715  0.708454  0.434612  1
  Tc  Tc35  1  0.326773  0.326773  0.000000  1
