# generated using pymatgen
data_LiTb16Cd3CoIr3
_symmetry_space_group_name_H-M   'P 1'
_cell_length_a   9.62392651
_cell_length_b   9.62392596
_cell_length_c   9.62392529
_cell_angle_alpha   60.09137372
_cell_angle_beta   60.09137711
_cell_angle_gamma   60.09137753
_symmetry_Int_Tables_number   1
_chemical_formula_structural   LiTb16Cd3CoIr3
_chemical_formula_sum   'Li1 Tb16 Cd3 Co1 Ir3'
_cell_volume   631.59706864
_cell_formula_units_Z   1
loop_
 _symmetry_equiv_pos_site_id
 _symmetry_equiv_pos_as_xyz
  1  'x, y, z'
loop_
 _atom_site_type_symbol
 _atom_site_label
 _atom_site_symmetry_multiplicity
 _atom_site_fract_x
 _atom_site_fract_y
 _atom_site_fract_z
 _atom_site_occupancy
  Li  Li0  1  0.821367  0.821367  0.821367  1
  Tb  Tb1  1  0.600276  0.600276  0.600276  1
  Tb  Tb2  1  0.594347  0.594347  0.209837  1
  Tb  Tb3  1  0.594347  0.209837  0.594347  1
  Tb  Tb4  1  0.209837  0.594347  0.594347  1
  Tb  Tb5  1  0.066023  0.439144  0.439144  1
  Tb  Tb6  1  0.435851  0.062613  0.062613  1
  Tb  Tb7  1  0.439144  0.066023  0.439144  1
  Tb  Tb8  1  0.062613  0.435851  0.062613  1
  Tb  Tb9  1  0.439144  0.439144  0.066023  1
  Tb  Tb10  1  0.062613  0.062613  0.435851  1
  Tb  Tb11  1  0.188821  0.811278  0.811278  1
  Tb  Tb12  1  0.813636  0.186179  0.186179  1
  Tb  Tb13  1  0.811278  0.188821  0.811278  1
  Tb  Tb14  1  0.186179  0.813636  0.186179  1
  Tb  Tb15  1  0.811278  0.811278  0.188821  1
  Tb  Tb16  1  0.186179  0.186179  0.813636  1
  Cd  Cd17  1  0.832641  0.832641  0.506968  1
  Cd  Cd18  1  0.832641  0.506968  0.832641  1
  Cd  Cd19  1  0.506968  0.832641  0.832641  1
  Co  Co20  1  0.391546  0.391546  0.391546  1
  Ir  Ir21  1  0.393651  0.393651  0.825971  1
  Ir  Ir22  1  0.393651  0.825971  0.393651  1
  Ir  Ir23  1  0.825971  0.393651  0.393651  1
