# generated using pymatgen
data_Ho16Cd4Ni2IrRu
_symmetry_space_group_name_H-M   'P 1'
_cell_length_a   9.55505161
_cell_length_b   9.55505099
_cell_length_c   9.58912460
_cell_angle_alpha   59.61986289
_cell_angle_beta   59.61986413
_cell_angle_gamma   59.46874597
_symmetry_Int_Tables_number   1
_chemical_formula_structural   Ho16Cd4Ni2IrRu
_chemical_formula_sum   'Ho16 Cd4 Ni2 Ir1 Ru1'
_cell_volume   612.99465346
_cell_formula_units_Z   1
loop_
 _symmetry_equiv_pos_site_id
 _symmetry_equiv_pos_as_xyz
  1  'x, y, z'
loop_
 _atom_site_type_symbol
 _atom_site_label
 _atom_site_symmetry_multiplicity
 _atom_site_fract_x
 _atom_site_fract_y
 _atom_site_fract_z
 _atom_site_occupancy
  Ho  Ho0  1  0.349344  0.349344  0.343852  1
  Ho  Ho1  1  0.350957  0.350957  0.955253  1
  Ho  Ho2  1  0.354253  0.953106  0.347740  1
  Ho  Ho3  1  0.953106  0.354253  0.347740  1
  Ho  Ho4  1  0.810615  0.186959  0.189413  1
  Ho  Ho5  1  0.187187  0.809492  0.812734  1
  Ho  Ho6  1  0.186959  0.810615  0.189413  1
  Ho  Ho7  1  0.809492  0.187187  0.812734  1
  Ho  Ho8  1  0.188366  0.188366  0.812302  1
  Ho  Ho9  1  0.810920  0.810920  0.188123  1
  Ho  Ho10  1  0.936944  0.561594  0.567447  1
  Ho  Ho11  1  0.559003  0.938079  0.937057  1
  Ho  Ho12  1  0.561594  0.936944  0.567447  1
  Ho  Ho13  1  0.938079  0.559003  0.937057  1
  Ho  Ho14  1  0.565896  0.565896  0.936154  1
  Ho  Ho15  1  0.939927  0.939927  0.559164  1
  Cd  Cd16  1  0.579011  0.579011  0.580957  1
  Cd  Cd17  1  0.579567  0.579567  0.255217  1
  Cd  Cd18  1  0.579372  0.255250  0.580479  1
  Cd  Cd19  1  0.255250  0.579372  0.580479  1
  Ni  Ni20  1  0.141312  0.576069  0.141975  1
  Ni  Ni21  1  0.576069  0.141312  0.141975  1
  Ir  Ir22  1  0.142960  0.142960  0.573926  1
  Ru  Ru23  1  0.143815  0.143815  0.141357  1
