# generated using pymatgen
data_TbHf7Ta7Ti5Si16
_symmetry_space_group_name_H-M   'P 1'
_cell_length_a   6.85277404
_cell_length_b   6.85890383
_cell_length_c   12.63375840
_cell_angle_alpha   89.95944302
_cell_angle_beta   89.97988532
_cell_angle_gamma   89.94624373
_symmetry_Int_Tables_number   1
_chemical_formula_structural   TbHf7Ta7Ti5Si16
_chemical_formula_sum   'Tb1 Hf7 Ta7 Ti5 Si16'
_cell_volume   593.81801152
_cell_formula_units_Z   1
loop_
 _symmetry_equiv_pos_site_id
 _symmetry_equiv_pos_as_xyz
  1  'x, y, z'
loop_
 _atom_site_type_symbol
 _atom_site_label
 _atom_site_symmetry_multiplicity
 _atom_site_fract_x
 _atom_site_fract_y
 _atom_site_fract_z
 _atom_site_occupancy
  Tb  Tb0  1  0.995408  0.660933  0.030706  1
  Hf  Hf1  1  0.343080  0.999201  0.470765  1
  Hf  Hf2  1  0.500958  0.843435  0.718697  1
  Hf  Hf3  1  0.496446  0.158099  0.222243  1
  Hf  Hf4  1  0.841415  0.502953  0.281790  1
  Hf  Hf5  1  0.161196  0.498280  0.779490  1
  Hf  Hf6  1  0.653760  0.002209  0.969133  1
  Hf  Hf7  1  0.999296  0.342471  0.529834  1
  Ta  Ta8  1  0.331792  0.328259  0.999396  1
  Ta  Ta9  1  0.170854  0.831145  0.251356  1
  Ta  Ta10  1  0.829948  0.169990  0.747752  1
  Ta  Ta11  1  0.670937  0.669717  0.499537  1
  Ta  Ta12  1  0.156134  0.003438  0.871089  1
  Ta  Ta13  1  0.495969  0.651600  0.125120  1
  Ta  Ta14  1  0.503914  0.347451  0.622617  1
  Ti  Ti15  1  0.652448  0.492185  0.874818  1
  Ti  Ti16  1  0.348233  0.503819  0.378239  1
  Ti  Ti17  1  0.847476  0.995988  0.374682  1
  Ti  Ti18  1  0.006144  0.152585  0.128547  1
  Ti  Ti19  1  0.994587  0.847508  0.625803  1
  Si  Si20  1  0.205686  0.133619  0.674359  1
  Si  Si21  1  0.370917  0.705239  0.924575  1
  Si  Si22  1  0.635179  0.291721  0.424312  1
  Si  Si23  1  0.704984  0.356822  0.073175  1
  Si  Si24  1  0.291707  0.638770  0.573059  1
  Si  Si25  1  0.790732  0.872442  0.181361  1
  Si  Si26  1  0.135445  0.206088  0.325177  1
  Si  Si27  1  0.859588  0.794506  0.819605  1
  Si  Si28  1  0.298319  0.958554  0.064893  1
  Si  Si29  1  0.543901  0.798459  0.316012  1
  Si  Si30  1  0.456787  0.204027  0.812672  1
  Si  Si31  1  0.799892  0.546432  0.685913  1
  Si  Si32  1  0.202638  0.451536  0.189670  1
  Si  Si33  1  0.705262  0.043294  0.561737  1
  Si  Si34  1  0.953241  0.293321  0.935680  1
  Si  Si35  1  0.045725  0.703909  0.436190  1
