# generated using pymatgen
data_Er4Tm4Tc3B24Ru
_symmetry_space_group_name_H-M   'P 1'
_cell_length_a   3.64032100
_cell_length_b   9.09513962
_cell_length_c   11.47066400
_cell_angle_alpha   89.92047328
_cell_angle_beta   90.00000000
_cell_angle_gamma   90.00000000
_symmetry_Int_Tables_number   1
_chemical_formula_structural   Er4Tm4Tc3B24Ru
_chemical_formula_sum   'Er4 Tm4 Tc3 B24 Ru1'
_cell_volume   379.78446103
_cell_formula_units_Z   1
loop_
 _symmetry_equiv_pos_site_id
 _symmetry_equiv_pos_as_xyz
  1  'x, y, z'
loop_
 _atom_site_type_symbol
 _atom_site_label
 _atom_site_symmetry_multiplicity
 _atom_site_fract_x
 _atom_site_fract_y
 _atom_site_fract_z
 _atom_site_occupancy
  Er  Er0  1  0.000000  0.323311  0.413932  1
  Er  Er1  1  0.000000  0.675326  0.584012  1
  Er  Er2  1  0.000000  0.822694  0.087390  1
  Er  Er3  1  0.000000  0.178350  0.914463  1
  Tm  Tm4  1  0.000000  0.942733  0.370392  1
  Tm  Tm5  1  0.000000  0.057595  0.630419  1
  Tm  Tm6  1  0.000000  0.443177  0.129861  1
  Tm  Tm7  1  0.000000  0.557703  0.869429  1
  Tc  Tc8  1  0.000000  0.638513  0.320311  1
  Tc  Tc9  1  0.000000  0.361500  0.680185  1
  Tc  Tc10  1  0.000000  0.138190  0.178599  1
  B  B11  1  0.500000  0.552984  0.433036  1
  B  B12  1  0.500000  0.446685  0.566621  1
  B  B13  1  0.500000  0.053037  0.066578  1
  B  B14  1  0.500000  0.946116  0.933031  1
  B  B15  1  0.500000  0.749246  0.419084  1
  B  B16  1  0.500000  0.250179  0.581091  1
  B  B17  1  0.500000  0.249886  0.080886  1
  B  B18  1  0.500000  0.750919  0.918769  1
  B  B19  1  0.500000  0.792316  0.265372  1
  B  B20  1  0.500000  0.207857  0.735433  1
  B  B21  1  0.500000  0.292266  0.234792  1
  B  B22  1  0.500000  0.708727  0.765019  1
  B  B23  1  0.500000  0.630824  0.185061  1
  B  B24  1  0.500000  0.369328  0.815430  1
  B  B25  1  0.500000  0.130238  0.314601  1
  B  B26  1  0.500000  0.869087  0.685238  1
  B  B27  1  0.500000  0.981245  0.211979  1
  B  B28  1  0.500000  0.017287  0.788207  1
  B  B29  1  0.500000  0.481515  0.287759  1
  B  B30  1  0.500000  0.518377  0.711850  1
  B  B31  1  0.500000  0.601713  0.027884  1
  B  B32  1  0.500000  0.400016  0.971821  1
  B  B33  1  0.500000  0.100886  0.472230  1
  B  B34  1  0.500000  0.898698  0.528561  1
  Ru  Ru35  1  0.000000  0.861478  0.820679  1
