# generated using pymatgen
data_Dy3Er4TmAu4
_symmetry_space_group_name_H-M   'P 1'
_cell_length_a   4.91941000
_cell_length_b   7.11833749
_cell_length_c   8.92445800
_cell_angle_alpha   90.02124142
_cell_angle_beta   90.00000000
_cell_angle_gamma   90.00000000
_symmetry_Int_Tables_number   1
_chemical_formula_structural   Dy3Er4TmAu4
_chemical_formula_sum   'Dy3 Er4 Tm1 Au4'
_cell_volume   312.51683286
_cell_formula_units_Z   1
loop_
 _symmetry_equiv_pos_site_id
 _symmetry_equiv_pos_as_xyz
  1  'x, y, z'
loop_
 _atom_site_type_symbol
 _atom_site_label
 _atom_site_symmetry_multiplicity
 _atom_site_fract_x
 _atom_site_fract_y
 _atom_site_fract_z
 _atom_site_occupancy
  Dy  Dy0  1  0.250000  0.486298  0.176420  1
  Dy  Dy1  1  0.750000  0.513593  0.823203  1
  Dy  Dy2  1  0.250000  0.986344  0.323534  1
  Er  Er3  1  0.750000  0.013762  0.675979  1
  Er  Er4  1  0.750000  0.648387  0.420506  1
  Er  Er5  1  0.250000  0.351382  0.580125  1
  Er  Er6  1  0.250000  0.851958  0.919184  1
  Tm  Tm7  1  0.750000  0.148006  0.079939  1
  Au  Au8  1  0.250000  0.254015  0.901008  1
  Au  Au9  1  0.750000  0.746088  0.099542  1
  Au  Au10  1  0.250000  0.755970  0.599780  1
  Au  Au11  1  0.750000  0.244198  0.400780  1
