# generated using pymatgen
data_NaNp2(Br3O)2
_symmetry_space_group_name_H-M   'P 1'
_cell_length_a   9.67351017
_cell_length_b   9.67351040
_cell_length_c   11.98664192
_cell_angle_alpha   52.18818212
_cell_angle_beta   52.18818052
_cell_angle_gamma   24.55159610
_symmetry_Int_Tables_number   1
_chemical_formula_structural   NaNp2(Br3O)2
_chemical_formula_sum   'Na1 Np2 Br6 O2'
_cell_volume   362.92042475
_cell_formula_units_Z   1
loop_
 _symmetry_equiv_pos_site_id
 _symmetry_equiv_pos_as_xyz
  1  'x, y, z'
loop_
 _atom_site_type_symbol
 _atom_site_label
 _atom_site_symmetry_multiplicity
 _atom_site_fract_x
 _atom_site_fract_y
 _atom_site_fract_z
 _atom_site_occupancy
  Na  Na0  1  0.500000  0.500000  0.500000  1
  Np  Np1  1  0.000870  0.000870  0.177235  1
  Np  Np2  1  0.999130  0.999130  0.822765  1
  Br  Br3  1  0.875493  0.875493  0.471165  1
  Br  Br4  1  0.130212  0.130212  0.870140  1
  Br  Br5  1  0.131099  0.131099  0.210136  1
  Br  Br6  1  0.124507  0.124507  0.528835  1
  Br  Br7  1  0.868901  0.868901  0.789864  1
  Br  Br8  1  0.869788  0.869788  0.129860  1
  O  O9  1  0.500032  0.500032  0.827909  1
  O  O10  1  0.499968  0.499968  0.172091  1
