# generated using pymatgen
data_AcAs12IrRu3
_symmetry_space_group_name_H-M   'P 1'
_cell_length_a   7.47477178
_cell_length_b   7.47477225
_cell_length_c   7.48046000
_cell_angle_alpha   109.48663013
_cell_angle_beta   109.48663140
_cell_angle_gamma   109.45581186
_symmetry_Int_Tables_number   1
_chemical_formula_structural   AcAs12IrRu3
_chemical_formula_sum   'Ac1 As12 Ir1 Ru3'
_cell_volume   321.67673691
_cell_formula_units_Z   1
loop_
 _symmetry_equiv_pos_site_id
 _symmetry_equiv_pos_as_xyz
  1  'x, y, z'
loop_
 _atom_site_type_symbol
 _atom_site_label
 _atom_site_symmetry_multiplicity
 _atom_site_fract_x
 _atom_site_fract_y
 _atom_site_fract_z
 _atom_site_occupancy
  Ac  Ac0  1  0.000000  0.000000  0.000000  1
  As  As1  1  0.151899  0.799639  0.652040  1
  As  As2  1  0.848101  0.200361  0.347960  1
  As  As3  1  0.150953  0.500001  0.348794  1
  As  As4  1  0.849047  0.499999  0.651206  1
  As  As5  1  0.650951  0.150953  0.802159  1
  As  As6  1  0.349049  0.849047  0.197841  1
  As  As7  1  0.352259  0.151899  0.499858  1
  As  As8  1  0.647741  0.848101  0.500142  1
  As  As9  1  0.799639  0.647741  0.147600  1
  As  As10  1  0.200361  0.352259  0.852400  1
  As  As11  1  0.500001  0.349049  0.151209  1
  As  As12  1  0.499999  0.650951  0.848791  1
  Ir  Ir13  1  0.000000  0.000000  0.500000  1
  Ru  Ru14  1  0.500000  0.000000  0.000000  1
  Ru  Ru15  1  0.000000  0.500000  0.000000  1
  Ru  Ru16  1  0.500000  0.500000  0.500000  1
