# generated using pymatgen
data_Hf9CuRe3W
_symmetry_space_group_name_H-M   'P 1'
_cell_length_a   8.66907300
_cell_length_b   8.66907323
_cell_length_c   8.47931800
_cell_angle_alpha   90.00000000
_cell_angle_beta   90.00000000
_cell_angle_gamma   119.99999530
_symmetry_Int_Tables_number   1
_chemical_formula_structural   Hf9CuRe3W
_chemical_formula_sum   'Hf18 Cu2 Re6 W2'
_cell_volume   551.87015327
_cell_formula_units_Z   2
loop_
 _symmetry_equiv_pos_site_id
 _symmetry_equiv_pos_as_xyz
  1  'x, y, z'
loop_
 _atom_site_type_symbol
 _atom_site_label
 _atom_site_symmetry_multiplicity
 _atom_site_fract_x
 _atom_site_fract_y
 _atom_site_fract_z
 _atom_site_occupancy
  Hf  Hf0  1  0.196409  0.803591  0.447682  1
  Hf  Hf1  1  0.196409  0.392816  0.447682  1
  Hf  Hf2  1  0.607184  0.803591  0.447682  1
  Hf  Hf3  1  0.803591  0.196409  0.552318  1
  Hf  Hf4  1  0.803591  0.607184  0.552318  1
  Hf  Hf5  1  0.392816  0.196409  0.552318  1
  Hf  Hf6  1  0.803591  0.196409  0.947682  1
  Hf  Hf7  1  0.803591  0.607184  0.947682  1
  Hf  Hf8  1  0.392816  0.196409  0.947682  1
  Hf  Hf9  1  0.196409  0.803591  0.052318  1
  Hf  Hf10  1  0.196409  0.392816  0.052318  1
  Hf  Hf11  1  0.607184  0.803591  0.052318  1
  Hf  Hf12  1  0.540769  0.459231  0.250000  1
  Hf  Hf13  1  0.540769  0.081538  0.250000  1
  Hf  Hf14  1  0.918462  0.459231  0.250000  1
  Hf  Hf15  1  0.459231  0.540769  0.750000  1
  Hf  Hf16  1  0.459231  0.918462  0.750000  1
  Hf  Hf17  1  0.081538  0.540769  0.750000  1
  Cu  Cu18  1  0.333333  0.666667  0.250000  1
  Cu  Cu19  1  0.666667  0.333333  0.750000  1
  Re  Re20  1  0.888600  0.111400  0.250000  1
  Re  Re21  1  0.888600  0.777201  0.250000  1
  Re  Re22  1  0.222799  0.111400  0.250000  1
  Re  Re23  1  0.111400  0.888600  0.750000  1
  Re  Re24  1  0.111400  0.222799  0.750000  1
  Re  Re25  1  0.777201  0.888600  0.750000  1
  W  W26  1  0.000000  0.000000  0.500000  1
  W  W27  1  0.000000  0.000000  0.000000  1
