# generated using pymatgen
data_MgSc3As6Ru7
_symmetry_space_group_name_H-M   'P 1'
_cell_length_a   7.03227119
_cell_length_b   7.03227066
_cell_length_c   7.13552900
_cell_angle_alpha   109.76894371
_cell_angle_beta   109.76894213
_cell_angle_gamma   109.17186275
_symmetry_Int_Tables_number   1
_chemical_formula_structural   MgSc3As6Ru7
_chemical_formula_sum   'Mg1 Sc3 As6 Ru7'
_cell_volume   270.63661246
_cell_formula_units_Z   1
loop_
 _symmetry_equiv_pos_site_id
 _symmetry_equiv_pos_as_xyz
  1  'x, y, z'
loop_
 _atom_site_type_symbol
 _atom_site_label
 _atom_site_symmetry_multiplicity
 _atom_site_fract_x
 _atom_site_fract_y
 _atom_site_fract_z
 _atom_site_occupancy
  Mg  Mg0  1  0.000000  0.000000  0.500000  1
  Sc  Sc1  1  0.500000  0.000000  0.000000  1
  Sc  Sc2  1  0.000000  0.500000  0.000000  1
  Sc  Sc3  1  0.500000  0.500000  0.500000  1
  As  As4  1  0.309049  0.000000  0.311580  1
  As  As5  1  0.000000  0.309049  0.311580  1
  As  As6  1  0.000000  0.690951  0.688420  1
  As  As7  1  0.309049  0.309049  0.997469  1
  As  As8  1  0.690951  0.690951  0.002531  1
  As  As9  1  0.690951  0.000000  0.688420  1
  Ru  Ru10  1  0.751384  0.502768  0.251384  1
  Ru  Ru11  1  0.502768  0.751384  0.251384  1
  Ru  Ru12  1  0.497232  0.248616  0.748616  1
  Ru  Ru13  1  0.751384  0.248616  0.500000  1
  Ru  Ru14  1  0.248616  0.751384  0.500000  1
  Ru  Ru15  1  0.248616  0.497232  0.748616  1
  Ru  Ru16  1  0.000000  0.000000  0.000000  1
