# generated using pymatgen
data_Y19ThIr11Ru
_symmetry_space_group_name_H-M   'P 1'
_cell_length_a   10.96105522
_cell_length_b   10.94924046
_cell_length_c   6.40730768
_cell_angle_alpha   90.05312219
_cell_angle_beta   89.71438159
_cell_angle_gamma   89.94431390
_symmetry_Int_Tables_number   1
_chemical_formula_structural   Y19ThIr11Ru
_chemical_formula_sum   'Y19 Th1 Ir11 Ru1'
_cell_volume   768.96424862
_cell_formula_units_Z   1
loop_
 _symmetry_equiv_pos_site_id
 _symmetry_equiv_pos_as_xyz
  1  'x, y, z'
loop_
 _atom_site_type_symbol
 _atom_site_label
 _atom_site_symmetry_multiplicity
 _atom_site_fract_x
 _atom_site_fract_y
 _atom_site_fract_z
 _atom_site_occupancy
  Y  Y0  1  0.292558  0.909663  0.878507  1
  Y  Y1  1  0.706583  0.087316  0.882997  1
  Y  Y2  1  0.707773  0.911519  0.379389  1
  Y  Y3  1  0.587627  0.792994  0.881419  1
  Y  Y4  1  0.593285  0.209731  0.378425  1
  Y  Y5  1  0.414402  0.787625  0.378481  1
  Y  Y6  1  0.414103  0.208799  0.880110  1
  Y  Y7  1  0.208838  0.411913  0.620529  1
  Y  Y8  1  0.207686  0.588673  0.120719  1
  Y  Y9  1  0.791257  0.413132  0.119084  1
  Y  Y10  1  0.791383  0.588839  0.620392  1
  Y  Y11  1  0.911195  0.709183  0.120794  1
  Y  Y12  1  0.910649  0.291374  0.618915  1
  Y  Y13  1  0.088140  0.708273  0.620101  1
  Y  Y14  1  0.086056  0.292190  0.116733  1
  Y  Y15  1  0.995890  0.998513  0.499220  1
  Y  Y16  1  0.000288  0.999947  0.998452  1
  Y  Y17  1  0.499689  0.500087  0.001142  1
  Y  Y18  1  0.501679  0.499296  0.501419  1
  Th  Th19  1  0.293848  0.087868  0.378234  1
  Ir  Ir20  1  0.847244  0.154965  0.247314  1
  Ir  Ir21  1  0.845660  0.846600  0.751479  1
  Ir  Ir22  1  0.154948  0.152201  0.740433  1
  Ir  Ir23  1  0.156316  0.849278  0.252865  1
  Ir  Ir24  1  0.654140  0.347105  0.750836  1
  Ir  Ir25  1  0.653852  0.653222  0.248371  1
  Ir  Ir26  1  0.345867  0.344335  0.252449  1
  Ir  Ir27  1  0.346634  0.652067  0.750635  1
  Ir  Ir28  1  0.499189  0.000348  0.624955  1
  Ir  Ir29  1  0.999639  0.500237  0.874189  1
  Ir  Ir30  1  0.999645  0.500656  0.374624  1
  Ru  Ru31  1  0.493937  0.002048  0.136785  1
