# generated using pymatgen
data_CaLaBePd6
_symmetry_space_group_name_H-M   'P 1'
_cell_length_a   6.02995680
_cell_length_b   6.02995663
_cell_length_c   6.02995600
_cell_angle_alpha   60.00000345
_cell_angle_beta   60.00000437
_cell_angle_gamma   59.99999882
_symmetry_Int_Tables_number   1
_chemical_formula_structural   CaLaBePd6
_chemical_formula_sum   'Ca1 La1 Be1 Pd6'
_cell_volume   155.03421551
_cell_formula_units_Z   1
loop_
 _symmetry_equiv_pos_site_id
 _symmetry_equiv_pos_as_xyz
  1  'x, y, z'
loop_
 _atom_site_type_symbol
 _atom_site_label
 _atom_site_symmetry_multiplicity
 _atom_site_fract_x
 _atom_site_fract_y
 _atom_site_fract_z
 _atom_site_occupancy
  Ca  Ca0  1  0.250000  0.250000  0.250000  1
  La  La1  1  0.750000  0.750000  0.750000  1
  Be  Be2  1  0.500000  0.500000  0.500000  1
  Pd  Pd3  1  0.761914  0.238086  0.238086  1
  Pd  Pd4  1  0.238086  0.761914  0.238086  1
  Pd  Pd5  1  0.761914  0.761914  0.238086  1
  Pd  Pd6  1  0.238086  0.238086  0.761914  1
  Pd  Pd7  1  0.761914  0.238086  0.761914  1
  Pd  Pd8  1  0.238086  0.761914  0.761914  1
