# generated using pymatgen
data_Sc6Ti2Al6Si8IrOs6
_symmetry_space_group_name_H-M   'P 1'
_cell_length_a   8.60635433
_cell_length_b   8.60635552
_cell_length_c   8.60635500
_cell_angle_alpha   59.99999814
_cell_angle_beta   59.99999358
_cell_angle_gamma   60.00000250
_symmetry_Int_Tables_number   1
_chemical_formula_structural   Sc6Ti2Al6Si8IrOs6
_chemical_formula_sum   'Sc6 Ti2 Al6 Si8 Ir1 Os6'
_cell_volume   450.75727395
_cell_formula_units_Z   1
loop_
 _symmetry_equiv_pos_site_id
 _symmetry_equiv_pos_as_xyz
  1  'x, y, z'
loop_
 _atom_site_type_symbol
 _atom_site_label
 _atom_site_symmetry_multiplicity
 _atom_site_fract_x
 _atom_site_fract_y
 _atom_site_fract_z
 _atom_site_occupancy
  Sc  Sc0  1  0.195567  0.799280  0.800837  1
  Sc  Sc1  1  0.799280  0.195567  0.204317  1
  Sc  Sc2  1  0.799280  0.195567  0.800837  1
  Sc  Sc3  1  0.800630  0.800630  0.199370  1
  Sc  Sc4  1  0.195567  0.799280  0.204317  1
  Sc  Sc5  1  0.203460  0.203460  0.796540  1
  Ti  Ti6  1  0.623377  0.623377  0.624477  1
  Ti  Ti7  1  0.623377  0.623377  0.128768  1
  Al  Al8  1  0.139594  0.619168  0.620618  1
  Al  Al9  1  0.619168  0.139594  0.620618  1
  Al  Al10  1  0.380827  0.380827  0.378916  1
  Al  Al11  1  0.380827  0.380827  0.859431  1
  Al  Al12  1  0.379437  0.863130  0.378717  1
  Al  Al13  1  0.863130  0.379437  0.378717  1
  Si  Si14  1  0.840691  0.840691  0.841111  1
  Si  Si15  1  0.840691  0.840691  0.477509  1
  Si  Si16  1  0.470236  0.844344  0.842711  1
  Si  Si17  1  0.844344  0.470236  0.842711  1
  Si  Si18  1  0.161337  0.161337  0.161023  1
  Si  Si19  1  0.161337  0.161337  0.516299  1
  Si  Si20  1  0.161503  0.516454  0.161020  1
  Si  Si21  1  0.516454  0.161503  0.161020  1
  Ir  Ir22  1  0.505099  0.505099  0.494901  1
  Os  Os23  1  0.000578  0.498262  0.500585  1
  Os  Os24  1  0.498262  0.000578  0.000576  1
  Os  Os25  1  0.498262  0.000578  0.500585  1
  Os  Os26  1  0.498714  0.498714  0.001286  1
  Os  Os27  1  0.000578  0.498262  0.000576  1
  Os  Os28  1  0.998391  0.998391  0.501609  1
