# generated using pymatgen
data_Dy3Sc3ReGe2
_symmetry_space_group_name_H-M   'P 1'
_cell_length_a   7.47735300
_cell_length_b   7.47735355
_cell_length_c   4.28472600
_cell_angle_alpha   90.00000000
_cell_angle_beta   90.00000000
_cell_angle_gamma   120.00000198
_symmetry_Int_Tables_number   1
_chemical_formula_structural   Dy3Sc3ReGe2
_chemical_formula_sum   'Dy3 Sc3 Re1 Ge2'
_cell_volume   207.46721525
_cell_formula_units_Z   1
loop_
 _symmetry_equiv_pos_site_id
 _symmetry_equiv_pos_as_xyz
  1  'x, y, z'
loop_
 _atom_site_type_symbol
 _atom_site_label
 _atom_site_symmetry_multiplicity
 _atom_site_fract_x
 _atom_site_fract_y
 _atom_site_fract_z
 _atom_site_occupancy
  Dy  Dy0  1  0.415304  0.000000  0.000000  1
  Dy  Dy1  1  0.000000  0.415303  0.000000  1
  Dy  Dy2  1  0.584695  0.584695  0.000000  1
  Sc  Sc3  1  0.759106  0.000000  0.500001  1
  Sc  Sc4  1  0.240893  0.240894  0.500001  1
  Sc  Sc5  1  0.000000  0.759105  0.500001  1
  Re  Re6  1  0.000000  0.000000  0.000000  1
  Ge  Ge7  1  0.666667  0.333334  0.500001  1
  Ge  Ge8  1  0.333333  0.666666  0.500001  1
