# generated using pymatgen
data_La8Cd4Cl7
_symmetry_space_group_name_H-M   'P 1'
_cell_length_a   15.85174119
_cell_length_b   15.85174110
_cell_length_c   9.27869996
_cell_angle_alpha   95.67462765
_cell_angle_beta   95.67462727
_cell_angle_gamma   13.44535732
_symmetry_Int_Tables_number   1
_chemical_formula_structural   La8Cd4Cl7
_chemical_formula_sum   'La8 Cd4 Cl7'
_cell_volume   539.42887392
_cell_formula_units_Z   1
loop_
 _symmetry_equiv_pos_site_id
 _symmetry_equiv_pos_as_xyz
  1  'x, y, z'
loop_
 _atom_site_type_symbol
 _atom_site_label
 _atom_site_symmetry_multiplicity
 _atom_site_fract_x
 _atom_site_fract_y
 _atom_site_fract_z
 _atom_site_occupancy
  La  La0  1  0.203409  0.203409  0.815467  1
  La  La1  1  0.015935  0.015935  0.251392  1
  La  La2  1  0.591780  0.591780  0.589753  1
  La  La3  1  0.408220  0.408220  0.410247  1
  La  La4  1  0.351705  0.351705  0.840664  1
  La  La5  1  0.796591  0.796591  0.184533  1
  La  La6  1  0.984065  0.984065  0.748608  1
  La  La7  1  0.648295  0.648295  0.159336  1
  Cd  Cd8  1  0.452663  0.452663  0.010885  1
  Cd  Cd9  1  0.895444  0.895444  0.122934  1
  Cd  Cd10  1  0.104556  0.104556  0.877066  1
  Cd  Cd11  1  0.547337  0.547337  0.989115  1
  Cl  Cl12  1  0.778972  0.778972  0.866624  1
  Cl  Cl13  1  0.221028  0.221028  0.133376  1
  Cl  Cl14  1  0.314588  0.314588  0.429415  1
  Cl  Cl15  1  0.685412  0.685412  0.570585  1
  Cl  Cl16  1  0.500000  0.500000  0.500000  1
  Cl  Cl17  1  0.107242  0.107242  0.344409  1
  Cl  Cl18  1  0.892758  0.892758  0.655591  1
