# generated using pymatgen
data_Dy3YCu3Sb8
_symmetry_space_group_name_H-M   'P 1'
_cell_length_a   10.60136183
_cell_length_b   10.60098048
_cell_length_c   10.60112221
_cell_angle_alpha   146.54660047
_cell_angle_beta   146.54722585
_cell_angle_gamma   48.03570337
_symmetry_Int_Tables_number   1
_chemical_formula_structural   Dy3YCu3Sb8
_chemical_formula_sum   'Dy3 Y1 Cu3 Sb8'
_cell_volume   360.56513521
_cell_formula_units_Z   1
loop_
 _symmetry_equiv_pos_site_id
 _symmetry_equiv_pos_as_xyz
  1  'x, y, z'
loop_
 _atom_site_type_symbol
 _atom_site_label
 _atom_site_symmetry_multiplicity
 _atom_site_fract_x
 _atom_site_fract_y
 _atom_site_fract_z
 _atom_site_occupancy
  Dy  Dy0  1  0.633238  0.633238  0.507006  1
  Dy  Dy1  1  0.126232  0.126232  0.492994  1
  Dy  Dy2  1  0.873775  0.366768  0.000000  1
  Y  Y3  1  0.366801  0.873770  0.000000  1
  Cu  Cu4  1  0.999965  0.000011  0.000000  1
  Cu  Cu5  1  0.999968  0.499969  0.499954  1
  Cu  Cu6  1  0.500014  0.000015  0.500046  1
  Sb  Sb7  1  0.333910  0.333899  0.515606  1
  Sb  Sb8  1  0.818304  0.818293  0.484394  1
  Sb  Sb9  1  0.666067  0.181688  0.000000  1
  Sb  Sb10  1  0.181682  0.666065  0.000000  1
  Sb  Sb11  1  0.249833  0.249887  0.000000  1
  Sb  Sb12  1  0.750182  0.750135  0.000000  1
  Sb  Sb13  1  0.750038  0.250039  0.500048  1
  Sb  Sb14  1  0.249990  0.749991  0.499952  1
