# generated using pymatgen
data_Tb6GaCoRu
_symmetry_space_group_name_H-M   'P 1'
_cell_length_a   8.35734856
_cell_length_b   8.35734888
_cell_length_c   8.35734835
_cell_angle_alpha   112.35885176
_cell_angle_beta   110.18978296
_cell_angle_gamma   105.93001368
_symmetry_Int_Tables_number   1
_chemical_formula_structural   Tb6GaCoRu
_chemical_formula_sum   'Tb12 Ga2 Co2 Ru2'
_cell_volume   447.90004658
_cell_formula_units_Z   2
loop_
 _symmetry_equiv_pos_site_id
 _symmetry_equiv_pos_as_xyz
  1  'x, y, z'
loop_
 _atom_site_type_symbol
 _atom_site_label
 _atom_site_symmetry_multiplicity
 _atom_site_fract_x
 _atom_site_fract_y
 _atom_site_fract_z
 _atom_site_occupancy
  Tb  Tb0  1  0.052148  0.744536  0.307612  1
  Tb  Tb1  1  0.947852  0.255464  0.692388  1
  Tb  Tb2  1  0.563075  0.255464  0.307612  1
  Tb  Tb3  1  0.436925  0.744536  0.692388  1
  Tb  Tb4  1  0.675811  0.859880  0.184069  1
  Tb  Tb5  1  0.324189  0.508256  0.184069  1
  Tb  Tb6  1  0.324189  0.140120  0.815931  1
  Tb  Tb7  1  0.675811  0.491744  0.815931  1
  Tb  Tb8  1  0.179925  0.220129  0.400054  1
  Tb  Tb9  1  0.820075  0.220129  0.040205  1
  Tb  Tb10  1  0.179925  0.779871  0.959795  1
  Tb  Tb11  1  0.820075  0.779871  0.599946  1
  Ga  Ga12  1  0.000000  0.500000  0.500000  1
  Ga  Ga13  1  0.500000  0.000000  0.500000  1
  Co  Co14  1  0.888084  0.888084  0.000000  1
  Co  Co15  1  0.111916  0.111916  0.000000  1
  Ru  Ru16  1  0.674420  0.500000  0.174420  1
  Ru  Ru17  1  0.325580  0.500000  0.825580  1
