# generated using pymatgen
data_Y20Cd6IrRh
_symmetry_space_group_name_H-M   'P 1'
_cell_length_a   9.68384500
_cell_length_b   9.68384408
_cell_length_c   9.86487500
_cell_angle_alpha   90.00000000
_cell_angle_beta   90.00000000
_cell_angle_gamma   119.99999973
_symmetry_Int_Tables_number   1
_chemical_formula_structural   Y20Cd6IrRh
_chemical_formula_sum   'Y20 Cd6 Ir1 Rh1'
_cell_volume   801.15737896
_cell_formula_units_Z   1
loop_
 _symmetry_equiv_pos_site_id
 _symmetry_equiv_pos_as_xyz
  1  'x, y, z'
loop_
 _atom_site_type_symbol
 _atom_site_label
 _atom_site_symmetry_multiplicity
 _atom_site_fract_x
 _atom_site_fract_y
 _atom_site_fract_z
 _atom_site_occupancy
  Y  Y0  1  0.000000  0.000000  0.499803  1
  Y  Y1  1  0.000000  0.000000  0.000197  1
  Y  Y2  1  0.209291  0.790709  0.440507  1
  Y  Y3  1  0.209291  0.418583  0.440507  1
  Y  Y4  1  0.581417  0.790709  0.440507  1
  Y  Y5  1  0.790449  0.209551  0.559877  1
  Y  Y6  1  0.790449  0.580897  0.559877  1
  Y  Y7  1  0.419103  0.209551  0.559877  1
  Y  Y8  1  0.790449  0.209551  0.940123  1
  Y  Y9  1  0.790449  0.580897  0.940123  1
  Y  Y10  1  0.419103  0.209551  0.940123  1
  Y  Y11  1  0.209291  0.790709  0.059493  1
  Y  Y12  1  0.209291  0.418583  0.059493  1
  Y  Y13  1  0.581417  0.790709  0.059493  1
  Y  Y14  1  0.542109  0.457891  0.250000  1
  Y  Y15  1  0.542109  0.084219  0.250000  1
  Y  Y16  1  0.915781  0.457891  0.250000  1
  Y  Y17  1  0.458576  0.541424  0.750000  1
  Y  Y18  1  0.458576  0.917153  0.750000  1
  Y  Y19  1  0.082847  0.541424  0.750000  1
  Cd  Cd20  1  0.885218  0.114782  0.250000  1
  Cd  Cd21  1  0.885218  0.770438  0.250000  1
  Cd  Cd22  1  0.229562  0.114782  0.250000  1
  Cd  Cd23  1  0.114802  0.885198  0.750000  1
  Cd  Cd24  1  0.114802  0.229602  0.750000  1
  Cd  Cd25  1  0.770398  0.885198  0.750000  1
  Ir  Ir26  1  0.666667  0.333333  0.750000  1
  Rh  Rh27  1  0.333333  0.666667  0.250000  1
