# generated using pymatgen
data_BaMnCrP2
_symmetry_space_group_name_H-M   'P 1'
_cell_length_a   7.02267308
_cell_length_b   7.02267266
_cell_length_c   7.02267417
_cell_angle_alpha   147.95927214
_cell_angle_beta   147.95927105
_cell_angle_gamma   45.94549262
_symmetry_Int_Tables_number   1
_chemical_formula_structural   BaMnCrP2
_chemical_formula_sum   'Ba1 Mn1 Cr1 P2'
_cell_volume   97.14784012
_cell_formula_units_Z   1
loop_
 _symmetry_equiv_pos_site_id
 _symmetry_equiv_pos_as_xyz
  1  'x, y, z'
loop_
 _atom_site_type_symbol
 _atom_site_label
 _atom_site_symmetry_multiplicity
 _atom_site_fract_x
 _atom_site_fract_y
 _atom_site_fract_z
 _atom_site_occupancy
  Ba  Ba0  1  0.000000  0.000000  0.000000  1
  Mn  Mn1  1  0.250000  0.750000  0.500000  1
  Cr  Cr2  1  0.750000  0.250000  0.500000  1
  P  P3  1  0.652404  0.652404  0.000000  1
  P  P4  1  0.347596  0.347596  0.000000  1
