# generated using pymatgen
data_Ag5(P2O7)2
_symmetry_space_group_name_H-M   'P 1'
_cell_length_a   6.33831016
_cell_length_b   6.91890699
_cell_length_c   7.84902482
_cell_angle_alpha   77.57380928
_cell_angle_beta   79.51575402
_cell_angle_gamma   74.27534263
_symmetry_Int_Tables_number   1
_chemical_formula_structural   Ag5(P2O7)2
_chemical_formula_sum   'Ag5 P4 O14'
_cell_volume   320.75732653
_cell_formula_units_Z   1
loop_
 _symmetry_equiv_pos_site_id
 _symmetry_equiv_pos_as_xyz
  1  'x, y, z'
loop_
 _atom_site_type_symbol
 _atom_site_label
 _atom_site_symmetry_multiplicity
 _atom_site_fract_x
 _atom_site_fract_y
 _atom_site_fract_z
 _atom_site_occupancy
  Ag  Ag0  1  0.597413  0.990446  0.686674  1
  Ag  Ag1  1  0.402587  0.009554  0.313326  1
  Ag  Ag2  1  0.205823  0.513555  0.309887  1
  Ag  Ag3  1  0.000000  0.000000  0.000000  1
  Ag  Ag4  1  0.794177  0.486445  0.690113  1
  P  P5  1  0.176465  0.737204  0.675287  1
  P  P6  1  0.659865  0.667015  0.088300  1
  P  P7  1  0.340135  0.332985  0.911700  1
  P  P8  1  0.823535  0.262796  0.324713  1
  O  O9  1  0.226356  0.571677  0.853821  1
  O  O10  1  0.605023  0.216390  0.418453  1
  O  O11  1  0.659536  0.688319  0.889537  1
  O  O12  1  0.995389  0.083430  0.256864  1
  O  O13  1  0.928301  0.362795  0.438106  1
  O  O14  1  0.071699  0.637205  0.561894  1
  O  O15  1  0.340464  0.311681  0.110463  1
  O  O16  1  0.394977  0.783610  0.581547  1
  O  O17  1  0.576643  0.282504  0.810875  1
  O  O18  1  0.792459  0.795785  0.140734  1
  O  O19  1  0.207541  0.204215  0.859266  1
  O  O20  1  0.423357  0.717496  0.189125  1
  O  O21  1  0.004611  0.916570  0.743136  1
  O  O22  1  0.773644  0.428323  0.146179  1
