# generated using pymatgen
data_Ho3Ta2B4Ru10W
_symmetry_space_group_name_H-M   'P 1'
_cell_length_a   9.56809716
_cell_length_b   9.55966807
_cell_length_c   3.10057100
_cell_angle_alpha   90.00000000
_cell_angle_beta   90.00000000
_cell_angle_gamma   90.27018126
_symmetry_Int_Tables_number   1
_chemical_formula_structural   Ho3Ta2B4Ru10W
_chemical_formula_sum   'Ho3 Ta2 B4 Ru10 W1'
_cell_volume   283.59935689
_cell_formula_units_Z   1
loop_
 _symmetry_equiv_pos_site_id
 _symmetry_equiv_pos_as_xyz
  1  'x, y, z'
loop_
 _atom_site_type_symbol
 _atom_site_label
 _atom_site_symmetry_multiplicity
 _atom_site_fract_x
 _atom_site_fract_y
 _atom_site_fract_z
 _atom_site_occupancy
  Ho  Ho0  1  0.824430  0.675056  0.000000  1
  Ho  Ho1  1  0.175137  0.323945  0.000000  1
  Ho  Ho2  1  0.325199  0.825821  0.000000  1
  Ta  Ta3  1  0.676712  0.175328  0.000000  1
  Ta  Ta4  1  0.002548  0.998238  0.000000  1
  B  B5  1  0.623796  0.881835  0.000000  1
  B  B6  1  0.380126  0.122413  0.000000  1
  B  B7  1  0.117411  0.619438  0.000000  1
  B  B8  1  0.877456  0.376462  0.000000  1
  Ru  Ru9  1  0.569471  0.718463  0.500000  1
  Ru  Ru10  1  0.442034  0.283394  0.500000  1
  Ru  Ru11  1  0.070433  0.780162  0.500000  1
  Ru  Ru12  1  0.914680  0.213718  0.500000  1
  Ru  Ru13  1  0.283972  0.567219  0.500000  1
  Ru  Ru14  1  0.710966  0.418592  0.500000  1
  Ru  Ru15  1  0.221864  0.071654  0.500000  1
  Ru  Ru16  1  0.780222  0.939854  0.500000  1
  Ru  Ru17  1  0.509346  0.009772  0.500000  1
  Ru  Ru18  1  0.996587  0.495821  0.500000  1
  W  W19  1  0.497609  0.502813  0.000000  1
