# generated using pymatgen
data_NdDyCu9Ni
_symmetry_space_group_name_H-M   'P 1'
_cell_length_a   4.08640300
_cell_length_b   5.03710600
_cell_length_c   8.76795500
_cell_angle_alpha   90.00000000
_cell_angle_beta   90.00000000
_cell_angle_gamma   90.00000000
_symmetry_Int_Tables_number   1
_chemical_formula_structural   NdDyCu9Ni
_chemical_formula_sum   'Nd1 Dy1 Cu9 Ni1'
_cell_volume   180.47647371
_cell_formula_units_Z   1
loop_
 _symmetry_equiv_pos_site_id
 _symmetry_equiv_pos_as_xyz
  1  'x, y, z'
loop_
 _atom_site_type_symbol
 _atom_site_label
 _atom_site_symmetry_multiplicity
 _atom_site_fract_x
 _atom_site_fract_y
 _atom_site_fract_z
 _atom_site_occupancy
  Nd  Nd0  1  0.000000  0.500000  0.495359  1
  Dy  Dy1  1  0.000000  0.000000  0.005460  1
  Cu  Cu2  1  0.000000  0.000000  0.329530  1
  Cu  Cu3  1  0.000000  0.500000  0.836993  1
  Cu  Cu4  1  0.000000  0.000000  0.671260  1
  Cu  Cu5  1  0.500000  0.500000  0.000767  1
  Cu  Cu6  1  0.500000  0.000000  0.500077  1
  Cu  Cu7  1  0.500000  0.250227  0.245653  1
  Cu  Cu8  1  0.500000  0.751305  0.753366  1
  Cu  Cu9  1  0.500000  0.749773  0.245653  1
  Cu  Cu10  1  0.500000  0.248695  0.753366  1
  Ni  Ni11  1  0.000000  0.500000  0.162518  1
