# generated using pymatgen
data_Dy13Y2Ho(Tl3Co)2
_symmetry_space_group_name_H-M   'P 1'
_cell_length_a   10.35509900
_cell_length_b   10.35509816
_cell_length_c   7.10398300
_cell_angle_alpha   90.00002767
_cell_angle_beta   89.99996680
_cell_angle_gamma   119.99996754
_symmetry_Int_Tables_number   1
_chemical_formula_structural   Dy13Y2Ho(Tl3Co)2
_chemical_formula_sum   'Dy13 Y2 Ho1 Tl6 Co2'
_cell_volume   659.69191685
_cell_formula_units_Z   1
loop_
 _symmetry_equiv_pos_site_id
 _symmetry_equiv_pos_as_xyz
  1  'x, y, z'
loop_
 _atom_site_type_symbol
 _atom_site_label
 _atom_site_symmetry_multiplicity
 _atom_site_fract_x
 _atom_site_fract_y
 _atom_site_fract_z
 _atom_site_occupancy
  Dy  Dy0  1  0.462953  0.537047  0.481805  1
  Dy  Dy1  1  0.074094  0.537047  0.481805  1
  Dy  Dy2  1  0.462953  0.925906  0.481805  1
  Dy  Dy3  1  0.537315  0.462685  0.981649  1
  Dy  Dy4  1  0.925371  0.462685  0.981649  1
  Dy  Dy5  1  0.537315  0.074629  0.981649  1
  Dy  Dy6  1  0.821548  0.178452  0.278612  1
  Dy  Dy7  1  0.356904  0.178452  0.278612  1
  Dy  Dy8  1  0.821548  0.643097  0.278612  1
  Dy  Dy9  1  0.178073  0.821927  0.778283  1
  Dy  Dy10  1  0.643853  0.821927  0.778283  1
  Dy  Dy11  1  0.178073  0.356147  0.778283  1
  Dy  Dy12  1  0.333333  0.666667  0.090781  1
  Y  Y13  1  0.000000  0.000000  0.495882  1
  Y  Y14  1  0.000000  0.000000  0.996354  1
  Ho  Ho15  1  0.666667  0.333333  0.589286  1
  Tl  Tl16  1  0.163019  0.836981  0.232500  1
  Tl  Tl17  1  0.673963  0.836981  0.232500  1
  Tl  Tl18  1  0.163019  0.326037  0.232499  1
  Tl  Tl19  1  0.836640  0.163360  0.732115  1
  Tl  Tl20  1  0.326718  0.163360  0.732115  1
  Tl  Tl21  1  0.836640  0.673282  0.732115  1
  Co  Co22  1  0.333333  0.666667  0.708858  1
  Co  Co23  1  0.666667  0.333333  0.208502  1
