# generated using pymatgen
data_Tm4Tc5Ru3
_symmetry_space_group_name_H-M   'P 1'
_cell_length_a   5.26346158
_cell_length_b   5.17648697
_cell_length_c   9.06393600
_cell_angle_alpha   90.00000000
_cell_angle_beta   90.00000000
_cell_angle_gamma   119.10857134
_symmetry_Int_Tables_number   1
_chemical_formula_structural   Tm4Tc5Ru3
_chemical_formula_sum   'Tm4 Tc5 Ru3'
_cell_volume   215.76722652
_cell_formula_units_Z   1
loop_
 _symmetry_equiv_pos_site_id
 _symmetry_equiv_pos_as_xyz
  1  'x, y, z'
loop_
 _atom_site_type_symbol
 _atom_site_label
 _atom_site_symmetry_multiplicity
 _atom_site_fract_x
 _atom_site_fract_y
 _atom_site_fract_z
 _atom_site_occupancy
  Tm  Tm0  1  0.668946  0.334192  0.563823  1
  Tm  Tm1  1  0.329674  0.665182  0.434863  1
  Tm  Tm2  1  0.329674  0.665182  0.065137  1
  Tm  Tm3  1  0.668946  0.334192  0.936177  1
  Tc  Tc4  1  0.172303  0.344052  0.750000  1
  Tc  Tc5  1  0.171434  0.828983  0.750000  1
  Tc  Tc6  1  0.657565  0.828029  0.750000  1
  Tc  Tc7  1  0.833126  0.659645  0.250000  1
  Tc  Tc8  1  0.834501  0.174833  0.250000  1
  Ru  Ru9  1  0.992509  0.995966  0.498836  1
  Ru  Ru10  1  0.992509  0.995966  0.001164  1
  Ru  Ru11  1  0.348814  0.173778  0.250000  1
