# generated using pymatgen
data_NdY2Tm(MoN3)4
_symmetry_space_group_name_H-M   'P 1'
_cell_length_a   7.28657826
_cell_length_b   7.28658853
_cell_length_c   6.24107291
_cell_angle_alpha   74.74050204
_cell_angle_beta   74.74045289
_cell_angle_gamma   82.35003648
_symmetry_Int_Tables_number   1
_chemical_formula_structural   NdY2Tm(MoN3)4
_chemical_formula_sum   'Nd1 Y2 Tm1 Mo4 N12'
_cell_volume   307.68516296
_cell_formula_units_Z   1
loop_
 _symmetry_equiv_pos_site_id
 _symmetry_equiv_pos_as_xyz
  1  'x, y, z'
loop_
 _atom_site_type_symbol
 _atom_site_label
 _atom_site_symmetry_multiplicity
 _atom_site_fract_x
 _atom_site_fract_y
 _atom_site_fract_z
 _atom_site_occupancy
  Nd  Nd0  1  0.697301  0.302699  0.249999  1
  Y  Y1  1  0.087758  0.912242  0.250000  1
  Y  Y2  1  0.299463  0.700537  0.750000  1
  Tm  Tm3  1  0.916148  0.083852  0.750000  1
  Mo  Mo4  1  0.801242  0.619208  0.756716  1
  Mo  Mo5  1  0.198290  0.381484  0.241360  1
  Mo  Mo6  1  0.618516  0.801710  0.258640  1
  Mo  Mo7  1  0.380793  0.198758  0.743285  1
  N  N8  1  0.218949  0.998763  0.847833  1
  N  N9  1  0.352433  0.360960  0.460090  1
  N  N10  1  0.642276  0.639665  0.543464  1
  N  N11  1  0.623123  0.109992  0.668316  1
  N  N12  1  0.001237  0.781051  0.652168  1
  N  N13  1  0.785440  0.996379  0.144109  1
  N  N14  1  0.105734  0.621707  0.158356  1
  N  N15  1  0.890007  0.376878  0.831684  1
  N  N16  1  0.003620  0.214560  0.355889  1
  N  N17  1  0.360335  0.357724  0.956536  1
  N  N18  1  0.639039  0.647567  0.039910  1
  N  N19  1  0.378292  0.894265  0.341645  1
