# generated using pymatgen
data_Ho10Ir3Ru2Pt
_symmetry_space_group_name_H-M   'P 1'
_cell_length_a   10.80601866
_cell_length_b   10.80051100
_cell_length_c   6.43423497
_cell_angle_alpha   90.00000000
_cell_angle_beta   90.12729969
_cell_angle_gamma   90.00000000
_symmetry_Int_Tables_number   1
_chemical_formula_structural   Ho10Ir3Ru2Pt
_chemical_formula_sum   'Ho20 Ir6 Ru4 Pt2'
_cell_volume   750.94107815
_cell_formula_units_Z   2
loop_
 _symmetry_equiv_pos_site_id
 _symmetry_equiv_pos_as_xyz
  1  'x, y, z'
loop_
 _atom_site_type_symbol
 _atom_site_label
 _atom_site_symmetry_multiplicity
 _atom_site_fract_x
 _atom_site_fract_y
 _atom_site_fract_z
 _atom_site_occupancy
  Ho  Ho0  1  0.293500  0.086529  0.377694  1
  Ho  Ho1  1  0.293500  0.913471  0.877694  1
  Ho  Ho2  1  0.703087  0.088134  0.875329  1
  Ho  Ho3  1  0.703087  0.911866  0.375329  1
  Ho  Ho4  1  0.583737  0.793224  0.878141  1
  Ho  Ho5  1  0.583737  0.206776  0.378141  1
  Ho  Ho6  1  0.412735  0.793108  0.378243  1
  Ho  Ho7  1  0.412735  0.206892  0.878243  1
  Ho  Ho8  1  0.206836  0.413131  0.621848  1
  Ho  Ho9  1  0.206836  0.586869  0.121848  1
  Ho  Ho10  1  0.793183  0.416145  0.121503  1
  Ho  Ho11  1  0.793183  0.583855  0.621503  1
  Ho  Ho12  1  0.914855  0.704965  0.126327  1
  Ho  Ho13  1  0.914855  0.295035  0.626327  1
  Ho  Ho14  1  0.089169  0.704981  0.620941  1
  Ho  Ho15  1  0.089169  0.295019  0.120941  1
  Ho  Ho16  1  0.002947  0.999578  0.500092  1
  Ho  Ho17  1  0.002947  0.000422  0.000092  1
  Ho  Ho18  1  0.499766  0.499979  0.000178  1
  Ho  Ho19  1  0.499766  0.500021  0.500178  1
  Ir  Ir20  1  0.151488  0.151932  0.749864  1
  Ir  Ir21  1  0.151488  0.848068  0.249864  1
  Ir  Ir22  1  0.653258  0.346900  0.749843  1
  Ir  Ir23  1  0.653258  0.653100  0.249843  1
  Ir  Ir24  1  0.347490  0.347602  0.249778  1
  Ir  Ir25  1  0.347490  0.652398  0.749778  1
  Ru  Ru26  1  0.500828  0.000082  0.123201  1
  Ru  Ru27  1  0.500828  0.999918  0.623201  1
  Ru  Ru28  1  0.999951  0.499937  0.876732  1
  Ru  Ru29  1  0.999951  0.500063  0.376732  1
  Pt  Pt30  1  0.847170  0.152335  0.250286  1
  Pt  Pt31  1  0.847170  0.847665  0.750286  1
