# generated using pymatgen
data_Hf3Zr8Ta9Si16
_symmetry_space_group_name_H-M   'P 1'
_cell_length_a   6.93681268
_cell_length_b   6.93067653
_cell_length_c   12.79802074
_cell_angle_alpha   90.10357010
_cell_angle_beta   89.84587768
_cell_angle_gamma   89.99134876
_symmetry_Int_Tables_number   1
_chemical_formula_structural   Hf3Zr8Ta9Si16
_chemical_formula_sum   'Hf3 Zr8 Ta9 Si16'
_cell_volume   615.28470716
_cell_formula_units_Z   1
loop_
 _symmetry_equiv_pos_site_id
 _symmetry_equiv_pos_as_xyz
  1  'x, y, z'
loop_
 _atom_site_type_symbol
 _atom_site_label
 _atom_site_symmetry_multiplicity
 _atom_site_fract_x
 _atom_site_fract_y
 _atom_site_fract_z
 _atom_site_occupancy
  Hf  Hf0  1  0.500320  0.350831  0.622565  1
  Hf  Hf1  1  0.501336  0.649673  0.124402  1
  Hf  Hf2  1  0.148095  0.998824  0.873844  1
  Zr  Zr3  1  0.001609  0.654673  0.032976  1
  Zr  Zr4  1  0.999001  0.344033  0.530183  1
  Zr  Zr5  1  0.656957  0.999656  0.969193  1
  Zr  Zr6  1  0.154052  0.498802  0.781014  1
  Zr  Zr7  1  0.844856  0.501241  0.281796  1
  Zr  Zr8  1  0.501245  0.157258  0.220238  1
  Zr  Zr9  1  0.501229  0.843149  0.718034  1
  Zr  Zr10  1  0.342119  0.001535  0.468499  1
  Ta  Ta11  1  0.348167  0.508182  0.376260  1
  Ta  Ta12  1  0.851854  0.997975  0.373907  1
  Ta  Ta13  1  0.007451  0.152248  0.126235  1
  Ta  Ta14  1  0.992198  0.849179  0.626417  1
  Ta  Ta15  1  0.651385  0.491250  0.875881  1
  Ta  Ta16  1  0.670226  0.673274  0.499172  1
  Ta  Ta17  1  0.827081  0.169350  0.749502  1
  Ta  Ta18  1  0.172220  0.832374  0.251591  1
  Ta  Ta19  1  0.330537  0.327155  0.000254  1
  Si  Si20  1  0.044538  0.703264  0.436720  1
  Si  Si21  1  0.954621  0.299200  0.936424  1
  Si  Si22  1  0.701764  0.045210  0.562272  1
  Si  Si23  1  0.202303  0.453752  0.186998  1
  Si  Si24  1  0.798894  0.545705  0.685718  1
  Si  Si25  1  0.454025  0.199528  0.813839  1
  Si  Si26  1  0.547973  0.800931  0.314809  1
  Si  Si27  1  0.300306  0.954945  0.064797  1
  Si  Si28  1  0.856228  0.789550  0.821749  1
  Si  Si29  1  0.138068  0.209964  0.323145  1
  Si  Si30  1  0.798667  0.865032  0.178857  1
  Si  Si31  1  0.289578  0.642875  0.571962  1
  Si  Si32  1  0.709806  0.356668  0.072063  1
  Si  Si33  1  0.636547  0.294023  0.424999  1
  Si  Si34  1  0.363011  0.701275  0.927114  1
  Si  Si35  1  0.201733  0.137419  0.676568  1
