# generated using pymatgen
data_Lu10GaSn3Sb2
_symmetry_space_group_name_H-M   'P 1'
_cell_length_a   8.71517870
_cell_length_b   8.69672111
_cell_length_c   6.33073000
_cell_angle_alpha   90.00000000
_cell_angle_beta   90.00000000
_cell_angle_gamma   119.85440698
_symmetry_Int_Tables_number   1
_chemical_formula_structural   Lu10GaSn3Sb2
_chemical_formula_sum   'Lu10 Ga1 Sn3 Sb2'
_cell_volume   416.15157761
_cell_formula_units_Z   1
loop_
 _symmetry_equiv_pos_site_id
 _symmetry_equiv_pos_as_xyz
  1  'x, y, z'
loop_
 _atom_site_type_symbol
 _atom_site_label
 _atom_site_symmetry_multiplicity
 _atom_site_fract_x
 _atom_site_fract_y
 _atom_site_fract_z
 _atom_site_occupancy
  Lu  Lu0  1  0.676274  0.333436  0.002419  1
  Lu  Lu1  1  0.323744  0.660506  0.002326  1
  Lu  Lu2  1  0.323744  0.660506  0.497674  1
  Lu  Lu3  1  0.676274  0.333436  0.497581  1
  Lu  Lu4  1  0.763986  0.763975  0.750000  1
  Lu  Lu5  1  0.235210  0.996323  0.750000  1
  Lu  Lu6  1  0.996661  0.235959  0.750000  1
  Lu  Lu7  1  0.229165  0.240515  0.250000  1
  Lu  Lu8  1  0.771451  0.014734  0.250000  1
  Lu  Lu9  1  0.003650  0.759036  0.250000  1
  Ga  Ga10  1  0.000897  0.397414  0.250000  1
  Sn  Sn11  1  0.601030  0.995974  0.750000  1
  Sn  Sn12  1  0.998901  0.603569  0.750000  1
  Sn  Sn13  1  0.395044  0.002273  0.250000  1
  Sb  Sb14  1  0.394722  0.391273  0.750000  1
  Sb  Sb15  1  0.609246  0.611073  0.250000  1
