# generated using pymatgen
data_La3Nd(InRh)4
_symmetry_space_group_name_H-M   'P 1'
_cell_length_a   4.38587900
_cell_length_b   7.34978398
_cell_length_c   8.68604363
_cell_angle_alpha   90.44252434
_cell_angle_beta   90.00000000
_cell_angle_gamma   90.00000000
_symmetry_Int_Tables_number   1
_chemical_formula_structural   La3Nd(InRh)4
_chemical_formula_sum   'La3 Nd1 In4 Rh4'
_cell_volume   279.98855166
_cell_formula_units_Z   1
loop_
 _symmetry_equiv_pos_site_id
 _symmetry_equiv_pos_as_xyz
  1  'x, y, z'
loop_
 _atom_site_type_symbol
 _atom_site_label
 _atom_site_symmetry_multiplicity
 _atom_site_fract_x
 _atom_site_fract_y
 _atom_site_fract_z
 _atom_site_occupancy
  La  La0  1  0.250000  0.035619  0.179920  1
  La  La1  1  0.750000  0.964297  0.820384  1
  La  La2  1  0.250000  0.536445  0.322069  1
  Nd  Nd3  1  0.750000  0.461816  0.680888  1
  In  In4  1  0.750000  0.361050  0.058059  1
  In  In5  1  0.250000  0.636633  0.938667  1
  In  In6  1  0.750000  0.861360  0.441629  1
  In  In7  1  0.250000  0.141373  0.559498  1
  Rh  Rh8  1  0.250000  0.753107  0.628785  1
  Rh  Rh9  1  0.750000  0.249704  0.369899  1
  Rh  Rh10  1  0.250000  0.251678  0.870720  1
  Rh  Rh11  1  0.750000  0.746917  0.129481  1
