# generated using pymatgen
data_CsV2CoTe3
_symmetry_space_group_name_H-M   'P 1'
_cell_length_a   4.40781400
_cell_length_b   10.21776515
_cell_length_c   10.17235051
_cell_angle_alpha   119.36833069
_cell_angle_beta   90.00000000
_cell_angle_gamma   90.00000000
_symmetry_Int_Tables_number   1
_chemical_formula_structural   CsV2CoTe3
_chemical_formula_sum   'Cs2 V4 Co2 Te6'
_cell_volume   399.26424303
_cell_formula_units_Z   2
loop_
 _symmetry_equiv_pos_site_id
 _symmetry_equiv_pos_as_xyz
  1  'x, y, z'
loop_
 _atom_site_type_symbol
 _atom_site_label
 _atom_site_symmetry_multiplicity
 _atom_site_fract_x
 _atom_site_fract_y
 _atom_site_fract_z
 _atom_site_occupancy
  Cs  Cs0  1  0.750000  0.666712  0.326171  1
  Cs  Cs1  1  0.250000  0.341507  0.679838  1
  V  V2  1  0.750000  0.888916  0.018083  1
  V  V3  1  0.250000  0.022716  0.169260  1
  V  V4  1  0.250000  0.832469  0.852609  1
  V  V5  1  0.250000  0.101539  0.982777  1
  Co  Co6  1  0.750000  0.974861  0.829350  1
  Co  Co7  1  0.750000  0.165250  0.145547  1
  Te  Te8  1  0.750000  0.682852  0.708598  1
  Te  Te9  1  0.750000  0.260360  0.956597  1
  Te  Te10  1  0.750000  0.060925  0.333097  1
  Te  Te11  1  0.250000  0.324442  0.282595  1
  Te  Te12  1  0.250000  0.719149  0.044912  1
  Te  Te13  1  0.250000  0.958303  0.670566  1
