# generated using pymatgen
data_Tm3Lu(B4Mo)4
_symmetry_space_group_name_H-M   'P 1'
_cell_length_a   3.59503700
_cell_length_b   5.99265802
_cell_length_c   11.57580468
_cell_angle_alpha   89.97525998
_cell_angle_beta   90.00000000
_cell_angle_gamma   90.00000000
_symmetry_Int_Tables_number   1
_chemical_formula_structural   Tm3Lu(B4Mo)4
_chemical_formula_sum   'Tm3 Lu1 B16 Mo4'
_cell_volume   249.38711388
_cell_formula_units_Z   1
loop_
 _symmetry_equiv_pos_site_id
 _symmetry_equiv_pos_as_xyz
  1  'x, y, z'
loop_
 _atom_site_type_symbol
 _atom_site_label
 _atom_site_symmetry_multiplicity
 _atom_site_fract_x
 _atom_site_fract_y
 _atom_site_fract_z
 _atom_site_occupancy
  Tm  Tm0  1  0.000000  0.627353  0.350424  1
  Tm  Tm1  1  0.000000  0.372668  0.649624  1
  Tm  Tm2  1  0.000000  0.127314  0.149526  1
  Lu  Lu3  1  0.000000  0.872659  0.850592  1
  B  B4  1  0.500000  0.787986  0.186683  1
  B  B5  1  0.500000  0.211444  0.813333  1
  B  B6  1  0.500000  0.287990  0.313224  1
  B  B7  1  0.500000  0.712121  0.687071  1
  B  B8  1  0.500000  0.867924  0.031569  1
  B  B9  1  0.500000  0.131945  0.967911  1
  B  B10  1  0.500000  0.367808  0.468187  1
  B  B11  1  0.500000  0.632250  0.531914  1
  B  B12  1  0.500000  0.885074  0.452077  1
  B  B13  1  0.500000  0.114812  0.548073  1
  B  B14  1  0.500000  0.385199  0.047791  1
  B  B15  1  0.500000  0.615503  0.951679  1
  B  B16  1  0.500000  0.976254  0.305722  1
  B  B17  1  0.500000  0.023352  0.694690  1
  B  B18  1  0.500000  0.476298  0.194209  1
  B  B19  1  0.500000  0.524049  0.805696  1
  Mo  Mo20  1  0.000000  0.630644  0.083941  1
  Mo  Mo21  1  0.000000  0.369426  0.915597  1
  Mo  Mo22  1  0.000000  0.130445  0.415856  1
  Mo  Mo23  1  0.000000  0.869481  0.584609  1
