# generated using pymatgen
data_Lu16In3HgPt3Rh
_symmetry_space_group_name_H-M   'P 1'
_cell_length_a   9.47042744
_cell_length_b   9.48314316
_cell_length_c   9.48316165
_cell_angle_alpha   60.06404742
_cell_angle_beta   60.18669853
_cell_angle_gamma   60.18683943
_symmetry_Int_Tables_number   1
_chemical_formula_structural   Lu16In3HgPt3Rh
_chemical_formula_sum   'Lu16 In3 Hg1 Pt3 Rh1'
_cell_volume   604.21466900
_cell_formula_units_Z   1
loop_
 _symmetry_equiv_pos_site_id
 _symmetry_equiv_pos_as_xyz
  1  'x, y, z'
loop_
 _atom_site_type_symbol
 _atom_site_label
 _atom_site_symmetry_multiplicity
 _atom_site_fract_x
 _atom_site_fract_y
 _atom_site_fract_z
 _atom_site_occupancy
  Lu  Lu0  1  0.600950  0.598207  0.598208  1
  Lu  Lu1  1  0.605123  0.601657  0.193947  1
  Lu  Lu2  1  0.605098  0.193957  0.601662  1
  Lu  Lu3  1  0.191096  0.603827  0.603829  1
  Lu  Lu4  1  0.057897  0.439832  0.439832  1
  Lu  Lu5  1  0.440320  0.059584  0.059580  1
  Lu  Lu6  1  0.440536  0.059125  0.440709  1
  Lu  Lu7  1  0.057844  0.439647  0.062724  1
  Lu  Lu8  1  0.440537  0.440713  0.059130  1
  Lu  Lu9  1  0.057819  0.062715  0.439659  1
  Lu  Lu10  1  0.183593  0.813796  0.813800  1
  Lu  Lu11  1  0.812137  0.188074  0.188073  1
  Lu  Lu12  1  0.814134  0.183837  0.813180  1
  Lu  Lu13  1  0.188120  0.811802  0.187645  1
  Lu  Lu14  1  0.814120  0.813213  0.183833  1
  Lu  Lu15  1  0.188119  0.187648  0.811799  1
  In  In16  1  0.833382  0.833541  0.499860  1
  In  In17  1  0.833391  0.499854  0.833547  1
  In  In18  1  0.498927  0.833793  0.833787  1
  Hg  Hg19  1  0.837764  0.837644  0.837643  1
  Pt  Pt20  1  0.393439  0.393241  0.393237  1
  Pt  Pt21  1  0.391431  0.391451  0.821788  1
  Pt  Pt22  1  0.391430  0.821786  0.391447  1
  Rh  Rh23  1  0.822794  0.391058  0.391079  1
