# generated using pymatgen
data_Sc5CrOsC7
_symmetry_space_group_name_H-M   'P 1'
_cell_length_a   7.78723771
_cell_length_b   7.78723726
_cell_length_c   3.23529200
_cell_angle_alpha   90.00000000
_cell_angle_beta   90.00000000
_cell_angle_gamma   121.10234728
_symmetry_Int_Tables_number   1
_chemical_formula_structural   Sc5CrOsC7
_chemical_formula_sum   'Sc5 Cr1 Os1 C7'
_cell_volume   167.98822418
_cell_formula_units_Z   1
loop_
 _symmetry_equiv_pos_site_id
 _symmetry_equiv_pos_as_xyz
  1  'x, y, z'
loop_
 _atom_site_type_symbol
 _atom_site_label
 _atom_site_symmetry_multiplicity
 _atom_site_fract_x
 _atom_site_fract_y
 _atom_site_fract_z
 _atom_site_occupancy
  Sc  Sc0  1  0.082073  0.339653  0.500000  1
  Sc  Sc1  1  0.341393  0.083049  0.500000  1
  Sc  Sc2  1  0.499978  0.500022  0.000000  1
  Sc  Sc3  1  0.916951  0.658607  0.500000  1
  Sc  Sc4  1  0.660347  0.917927  0.500000  1
  Cr  Cr5  1  0.711782  0.288218  0.000000  1
  Os  Os6  1  0.284793  0.715207  0.000000  1
  C  C7  1  0.999217  0.000783  0.000000  1
  C  C8  1  0.990105  0.488843  0.000000  1
  C  C9  1  0.511157  0.009895  0.000000  1
  C  C10  1  0.176700  0.176563  0.000000  1
  C  C11  1  0.823437  0.823300  0.000000  1
  C  C12  1  0.622460  0.377540  0.500000  1
  C  C13  1  0.379605  0.620395  0.500000  1
