# generated using pymatgen
data_Dy19LuSn16
_symmetry_space_group_name_H-M   'P 1'
_cell_length_a   8.02194506
_cell_length_b   8.15661108
_cell_length_c   15.47487100
_cell_angle_alpha   90.00000000
_cell_angle_beta   90.00000000
_cell_angle_gamma   89.94109817
_symmetry_Int_Tables_number   1
_chemical_formula_structural   Dy19LuSn16
_chemical_formula_sum   'Dy19 Lu1 Sn16'
_cell_volume   1012.54945912
_cell_formula_units_Z   1
loop_
 _symmetry_equiv_pos_site_id
 _symmetry_equiv_pos_as_xyz
  1  'x, y, z'
loop_
 _atom_site_type_symbol
 _atom_site_label
 _atom_site_symmetry_multiplicity
 _atom_site_fract_x
 _atom_site_fract_y
 _atom_site_fract_z
 _atom_site_occupancy
  Dy  Dy0  1  0.367550  0.836791  0.877627  1
  Dy  Dy1  1  0.868183  0.662711  0.622297  1
  Dy  Dy2  1  0.632144  0.163083  0.377926  1
  Dy  Dy3  1  0.132166  0.336992  0.121579  1
  Dy  Dy4  1  0.632144  0.163083  0.122074  1
  Dy  Dy5  1  0.132166  0.336992  0.378421  1
  Dy  Dy6  1  0.367550  0.836791  0.622373  1
  Dy  Dy7  1  0.868183  0.662711  0.877703  1
  Dy  Dy8  1  0.520738  0.321056  0.902387  1
  Dy  Dy9  1  0.021232  0.179611  0.597662  1
  Dy  Dy10  1  0.479290  0.679359  0.402847  1
  Dy  Dy11  1  0.979182  0.820637  0.097463  1
  Dy  Dy12  1  0.479290  0.679359  0.097153  1
  Dy  Dy13  1  0.979182  0.820637  0.402537  1
  Dy  Dy14  1  0.520738  0.321056  0.597613  1
  Dy  Dy15  1  0.021232  0.179611  0.902338  1
  Dy  Dy16  1  0.698662  0.997420  0.750000  1
  Dy  Dy17  1  0.800935  0.496946  0.250000  1
  Dy  Dy18  1  0.300966  0.002933  0.250000  1
  Lu  Lu19  1  0.199055  0.503298  0.750000  1
  Sn  Sn20  1  0.292357  0.035826  0.041454  1
  Sn  Sn21  1  0.792242  0.463877  0.458436  1
  Sn  Sn22  1  0.707868  0.964204  0.541889  1
  Sn  Sn23  1  0.207779  0.535662  0.957094  1
  Sn  Sn24  1  0.707868  0.964204  0.958111  1
  Sn  Sn25  1  0.207779  0.535662  0.542906  1
  Sn  Sn26  1  0.292357  0.035826  0.458546  1
  Sn  Sn27  1  0.792242  0.463877  0.041564  1
  Sn  Sn28  1  0.563524  0.617644  0.750000  1
  Sn  Sn29  1  0.065826  0.880365  0.750000  1
  Sn  Sn30  1  0.433732  0.381133  0.250000  1
  Sn  Sn31  1  0.934269  0.118857  0.250000  1
  Sn  Sn32  1  0.329647  0.150004  0.750000  1
  Sn  Sn33  1  0.831063  0.352665  0.750000  1
  Sn  Sn34  1  0.670311  0.851961  0.250000  1
  Sn  Sn35  1  0.170546  0.647160  0.250000  1
