# generated using pymatgen
data_Tb8Ga(Si4Ir)3
_symmetry_space_group_name_H-M   'P 1'
_cell_length_a   8.16803900
_cell_length_b   8.16803815
_cell_length_c   8.14687100
_cell_angle_alpha   90.00000000
_cell_angle_beta   90.00000000
_cell_angle_gamma   120.00000750
_symmetry_Int_Tables_number   1
_chemical_formula_structural   Tb8Ga(Si4Ir)3
_chemical_formula_sum   'Tb8 Ga1 Si12 Ir3'
_cell_volume   470.71387348
_cell_formula_units_Z   1
loop_
 _symmetry_equiv_pos_site_id
 _symmetry_equiv_pos_as_xyz
  1  'x, y, z'
loop_
 _atom_site_type_symbol
 _atom_site_label
 _atom_site_symmetry_multiplicity
 _atom_site_fract_x
 _atom_site_fract_y
 _atom_site_fract_z
 _atom_site_occupancy
  Tb  Tb0  1  0.504106  0.008210  0.245626  1
  Tb  Tb1  1  0.500075  0.000151  0.753804  1
  Tb  Tb2  1  0.991790  0.495894  0.245626  1
  Tb  Tb3  1  0.999849  0.499925  0.753804  1
  Tb  Tb4  1  0.504106  0.495894  0.245626  1
  Tb  Tb5  1  0.500075  0.499925  0.753804  1
  Tb  Tb6  1  0.000000  0.000000  0.250620  1
  Tb  Tb7  1  0.000000  0.000000  0.752755  1
  Ga  Ga8  1  0.333333  0.666667  0.484588  1
  Si  Si9  1  0.167125  0.334251  0.002507  1
  Si  Si10  1  0.833701  0.667404  0.997823  1
  Si  Si11  1  0.665749  0.832875  0.002507  1
  Si  Si12  1  0.831858  0.663716  0.499081  1
  Si  Si13  1  0.332596  0.166299  0.997823  1
  Si  Si14  1  0.162351  0.324703  0.504073  1
  Si  Si15  1  0.167125  0.832875  0.002507  1
  Si  Si16  1  0.336284  0.168142  0.499081  1
  Si  Si17  1  0.833701  0.166299  0.997823  1
  Si  Si18  1  0.675297  0.837649  0.504073  1
  Si  Si19  1  0.831858  0.168142  0.499081  1
  Si  Si20  1  0.162351  0.837649  0.504073  1
  Ir  Ir21  1  0.333333  0.666667  0.003797  1
  Ir  Ir22  1  0.666667  0.333333  0.996249  1
  Ir  Ir23  1  0.666667  0.333333  0.503247  1
