# generated using pymatgen
data_Sr6Ag16N
_symmetry_space_group_name_H-M   'P 1'
_cell_length_a   8.80745375
_cell_length_b   8.80745282
_cell_length_c   8.80745300
_cell_angle_alpha   109.47122334
_cell_angle_beta   109.47122121
_cell_angle_gamma   109.47121894
_symmetry_Int_Tables_number   1
_chemical_formula_structural   Sr6Ag16N
_chemical_formula_sum   'Sr6 Ag16 N1'
_cell_volume   525.93143791
_cell_formula_units_Z   1
loop_
 _symmetry_equiv_pos_site_id
 _symmetry_equiv_pos_as_xyz
  1  'x, y, z'
loop_
 _atom_site_type_symbol
 _atom_site_label
 _atom_site_symmetry_multiplicity
 _atom_site_fract_x
 _atom_site_fract_y
 _atom_site_fract_z
 _atom_site_occupancy
  Sr  Sr0  1  0.000000  0.262468  0.262468  1
  Sr  Sr1  1  0.262468  0.000000  0.262468  1
  Sr  Sr2  1  0.737532  0.000000  0.737532  1
  Sr  Sr3  1  0.737532  0.737532  0.000000  1
  Sr  Sr4  1  0.262468  0.262468  0.000000  1
  Sr  Sr5  1  0.000000  0.737532  0.737532  1
  Ag  Ag6  1  0.500000  0.500000  0.500000  1
  Ag  Ag7  1  0.500000  0.000000  0.000000  1
  Ag  Ag8  1  0.000000  0.500000  0.000000  1
  Ag  Ag9  1  0.000000  0.000000  0.500000  1
  Ag  Ag10  1  0.682066  0.341033  0.341033  1
  Ag  Ag11  1  0.341033  0.000000  0.658967  1
  Ag  Ag12  1  0.341033  0.682066  0.341033  1
  Ag  Ag13  1  0.341033  0.341033  0.682066  1
  Ag  Ag14  1  0.341033  0.658967  0.000000  1
  Ag  Ag15  1  0.000000  0.341033  0.658967  1
  Ag  Ag16  1  0.000000  0.658967  0.341033  1
  Ag  Ag17  1  0.658967  0.658967  0.317934  1
  Ag  Ag18  1  0.658967  0.000000  0.341033  1
  Ag  Ag19  1  0.658967  0.341033  0.000000  1
  Ag  Ag20  1  0.658967  0.317934  0.658967  1
  Ag  Ag21  1  0.317934  0.658967  0.658967  1
  N  N22  1  0.000000  0.000000  0.000000  1
