# generated using pymatgen
data_Pr8Sc12Si15Os
_symmetry_space_group_name_H-M   'P 1'
_cell_length_a   7.25380240
_cell_length_b   14.28753100
_cell_length_c   7.55607315
_cell_angle_alpha   90.00074625
_cell_angle_beta   90.29645592
_cell_angle_gamma   89.99951125
_symmetry_Int_Tables_number   1
_chemical_formula_structural   Pr8Sc12Si15Os
_chemical_formula_sum   'Pr8 Sc12 Si15 Os1'
_cell_volume   783.09282910
_cell_formula_units_Z   1
loop_
 _symmetry_equiv_pos_site_id
 _symmetry_equiv_pos_as_xyz
  1  'x, y, z'
loop_
 _atom_site_type_symbol
 _atom_site_label
 _atom_site_symmetry_multiplicity
 _atom_site_fract_x
 _atom_site_fract_y
 _atom_site_fract_z
 _atom_site_occupancy
  Pr  Pr0  1  0.008142  0.598990  0.172968  1
  Pr  Pr1  1  0.008156  0.901015  0.172969  1
  Pr  Pr2  1  0.518144  0.600188  0.322353  1
  Pr  Pr3  1  0.518135  0.899822  0.322356  1
  Pr  Pr4  1  0.488478  0.097342  0.670512  1
  Pr  Pr5  1  0.488477  0.402650  0.670512  1
  Pr  Pr6  1  0.987487  0.098580  0.827601  1
  Pr  Pr7  1  0.987474  0.401408  0.827613  1
  Sc  Sc8  1  0.659129  0.249953  0.000596  1
  Sc  Sc9  1  0.353585  0.750045  0.005308  1
  Sc  Sc10  1  0.328386  0.124639  0.176855  1
  Sc  Sc11  1  0.328407  0.375317  0.176857  1
  Sc  Sc12  1  0.829453  0.125734  0.324739  1
  Sc  Sc13  1  0.829440  0.374227  0.324737  1
  Sc  Sc14  1  0.835838  0.750047  0.498008  1
  Sc  Sc15  1  0.159234  0.249983  0.496731  1
  Sc  Sc16  1  0.170537  0.624343  0.675653  1
  Sc  Sc17  1  0.170524  0.875691  0.675664  1
  Sc  Sc18  1  0.670985  0.627413  0.830076  1
  Sc  Sc19  1  0.671014  0.872623  0.830073  1
  Si  Si20  1  0.648553  0.040730  0.036491  1
  Si  Si21  1  0.648526  0.459258  0.036487  1
  Si  Si22  1  0.034091  0.249979  0.125142  1
  Si  Si23  1  0.534365  0.249980  0.373170  1
  Si  Si24  1  0.212822  0.750012  0.391905  1
  Si  Si25  1  0.149557  0.040718  0.464981  1
  Si  Si26  1  0.149536  0.459280  0.464983  1
  Si  Si27  1  0.849751  0.539054  0.538480  1
  Si  Si28  1  0.849727  0.960951  0.538477  1
  Si  Si29  1  0.787168  0.249987  0.617149  1
  Si  Si30  1  0.460130  0.750018  0.623803  1
  Si  Si31  1  0.968049  0.750015  0.874531  1
  Si  Si32  1  0.287907  0.249988  0.882361  1
  Si  Si33  1  0.346739  0.537979  0.959710  1
  Si  Si34  1  0.346720  0.962025  0.959703  1
  Os  Os35  1  0.715341  0.750014  0.110443  1
