# generated using pymatgen
data_CaYb4FeC8
_symmetry_space_group_name_H-M   'P 1'
_cell_length_a   6.81040113
_cell_length_b   6.81040100
_cell_length_c   6.81039952
_cell_angle_alpha   131.64711438
_cell_angle_beta   111.30563909
_cell_angle_gamma   88.40216794
_symmetry_Int_Tables_number   1
_chemical_formula_structural   CaYb4FeC8
_chemical_formula_sum   'Ca1 Yb4 Fe1 C8'
_cell_volume   209.30401004
_cell_formula_units_Z   1
loop_
 _symmetry_equiv_pos_site_id
 _symmetry_equiv_pos_as_xyz
  1  'x, y, z'
loop_
 _atom_site_type_symbol
 _atom_site_label
 _atom_site_symmetry_multiplicity
 _atom_site_fract_x
 _atom_site_fract_y
 _atom_site_fract_z
 _atom_site_occupancy
  Ca  Ca0  1  0.000000  0.250000  0.250000  1
  Yb  Yb1  1  0.206609  0.347052  0.846835  1
  Yb  Yb2  1  0.793391  0.640227  0.140444  1
  Yb  Yb3  1  0.500216  0.859773  0.653165  1
  Yb  Yb4  1  0.499784  0.152948  0.359556  1
  Fe  Fe5  1  0.000000  0.750000  0.750000  1
  C  C6  1  0.802746  0.139977  0.692637  1
  C  C7  1  0.197254  0.889889  0.337229  1
  C  C8  1  0.447339  0.610111  0.807363  1
  C  C9  1  0.552661  0.360023  0.162771  1
  C  C10  1  0.906038  0.995777  0.732311  1
  C  C11  1  0.093962  0.826273  0.089739  1
  C  C12  1  0.263466  0.673727  0.767689  1
  C  C13  1  0.736534  0.504223  0.410261  1
