# generated using pymatgen
data_Er4Lu(GeB4)2
_symmetry_space_group_name_H-M   'P 1'
_cell_length_a   7.19287700
_cell_length_b   7.19287700
_cell_length_c   8.01846200
_cell_angle_alpha   90.00000000
_cell_angle_beta   90.00000000
_cell_angle_gamma   90.00000000
_symmetry_Int_Tables_number   1
_chemical_formula_structural   Er4Lu(GeB4)2
_chemical_formula_sum   'Er8 Lu2 Ge4 B16'
_cell_volume   414.85501364
_cell_formula_units_Z   2
loop_
 _symmetry_equiv_pos_site_id
 _symmetry_equiv_pos_as_xyz
  1  'x, y, z'
loop_
 _atom_site_type_symbol
 _atom_site_label
 _atom_site_symmetry_multiplicity
 _atom_site_fract_x
 _atom_site_fract_y
 _atom_site_fract_z
 _atom_site_occupancy
  Er  Er0  1  0.680223  0.180223  0.221566  1
  Er  Er1  1  0.319777  0.819777  0.778434  1
  Er  Er2  1  0.319777  0.819777  0.221566  1
  Er  Er3  1  0.819777  0.680223  0.221566  1
  Er  Er4  1  0.819777  0.680223  0.778434  1
  Er  Er5  1  0.680223  0.180223  0.778434  1
  Er  Er6  1  0.180223  0.319777  0.778434  1
  Er  Er7  1  0.180223  0.319777  0.221566  1
  Lu  Lu8  1  0.000000  0.000000  0.500000  1
  Lu  Lu9  1  0.500000  0.500000  0.500000  1
  Ge  Ge10  1  0.121263  0.621263  0.500000  1
  Ge  Ge11  1  0.878737  0.378737  0.500000  1
  Ge  Ge12  1  0.378737  0.121263  0.500000  1
  Ge  Ge13  1  0.621263  0.878737  0.500000  1
  B  B14  1  0.172626  0.039311  0.000000  1
  B  B15  1  0.827374  0.960689  0.000000  1
  B  B16  1  0.960689  0.172626  0.000000  1
  B  B17  1  0.327374  0.539311  0.000000  1
  B  B18  1  0.039311  0.827374  0.000000  1
  B  B19  1  0.672626  0.460689  0.000000  1
  B  B20  1  0.539311  0.672626  0.000000  1
  B  B21  1  0.460689  0.327374  0.000000  1
  B  B22  1  0.089736  0.589736  0.000000  1
  B  B23  1  0.910264  0.410264  0.000000  1
  B  B24  1  0.410264  0.089736  0.000000  1
  B  B25  1  0.589736  0.910264  0.000000  1
  B  B26  1  0.000000  0.000000  0.165484  1
  B  B27  1  0.000000  0.000000  0.834516  1
  B  B28  1  0.500000  0.500000  0.834516  1
  B  B29  1  0.500000  0.500000  0.165484  1
