# generated using pymatgen
data_Tb5Er3Sc12Si15Os
_symmetry_space_group_name_H-M   'P 1'
_cell_length_a   7.08595485
_cell_length_b   7.43682980
_cell_length_c   13.95220377
_cell_angle_alpha   89.98759522
_cell_angle_beta   89.96411755
_cell_angle_gamma   90.18377783
_symmetry_Int_Tables_number   1
_chemical_formula_structural   Tb5Er3Sc12Si15Os
_chemical_formula_sum   'Tb5 Er3 Sc12 Si15 Os1'
_cell_volume   735.23589839
_cell_formula_units_Z   1
loop_
 _symmetry_equiv_pos_site_id
 _symmetry_equiv_pos_as_xyz
  1  'x, y, z'
loop_
 _atom_site_type_symbol
 _atom_site_label
 _atom_site_symmetry_multiplicity
 _atom_site_fract_x
 _atom_site_fract_y
 _atom_site_fract_z
 _atom_site_occupancy
  Tb  Tb0  1  0.990555  0.828126  0.596758  1
  Tb  Tb1  1  0.511512  0.323395  0.095659  1
  Tb  Tb2  1  0.011334  0.178341  0.403742  1
  Tb  Tb3  1  0.511015  0.323524  0.403341  1
  Tb  Tb4  1  0.488202  0.675971  0.596113  1
  Er  Er5  1  0.011844  0.179062  0.096223  1
  Er  Er6  1  0.990678  0.827576  0.903229  1
  Er  Er7  1  0.487770  0.677474  0.903761  1
  Sc  Sc8  1  0.155706  0.496502  0.750551  1
  Sc  Sc9  1  0.838590  0.495631  0.249675  1
  Sc  Sc10  1  0.339265  0.005443  0.249666  1
  Sc  Sc11  1  0.668672  0.998048  0.750515  1
  Sc  Sc12  1  0.318150  0.171994  0.627823  1
  Sc  Sc13  1  0.672398  0.825814  0.373601  1
  Sc  Sc14  1  0.171377  0.678298  0.373776  1
  Sc  Sc15  1  0.672113  0.825599  0.125584  1
  Sc  Sc16  1  0.836998  0.318899  0.628013  1
  Sc  Sc17  1  0.317093  0.171664  0.873043  1
  Sc  Sc18  1  0.837502  0.318180  0.872844  1
  Sc  Sc19  1  0.171346  0.678597  0.125547  1
  Si  Si20  1  0.968885  0.884762  0.249427  1
  Si  Si21  1  0.469387  0.615650  0.249667  1
  Si  Si22  1  0.529115  0.389160  0.750885  1
  Si  Si23  1  0.286176  0.867100  0.751175  1
  Si  Si24  1  0.714069  0.129617  0.249182  1
  Si  Si25  1  0.212927  0.371166  0.249214  1
  Si  Si26  1  0.778318  0.626554  0.751228  1
  Si  Si27  1  0.158737  0.468568  0.536953  1
  Si  Si28  1  0.845125  0.536370  0.461532  1
  Si  Si29  1  0.345703  0.965491  0.459969  1
  Si  Si30  1  0.845651  0.536151  0.038349  1
  Si  Si31  1  0.654702  0.034466  0.538294  1
  Si  Si32  1  0.159795  0.469764  0.962760  1
  Si  Si33  1  0.655759  0.032363  0.961306  1
  Si  Si34  1  0.344197  0.965215  0.039839  1
  Os  Os35  1  0.029333  0.109463  0.750759  1
