# generated using pymatgen
data_Tb3Th(CuP2)4
_symmetry_space_group_name_H-M   'P 1'
_cell_length_a   3.76973100
_cell_length_b   3.79289470
_cell_length_c   19.52285701
_cell_angle_alpha   89.54248776
_cell_angle_beta   90.00000000
_cell_angle_gamma   90.00000000
_symmetry_Int_Tables_number   1
_chemical_formula_structural   Tb3Th(CuP2)4
_chemical_formula_sum   'Tb3 Th1 Cu4 P8'
_cell_volume   279.13267291
_cell_formula_units_Z   1
loop_
 _symmetry_equiv_pos_site_id
 _symmetry_equiv_pos_as_xyz
  1  'x, y, z'
loop_
 _atom_site_type_symbol
 _atom_site_label
 _atom_site_symmetry_multiplicity
 _atom_site_fract_x
 _atom_site_fract_y
 _atom_site_fract_z
 _atom_site_occupancy
  Tb  Tb0  1  0.750000  0.732078  0.385154  1
  Tb  Tb1  1  0.250000  0.267168  0.617775  1
  Tb  Tb2  1  0.750000  0.757511  0.882349  1
  Th  Th3  1  0.250000  0.240631  0.113188  1
  Cu  Cu4  1  0.750000  0.239948  0.253027  1
  Cu  Cu5  1  0.250000  0.740199  0.253004  1
  Cu  Cu6  1  0.750000  0.259719  0.749208  1
  Cu  Cu7  1  0.250000  0.760855  0.749378  1
  P  P8  1  0.250000  0.741756  0.996571  1
  P  P9  1  0.750000  0.740156  0.175253  1
  P  P10  1  0.250000  0.235943  0.329224  1
  P  P11  1  0.750000  0.198019  0.499836  1
  P  P12  1  0.250000  0.802803  0.502109  1
  P  P13  1  0.750000  0.762887  0.672425  1
  P  P14  1  0.250000  0.258826  0.825245  1
  P  P15  1  0.750000  0.261502  0.996256  1
