# generated using pymatgen
data_Ho16In4OsPt3
_symmetry_space_group_name_H-M   'P 1'
_cell_length_a   9.66948336
_cell_length_b   9.66948410
_cell_length_c   9.66948343
_cell_angle_alpha   59.82405151
_cell_angle_beta   59.82404820
_cell_angle_gamma   59.82404852
_symmetry_Int_Tables_number   1
_chemical_formula_structural   Ho16In4OsPt3
_chemical_formula_sum   'Ho16 In4 Os1 Pt3'
_cell_volume   636.73242262
_cell_formula_units_Z   1
loop_
 _symmetry_equiv_pos_site_id
 _symmetry_equiv_pos_as_xyz
  1  'x, y, z'
loop_
 _atom_site_type_symbol
 _atom_site_label
 _atom_site_symmetry_multiplicity
 _atom_site_fract_x
 _atom_site_fract_y
 _atom_site_fract_z
 _atom_site_occupancy
  Ho  Ho0  1  0.601112  0.601112  0.601112  1
  Ho  Ho1  1  0.598683  0.598683  0.200177  1
  Ho  Ho2  1  0.598683  0.200177  0.598683  1
  Ho  Ho3  1  0.200177  0.598683  0.598683  1
  Ho  Ho4  1  0.064143  0.439564  0.439564  1
  Ho  Ho5  1  0.440971  0.058976  0.058976  1
  Ho  Ho6  1  0.439564  0.064143  0.439564  1
  Ho  Ho7  1  0.058976  0.440971  0.058976  1
  Ho  Ho8  1  0.439564  0.439564  0.064143  1
  Ho  Ho9  1  0.058976  0.058976  0.440971  1
  Ho  Ho10  1  0.185767  0.812991  0.812991  1
  Ho  Ho11  1  0.806113  0.189960  0.189960  1
  Ho  Ho12  1  0.812991  0.185767  0.812991  1
  Ho  Ho13  1  0.189960  0.806113  0.189960  1
  Ho  Ho14  1  0.812991  0.812991  0.185767  1
  Ho  Ho15  1  0.189960  0.189960  0.806113  1
  In  In16  1  0.833525  0.833525  0.833525  1
  In  In17  1  0.833009  0.833009  0.500859  1
  In  In18  1  0.833009  0.500859  0.833009  1
  In  In19  1  0.500859  0.833009  0.833009  1
  Os  Os20  1  0.391968  0.391968  0.391968  1
  Pt  Pt21  1  0.392659  0.392659  0.823683  1
  Pt  Pt22  1  0.392659  0.823683  0.392659  1
  Pt  Pt23  1  0.823683  0.392659  0.392659  1
