# generated using pymatgen
data_Y4GaTcRu6
_symmetry_space_group_name_H-M   'P 1'
_cell_length_a   5.19521412
_cell_length_b   5.38179337
_cell_length_c   8.92727700
_cell_angle_alpha   90.00000000
_cell_angle_beta   90.00000000
_cell_angle_gamma   119.18169449
_symmetry_Int_Tables_number   1
_chemical_formula_structural   Y4GaTcRu6
_chemical_formula_sum   'Y4 Ga1 Tc1 Ru6'
_cell_volume   217.92270292
_cell_formula_units_Z   1
loop_
 _symmetry_equiv_pos_site_id
 _symmetry_equiv_pos_as_xyz
  1  'x, y, z'
loop_
 _atom_site_type_symbol
 _atom_site_label
 _atom_site_symmetry_multiplicity
 _atom_site_fract_x
 _atom_site_fract_y
 _atom_site_fract_z
 _atom_site_occupancy
  Y  Y0  1  0.335513  0.669573  0.436192  1
  Y  Y1  1  0.664951  0.327050  0.565807  1
  Y  Y2  1  0.664951  0.327050  0.934193  1
  Y  Y3  1  0.335513  0.669573  0.063808  1
  Ga  Ga4  1  0.836200  0.169418  0.250000  1
  Tc  Tc5  1  0.650549  0.824372  0.750000  1
  Ru  Ru6  1  0.998894  0.988829  0.500161  1
  Ru  Ru7  1  0.998894  0.988829  0.999839  1
  Ru  Ru8  1  0.824781  0.659889  0.250000  1
  Ru  Ru9  1  0.348921  0.182698  0.250000  1
  Ru  Ru10  1  0.160030  0.839953  0.750000  1
  Ru  Ru11  1  0.180804  0.352765  0.750000  1
