# generated using pymatgen
data_Zr12Ir3Os
_symmetry_space_group_name_H-M   'P 1'
_cell_length_a   8.17180196
_cell_length_b   8.19554221
_cell_length_c   8.17180082
_cell_angle_alpha   96.74088705
_cell_angle_beta   97.09387689
_cell_angle_gamma   139.16414892
_symmetry_Int_Tables_number   1
_chemical_formula_structural   Zr12Ir3Os
_chemical_formula_sum   'Zr12 Ir3 Os1'
_cell_volume   335.86242671
_cell_formula_units_Z   1
loop_
 _symmetry_equiv_pos_site_id
 _symmetry_equiv_pos_as_xyz
  1  'x, y, z'
loop_
 _atom_site_type_symbol
 _atom_site_label
 _atom_site_symmetry_multiplicity
 _atom_site_fract_x
 _atom_site_fract_y
 _atom_site_fract_z
 _atom_site_occupancy
  Zr  Zr0  1  0.146178  0.500000  0.646178  1
  Zr  Zr1  1  0.853638  0.500000  0.353638  1
  Zr  Zr2  1  0.498665  0.144979  0.643964  1
  Zr  Zr3  1  0.498986  0.855020  0.353686  1
  Zr  Zr4  1  0.042523  0.455087  0.000312  1
  Zr  Zr5  1  0.453085  0.040245  0.001208  1
  Zr  Zr6  1  0.960963  0.959756  0.412841  1
  Zr  Zr7  1  0.545225  0.544914  0.587436  1
  Zr  Zr8  1  0.836429  0.644583  0.000138  1
  Zr  Zr9  1  0.643585  0.834576  0.999826  1
  Zr  Zr10  1  0.165250  0.165424  0.809009  1
  Zr  Zr11  1  0.355554  0.355416  0.191845  1
  Ir  Ir12  1  0.708729  0.000000  0.708729  1
  Ir  Ir13  1  0.000929  0.709753  0.708835  1
  Ir  Ir14  1  0.999082  0.290247  0.291177  1
  Os  Os15  1  0.291178  0.000000  0.291178  1
