# generated using pymatgen
data_Pd(SO4)2
_symmetry_space_group_name_H-M   'P 1'
_cell_length_a   8.89520666
_cell_length_b   8.89520684
_cell_length_c   8.89520596
_cell_angle_alpha   54.92258710
_cell_angle_beta   54.92258522
_cell_angle_gamma   54.92258637
_symmetry_Int_Tables_number   1
_chemical_formula_structural   Pd(SO4)2
_chemical_formula_sum   'Pd3 S6 O24'
_cell_volume   438.87039464
_cell_formula_units_Z   3
loop_
 _symmetry_equiv_pos_site_id
 _symmetry_equiv_pos_as_xyz
  1  'x, y, z'
loop_
 _atom_site_type_symbol
 _atom_site_label
 _atom_site_symmetry_multiplicity
 _atom_site_fract_x
 _atom_site_fract_y
 _atom_site_fract_z
 _atom_site_occupancy
  Pd  Pd0  1  0.846050  0.846050  0.846050  1
  Pd  Pd1  1  0.352850  0.352850  0.352850  1
  Pd  Pd2  1  0.155579  0.155579  0.155579  1
  S  S3  1  0.551938  0.947629  0.245618  1
  S  S4  1  0.245618  0.551938  0.947629  1
  S  S5  1  0.947629  0.245618  0.551938  1
  S  S6  1  0.039750  0.747939  0.459350  1
  S  S7  1  0.747939  0.459350  0.039750  1
  S  S8  1  0.459350  0.039750  0.747939  1
  O  O9  1  0.489872  0.891367  0.703680  1
  O  O10  1  0.891367  0.703680  0.489872  1
  O  O11  1  0.662050  0.015361  0.023799  1
  O  O12  1  0.703680  0.489872  0.891367  1
  O  O13  1  0.347902  0.964218  0.298209  1
  O  O14  1  0.650940  0.748481  0.351258  1
  O  O15  1  0.351258  0.650940  0.748481  1
  O  O16  1  0.023799  0.662050  0.015361  1
  O  O17  1  0.748481  0.351258  0.650940  1
  O  O18  1  0.007839  0.962127  0.325822  1
  O  O19  1  0.048003  0.702922  0.649607  1
  O  O20  1  0.702922  0.649607  0.048003  1
  O  O21  1  0.298209  0.347902  0.964218  1
  O  O22  1  0.964218  0.298209  0.347902  1
  O  O23  1  0.015361  0.023799  0.662050  1
  O  O24  1  0.250340  0.626484  0.361804  1
  O  O25  1  0.962127  0.325822  0.007839  1
  O  O26  1  0.626484  0.361804  0.250340  1
  O  O27  1  0.361804  0.250340  0.626484  1
  O  O28  1  0.649607  0.048003  0.702922  1
  O  O29  1  0.304785  0.532402  0.089067  1
  O  O30  1  0.325822  0.007839  0.962127  1
  O  O31  1  0.089067  0.304785  0.532402  1
  O  O32  1  0.532402  0.089067  0.304785  1
