# generated using pymatgen
data_Sc9PaRe3P
_symmetry_space_group_name_H-M   'P 1'
_cell_length_a   8.81453700
_cell_length_b   8.81453765
_cell_length_c   8.55569400
_cell_angle_alpha   90.00000000
_cell_angle_beta   90.00000000
_cell_angle_gamma   119.99999382
_symmetry_Int_Tables_number   1
_chemical_formula_structural   Sc9PaRe3P
_chemical_formula_sum   'Sc18 Pa2 Re6 P2'
_cell_volume   575.68504044
_cell_formula_units_Z   2
loop_
 _symmetry_equiv_pos_site_id
 _symmetry_equiv_pos_as_xyz
  1  'x, y, z'
loop_
 _atom_site_type_symbol
 _atom_site_label
 _atom_site_symmetry_multiplicity
 _atom_site_fract_x
 _atom_site_fract_y
 _atom_site_fract_z
 _atom_site_occupancy
  Sc  Sc0  1  0.203690  0.796310  0.453769  1
  Sc  Sc1  1  0.203690  0.407380  0.453769  1
  Sc  Sc2  1  0.592620  0.796310  0.453769  1
  Sc  Sc3  1  0.796310  0.203690  0.546231  1
  Sc  Sc4  1  0.796310  0.592620  0.546231  1
  Sc  Sc5  1  0.407380  0.203690  0.546231  1
  Sc  Sc6  1  0.796310  0.203690  0.953769  1
  Sc  Sc7  1  0.796310  0.592620  0.953769  1
  Sc  Sc8  1  0.407380  0.203690  0.953769  1
  Sc  Sc9  1  0.203690  0.796310  0.046231  1
  Sc  Sc10  1  0.203690  0.407380  0.046231  1
  Sc  Sc11  1  0.592620  0.796310  0.046231  1
  Sc  Sc12  1  0.539861  0.460139  0.250000  1
  Sc  Sc13  1  0.539861  0.079722  0.250000  1
  Sc  Sc14  1  0.920278  0.460139  0.250000  1
  Sc  Sc15  1  0.460139  0.539861  0.750000  1
  Sc  Sc16  1  0.460139  0.920278  0.750000  1
  Sc  Sc17  1  0.079722  0.539861  0.750000  1
  Pa  Pa18  1  0.000000  0.000000  0.500000  1
  Pa  Pa19  1  0.000000  0.000000  0.000000  1
  Re  Re20  1  0.888379  0.111621  0.250000  1
  Re  Re21  1  0.888379  0.776759  0.250000  1
  Re  Re22  1  0.223241  0.111621  0.250000  1
  Re  Re23  1  0.111621  0.888379  0.750000  1
  Re  Re24  1  0.111621  0.223241  0.750000  1
  Re  Re25  1  0.776759  0.888379  0.750000  1
  P  P26  1  0.333333  0.666667  0.250000  1
  P  P27  1  0.666667  0.333333  0.750000  1
