# generated using pymatgen
data_Ce3Pr13MgHg3Ir4
_symmetry_space_group_name_H-M   'P 1'
_cell_length_a   9.97107225
_cell_length_b   10.06382659
_cell_length_c   10.06382600
_cell_angle_alpha   60.00000194
_cell_angle_beta   59.69180285
_cell_angle_gamma   59.69180579
_symmetry_Int_Tables_number   1
_chemical_formula_structural   Ce3Pr13MgHg3Ir4
_chemical_formula_sum   'Ce3 Pr13 Mg1 Hg3 Ir4'
_cell_volume   710.74570309
_cell_formula_units_Z   1
loop_
 _symmetry_equiv_pos_site_id
 _symmetry_equiv_pos_as_xyz
  1  'x, y, z'
loop_
 _atom_site_type_symbol
 _atom_site_label
 _atom_site_symmetry_multiplicity
 _atom_site_fract_x
 _atom_site_fract_y
 _atom_site_fract_z
 _atom_site_occupancy
  Ce  Ce0  1  0.342016  0.344167  0.344167  1
  Ce  Ce1  1  0.342016  0.344167  0.969652  1
  Ce  Ce2  1  0.342016  0.969652  0.344167  1
  Pr  Pr3  1  0.947790  0.350737  0.350737  1
  Pr  Pr4  1  0.807367  0.192313  0.192313  1
  Pr  Pr5  1  0.189606  0.809854  0.809854  1
  Pr  Pr6  1  0.189606  0.809854  0.190687  1
  Pr  Pr7  1  0.807367  0.192313  0.808009  1
  Pr  Pr8  1  0.189606  0.190687  0.809854  1
  Pr  Pr9  1  0.807367  0.808009  0.192313  1
  Pr  Pr10  1  0.940358  0.562139  0.562139  1
  Pr  Pr11  1  0.557707  0.940803  0.940803  1
  Pr  Pr12  1  0.557707  0.940803  0.560686  1
  Pr  Pr13  1  0.940358  0.562139  0.935363  1
  Pr  Pr14  1  0.557707  0.560686  0.940803  1
  Pr  Pr15  1  0.940358  0.935363  0.562139  1
  Mg  Mg16  1  0.288622  0.570460  0.570460  1
  Hg  Hg17  1  0.577558  0.586818  0.586818  1
  Hg  Hg18  1  0.577558  0.586818  0.248805  1
  Hg  Hg19  1  0.577558  0.248805  0.586818  1
  Ir  Ir20  1  0.151921  0.140355  0.140355  1
  Ir  Ir21  1  0.151921  0.140355  0.567370  1
  Ir  Ir22  1  0.151921  0.567370  0.140355  1
  Ir  Ir23  1  0.563992  0.145336  0.145336  1
