# generated using pymatgen
data_Tb3ThGa18PtRh5
_symmetry_space_group_name_H-M   'P 1'
_cell_length_a   7.63219239
_cell_length_b   7.63859116
_cell_length_c   9.52593683
_cell_angle_alpha   89.98624019
_cell_angle_beta   89.96720332
_cell_angle_gamma   119.69104205
_symmetry_Int_Tables_number   1
_chemical_formula_structural   Tb3ThGa18PtRh5
_chemical_formula_sum   'Tb3 Th1 Ga18 Pt1 Rh5'
_cell_volume   482.44124175
_cell_formula_units_Z   1
loop_
 _symmetry_equiv_pos_site_id
 _symmetry_equiv_pos_as_xyz
  1  'x, y, z'
loop_
 _atom_site_type_symbol
 _atom_site_label
 _atom_site_symmetry_multiplicity
 _atom_site_fract_x
 _atom_site_fract_y
 _atom_site_fract_z
 _atom_site_occupancy
  Tb  Tb0  1  0.002513  0.330337  0.750080  1
  Tb  Tb1  1  0.670638  0.996856  0.249921  1
  Tb  Tb2  1  0.330212  0.002713  0.749937  1
  Th  Th3  1  0.997973  0.669731  0.250324  1
  Ga  Ga4  1  0.129038  0.130272  0.250119  1
  Ga  Ga5  1  0.874456  0.876017  0.749832  1
  Ga  Ga6  1  0.003944  0.329696  0.077574  1
  Ga  Ga7  1  0.003177  0.668494  0.914133  1
  Ga  Ga8  1  0.999880  0.664935  0.584904  1
  Ga  Ga9  1  0.340362  0.004755  0.424002  1
  Ga  Ga10  1  0.000146  0.329367  0.423789  1
  Ga  Ga11  1  0.665236  0.001063  0.580065  1
  Ga  Ga12  1  0.665120  0.997140  0.918658  1
  Ga  Ga13  1  0.336608  0.001467  0.077212  1
  Ga  Ga14  1  0.331383  0.331456  0.565966  1
  Ga  Ga15  1  0.662878  0.667470  0.441084  1
  Ga  Ga16  1  0.662588  0.670571  0.060335  1
  Ga  Ga17  1  0.328407  0.331806  0.932650  1
  Ga  Ga18  1  0.342867  0.547205  0.250134  1
  Ga  Ga19  1  0.658986  0.452937  0.746829  1
  Ga  Ga20  1  0.541139  0.336706  0.253063  1
  Ga  Ga21  1  0.451377  0.661021  0.749757  1
  Pt  Pt22  1  0.673956  0.330795  0.000630  1
  Rh  Rh23  1  0.326445  0.670470  0.000454  1
  Rh  Rh24  1  0.326297  0.670755  0.499417  1
  Rh  Rh25  1  0.673903  0.330827  0.499194  1
  Rh  Rh26  1  0.000186  0.997569  0.000777  1
  Rh  Rh27  1  0.000282  0.997568  0.499161  1
