# generated using pymatgen
data_CeLu3(MnB6)2
_symmetry_space_group_name_H-M   'P 1'
_cell_length_a   3.53846600
_cell_length_b   9.02520046
_cell_length_c   11.40195504
_cell_angle_alpha   90.11056535
_cell_angle_beta   90.00000000
_cell_angle_gamma   90.00000000
_symmetry_Int_Tables_number   1
_chemical_formula_structural   CeLu3(MnB6)2
_chemical_formula_sum   'Ce2 Lu6 Mn4 B24'
_cell_volume   364.12491731
_cell_formula_units_Z   2
loop_
 _symmetry_equiv_pos_site_id
 _symmetry_equiv_pos_as_xyz
  1  'x, y, z'
loop_
 _atom_site_type_symbol
 _atom_site_label
 _atom_site_symmetry_multiplicity
 _atom_site_fract_x
 _atom_site_fract_y
 _atom_site_fract_z
 _atom_site_occupancy
  Ce  Ce0  1  0.000000  0.323082  0.413574  1
  Ce  Ce1  1  0.000000  0.676918  0.586426  1
  Lu  Lu2  1  0.000000  0.824880  0.084409  1
  Lu  Lu3  1  0.000000  0.175120  0.915591  1
  Lu  Lu4  1  0.000000  0.942874  0.367226  1
  Lu  Lu5  1  0.000000  0.057126  0.632774  1
  Lu  Lu6  1  0.000000  0.442361  0.129852  1
  Lu  Lu7  1  0.000000  0.557639  0.870148  1
  Mn  Mn8  1  0.000000  0.638987  0.320093  1
  Mn  Mn9  1  0.000000  0.361013  0.679907  1
  Mn  Mn10  1  0.000000  0.139366  0.180047  1
  Mn  Mn11  1  0.000000  0.860634  0.819953  1
  B  B12  1  0.500000  0.555914  0.429380  1
  B  B13  1  0.500000  0.444086  0.570620  1
  B  B14  1  0.500000  0.054049  0.066720  1
  B  B15  1  0.500000  0.945951  0.933280  1
  B  B16  1  0.500000  0.749085  0.414702  1
  B  B17  1  0.500000  0.250915  0.585298  1
  B  B18  1  0.500000  0.247608  0.080579  1
  B  B19  1  0.500000  0.752392  0.919421  1
  B  B20  1  0.500000  0.791735  0.262889  1
  B  B21  1  0.500000  0.208265  0.737111  1
  B  B22  1  0.500000  0.289623  0.232138  1
  B  B23  1  0.500000  0.710377  0.767862  1
  B  B24  1  0.500000  0.631896  0.183974  1
  B  B25  1  0.500000  0.368104  0.816026  1
  B  B26  1  0.500000  0.129894  0.312042  1
  B  B27  1  0.500000  0.870106  0.687958  1
  B  B28  1  0.500000  0.983541  0.209747  1
  B  B29  1  0.500000  0.016459  0.790253  1
  B  B30  1  0.500000  0.486183  0.285991  1
  B  B31  1  0.500000  0.513817  0.714009  1
  B  B32  1  0.500000  0.602526  0.028133  1
  B  B33  1  0.500000  0.397474  0.971867  1
  B  B34  1  0.500000  0.099277  0.472573  1
  B  B35  1  0.500000  0.900723  0.527427  1
