# generated using pymatgen
data_Tb7Ho9Cd4PdRu3
_symmetry_space_group_name_H-M   'P 1'
_cell_length_a   9.59762497
_cell_length_b   9.65288095
_cell_length_c   9.67736300
_cell_angle_alpha   59.91606282
_cell_angle_beta   59.72478412
_cell_angle_gamma   59.66688276
_symmetry_Int_Tables_number   1
_chemical_formula_structural   Tb7Ho9Cd4PdRu3
_chemical_formula_sum   'Tb7 Ho9 Cd4 Pd1 Ru3'
_cell_volume   630.63316987
_cell_formula_units_Z   1
loop_
 _symmetry_equiv_pos_site_id
 _symmetry_equiv_pos_as_xyz
  1  'x, y, z'
loop_
 _atom_site_type_symbol
 _atom_site_label
 _atom_site_symmetry_multiplicity
 _atom_site_fract_x
 _atom_site_fract_y
 _atom_site_fract_z
 _atom_site_occupancy
  Tb  Tb0  1  0.816582  0.804513  0.189452  1
  Tb  Tb1  1  0.936064  0.561841  0.562740  1
  Tb  Tb2  1  0.555963  0.939072  0.938823  1
  Tb  Tb3  1  0.555963  0.939072  0.566144  1
  Tb  Tb4  1  0.936064  0.561841  0.939356  1
  Tb  Tb5  1  0.556086  0.566030  0.938942  1
  Tb  Tb6  1  0.936012  0.939370  0.562310  1
  Ho  Ho7  1  0.344411  0.351682  0.350968  1
  Ho  Ho8  1  0.344411  0.351682  0.952940  1
  Ho  Ho9  1  0.344422  0.953870  0.350855  1
  Ho  Ho10  1  0.966444  0.344070  0.344744  1
  Ho  Ho11  1  0.816450  0.189175  0.189288  1
  Ho  Ho12  1  0.186869  0.811643  0.811749  1
  Ho  Ho13  1  0.186869  0.811643  0.189738  1
  Ho  Ho14  1  0.816450  0.189175  0.805088  1
  Ho  Ho15  1  0.187037  0.188604  0.812179  1
  Cd  Cd16  1  0.581026  0.579359  0.580013  1
  Cd  Cd17  1  0.581026  0.579359  0.259602  1
  Cd  Cd18  1  0.581159  0.259144  0.579848  1
  Cd  Cd19  1  0.255924  0.581154  0.581461  1
  Pd  Pd20  1  0.573349  0.143938  0.141357  1
  Ru  Ru21  1  0.146846  0.138372  0.137101  1
  Ru  Ru22  1  0.146846  0.138372  0.577682  1
  Ru  Ru23  1  0.147728  0.577023  0.137624  1
