# generated using pymatgen
data_Be6FeCo11Si6
_symmetry_space_group_name_H-M   'P 1'
_cell_length_a   3.79570000
_cell_length_b   5.37359500
_cell_length_c   11.38618300
_cell_angle_alpha   90.00000000
_cell_angle_beta   90.00015599
_cell_angle_gamma   90.00000000
_symmetry_Int_Tables_number   1
_chemical_formula_structural   Be6FeCo11Si6
_chemical_formula_sum   'Be6 Fe1 Co11 Si6'
_cell_volume   232.23890258
_cell_formula_units_Z   1
loop_
 _symmetry_equiv_pos_site_id
 _symmetry_equiv_pos_as_xyz
  1  'x, y, z'
loop_
 _atom_site_type_symbol
 _atom_site_label
 _atom_site_symmetry_multiplicity
 _atom_site_fract_x
 _atom_site_fract_y
 _atom_site_fract_z
 _atom_site_occupancy
  Be  Be0  1  0.000000  0.001325  0.000000  1
  Be  Be1  1  0.499587  0.498990  0.165809  1
  Be  Be2  1  0.999583  0.000278  0.333059  1
  Be  Be3  1  0.499999  0.499922  0.500000  1
  Be  Be4  1  0.000417  0.000278  0.666941  1
  Be  Be5  1  0.500413  0.498990  0.834191  1
  Fe  Fe6  1  0.499999  0.250310  0.000000  1
  Co  Co7  1  0.499999  0.749405  0.000000  1
  Co  Co8  1  0.999705  0.249933  0.168457  1
  Co  Co9  1  0.999688  0.750074  0.167476  1
  Co  Co10  1  0.499698  0.249856  0.333893  1
  Co  Co11  1  0.499691  0.750293  0.333312  1
  Co  Co12  1  0.000000  0.250145  0.500000  1
  Co  Co13  1  0.000000  0.749862  0.500000  1
  Co  Co14  1  0.500302  0.249856  0.666107  1
  Co  Co15  1  0.500309  0.750293  0.666688  1
  Co  Co16  1  0.000295  0.249933  0.831543  1
  Co  Co17  1  0.000312  0.750074  0.832524  1
  Si  Si18  1  0.000000  0.497264  0.000000  1
  Si  Si19  1  0.499676  0.001622  0.165230  1
  Si  Si20  1  0.999681  0.499857  0.333084  1
  Si  Si21  1  0.499999  0.999962  0.500000  1
  Si  Si22  1  0.000319  0.499857  0.666916  1
  Si  Si23  1  0.500324  0.001622  0.834770  1
