# generated using pymatgen
data_DyLu2Cu4Si3Ge
_symmetry_space_group_name_H-M   'P 1'
_cell_length_a   4.11254625
_cell_length_b   6.56286929
_cell_length_c   7.78040574
_cell_angle_alpha   114.94551228
_cell_angle_beta   105.32468664
_cell_angle_gamma   90.00000722
_symmetry_Int_Tables_number   1
_chemical_formula_structural   DyLu2Cu4Si3Ge
_chemical_formula_sum   'Dy1 Lu2 Cu4 Si3 Ge1'
_cell_volume   182.13549784
_cell_formula_units_Z   1
loop_
 _symmetry_equiv_pos_site_id
 _symmetry_equiv_pos_as_xyz
  1  'x, y, z'
loop_
 _atom_site_type_symbol
 _atom_site_label
 _atom_site_symmetry_multiplicity
 _atom_site_fract_x
 _atom_site_fract_y
 _atom_site_fract_z
 _atom_site_occupancy
  Dy  Dy0  1  0.000958  0.500958  0.001916  1
  Lu  Lu1  1  0.871938  0.871938  0.743876  1
  Lu  Lu2  1  0.127804  0.127804  0.255607  1
  Cu  Cu3  1  0.666712  0.854448  0.333424  1
  Cu  Cu4  1  0.666712  0.478975  0.333424  1
  Cu  Cu5  1  0.332442  0.527759  0.664883  1
  Cu  Cu6  1  0.332442  0.137125  0.664883  1
  Si  Si7  1  0.218079  0.718079  0.436156  1
  Si  Si8  1  0.500197  0.182955  0.000394  1
  Si  Si9  1  0.500197  0.817439  0.000394  1
  Ge  Ge10  1  0.782520  0.282520  0.565043  1
