# generated using pymatgen
data_Li4ZrPa3Ir8
_symmetry_space_group_name_H-M   'P 1'
_cell_length_a   5.92995100
_cell_length_b   5.93012201
_cell_length_c   7.48908200
_cell_angle_alpha   89.99990579
_cell_angle_beta   90.00000000
_cell_angle_gamma   90.00335268
_symmetry_Int_Tables_number   1
_chemical_formula_structural   Li4ZrPa3Ir8
_chemical_formula_sum   'Li4 Zr1 Pa3 Ir8'
_cell_volume   263.35606135
_cell_formula_units_Z   1
loop_
 _symmetry_equiv_pos_site_id
 _symmetry_equiv_pos_as_xyz
  1  'x, y, z'
loop_
 _atom_site_type_symbol
 _atom_site_label
 _atom_site_symmetry_multiplicity
 _atom_site_fract_x
 _atom_site_fract_y
 _atom_site_fract_z
 _atom_site_occupancy
  Li  Li0  1  0.749825  0.250002  0.999998  1
  Li  Li1  1  0.250171  0.749998  0.999998  1
  Li  Li2  1  0.750163  0.250003  0.500000  1
  Li  Li3  1  0.249831  0.749997  0.500005  1
  Zr  Zr4  1  0.250472  0.250001  0.500014  1
  Pa  Pa5  1  0.249546  0.250001  0.999999  1
  Pa  Pa6  1  0.750478  0.749999  0.999999  1
  Pa  Pa7  1  0.749507  0.749999  0.499989  1
  Ir  Ir8  1  0.499652  0.000347  0.250339  1
  Ir  Ir9  1  0.499651  0.499669  0.250339  1
  Ir  Ir10  1  0.000348  0.000347  0.250763  1
  Ir  Ir11  1  0.000348  0.499634  0.250763  1
  Ir  Ir12  1  0.000346  0.000350  0.749237  1
  Ir  Ir13  1  0.000346  0.499669  0.749236  1
  Ir  Ir14  1  0.499657  0.000338  0.749662  1
  Ir  Ir15  1  0.499658  0.499646  0.749662  1
