# generated using pymatgen
data_Er12OsRu3
_symmetry_space_group_name_H-M   'P 1'
_cell_length_a   6.25226883
_cell_length_b   7.29180018
_cell_length_c   9.03098500
_cell_angle_alpha   90.00000000
_cell_angle_beta   90.00000000
_cell_angle_gamma   90.08807082
_symmetry_Int_Tables_number   1
_chemical_formula_structural   Er12OsRu3
_chemical_formula_sum   'Er12 Os1 Ru3'
_cell_volume   411.72478332
_cell_formula_units_Z   1
loop_
 _symmetry_equiv_pos_site_id
 _symmetry_equiv_pos_as_xyz
  1  'x, y, z'
loop_
 _atom_site_type_symbol
 _atom_site_label
 _atom_site_symmetry_multiplicity
 _atom_site_fract_x
 _atom_site_fract_y
 _atom_site_fract_z
 _atom_site_occupancy
  Er  Er0  1  0.333832  0.675466  0.062325  1
  Er  Er1  1  0.167218  0.175947  0.436207  1
  Er  Er2  1  0.667910  0.324405  0.563636  1
  Er  Er3  1  0.831582  0.823637  0.935735  1
  Er  Er4  1  0.667910  0.324405  0.936364  1
  Er  Er5  1  0.831582  0.823637  0.564265  1
  Er  Er6  1  0.333832  0.675466  0.437675  1
  Er  Er7  1  0.167218  0.175947  0.063793  1
  Er  Er8  1  0.868246  0.540025  0.250000  1
  Er  Er9  1  0.632040  0.039861  0.250000  1
  Er  Er10  1  0.130379  0.460578  0.750000  1
  Er  Er11  1  0.367888  0.961484  0.750000  1
  Os  Os12  1  0.539853  0.616628  0.750000  1
  Ru  Ru13  1  0.038947  0.883293  0.250000  1
  Ru  Ru14  1  0.460827  0.382827  0.250000  1
  Ru  Ru15  1  0.960734  0.116393  0.750000  1
