# generated using pymatgen
data_V3Mo5
_symmetry_space_group_name_H-M   'P 1'
_cell_length_a   5.36033160
_cell_length_b   5.36033124
_cell_length_c   4.40500100
_cell_angle_alpha   90.00000000
_cell_angle_beta   90.00000000
_cell_angle_gamma   109.38845254
_symmetry_Int_Tables_number   1
_chemical_formula_structural   V3Mo5
_chemical_formula_sum   'V3 Mo5'
_cell_volume   119.39175450
_cell_formula_units_Z   1
loop_
 _symmetry_equiv_pos_site_id
 _symmetry_equiv_pos_as_xyz
  1  'x, y, z'
loop_
 _atom_site_type_symbol
 _atom_site_label
 _atom_site_symmetry_multiplicity
 _atom_site_fract_x
 _atom_site_fract_y
 _atom_site_fract_z
 _atom_site_occupancy
  V  V0  1  0.875027  0.124973  0.000000  1
  V  V1  1  0.627027  0.372973  0.500000  1
  V  V2  1  0.122949  0.877051  0.500000  1
  Mo  Mo3  1  0.375011  0.624989  0.000000  1
  Mo  Mo4  1  0.628242  0.878195  0.500000  1
  Mo  Mo5  1  0.121805  0.371758  0.500000  1
  Mo  Mo6  1  0.374817  0.124878  0.000000  1
  Mo  Mo7  1  0.875122  0.625183  0.000000  1
