# generated using pymatgen
data_La4Al14CuPt
_symmetry_space_group_name_H-M   'P 1'
_cell_length_a   6.15850000
_cell_length_b   6.16235128
_cell_length_c   11.69139500
_cell_angle_alpha   74.71964820
_cell_angle_beta   74.72943737
_cell_angle_gamma   89.99999685
_symmetry_Int_Tables_number   1
_chemical_formula_structural   La4Al14CuPt
_chemical_formula_sum   'La4 Al14 Cu1 Pt1'
_cell_volume   411.75050872
_cell_formula_units_Z   1
loop_
 _symmetry_equiv_pos_site_id
 _symmetry_equiv_pos_as_xyz
  1  'x, y, z'
loop_
 _atom_site_type_symbol
 _atom_site_label
 _atom_site_symmetry_multiplicity
 _atom_site_fract_x
 _atom_site_fract_y
 _atom_site_fract_z
 _atom_site_occupancy
  La  La0  1  0.998603  0.998603  0.002792  1
  La  La1  1  0.499042  0.499042  0.001914  1
  La  La2  1  0.749440  0.249440  0.501121  1
  La  La3  1  0.246497  0.746497  0.507007  1
  Al  Al4  1  0.200868  0.200868  0.598266  1
  Al  Al5  1  0.808150  0.808150  0.383701  1
  Al  Al6  1  0.613319  0.123700  0.251638  1
  Al  Al7  1  0.135043  0.624660  0.251638  1
  Al  Al8  1  0.613319  0.624660  0.251638  1
  Al  Al9  1  0.135043  0.123700  0.251638  1
  Al  Al10  1  0.869326  0.355957  0.753555  1
  Al  Al11  1  0.377119  0.890487  0.753555  1
  Al  Al12  1  0.869326  0.890487  0.753555  1
  Al  Al13  1  0.377119  0.355957  0.753555  1
  Al  Al14  1  0.691307  0.691307  0.617385  1
  Al  Al15  1  0.060193  0.560193  0.879613  1
  Al  Al16  1  0.451714  0.951714  0.096571  1
  Al  Al17  1  0.943457  0.443457  0.113087  1
  Cu  Cu18  1  0.562071  0.062071  0.875859  1
  Pt  Pt19  1  0.313876  0.313876  0.372247  1
