# generated using pymatgen
data_Tm5Bi2As
_symmetry_space_group_name_H-M   'P 1'
_cell_length_a   7.95947600
_cell_length_b   9.05668700
_cell_length_c   11.88449800
_cell_angle_alpha   90.00000000
_cell_angle_beta   90.00000000
_cell_angle_gamma   90.00000000
_symmetry_Int_Tables_number   1
_chemical_formula_structural   Tm5Bi2As
_chemical_formula_sum   'Tm20 Bi8 As4'
_cell_volume   856.71166085
_cell_formula_units_Z   4
loop_
 _symmetry_equiv_pos_site_id
 _symmetry_equiv_pos_as_xyz
  1  'x, y, z'
loop_
 _atom_site_type_symbol
 _atom_site_label
 _atom_site_symmetry_multiplicity
 _atom_site_fract_x
 _atom_site_fract_y
 _atom_site_fract_z
 _atom_site_occupancy
  Tm  Tm0  1  0.157962  0.750000  0.213101  1
  Tm  Tm1  1  0.342038  0.750000  0.713101  1
  Tm  Tm2  1  0.842038  0.250000  0.786899  1
  Tm  Tm3  1  0.657962  0.250000  0.286899  1
  Tm  Tm4  1  0.465181  0.750000  0.001168  1
  Tm  Tm5  1  0.034819  0.750000  0.501168  1
  Tm  Tm6  1  0.534819  0.250000  0.998832  1
  Tm  Tm7  1  0.965181  0.250000  0.498832  1
  Tm  Tm8  1  0.635329  0.750000  0.294686  1
  Tm  Tm9  1  0.864671  0.750000  0.794686  1
  Tm  Tm10  1  0.364671  0.250000  0.705314  1
  Tm  Tm11  1  0.135329  0.250000  0.205314  1
  Tm  Tm12  1  0.817072  0.557169  0.063522  1
  Tm  Tm13  1  0.682928  0.942831  0.563522  1
  Tm  Tm14  1  0.182928  0.057169  0.936478  1
  Tm  Tm15  1  0.317072  0.442831  0.436478  1
  Tm  Tm16  1  0.182928  0.442831  0.936478  1
  Tm  Tm17  1  0.317072  0.057169  0.436478  1
  Tm  Tm18  1  0.817072  0.942831  0.063522  1
  Tm  Tm19  1  0.682928  0.557169  0.563522  1
  Bi  Bi20  1  0.926166  0.509665  0.326449  1
  Bi  Bi21  1  0.573834  0.990335  0.826449  1
  Bi  Bi22  1  0.073834  0.009665  0.673551  1
  Bi  Bi23  1  0.426166  0.490335  0.173551  1
  Bi  Bi24  1  0.073834  0.490335  0.673551  1
  Bi  Bi25  1  0.426166  0.009665  0.173551  1
  Bi  Bi26  1  0.926166  0.990335  0.326449  1
  Bi  Bi27  1  0.573834  0.509665  0.826449  1
  As  As28  1  0.411094  0.750000  0.480128  1
  As  As29  1  0.088906  0.750000  0.980128  1
  As  As30  1  0.588906  0.250000  0.519872  1
  As  As31  1  0.911094  0.250000  0.019872  1
