# generated using pymatgen
data_ScNb4B4SbRu10
_symmetry_space_group_name_H-M   'P 1'
_cell_length_a   9.48221690
_cell_length_b   9.50391891
_cell_length_c   3.04142300
_cell_angle_alpha   90.00000000
_cell_angle_beta   90.00000000
_cell_angle_gamma   90.07266785
_symmetry_Int_Tables_number   1
_chemical_formula_structural   ScNb4B4SbRu10
_chemical_formula_sum   'Sc1 Nb4 B4 Sb1 Ru10'
_cell_volume   274.08740834
_cell_formula_units_Z   1
loop_
 _symmetry_equiv_pos_site_id
 _symmetry_equiv_pos_as_xyz
  1  'x, y, z'
loop_
 _atom_site_type_symbol
 _atom_site_label
 _atom_site_symmetry_multiplicity
 _atom_site_fract_x
 _atom_site_fract_y
 _atom_site_fract_z
 _atom_site_occupancy
  Sc  Sc0  1  0.824440  0.676452  0.000000  1
  Nb  Nb1  1  0.174621  0.322762  0.000000  1
  Nb  Nb2  1  0.322326  0.824536  0.000000  1
  Nb  Nb3  1  0.678677  0.173066  0.000000  1
  Nb  Nb4  1  0.999565  0.997731  0.000000  1
  B  B5  1  0.621221  0.878224  0.000000  1
  B  B6  1  0.379509  0.122979  0.000000  1
  B  B7  1  0.121455  0.620347  0.000000  1
  B  B8  1  0.879485  0.379932  0.000000  1
  Sb  Sb9  1  0.503122  0.501741  0.000000  1
  Ru  Ru10  1  0.563908  0.724035  0.500000  1
  Ru  Ru11  1  0.426039  0.281784  0.500000  1
  Ru  Ru12  1  0.075195  0.782239  0.500000  1
  Ru  Ru13  1  0.931952  0.217840  0.500000  1
  Ru  Ru14  1  0.281795  0.571748  0.500000  1
  Ru  Ru15  1  0.718449  0.418570  0.500000  1
  Ru  Ru16  1  0.218322  0.071012  0.500000  1
  Ru  Ru17  1  0.778595  0.936136  0.500000  1
  Ru  Ru18  1  0.498450  0.001992  0.500000  1
  Ru  Ru19  1  0.002872  0.496875  0.500000  1
