# generated using pymatgen
data_Nb6Al8CoCu3
_symmetry_space_group_name_H-M   'P 1'
_cell_length_a   8.74797075
_cell_length_b   8.81348382
_cell_length_c   8.14131200
_cell_angle_alpha   90.00000000
_cell_angle_beta   90.00000000
_cell_angle_gamma   120.97675622
_symmetry_Int_Tables_number   1
_chemical_formula_structural   Nb6Al8CoCu3
_chemical_formula_sum   'Nb12 Al16 Co2 Cu6'
_cell_volume   538.17155752
_cell_formula_units_Z   2
loop_
 _symmetry_equiv_pos_site_id
 _symmetry_equiv_pos_as_xyz
  1  'x, y, z'
loop_
 _atom_site_type_symbol
 _atom_site_label
 _atom_site_symmetry_multiplicity
 _atom_site_fract_x
 _atom_site_fract_y
 _atom_site_fract_z
 _atom_site_occupancy
  Nb  Nb0  1  0.325693  0.991961  0.065321  1
  Nb  Nb1  1  0.674307  0.008039  0.934679  1
  Nb  Nb2  1  0.997669  0.326872  0.067926  1
  Nb  Nb3  1  0.674307  0.008039  0.565321  1
  Nb  Nb4  1  0.997669  0.326872  0.432074  1
  Nb  Nb5  1  0.002331  0.673128  0.932074  1
  Nb  Nb6  1  0.325693  0.991961  0.434679  1
  Nb  Nb7  1  0.002331  0.673128  0.567926  1
  Nb  Nb8  1  0.670601  0.667248  0.065249  1
  Nb  Nb9  1  0.329399  0.332752  0.934751  1
  Nb  Nb10  1  0.329399  0.332752  0.565249  1
  Nb  Nb11  1  0.670601  0.667248  0.434751  1
  Al  Al12  1  0.344358  0.849285  0.750000  1
  Al  Al13  1  0.653969  0.506439  0.750000  1
  Al  Al14  1  0.655642  0.150715  0.250000  1
  Al  Al15  1  0.346031  0.493561  0.250000  1
  Al  Al16  1  0.845794  0.342436  0.750000  1
  Al  Al17  1  0.154206  0.657564  0.250000  1
  Al  Al18  1  0.340152  0.665229  0.505125  1
  Al  Al19  1  0.659848  0.334771  0.494875  1
  Al  Al20  1  0.659848  0.334771  0.005125  1
  Al  Al21  1  0.340152  0.665229  0.994875  1
  Al  Al22  1  0.175509  0.009158  0.750000  1
  Al  Al23  1  0.824491  0.990842  0.250000  1
  Al  Al24  1  0.008554  0.177114  0.750000  1
  Al  Al25  1  0.991446  0.822886  0.250000  1
  Al  Al26  1  0.829019  0.837726  0.750000  1
  Al  Al27  1  0.170981  0.162274  0.250000  1
  Co  Co28  1  0.000000  0.000000  0.500000  1
  Co  Co29  1  0.000000  0.000000  0.000000  1
  Cu  Cu30  1  0.167359  0.501259  0.750000  1
  Cu  Cu31  1  0.832641  0.498741  0.250000  1
  Cu  Cu32  1  0.506626  0.674322  0.750000  1
  Cu  Cu33  1  0.502768  0.172007  0.750000  1
  Cu  Cu34  1  0.493374  0.325678  0.250000  1
  Cu  Cu35  1  0.497232  0.827993  0.250000  1
