# generated using pymatgen
data_Ba3CeF10
_symmetry_space_group_name_H-M   'P 1'
_cell_length_a   8.86558526
_cell_length_b   8.86558606
_cell_length_c   6.32798900
_cell_angle_alpha   90.00000000
_cell_angle_beta   90.00000000
_cell_angle_gamma   100.74583807
_symmetry_Int_Tables_number   1
_chemical_formula_structural   Ba3CeF10
_chemical_formula_sum   'Ba6 Ce2 F20'
_cell_volume   488.64920566
_cell_formula_units_Z   2
loop_
 _symmetry_equiv_pos_site_id
 _symmetry_equiv_pos_as_xyz
  1  'x, y, z'
loop_
 _atom_site_type_symbol
 _atom_site_label
 _atom_site_symmetry_multiplicity
 _atom_site_fract_x
 _atom_site_fract_y
 _atom_site_fract_z
 _atom_site_occupancy
  Ba  Ba0  1  0.828126  0.606259  0.750000  1
  Ba  Ba1  1  0.171874  0.393741  0.250000  1
  Ba  Ba2  1  0.393741  0.171874  0.750000  1
  Ba  Ba3  1  0.606259  0.828126  0.250000  1
  Ba  Ba4  1  0.890876  0.109124  0.750000  1
  Ba  Ba5  1  0.109124  0.890876  0.250000  1
  Ce  Ce6  1  0.320953  0.679047  0.750000  1
  Ce  Ce7  1  0.679047  0.320953  0.250000  1
  F  F8  1  0.137292  0.137292  0.500000  1
  F  F9  1  0.862708  0.862708  0.500000  1
  F  F10  1  0.862708  0.862708  0.000000  1
  F  F11  1  0.137292  0.137292  0.000000  1
  F  F12  1  0.104804  0.650880  0.529286  1
  F  F13  1  0.895196  0.349120  0.470714  1
  F  F14  1  0.895196  0.349120  0.029286  1
  F  F15  1  0.349120  0.895196  0.970714  1
  F  F16  1  0.104804  0.650880  0.970714  1
  F  F17  1  0.650880  0.104804  0.029286  1
  F  F18  1  0.650880  0.104804  0.470714  1
  F  F19  1  0.349120  0.895196  0.529286  1
  F  F20  1  0.244449  0.421109  0.750000  1
  F  F21  1  0.755551  0.578891  0.250000  1
  F  F22  1  0.578891  0.755551  0.750000  1
  F  F23  1  0.421109  0.244449  0.250000  1
  F  F24  1  0.600240  0.399760  0.551126  1
  F  F25  1  0.399760  0.600240  0.448874  1
  F  F26  1  0.399760  0.600240  0.051126  1
  F  F27  1  0.600240  0.399760  0.948874  1
