# generated using pymatgen
data_Mn3GeH
_symmetry_space_group_name_H-M   'P 1'
_cell_length_a   5.24443758
_cell_length_b   5.24443835
_cell_length_c   5.24470929
_cell_angle_alpha   119.93158273
_cell_angle_beta   119.93158211
_cell_angle_gamma   90.11557605
_symmetry_Int_Tables_number   1
_chemical_formula_structural   Mn3GeH
_chemical_formula_sum   'Mn6 Ge2 H2'
_cell_volume   102.10887117
_cell_formula_units_Z   2
loop_
 _symmetry_equiv_pos_site_id
 _symmetry_equiv_pos_as_xyz
  1  'x, y, z'
loop_
 _atom_site_type_symbol
 _atom_site_label
 _atom_site_symmetry_multiplicity
 _atom_site_fract_x
 _atom_site_fract_y
 _atom_site_fract_z
 _atom_site_occupancy
  Mn  Mn0  1  0.749849  0.249849  0.999699  1
  Mn  Mn1  1  0.250151  0.750151  0.000301  1
  Mn  Mn2  1  0.249854  0.250146  0.500000  1
  Mn  Mn3  1  0.750146  0.749854  0.500000  1
  Mn  Mn4  1  0.250000  0.250000  0.000000  1
  Mn  Mn5  1  0.750000  0.750000  0.000000  1
  Ge  Ge6  1  0.749995  0.249995  0.500000  1
  Ge  Ge7  1  0.250005  0.750005  0.500000  1
  H  H8  1  0.000000  0.000000  0.000000  1
  H  H9  1  0.500000  0.500000  0.000000  1
