# generated using pymatgen
data_TlReOF6
_symmetry_space_group_name_H-M   'P 1'
_cell_length_a   8.00470919
_cell_length_b   7.13960775
_cell_length_c   10.71818500
_cell_angle_alpha   89.95738693
_cell_angle_beta   92.37572535
_cell_angle_gamma   90.05221670
_symmetry_Int_Tables_number   1
_chemical_formula_structural   TlReOF6
_chemical_formula_sum   'Tl4 Re4 O4 F24'
_cell_volume   612.02255354
_cell_formula_units_Z   4
loop_
 _symmetry_equiv_pos_site_id
 _symmetry_equiv_pos_as_xyz
  1  'x, y, z'
loop_
 _atom_site_type_symbol
 _atom_site_label
 _atom_site_symmetry_multiplicity
 _atom_site_fract_x
 _atom_site_fract_y
 _atom_site_fract_z
 _atom_site_occupancy
  Tl  Tl0  1  0.778590  0.260250  0.000340  1
  Tl  Tl1  1  0.221335  0.760217  0.499651  1
  Tl  Tl2  1  0.778665  0.239783  0.500348  1
  Tl  Tl3  1  0.221411  0.739750  0.999660  1
  Re  Re4  1  0.719082  0.717769  0.238076  1
  Re  Re5  1  0.280793  0.218346  0.261960  1
  Re  Re6  1  0.719208  0.781654  0.738040  1
  Re  Re7  1  0.280918  0.282231  0.761924  1
  O  O8  1  0.423979  0.238449  0.148898  1
  O  O9  1  0.575932  0.737727  0.351130  1
  O  O10  1  0.424068  0.262271  0.648869  1
  O  O11  1  0.576022  0.761552  0.851102  1
  F  F12  1  0.879515  0.681509  0.106952  1
  F  F13  1  0.558463  0.605512  0.119424  1
  F  F14  1  0.624783  0.914439  0.132552  1
  F  F15  1  0.097425  0.158079  0.145419  1
  F  F16  1  0.167189  0.448855  0.218523  1
  F  F17  1  0.267249  0.945103  0.245219  1
  F  F18  1  0.732541  0.444536  0.255060  1
  F  F19  1  0.832827  0.948398  0.281213  1
  F  F20  1  0.902410  0.657758  0.354690  1
  F  F21  1  0.375256  0.415135  0.367217  1
  F  F22  1  0.441275  0.106255  0.380788  1
  F  F23  1  0.120278  0.182155  0.393117  1
  F  F24  1  0.879722  0.817846  0.606882  1
  F  F25  1  0.558725  0.893744  0.619213  1
  F  F26  1  0.624745  0.584865  0.632783  1
  F  F27  1  0.097590  0.342242  0.645310  1
  F  F28  1  0.167173  0.051600  0.718787  1
  F  F29  1  0.267459  0.555462  0.744940  1
  F  F30  1  0.732751  0.054895  0.754781  1
  F  F31  1  0.832811  0.551147  0.781478  1
  F  F32  1  0.902576  0.841921  0.854581  1
  F  F33  1  0.375217  0.085563  0.867449  1
  F  F34  1  0.441537  0.394488  0.880576  1
  F  F35  1  0.120485  0.318489  0.893049  1
