# generated using pymatgen
data_NaOsCl6
_symmetry_space_group_name_H-M   'P 1'
_cell_length_a   7.04548700
_cell_length_b   6.65742736
_cell_length_c   19.49890621
_cell_angle_alpha   89.02560037
_cell_angle_beta   90.00000000
_cell_angle_gamma   90.00000000
_symmetry_Int_Tables_number   1
_chemical_formula_structural   NaOsCl6
_chemical_formula_sum   'Na4 Os4 Cl24'
_cell_volume   914.46038940
_cell_formula_units_Z   4
loop_
 _symmetry_equiv_pos_site_id
 _symmetry_equiv_pos_as_xyz
  1  'x, y, z'
loop_
 _atom_site_type_symbol
 _atom_site_label
 _atom_site_symmetry_multiplicity
 _atom_site_fract_x
 _atom_site_fract_y
 _atom_site_fract_z
 _atom_site_occupancy
  Na  Na0  1  0.810173  0.211803  0.746564  1
  Na  Na1  1  0.310173  0.788197  0.753436  1
  Na  Na2  1  0.189827  0.788197  0.253436  1
  Na  Na3  1  0.689827  0.211803  0.246564  1
  Os  Os4  1  0.717321  0.745724  0.619874  1
  Os  Os5  1  0.217321  0.254276  0.880126  1
  Os  Os6  1  0.282679  0.254276  0.380126  1
  Os  Os7  1  0.782679  0.745724  0.119874  1
  Cl  Cl8  1  0.816678  0.620995  0.235380  1
  Cl  Cl9  1  0.316678  0.379005  0.264620  1
  Cl  Cl10  1  0.183322  0.379005  0.764620  1
  Cl  Cl11  1  0.683322  0.620995  0.735380  1
  Cl  Cl12  1  0.608821  0.467216  0.094959  1
  Cl  Cl13  1  0.108821  0.532784  0.405041  1
  Cl  Cl14  1  0.391179  0.532784  0.905041  1
  Cl  Cl15  1  0.891179  0.467216  0.594959  1
  Cl  Cl16  1  0.505362  0.915124  0.155799  1
  Cl  Cl17  1  0.005362  0.084876  0.344201  1
  Cl  Cl18  1  0.494638  0.084876  0.844201  1
  Cl  Cl19  1  0.994638  0.915124  0.655799  1
  Cl  Cl20  1  0.748065  0.879533  0.013441  1
  Cl  Cl21  1  0.248065  0.120467  0.486559  1
  Cl  Cl22  1  0.251935  0.120467  0.986559  1
  Cl  Cl23  1  0.751935  0.879533  0.513441  1
  Cl  Cl24  1  0.958220  0.029684  0.155437  1
  Cl  Cl25  1  0.458220  0.970316  0.344563  1
  Cl  Cl26  1  0.041780  0.970316  0.844563  1
  Cl  Cl27  1  0.541780  0.029684  0.655437  1
  Cl  Cl28  1  0.062010  0.593438  0.092366  1
  Cl  Cl29  1  0.562010  0.406562  0.407634  1
  Cl  Cl30  1  0.937990  0.406562  0.907634  1
  Cl  Cl31  1  0.437990  0.593438  0.592366  1
