# generated using pymatgen
data_Dy5Zr2P12Ir17
_symmetry_space_group_name_H-M   'P 1'
_cell_length_a   12.66878300
_cell_length_b   12.89910820
_cell_length_c   3.98974500
_cell_angle_alpha   90.00000000
_cell_angle_beta   90.00000000
_cell_angle_gamma   119.41106611
_symmetry_Int_Tables_number   1
_chemical_formula_structural   Dy5Zr2P12Ir17
_chemical_formula_sum   'Dy5 Zr2 P12 Ir17'
_cell_volume   567.95927910
_cell_formula_units_Z   1
loop_
 _symmetry_equiv_pos_site_id
 _symmetry_equiv_pos_as_xyz
  1  'x, y, z'
loop_
 _atom_site_type_symbol
 _atom_site_label
 _atom_site_symmetry_multiplicity
 _atom_site_fract_x
 _atom_site_fract_y
 _atom_site_fract_z
 _atom_site_occupancy
  Dy  Dy0  1  0.330181  0.661548  0.500000  1
  Dy  Dy1  1  0.668634  0.338452  0.500000  1
  Dy  Dy2  1  0.000517  0.815380  0.000000  1
  Dy  Dy3  1  0.185137  0.184620  0.000000  1
  Dy  Dy4  1  0.812678  0.000000  0.000000  1
  Zr  Zr5  1  0.997798  0.447040  0.500000  1
  Zr  Zr6  1  0.550758  0.552960  0.500000  1
  P  P7  1  0.005896  0.650870  0.500000  1
  P  P8  1  0.355026  0.349130  0.500000  1
  P  P9  1  0.644669  0.000000  0.500000  1
  P  P10  1  0.514926  0.686360  0.000000  1
  P  P11  1  0.309793  0.825249  0.000000  1
  P  P12  1  0.164649  0.480939  0.000000  1
  P  P13  1  0.484543  0.174751  0.000000  1
  P  P14  1  0.683710  0.519061  0.000000  1
  P  P15  1  0.828566  0.313640  0.000000  1
  P  P16  1  0.999288  0.174227  0.500000  1
  P  P17  1  0.825061  0.825773  0.500000  1
  P  P18  1  0.181514  0.000000  0.500000  1
  Ir  Ir19  1  0.504934  0.864911  0.000000  1
  Ir  Ir20  1  0.127996  0.644197  0.000000  1
  Ir  Ir21  1  0.354906  0.495282  0.000000  1
  Ir  Ir22  1  0.483799  0.355803  0.000000  1
  Ir  Ir23  1  0.859625  0.504718  0.000000  1
  Ir  Ir24  1  0.640024  0.135089  0.000000  1
  Ir  Ir25  1  0.464535  0.000000  0.500000  1
  Ir  Ir26  1  0.996811  0.277649  0.000000  1
  Ir  Ir27  1  0.719162  0.722351  0.000000  1
  Ir  Ir28  1  0.290260  0.000000  0.000000  1
  Ir  Ir29  1  0.623890  0.808402  0.500000  1
  Ir  Ir30  1  0.203851  0.825766  0.500000  1
  Ir  Ir31  1  0.177841  0.365903  0.500000  1
  Ir  Ir32  1  0.378085  0.174234  0.500000  1
  Ir  Ir33  1  0.811938  0.634097  0.500000  1
  Ir  Ir34  1  0.815488  0.191598  0.500000  1
  Ir  Ir35  1  0.003514  0.000000  0.500000  1
