# generated using pymatgen
data_KMg2H8Ir
_symmetry_space_group_name_H-M   'P 1'
_cell_length_a   4.96544800
_cell_length_b   4.96544800
_cell_length_c   10.95616600
_cell_angle_alpha   90.00000000
_cell_angle_beta   90.00000000
_cell_angle_gamma   90.00000000
_symmetry_Int_Tables_number   1
_chemical_formula_structural   KMg2H8Ir
_chemical_formula_sum   'K2 Mg4 H16 Ir2'
_cell_volume   270.13165544
_cell_formula_units_Z   2
loop_
 _symmetry_equiv_pos_site_id
 _symmetry_equiv_pos_as_xyz
  1  'x, y, z'
loop_
 _atom_site_type_symbol
 _atom_site_label
 _atom_site_symmetry_multiplicity
 _atom_site_fract_x
 _atom_site_fract_y
 _atom_site_fract_z
 _atom_site_occupancy
  K  K0  1  0.500000  0.000000  0.000000  1
  K  K1  1  0.000000  0.500000  0.500000  1
  Mg  Mg2  1  0.500000  0.000000  0.631496  1
  Mg  Mg3  1  0.000000  0.500000  0.131496  1
  Mg  Mg4  1  0.500000  0.000000  0.368504  1
  Mg  Mg5  1  0.000000  0.500000  0.868504  1
  H  H6  1  0.239708  0.239708  0.750000  1
  H  H7  1  0.760292  0.760292  0.750000  1
  H  H8  1  0.760292  0.239708  0.250000  1
  H  H9  1  0.239708  0.760292  0.250000  1
  H  H10  1  0.760292  0.760292  0.250000  1
  H  H11  1  0.239708  0.239708  0.250000  1
  H  H12  1  0.239708  0.760292  0.750000  1
  H  H13  1  0.760292  0.239708  0.750000  1
  H  H14  1  0.500000  0.251628  0.500000  1
  H  H15  1  0.500000  0.748372  0.500000  1
  H  H16  1  0.748372  0.500000  0.000000  1
  H  H17  1  0.251628  0.500000  0.000000  1
  H  H18  1  0.000000  0.000000  0.597504  1
  H  H19  1  0.000000  0.000000  0.097504  1
  H  H20  1  0.000000  0.000000  0.402496  1
  H  H21  1  0.000000  0.000000  0.902496  1
  Ir  Ir22  1  0.000000  0.000000  0.750000  1
  Ir  Ir23  1  0.000000  0.000000  0.250000  1
