# generated using pymatgen
data_Li(PbO2)4
_symmetry_space_group_name_H-M   'P 1'
_cell_length_a   6.39902102
_cell_length_b   8.11715218
_cell_length_c   11.67841693
_cell_angle_alpha   78.32517840
_cell_angle_beta   84.67641317
_cell_angle_gamma   84.72675263
_symmetry_Int_Tables_number   1
_chemical_formula_structural   Li(PbO2)4
_chemical_formula_sum   'Li3 Pb12 O24'
_cell_volume   589.82066011
_cell_formula_units_Z   3
loop_
 _symmetry_equiv_pos_site_id
 _symmetry_equiv_pos_as_xyz
  1  'x, y, z'
loop_
 _atom_site_type_symbol
 _atom_site_label
 _atom_site_symmetry_multiplicity
 _atom_site_fract_x
 _atom_site_fract_y
 _atom_site_fract_z
 _atom_site_occupancy
  Li  Li0  1  0.995308  0.442319  0.930315  1
  Li  Li1  1  0.250396  0.565461  0.314083  1
  Li  Li2  1  0.509010  0.561421  0.576795  1
  Pb  Pb3  1  0.749708  0.998872  0.750631  1
  Pb  Pb4  1  0.998387  0.995227  0.001901  1
  Pb  Pb5  1  0.253952  0.006049  0.247994  1
  Pb  Pb6  1  0.494543  0.005405  0.499165  1
  Pb  Pb7  1  0.726591  0.309427  0.206924  1
  Pb  Pb8  1  0.963170  0.306088  0.460715  1
  Pb  Pb9  1  0.216965  0.305817  0.709443  1
  Pb  Pb10  1  0.481776  0.310994  0.952128  1
  Pb  Pb11  1  0.522142  0.690693  0.043169  1
  Pb  Pb12  1  0.776003  0.695856  0.292708  1
  Pb  Pb13  1  0.015961  0.688265  0.548706  1
  Pb  Pb14  1  0.284263  0.696358  0.789817  1
  O  O15  1  0.975290  0.127794  0.154674  1
  O  O16  1  0.466962  0.123400  0.656603  1
  O  O17  1  0.217948  0.127171  0.404563  1
  O  O18  1  0.726525  0.129942  0.902037  1
  O  O19  1  0.709095  0.194455  0.395406  1
  O  O20  1  0.963547  0.191146  0.646154  1
  O  O21  1  0.469572  0.194982  0.142516  1
  O  O22  1  0.183105  0.221378  0.904279  1
  O  O23  1  0.726211  0.453548  0.017071  1
  O  O24  1  0.976471  0.457623  0.276467  1
  O  O25  1  0.470792  0.453040  0.754908  1
  O  O26  1  0.219774  0.459127  0.516236  1
  O  O27  1  0.526890  0.549411  0.232774  1
  O  O28  1  0.768595  0.551655  0.486032  1
  O  O29  1  0.029853  0.548004  0.741784  1
  O  O30  1  0.278342  0.544160  0.973945  1
  O  O31  1  0.781974  0.806420  0.103584  1
  O  O32  1  0.066554  0.780152  0.350730  1
  O  O33  1  0.316443  0.778614  0.595920  1
  O  O34  1  0.535982  0.810182  0.855733  1
  O  O35  1  0.777120  0.875960  0.594104  1
  O  O36  1  0.527908  0.873740  0.346270  1
  O  O37  1  0.271366  0.867684  0.098712  1
  O  O38  1  0.033331  0.877765  0.843123  1
