# generated using pymatgen
data_Nd3Sm2Pt19
_symmetry_space_group_name_H-M   'P 1'
_cell_length_a   5.44424388
_cell_length_b   5.44424505
_cell_length_c   18.09739146
_cell_angle_alpha   81.34901785
_cell_angle_beta   81.34901569
_cell_angle_gamma   60.00000766
_symmetry_Int_Tables_number   1
_chemical_formula_structural   Nd3Sm2Pt19
_chemical_formula_sum   'Nd3 Sm2 Pt19'
_cell_volume   457.47832667
_cell_formula_units_Z   1
loop_
 _symmetry_equiv_pos_site_id
 _symmetry_equiv_pos_as_xyz
  1  'x, y, z'
loop_
 _atom_site_type_symbol
 _atom_site_label
 _atom_site_symmetry_multiplicity
 _atom_site_fract_x
 _atom_site_fract_y
 _atom_site_fract_z
 _atom_site_occupancy
  Nd  Nd0  1  0.000000  0.000000  0.000000  1
  Nd  Nd1  1  0.077144  0.077144  0.768566  1
  Nd  Nd2  1  0.922856  0.922856  0.231434  1
  Sm  Sm3  1  0.152110  0.152110  0.543671  1
  Sm  Sm4  1  0.847890  0.847890  0.456329  1
  Pt  Pt5  1  0.500000  0.500000  0.500000  1
  Pt  Pt6  1  0.249777  0.249777  0.250667  1
  Pt  Pt7  1  0.750223  0.750223  0.749333  1
  Pt  Pt8  1  0.333237  0.333237  0.000287  1
  Pt  Pt9  1  0.666763  0.666763  0.999713  1
  Pt  Pt10  1  0.416584  0.416584  0.750247  1
  Pt  Pt11  1  0.583416  0.583416  0.249753  1
  Pt  Pt12  1  0.122120  0.627238  0.623403  1
  Pt  Pt13  1  0.627238  0.627238  0.623403  1
  Pt  Pt14  1  0.627238  0.122120  0.623403  1
  Pt  Pt15  1  0.877880  0.372762  0.376597  1
  Pt  Pt16  1  0.372762  0.372762  0.376597  1
  Pt  Pt17  1  0.372762  0.877880  0.376597  1
  Pt  Pt18  1  0.041323  0.541475  0.875727  1
  Pt  Pt19  1  0.541475  0.541475  0.875727  1
  Pt  Pt20  1  0.541475  0.041323  0.875727  1
  Pt  Pt21  1  0.958677  0.458525  0.124273  1
  Pt  Pt22  1  0.458525  0.458525  0.124273  1
  Pt  Pt23  1  0.458525  0.958677  0.124273  1
