# generated using pymatgen
data_YbThTaIr3
_symmetry_space_group_name_H-M   'P 1'
_cell_length_a   5.27193637
_cell_length_b   5.73470089
_cell_length_c   5.73470000
_cell_angle_alpha   60.00000513
_cell_angle_beta   57.05120229
_cell_angle_gamma   57.05120420
_symmetry_Int_Tables_number   1
_chemical_formula_structural   YbThTaIr3
_chemical_formula_sum   'Yb1 Th1 Ta1 Ir3'
_cell_volume   116.84436062
_cell_formula_units_Z   1
loop_
 _symmetry_equiv_pos_site_id
 _symmetry_equiv_pos_as_xyz
  1  'x, y, z'
loop_
 _atom_site_type_symbol
 _atom_site_label
 _atom_site_symmetry_multiplicity
 _atom_site_fract_x
 _atom_site_fract_y
 _atom_site_fract_z
 _atom_site_occupancy
  Yb  Yb0  1  0.742379  0.752540  0.752540  1
  Th  Th1  1  0.497898  0.500701  0.500701  1
  Ta  Ta2  1  0.626525  0.124492  0.124492  1
  Ir  Ir3  1  0.127733  0.123161  0.123161  1
  Ir  Ir4  1  0.127733  0.123161  0.625946  1
  Ir  Ir5  1  0.127733  0.625946  0.123161  1
