# generated using pymatgen
data_Ta6Zn6Ru7Rh5
_symmetry_space_group_name_H-M   'P 1'
_cell_length_a   4.38248000
_cell_length_b   6.22077911
_cell_length_c   13.11665524
_cell_angle_alpha   89.97817448
_cell_angle_beta   90.00157067
_cell_angle_gamma   89.99971818
_symmetry_Int_Tables_number   1
_chemical_formula_structural   Ta6Zn6Ru7Rh5
_chemical_formula_sum   'Ta6 Zn6 Ru7 Rh5'
_cell_volume   357.59200102
_cell_formula_units_Z   1
loop_
 _symmetry_equiv_pos_site_id
 _symmetry_equiv_pos_as_xyz
  1  'x, y, z'
loop_
 _atom_site_type_symbol
 _atom_site_label
 _atom_site_symmetry_multiplicity
 _atom_site_fract_x
 _atom_site_fract_y
 _atom_site_fract_z
 _atom_site_occupancy
  Ta  Ta0  1  0.000020  0.499572  0.995067  1
  Ta  Ta1  1  0.499767  0.997782  0.168675  1
  Ta  Ta2  1  0.999786  0.504761  0.338260  1
  Ta  Ta3  1  0.500011  0.998288  0.502805  1
  Ta  Ta4  1  0.000213  0.499594  0.666382  1
  Ta  Ta5  1  0.500229  0.000193  0.828760  1
  Zn  Zn6  1  0.000004  0.999989  0.999244  1
  Zn  Zn7  1  0.499748  0.499929  0.167073  1
  Zn  Zn8  1  0.999752  0.999959  0.334181  1
  Zn  Zn9  1  0.499999  0.500374  0.500612  1
  Zn  Zn10  1  0.000243  0.999808  0.666653  1
  Zn  Zn11  1  0.500252  0.499984  0.832279  1
  Ru  Ru12  1  0.499790  0.749605  0.330712  1
  Ru  Ru13  1  0.000007  0.250574  0.498701  1
  Ru  Ru14  1  0.999997  0.749683  0.498473  1
  Ru  Ru15  1  0.500203  0.249127  0.666943  1
  Ru  Ru16  1  0.500196  0.750756  0.667074  1
  Ru  Ru17  1  0.000225  0.250331  0.835561  1
  Ru  Ru18  1  0.000228  0.749623  0.835771  1
  Rh  Rh19  1  0.500011  0.252079  0.001766  1
  Rh  Rh20  1  0.500008  0.748395  0.001857  1
  Rh  Rh21  1  0.999762  0.247519  0.166010  1
  Rh  Rh22  1  0.999767  0.752013  0.165912  1
  Rh  Rh23  1  0.499776  0.250063  0.331233  1
