# generated using pymatgen
data_Cs2Hg3F12
_symmetry_space_group_name_H-M   'P 1'
_cell_length_a   5.85039690
_cell_length_b   8.11937452
_cell_length_c   8.84641689
_cell_angle_alpha   69.51168232
_cell_angle_beta   69.68214798
_cell_angle_gamma   70.53984195
_symmetry_Int_Tables_number   1
_chemical_formula_structural   Cs2Hg3F12
_chemical_formula_sum   'Cs2 Hg3 F12'
_cell_volume   358.27450728
_cell_formula_units_Z   1
loop_
 _symmetry_equiv_pos_site_id
 _symmetry_equiv_pos_as_xyz
  1  'x, y, z'
loop_
 _atom_site_type_symbol
 _atom_site_label
 _atom_site_symmetry_multiplicity
 _atom_site_fract_x
 _atom_site_fract_y
 _atom_site_fract_z
 _atom_site_occupancy
  Cs  Cs0  1  0.227908  0.802331  0.242705  1
  Cs  Cs1  1  0.772092  0.197669  0.757295  1
  Hg  Hg2  1  0.000000  0.500000  0.000000  1
  Hg  Hg3  1  0.458755  0.214812  0.341234  1
  Hg  Hg4  1  0.541245  0.785188  0.658766  1
  F  F5  1  0.085298  0.244827  0.974329  1
  F  F6  1  0.914702  0.755173  0.025671  1
  F  F7  1  0.144423  0.377187  0.259720  1
  F  F8  1  0.855577  0.622813  0.740280  1
  F  F9  1  0.641929  0.476073  0.148247  1
  F  F10  1  0.358071  0.523927  0.851753  1
  F  F11  1  0.757376  0.046163  0.441281  1
  F  F12  1  0.242624  0.953837  0.558719  1
  F  F13  1  0.338249  0.343211  0.524883  1
  F  F14  1  0.661751  0.656789  0.475117  1
  F  F15  1  0.571635  0.079388  0.162477  1
  F  F16  1  0.428365  0.920612  0.837523  1
