# generated using pymatgen
data_Th10Bi5P2Pb
_symmetry_space_group_name_H-M   'P 1'
_cell_length_a   9.55410668
_cell_length_b   9.57764932
_cell_length_c   6.71644900
_cell_angle_alpha   90.00000000
_cell_angle_beta   90.00000000
_cell_angle_gamma   120.08154839
_symmetry_Int_Tables_number   1
_chemical_formula_structural   Th10Bi5P2Pb
_chemical_formula_sum   'Th10 Bi5 P2 Pb1'
_cell_volume   531.81662387
_cell_formula_units_Z   1
loop_
 _symmetry_equiv_pos_site_id
 _symmetry_equiv_pos_as_xyz
  1  'x, y, z'
loop_
 _atom_site_type_symbol
 _atom_site_label
 _atom_site_symmetry_multiplicity
 _atom_site_fract_x
 _atom_site_fract_y
 _atom_site_fract_z
 _atom_site_occupancy
  Th  Th0  1  0.754443  0.754463  0.250000  1
  Th  Th1  1  0.245557  0.000020  0.250000  1
  Th  Th2  1  0.000000  0.245937  0.250000  1
  Th  Th3  1  0.245032  0.245653  0.750000  1
  Th  Th4  1  0.754968  0.000621  0.750000  1
  Th  Th5  1  0.000000  0.754032  0.750000  1
  Th  Th6  1  0.667004  0.333461  0.500712  1
  Th  Th7  1  0.332996  0.666458  0.500712  1
  Th  Th8  1  0.332996  0.666458  0.999288  1
  Th  Th9  1  0.667004  0.333461  0.999288  1
  Bi  Bi10  1  0.394063  0.394304  0.250000  1
  Bi  Bi11  1  0.605937  0.000242  0.250000  1
  Bi  Bi12  1  0.000000  0.605520  0.250000  1
  Bi  Bi13  1  0.605765  0.605899  0.750000  1
  Bi  Bi14  1  0.394235  0.000135  0.750000  1
  P  P15  1  0.000000  0.999750  0.500095  1
  P  P16  1  0.000000  0.999750  0.999905  1
  Pb  Pb17  1  0.000000  0.393837  0.750000  1
