# generated using pymatgen
data_Lu(ZrTc6)4
_symmetry_space_group_name_H-M   'P 1'
_cell_length_a   8.44425387
_cell_length_b   8.44425486
_cell_length_c   8.44425400
_cell_angle_alpha   109.47121618
_cell_angle_beta   109.47121855
_cell_angle_gamma   109.47121696
_symmetry_Int_Tables_number   1
_chemical_formula_structural   Lu(ZrTc6)4
_chemical_formula_sum   'Lu1 Zr4 Tc24'
_cell_volume   463.51315684
_cell_formula_units_Z   1
loop_
 _symmetry_equiv_pos_site_id
 _symmetry_equiv_pos_as_xyz
  1  'x, y, z'
loop_
 _atom_site_type_symbol
 _atom_site_label
 _atom_site_symmetry_multiplicity
 _atom_site_fract_x
 _atom_site_fract_y
 _atom_site_fract_z
 _atom_site_occupancy
  Lu  Lu0  1  0.000000  0.000000  0.000000  1
  Zr  Zr1  1  0.624527  0.000000  0.000000  1
  Zr  Zr2  1  0.000000  0.624527  0.000000  1
  Zr  Zr3  1  0.375471  0.375471  0.375471  1
  Zr  Zr4  1  0.000000  0.000000  0.624527  1
  Tc  Tc5  1  0.375772  0.194941  0.000000  1
  Tc  Tc6  1  0.194941  0.375772  0.000000  1
  Tc  Tc7  1  0.673865  0.394161  0.000000  1
  Tc  Tc8  1  0.394161  0.673865  0.000000  1
  Tc  Tc9  1  0.805059  0.805059  0.180831  1
  Tc  Tc10  1  0.375772  0.000000  0.194941  1
  Tc  Tc11  1  0.000000  0.375772  0.194941  1
  Tc  Tc12  1  0.605838  0.605838  0.279704  1
  Tc  Tc13  1  0.720295  0.326134  0.326134  1
  Tc  Tc14  1  0.326134  0.720295  0.326134  1
  Tc  Tc15  1  0.194941  0.000000  0.375772  1
  Tc  Tc16  1  0.000000  0.194941  0.375772  1
  Tc  Tc17  1  0.673865  0.000000  0.394161  1
  Tc  Tc18  1  0.000000  0.673865  0.394161  1
  Tc  Tc19  1  0.605838  0.279704  0.605838  1
  Tc  Tc20  1  0.279704  0.605838  0.605838  1
  Tc  Tc21  1  0.819169  0.624228  0.624228  1
  Tc  Tc22  1  0.624228  0.819169  0.624228  1
  Tc  Tc23  1  0.394161  0.000000  0.673865  1
  Tc  Tc24  1  0.000000  0.394161  0.673865  1
  Tc  Tc25  1  0.326134  0.326134  0.720295  1
  Tc  Tc26  1  0.805059  0.180831  0.805059  1
  Tc  Tc27  1  0.180831  0.805059  0.805059  1
  Tc  Tc28  1  0.624228  0.624228  0.819169  1
