# generated using pymatgen
data_CaY(Al5Ru)4
_symmetry_space_group_name_H-M   'P 1'
_cell_length_a   6.87268363
_cell_length_b   6.87268355
_cell_length_c   9.15138600
_cell_angle_alpha   90.00000000
_cell_angle_beta   90.00000000
_cell_angle_gamma   96.75961903
_symmetry_Int_Tables_number   1
_chemical_formula_structural   CaY(Al5Ru)4
_chemical_formula_sum   'Ca1 Y1 Al20 Ru4'
_cell_volume   429.24982453
_cell_formula_units_Z   1
loop_
 _symmetry_equiv_pos_site_id
 _symmetry_equiv_pos_as_xyz
  1  'x, y, z'
loop_
 _atom_site_type_symbol
 _atom_site_label
 _atom_site_symmetry_multiplicity
 _atom_site_fract_x
 _atom_site_fract_y
 _atom_site_fract_z
 _atom_site_occupancy
  Ca  Ca0  1  0.874737  0.125263  0.750000  1
  Y  Y1  1  0.124987  0.875013  0.250000  1
  Al  Al2  1  0.623565  0.376435  0.544971  1
  Al  Al3  1  0.376928  0.623072  0.449540  1
  Al  Al4  1  0.376928  0.623072  0.050460  1
  Al  Al5  1  0.623565  0.376435  0.955029  1
  Al  Al6  1  0.225387  0.227020  0.499481  1
  Al  Al7  1  0.772980  0.774613  0.499481  1
  Al  Al8  1  0.772980  0.774613  0.000519  1
  Al  Al9  1  0.225387  0.227020  0.000519  1
  Al  Al10  1  0.845043  0.154957  0.099025  1
  Al  Al11  1  0.159059  0.840941  0.900408  1
  Al  Al12  1  0.159059  0.840941  0.599592  1
  Al  Al13  1  0.845043  0.154957  0.400975  1
  Al  Al14  1  0.859805  0.588510  0.750000  1
  Al  Al15  1  0.140082  0.413877  0.250000  1
  Al  Al16  1  0.411490  0.140195  0.750000  1
  Al  Al17  1  0.586123  0.859918  0.250000  1
  Al  Al18  1  0.220297  0.477408  0.750000  1
  Al  Al19  1  0.779678  0.520487  0.250000  1
  Al  Al20  1  0.522592  0.779703  0.750000  1
  Al  Al21  1  0.479513  0.220322  0.250000  1
  Ru  Ru22  1  0.999690  0.502305  0.498899  1
  Ru  Ru23  1  0.999690  0.502305  0.001101  1
  Ru  Ru24  1  0.497695  0.000310  0.001101  1
  Ru  Ru25  1  0.497695  0.000310  0.498899  1
