# generated using pymatgen
data_TbYTa6O18
_symmetry_space_group_name_H-M   'P 1'
_cell_length_a   7.53431100
_cell_length_b   5.32027404
_cell_length_c   8.31524851
_cell_angle_alpha   87.62973100
_cell_angle_beta   90.00000000
_cell_angle_gamma   90.00000000
_symmetry_Int_Tables_number   1
_chemical_formula_structural   TbYTa6O18
_chemical_formula_sum   'Tb1 Y1 Ta6 O18'
_cell_volume   333.02822944
_cell_formula_units_Z   1
loop_
 _symmetry_equiv_pos_site_id
 _symmetry_equiv_pos_as_xyz
  1  'x, y, z'
loop_
 _atom_site_type_symbol
 _atom_site_label
 _atom_site_symmetry_multiplicity
 _atom_site_fract_x
 _atom_site_fract_y
 _atom_site_fract_z
 _atom_site_occupancy
  Tb  Tb0  1  0.250000  0.965248  0.435519  1
  Y  Y1  1  0.750000  0.035551  0.564337  1
  Ta  Ta2  1  0.999993  0.000081  0.999953  1
  Ta  Ta3  1  0.500007  0.000081  0.999953  1
  Ta  Ta4  1  0.493172  0.527976  0.696812  1
  Ta  Ta5  1  0.006828  0.527976  0.696812  1
  Ta  Ta6  1  0.992938  0.472125  0.303246  1
  Ta  Ta7  1  0.507062  0.472125  0.303246  1
  O  O8  1  0.250000  0.907592  0.978262  1
  O  O9  1  0.936303  0.850337  0.785114  1
  O  O10  1  0.563697  0.850337  0.785114  1
  O  O11  1  0.957552  0.741967  0.467267  1
  O  O12  1  0.542448  0.741967  0.467267  1
  O  O13  1  0.250000  0.660919  0.655308  1
  O  O14  1  0.948819  0.675848  0.121055  1
  O  O15  1  0.551181  0.675848  0.121055  1
  O  O16  1  0.250000  0.574167  0.315092  1
  O  O17  1  0.750000  0.424536  0.684992  1
  O  O18  1  0.051183  0.324127  0.879005  1
  O  O19  1  0.448817  0.324127  0.879005  1
  O  O20  1  0.750000  0.338328  0.344747  1
  O  O21  1  0.041978  0.258474  0.532804  1
  O  O22  1  0.458022  0.258474  0.532804  1
  O  O23  1  0.063544  0.149735  0.214729  1
  O  O24  1  0.436456  0.149735  0.214729  1
  O  O25  1  0.750000  0.092318  0.021773  1
