# generated using pymatgen
data_Nb9Ga3Pt2
_symmetry_space_group_name_H-M   'P 1'
_cell_length_a   5.21766835
_cell_length_b   9.91852066
_cell_length_c   9.91852000
_cell_angle_alpha   86.03293729
_cell_angle_beta   74.75028047
_cell_angle_gamma   74.75028546
_symmetry_Int_Tables_number   1
_chemical_formula_structural   Nb9Ga3Pt2
_chemical_formula_sum   'Nb18 Ga6 Pt4'
_cell_volume   477.78729045
_cell_formula_units_Z   2
loop_
 _symmetry_equiv_pos_site_id
 _symmetry_equiv_pos_as_xyz
  1  'x, y, z'
loop_
 _atom_site_type_symbol
 _atom_site_label
 _atom_site_symmetry_multiplicity
 _atom_site_fract_x
 _atom_site_fract_y
 _atom_site_fract_z
 _atom_site_occupancy
  Nb  Nb0  1  0.750000  0.500199  0.499801  1
  Nb  Nb1  1  0.250000  0.499801  0.500199  1
  Nb  Nb2  1  0.791262  0.776130  0.640944  1
  Nb  Nb3  1  0.208738  0.223870  0.359056  1
  Nb  Nb4  1  0.708738  0.359056  0.223870  1
  Nb  Nb5  1  0.291262  0.640944  0.776130  1
  Nb  Nb6  1  0.568123  0.640952  0.223774  1
  Nb  Nb7  1  0.431877  0.359048  0.776226  1
  Nb  Nb8  1  0.068123  0.223774  0.640952  1
  Nb  Nb9  1  0.931877  0.776226  0.359048  1
  Nb  Nb10  1  0.583173  0.076796  0.756997  1
  Nb  Nb11  1  0.416827  0.923204  0.243003  1
  Nb  Nb12  1  0.916827  0.243003  0.923204  1
  Nb  Nb13  1  0.083173  0.756997  0.076796  1
  Nb  Nb14  1  0.659919  0.757069  0.923244  1
  Nb  Nb15  1  0.340081  0.242931  0.076756  1
  Nb  Nb16  1  0.159919  0.923244  0.757069  1
  Nb  Nb17  1  0.840081  0.076756  0.242931  1
  Ga  Ga18  1  0.500000  0.000000  0.500000  1
  Ga  Ga19  1  0.000000  0.000000  0.500000  1
  Ga  Ga20  1  0.500000  0.500000  0.000000  1
  Ga  Ga21  1  0.000000  0.500000  0.000000  1
  Ga  Ga22  1  0.250000  0.000034  0.999966  1
  Ga  Ga23  1  0.750000  0.999966  0.000034  1
  Pt  Pt24  1  0.127010  0.499977  0.245137  1
  Pt  Pt25  1  0.872990  0.500023  0.754863  1
  Pt  Pt26  1  0.372990  0.754863  0.500023  1
  Pt  Pt27  1  0.627010  0.245137  0.499977  1
