# generated using pymatgen
data_Hf3MnGa3Pd2
_symmetry_space_group_name_H-M   'P 1'
_cell_length_a   7.23414200
_cell_length_b   7.23414135
_cell_length_c   6.70126700
_cell_angle_alpha   90.00000000
_cell_angle_beta   90.00000000
_cell_angle_gamma   120.00000296
_symmetry_Int_Tables_number   1
_chemical_formula_structural   Hf3MnGa3Pd2
_chemical_formula_sum   'Hf6 Mn2 Ga6 Pd4'
_cell_volume   303.71172647
_cell_formula_units_Z   2
loop_
 _symmetry_equiv_pos_site_id
 _symmetry_equiv_pos_as_xyz
  1  'x, y, z'
loop_
 _atom_site_type_symbol
 _atom_site_label
 _atom_site_symmetry_multiplicity
 _atom_site_fract_x
 _atom_site_fract_y
 _atom_site_fract_z
 _atom_site_occupancy
  Hf  Hf0  1  0.746609  0.053229  0.000000  1
  Hf  Hf1  1  0.306619  0.253391  0.000000  1
  Hf  Hf2  1  0.946771  0.693381  0.000000  1
  Hf  Hf3  1  0.310191  0.253939  0.500000  1
  Hf  Hf4  1  0.746061  0.056252  0.500000  1
  Hf  Hf5  1  0.943748  0.689809  0.500000  1
  Mn  Mn6  1  0.000000  0.000000  0.251223  1
  Mn  Mn7  1  0.000000  0.000000  0.748777  1
  Ga  Ga8  1  0.610477  0.668459  0.750023  1
  Ga  Ga9  1  0.057983  0.389523  0.750023  1
  Ga  Ga10  1  0.331541  0.942017  0.750023  1
  Ga  Ga11  1  0.610477  0.668459  0.249977  1
  Ga  Ga12  1  0.057983  0.389523  0.249977  1
  Ga  Ga13  1  0.331541  0.942017  0.249977  1
  Pd  Pd14  1  0.333333  0.666667  0.000000  1
  Pd  Pd15  1  0.333333  0.666667  0.500000  1
  Pd  Pd16  1  0.666667  0.333333  0.755775  1
  Pd  Pd17  1  0.666667  0.333333  0.244225  1
