# generated using pymatgen
data_Na4Mo2H11
_symmetry_space_group_name_H-M   'P 1'
_cell_length_a   5.60312773
_cell_length_b   7.82291275
_cell_length_c   9.51067800
_cell_angle_alpha   67.79888073
_cell_angle_beta   86.88293376
_cell_angle_gamma   86.43069229
_symmetry_Int_Tables_number   1
_chemical_formula_structural   Na4Mo2H11
_chemical_formula_sum   'Na8 Mo4 H22'
_cell_volume   385.00987041
_cell_formula_units_Z   2
loop_
 _symmetry_equiv_pos_site_id
 _symmetry_equiv_pos_as_xyz
  1  'x, y, z'
loop_
 _atom_site_type_symbol
 _atom_site_label
 _atom_site_symmetry_multiplicity
 _atom_site_fract_x
 _atom_site_fract_y
 _atom_site_fract_z
 _atom_site_occupancy
  Na  Na0  1  0.746039  0.367190  0.493637  1
  Na  Na1  1  0.253931  0.632780  0.506328  1
  Na  Na2  1  0.793789  0.384626  0.104067  1
  Na  Na3  1  0.206195  0.615441  0.895936  1
  Na  Na4  1  0.768908  0.954278  0.393146  1
  Na  Na5  1  0.231061  0.045729  0.606893  1
  Na  Na6  1  0.517553  0.197130  0.875876  1
  Na  Na7  1  0.482557  0.802838  0.124117  1
  Mo  Mo8  1  0.718431  0.859311  0.785595  1
  Mo  Mo9  1  0.281529  0.140673  0.214395  1
  Mo  Mo10  1  0.748720  0.595977  0.707818  1
  Mo  Mo11  1  0.251314  0.404042  0.292195  1
  H  H12  1  0.522875  0.807860  0.642941  1
  H  H13  1  0.477118  0.192049  0.357035  1
  H  H14  1  0.490091  0.471761  0.702747  1
  H  H15  1  0.510064  0.528242  0.297239  1
  H  H16  1  0.707159  0.085773  0.639049  1
  H  H17  1  0.292743  0.914286  0.360900  1
  H  H18  1  0.617981  0.618474  0.887703  1
  H  H19  1  0.382028  0.381424  0.112265  1
  H  H20  1  0.961340  0.787856  0.667537  1
  H  H21  1  0.038647  0.212089  0.332438  1
  H  H22  1  0.787231  0.645240  0.507123  1
  H  H23  1  0.212856  0.354686  0.492937  1
  H  H24  1  0.980497  0.949604  0.812911  1
  H  H25  1  0.019441  0.050522  0.187056  1
  H  H26  1  0.798744  0.795224  0.973560  1
  H  H27  1  0.201286  0.204784  0.026471  1
  H  H28  1  0.815814  0.387536  0.855583  1
  H  H29  1  0.184198  0.612526  0.144388  1
  H  H30  1  0.030101  0.492701  0.702583  1
  H  H31  1  0.969945  0.507382  0.297501  1
  H  H32  1  0.435005  0.922342  0.859684  1
  H  H33  1  0.564813  0.077623  0.140341  1
