# generated using pymatgen
data_Ho5Fe3Co11P12Ru5
_symmetry_space_group_name_H-M   'P 1'
_cell_length_a   12.06785430
_cell_length_b   12.09837730
_cell_length_c   3.71428800
_cell_angle_alpha   90.00000000
_cell_angle_beta   90.00000000
_cell_angle_gamma   119.99425831
_symmetry_Int_Tables_number   1
_chemical_formula_structural   Ho5Fe3Co11P12Ru5
_chemical_formula_sum   'Ho5 Fe3 Co11 P12 Ru5'
_cell_volume   469.66534221
_cell_formula_units_Z   1
loop_
 _symmetry_equiv_pos_site_id
 _symmetry_equiv_pos_as_xyz
  1  'x, y, z'
loop_
 _atom_site_type_symbol
 _atom_site_label
 _atom_site_symmetry_multiplicity
 _atom_site_fract_x
 _atom_site_fract_y
 _atom_site_fract_z
 _atom_site_occupancy
  Ho  Ho0  1  0.666880  0.333112  0.000000  1
  Ho  Ho1  1  0.328880  0.662958  0.000000  1
  Ho  Ho2  1  0.816209  0.816443  0.500000  1
  Ho  Ho3  1  0.182510  0.999899  0.500000  1
  Ho  Ho4  1  0.000600  0.185073  0.500000  1
  Fe  Fe5  1  0.875012  0.355317  0.500000  1
  Fe  Fe6  1  0.647163  0.516379  0.500000  1
  Fe  Fe7  1  0.483921  0.131119  0.500000  1
  Co  Co8  1  0.122610  0.479559  0.500000  1
  Co  Co9  1  0.805407  0.179005  0.000000  1
  Co  Co10  1  0.823311  0.624706  0.000000  1
  Co  Co11  1  0.372947  0.196389  0.000000  1
  Co  Co12  1  0.172084  0.800697  0.000000  1
  Co  Co13  1  0.628996  0.827991  0.000000  1
  Co  Co14  1  0.195778  0.373626  0.000000  1
  Co  Co15  1  0.282492  0.281206  0.500000  1
  Co  Co16  1  0.719932  0.003569  0.500000  1
  Co  Co17  1  0.996928  0.715148  0.500000  1
  Co  Co18  1  0.000003  0.999323  0.000000  1
  P  P19  1  0.687195  0.168983  0.500000  1
  P  P20  1  0.833862  0.516920  0.500000  1
  P  P21  1  0.481851  0.315530  0.500000  1
  P  P22  1  0.160493  0.681703  0.500000  1
  P  P23  1  0.524244  0.838241  0.500000  1
  P  P24  1  0.307625  0.474956  0.500000  1
  P  P25  1  0.178323  0.178644  0.000000  1
  P  P26  1  0.822690  0.001772  0.000000  1
  P  P27  1  0.998495  0.819987  0.000000  1
  P  P28  1  0.639970  0.631345  0.000000  1
  P  P29  1  0.367546  0.008342  0.000000  1
  P  P30  1  0.997201  0.361615  0.000000  1
  Ru  Ru31  1  0.354942  0.875824  0.500000  1
  Ru  Ru32  1  0.518138  0.642906  0.500000  1
  Ru  Ru33  1  0.448470  0.441496  0.000000  1
  Ru  Ru34  1  0.558611  0.008526  0.000000  1
  Ru  Ru35  1  0.998676  0.551695  0.000000  1
