# generated using pymatgen
data_Tm12InCo2Cu3
_symmetry_space_group_name_H-M   'P 1'
_cell_length_a   8.24419303
_cell_length_b   8.24419405
_cell_length_c   8.24419282
_cell_angle_alpha   110.19949285
_cell_angle_beta   111.92649640
_cell_angle_gamma   106.33741222
_symmetry_Int_Tables_number   1
_chemical_formula_structural   Tm12InCo2Cu3
_chemical_formula_sum   'Tm12 In1 Co2 Cu3'
_cell_volume   430.27806904
_cell_formula_units_Z   1
loop_
 _symmetry_equiv_pos_site_id
 _symmetry_equiv_pos_as_xyz
  1  'x, y, z'
loop_
 _atom_site_type_symbol
 _atom_site_label
 _atom_site_symmetry_multiplicity
 _atom_site_fract_x
 _atom_site_fract_y
 _atom_site_fract_z
 _atom_site_occupancy
  Tm  Tm0  1  0.288880  0.181035  0.469914  1
  Tm  Tm1  1  0.711120  0.818965  0.530086  1
  Tm  Tm2  1  0.288880  0.818965  0.107843  1
  Tm  Tm3  1  0.711120  0.181035  0.892157  1
  Tm  Tm4  1  0.618200  0.311681  0.306519  1
  Tm  Tm5  1  0.381800  0.688319  0.693481  1
  Tm  Tm6  1  0.005161  0.311681  0.693481  1
  Tm  Tm7  1  0.994839  0.688319  0.306519  1
  Tm  Tm8  1  0.229943  0.422572  0.192630  1
  Tm  Tm9  1  0.770057  0.577428  0.807370  1
  Tm  Tm10  1  0.229943  0.037314  0.807370  1
  Tm  Tm11  1  0.770057  0.962686  0.192630  1
  In  In12  1  0.500000  0.500000  0.000000  1
  Co  Co13  1  0.385454  0.885454  0.500000  1
  Co  Co14  1  0.614546  0.114546  0.500000  1
  Cu  Cu15  1  0.000000  0.359054  0.359054  1
  Cu  Cu16  1  0.000000  0.640946  0.640946  1
  Cu  Cu17  1  0.000000  0.000000  0.000000  1
