# generated using pymatgen
data_Cu(TcO4)2
_symmetry_space_group_name_H-M   'P 1'
_cell_length_a   9.78247057
_cell_length_b   9.78246995
_cell_length_c   9.78247089
_cell_angle_alpha   56.19323117
_cell_angle_beta   56.19323216
_cell_angle_gamma   56.19323425
_symmetry_Int_Tables_number   1
_chemical_formula_structural   Cu(TcO4)2
_chemical_formula_sum   'Cu3 Tc6 O24'
_cell_volume   603.63052340
_cell_formula_units_Z   3
loop_
 _symmetry_equiv_pos_site_id
 _symmetry_equiv_pos_as_xyz
  1  'x, y, z'
loop_
 _atom_site_type_symbol
 _atom_site_label
 _atom_site_symmetry_multiplicity
 _atom_site_fract_x
 _atom_site_fract_y
 _atom_site_fract_z
 _atom_site_occupancy
  Cu  Cu0  1  0.356691  0.356691  0.356691  1
  Cu  Cu1  1  0.643585  0.643585  0.643585  1
  Cu  Cu2  1  0.851959  0.851959  0.851959  1
  Tc  Tc3  1  0.477571  0.735725  0.035846  1
  Tc  Tc4  1  0.735725  0.035846  0.477571  1
  Tc  Tc5  1  0.035846  0.477571  0.735725  1
  Tc  Tc6  1  0.958716  0.542339  0.251203  1
  Tc  Tc7  1  0.251203  0.958716  0.542339  1
  Tc  Tc8  1  0.542339  0.251203  0.958716  1
  O  O9  1  0.501282  0.294110  0.133016  1
  O  O10  1  0.133016  0.501282  0.294110  1
  O  O11  1  0.327003  0.945273  0.005532  1
  O  O12  1  0.294110  0.133016  0.501282  1
  O  O13  1  0.673810  0.727515  0.013544  1
  O  O14  1  0.390073  0.592105  0.243783  1
  O  O15  1  0.592105  0.243783  0.390073  1
  O  O16  1  0.945273  0.005532  0.327003  1
  O  O17  1  0.243783  0.390073  0.592105  1
  O  O18  1  0.972943  0.690467  0.034436  1
  O  O19  1  0.966947  0.347609  0.283347  1
  O  O20  1  0.283347  0.966947  0.347609  1
  O  O21  1  0.727515  0.013544  0.673810  1
  O  O22  1  0.013544  0.673810  0.727515  1
  O  O23  1  0.005532  0.327003  0.945273  1
  O  O24  1  0.756892  0.634627  0.398043  1
  O  O25  1  0.034436  0.972943  0.690467  1
  O  O26  1  0.398043  0.756892  0.634627  1
  O  O27  1  0.634627  0.398043  0.756892  1
  O  O28  1  0.347609  0.283347  0.966947  1
  O  O29  1  0.665057  0.881026  0.520289  1
  O  O30  1  0.690467  0.034436  0.972943  1
  O  O31  1  0.881026  0.520289  0.665057  1
  O  O32  1  0.520289  0.665057  0.881026  1
