# generated using pymatgen
data_Th4Si(PtRh)6
_symmetry_space_group_name_H-M   'P 1'
_cell_length_a   7.37880283
_cell_length_b   7.37880343
_cell_length_c   7.37880400
_cell_angle_alpha   109.47121946
_cell_angle_beta   109.47122111
_cell_angle_gamma   109.47121850
_symmetry_Int_Tables_number   1
_chemical_formula_structural   Th4Si(PtRh)6
_chemical_formula_sum   'Th4 Si1 Pt6 Rh6'
_cell_volume   309.26868328
_cell_formula_units_Z   1
loop_
 _symmetry_equiv_pos_site_id
 _symmetry_equiv_pos_as_xyz
  1  'x, y, z'
loop_
 _atom_site_type_symbol
 _atom_site_label
 _atom_site_symmetry_multiplicity
 _atom_site_fract_x
 _atom_site_fract_y
 _atom_site_fract_z
 _atom_site_occupancy
  Th  Th0  1  0.000000  0.000000  0.500000  1
  Th  Th1  1  0.000000  0.500000  0.000000  1
  Th  Th2  1  0.500000  0.000000  0.000000  1
  Th  Th3  1  0.500000  0.500000  0.500000  1
  Si  Si4  1  0.000000  0.000000  0.000000  1
  Pt  Pt5  1  0.750000  0.250000  0.500000  1
  Pt  Pt6  1  0.750000  0.500000  0.250000  1
  Pt  Pt7  1  0.500000  0.250000  0.750000  1
  Pt  Pt8  1  0.250000  0.500000  0.750000  1
  Pt  Pt9  1  0.250000  0.750000  0.500000  1
  Pt  Pt10  1  0.500000  0.750000  0.250000  1
  Rh  Rh11  1  0.727318  0.727318  0.000000  1
  Rh  Rh12  1  0.272682  0.000000  0.272682  1
  Rh  Rh13  1  0.000000  0.272682  0.272682  1
  Rh  Rh14  1  0.272682  0.272682  0.000000  1
  Rh  Rh15  1  0.727318  0.000000  0.727318  1
  Rh  Rh16  1  0.000000  0.727318  0.727318  1
