# generated using pymatgen
data_Np2PdS4
_symmetry_space_group_name_H-M   'P 1'
_cell_length_a   6.71439323
_cell_length_b   6.72046407
_cell_length_c   7.78465904
_cell_angle_alpha   108.85569515
_cell_angle_beta   108.84376687
_cell_angle_gamma   104.54607809
_symmetry_Int_Tables_number   1
_chemical_formula_structural   Np2PdS4
_chemical_formula_sum   'Np4 Pd2 S8'
_cell_volume   288.75341306
_cell_formula_units_Z   2
loop_
 _symmetry_equiv_pos_site_id
 _symmetry_equiv_pos_as_xyz
  1  'x, y, z'
loop_
 _atom_site_type_symbol
 _atom_site_label
 _atom_site_symmetry_multiplicity
 _atom_site_fract_x
 _atom_site_fract_y
 _atom_site_fract_z
 _atom_site_occupancy
  Np  Np0  1  0.181338  0.578117  0.047009  1
  Np  Np1  1  0.384345  0.281301  0.452827  1
  Np  Np2  1  0.828135  0.931178  0.546797  1
  Np  Np3  1  0.531341  0.134428  0.953389  1
  Pd  Pd4  1  0.997895  0.997818  0.000069  1
  Pd  Pd5  1  0.247965  0.747938  0.500014  1
  S  S6  1  0.000882  0.338696  0.226263  1
  S  S7  1  0.547461  0.992498  0.246399  1
  S  S8  1  0.550931  0.495738  0.253626  1
  S  S9  1  0.025047  0.862839  0.273928  1
  S  S10  1  0.588743  0.750808  0.726112  1
  S  S11  1  0.242663  0.297726  0.746421  1
  S  S12  1  0.745618  0.301164  0.753315  1
  S  S13  1  0.112837  0.774952  0.773829  1
