# generated using pymatgen
data_Ta3Cd2Hg2SbO14
_symmetry_space_group_name_H-M   'P 1'
_cell_length_a   7.47080837
_cell_length_b   7.47080716
_cell_length_c   7.38587080
_cell_angle_alpha   60.16902299
_cell_angle_beta   60.16902097
_cell_angle_gamma   60.55981244
_symmetry_Int_Tables_number   1
_chemical_formula_structural   Ta3Cd2Hg2SbO14
_chemical_formula_sum   'Ta3 Cd2 Hg2 Sb1 O14'
_cell_volume   293.45387444
_cell_formula_units_Z   1
loop_
 _symmetry_equiv_pos_site_id
 _symmetry_equiv_pos_as_xyz
  1  'x, y, z'
loop_
 _atom_site_type_symbol
 _atom_site_label
 _atom_site_symmetry_multiplicity
 _atom_site_fract_x
 _atom_site_fract_y
 _atom_site_fract_z
 _atom_site_occupancy
  Ta  Ta0  1  0.125000  0.625000  0.125000  1
  Ta  Ta1  1  0.125000  0.125000  0.125000  1
  Ta  Ta2  1  0.625000  0.125000  0.125000  1
  Cd  Cd3  1  0.625000  0.125000  0.625000  1
  Cd  Cd4  1  0.125000  0.625000  0.625000  1
  Hg  Hg5  1  0.625000  0.625000  0.625000  1
  Hg  Hg6  1  0.625000  0.625000  0.125000  1
  Sb  Sb7  1  0.125000  0.125000  0.625000  1
  O  O8  1  0.813983  0.813983  0.186475  1
  O  O9  1  0.807267  0.189958  0.804235  1
  O  O10  1  0.053426  0.053426  0.447314  1
  O  O11  1  0.812491  0.184604  0.192480  1
  O  O12  1  0.436017  0.436017  0.063525  1
  O  O13  1  0.065396  0.437509  0.057520  1
  O  O14  1  0.189958  0.807267  0.804235  1
  O  O15  1  0.442733  0.060042  0.445765  1
  O  O16  1  0.502252  0.502252  0.494307  1
  O  O17  1  0.184604  0.812491  0.192480  1
  O  O18  1  0.196574  0.196574  0.802686  1
  O  O19  1  0.747748  0.747748  0.755693  1
  O  O20  1  0.437509  0.065396  0.057520  1
  O  O21  1  0.060042  0.442733  0.445765  1
