# generated using pymatgen
data_Nd2Sm5Gd(Se3N2)2
_symmetry_space_group_name_H-M   'P 1'
_cell_length_a   8.25773974
_cell_length_b   8.26005738
_cell_length_c   6.41342577
_cell_angle_alpha   89.97441610
_cell_angle_beta   90.13587156
_cell_angle_gamma   75.38398621
_symmetry_Int_Tables_number   1
_chemical_formula_structural   Nd2Sm5Gd(Se3N2)2
_chemical_formula_sum   'Nd2 Sm5 Gd1 Se6 N4'
_cell_volume   423.29786107
_cell_formula_units_Z   1
loop_
 _symmetry_equiv_pos_site_id
 _symmetry_equiv_pos_as_xyz
  1  'x, y, z'
loop_
 _atom_site_type_symbol
 _atom_site_label
 _atom_site_symmetry_multiplicity
 _atom_site_fract_x
 _atom_site_fract_y
 _atom_site_fract_z
 _atom_site_occupancy
  Nd  Nd0  1  0.191083  0.556644  0.470885  1
  Nd  Nd1  1  0.441893  0.810472  0.028632  1
  Sm  Sm2  1  0.913853  0.756047  0.927493  1
  Sm  Sm3  1  0.754869  0.914381  0.427135  1
  Sm  Sm4  1  0.086181  0.243322  0.073118  1
  Sm  Sm5  1  0.812782  0.442845  0.529914  1
  Sm  Sm6  1  0.556499  0.187820  0.966991  1
  Gd  Gd7  1  0.243332  0.087702  0.573311  1
  Se  Se8  1  0.748409  0.482692  0.035845  1
  Se  Se9  1  0.095037  0.906627  0.251828  1
  Se  Se10  1  0.516055  0.251211  0.465126  1
  Se  Se11  1  0.252732  0.515534  0.967823  1
  Se  Se12  1  0.905600  0.094962  0.749112  1
  Se  Se13  1  0.483202  0.749553  0.535744  1
  N  N14  1  0.083031  0.325178  0.417805  1
  N  N15  1  0.327638  0.085335  0.909861  1
  N  N16  1  0.915727  0.670838  0.585494  1
  N  N17  1  0.672079  0.918838  0.083883  1
