# generated using pymatgen
data_Pr5NbIrO12
_symmetry_space_group_name_H-M   'P 1'
_cell_length_a   7.12838526
_cell_length_b   7.12838566
_cell_length_c   7.84613333
_cell_angle_alpha   73.99033653
_cell_angle_beta   73.99033460
_cell_angle_gamma   49.98933762
_symmetry_Int_Tables_number   1
_chemical_formula_structural   Pr5NbIrO12
_chemical_formula_sum   'Pr5 Nb1 Ir1 O12'
_cell_volume   290.88694613
_cell_formula_units_Z   1
loop_
 _symmetry_equiv_pos_site_id
 _symmetry_equiv_pos_as_xyz
  1  'x, y, z'
loop_
 _atom_site_type_symbol
 _atom_site_label
 _atom_site_symmetry_multiplicity
 _atom_site_fract_x
 _atom_site_fract_y
 _atom_site_fract_z
 _atom_site_occupancy
  Pr  Pr0  1  0.299322  0.313293  0.357805  1
  Pr  Pr1  1  0.686707  0.700678  0.642195  1
  Pr  Pr2  1  0.684322  0.695954  0.168709  1
  Pr  Pr3  1  0.304046  0.315678  0.831291  1
  Pr  Pr4  1  0.999366  0.000634  0.500000  1
  Nb  Nb5  1  0.794630  0.205370  0.000000  1
  Ir  Ir6  1  0.245408  0.754592  0.000000  1
  O  O7  1  0.091068  0.596411  0.577769  1
  O  O8  1  0.005672  0.993138  0.192459  1
  O  O9  1  0.403589  0.908932  0.422231  1
  O  O10  1  0.501312  0.498822  0.170439  1
  O  O11  1  0.091163  0.584148  0.080458  1
  O  O12  1  0.898760  0.408625  0.423339  1
  O  O13  1  0.006862  0.994328  0.807541  1
  O  O14  1  0.591375  0.101239  0.576661  1
  O  O15  1  0.501178  0.498688  0.829561  1
  O  O16  1  0.581194  0.101824  0.078998  1
  O  O17  1  0.415852  0.908837  0.919542  1
  O  O18  1  0.898176  0.418806  0.921002  1
