# generated using pymatgen
data_Tb2Yb3Dy(Si3Ru)8
_symmetry_space_group_name_H-M   'P 1'
_cell_length_a   10.14388405
_cell_length_b   10.14388319
_cell_length_c   8.13209000
_cell_angle_alpha   90.00185183
_cell_angle_beta   90.00185824
_cell_angle_gamma   132.74810030
_symmetry_Int_Tables_number   1
_chemical_formula_structural   Tb2Yb3Dy(Si3Ru)8
_chemical_formula_sum   'Tb2 Yb3 Dy1 Si24 Ru8'
_cell_volume   614.48437194
_cell_formula_units_Z   1
loop_
 _symmetry_equiv_pos_site_id
 _symmetry_equiv_pos_as_xyz
  1  'x, y, z'
loop_
 _atom_site_type_symbol
 _atom_site_label
 _atom_site_symmetry_multiplicity
 _atom_site_fract_x
 _atom_site_fract_y
 _atom_site_fract_z
 _atom_site_occupancy
  Tb  Tb0  1  0.498452  0.998453  0.250280  1
  Tb  Tb1  1  0.001547  0.501548  0.749720  1
  Yb  Yb2  1  0.499932  0.500068  0.500000  1
  Yb  Yb3  1  0.501036  0.000990  0.749767  1
  Yb  Yb4  1  0.999010  0.498964  0.250233  1
  Dy  Dy5  1  0.000090  0.999910  0.000000  1
  Si  Si6  1  0.795034  0.204966  0.500000  1
  Si  Si7  1  0.294525  0.705475  0.000000  1
  Si  Si8  1  0.205333  0.794667  0.500000  1
  Si  Si9  1  0.705134  0.294866  0.000000  1
  Si  Si10  1  0.332733  0.337796  0.830940  1
  Si  Si11  1  0.662204  0.667267  0.169060  1
  Si  Si12  1  0.169847  0.164861  0.333664  1
  Si  Si13  1  0.835139  0.830153  0.666336  1
  Si  Si14  1  0.123322  0.889444  0.728262  1
  Si  Si15  1  0.110556  0.876678  0.271738  1
  Si  Si16  1  0.609572  0.376937  0.229747  1
  Si  Si17  1  0.623063  0.390428  0.770253  1
  Si  Si18  1  0.876456  0.110013  0.271911  1
  Si  Si19  1  0.889987  0.123544  0.728089  1
  Si  Si20  1  0.390014  0.623148  0.770005  1
  Si  Si21  1  0.376852  0.609986  0.229995  1
  Si  Si22  1  0.346600  0.113158  0.506208  1
  Si  Si23  1  0.886842  0.653400  0.493792  1
  Si  Si24  1  0.389038  0.155153  0.006151  1
  Si  Si25  1  0.844847  0.610962  0.993849  1
  Si  Si26  1  0.653665  0.886514  0.493368  1
  Si  Si27  1  0.113486  0.346335  0.506632  1
  Si  Si28  1  0.610684  0.845035  0.994647  1
  Si  Si29  1  0.154965  0.389316  0.005353  1
  Ru  Ru30  1  0.670727  0.329273  0.500000  1
  Ru  Ru31  1  0.169364  0.830636  0.000000  1
  Ru  Ru32  1  0.329856  0.670144  0.500000  1
  Ru  Ru33  1  0.830038  0.169962  0.000000  1
  Ru  Ru34  1  0.125708  0.126438  0.626453  1
  Ru  Ru35  1  0.873562  0.874292  0.373547  1
  Ru  Ru36  1  0.372021  0.371239  0.124188  1
  Ru  Ru37  1  0.628761  0.627979  0.875812  1
