# generated using pymatgen
data_Tb10SnBi5Se2
_symmetry_space_group_name_H-M   'P 1'
_cell_length_a   9.28713424
_cell_length_b   9.29830855
_cell_length_c   6.66603000
_cell_angle_alpha   90.00000000
_cell_angle_beta   90.00000000
_cell_angle_gamma   120.03981611
_symmetry_Int_Tables_number   1
_chemical_formula_structural   Tb10SnBi5Se2
_chemical_formula_sum   'Tb10 Sn1 Bi5 Se2'
_cell_volume   498.32099793
_cell_formula_units_Z   1
loop_
 _symmetry_equiv_pos_site_id
 _symmetry_equiv_pos_as_xyz
  1  'x, y, z'
loop_
 _atom_site_type_symbol
 _atom_site_label
 _atom_site_symmetry_multiplicity
 _atom_site_fract_x
 _atom_site_fract_y
 _atom_site_fract_z
 _atom_site_occupancy
  Tb  Tb0  1  0.669367  0.334035  0.001718  1
  Tb  Tb1  1  0.330633  0.664668  0.001718  1
  Tb  Tb2  1  0.330633  0.664668  0.498282  1
  Tb  Tb3  1  0.669367  0.334035  0.498282  1
  Tb  Tb4  1  0.746955  0.746811  0.750000  1
  Tb  Tb5  1  0.253045  0.999856  0.750000  1
  Tb  Tb6  1  0.000000  0.253846  0.750000  1
  Tb  Tb7  1  0.249837  0.254820  0.250000  1
  Tb  Tb8  1  0.750163  0.004982  0.250000  1
  Tb  Tb9  1  0.000000  0.744256  0.250000  1
  Sn  Sn10  1  0.000000  0.396116  0.250000  1
  Bi  Bi11  1  0.395320  0.394955  0.750000  1
  Bi  Bi12  1  0.604680  0.999635  0.750000  1
  Bi  Bi13  1  0.000000  0.603613  0.750000  1
  Bi  Bi14  1  0.605045  0.605375  0.250000  1
  Bi  Bi15  1  0.394955  0.000331  0.250000  1
  Se  Se16  1  0.000000  0.998999  0.999901  1
  Se  Se17  1  0.000000  0.998999  0.500099  1
