# generated using pymatgen
data_NdPaInPtRh
_symmetry_space_group_name_H-M   'P 1'
_cell_length_a   7.91456840
_cell_length_b   7.91456773
_cell_length_c   3.68502800
_cell_angle_alpha   90.00000000
_cell_angle_beta   90.00000000
_cell_angle_gamma   93.99430263
_symmetry_Int_Tables_number   1
_chemical_formula_structural   NdPaInPtRh
_chemical_formula_sum   'Nd2 Pa2 In2 Pt2 Rh2'
_cell_volume   230.27088809
_cell_formula_units_Z   2
loop_
 _symmetry_equiv_pos_site_id
 _symmetry_equiv_pos_as_xyz
  1  'x, y, z'
loop_
 _atom_site_type_symbol
 _atom_site_label
 _atom_site_symmetry_multiplicity
 _atom_site_fract_x
 _atom_site_fract_y
 _atom_site_fract_z
 _atom_site_occupancy
  Nd  Nd0  1  0.827427  0.672573  0.500000  1
  Nd  Nd1  1  0.172573  0.327427  0.500000  1
  Pa  Pa2  1  0.675447  0.175447  0.500000  1
  Pa  Pa3  1  0.324553  0.824553  0.500000  1
  In  In4  1  0.500000  0.500000  0.000000  1
  In  In5  1  0.000000  0.000000  0.000000  1
  Pt  Pt6  1  0.378609  0.121391  0.000000  1
  Pt  Pt7  1  0.621391  0.878609  0.000000  1
  Rh  Rh8  1  0.152454  0.652454  0.000000  1
  Rh  Rh9  1  0.847546  0.347546  0.000000  1
