# generated using pymatgen
data_Sm2Dy2Ho2SbRuO14
_symmetry_space_group_name_H-M   'P 1'
_cell_length_a   6.47440808
_cell_length_b   6.47440785
_cell_length_c   7.54511816
_cell_angle_alpha   90.23479774
_cell_angle_beta   89.76520180
_cell_angle_gamma   109.31867409
_symmetry_Int_Tables_number   1
_chemical_formula_structural   Sm2Dy2Ho2SbRuO14
_chemical_formula_sum   'Sm2 Dy2 Ho2 Sb1 Ru1 O14'
_cell_volume   298.46369048
_cell_formula_units_Z   1
loop_
 _symmetry_equiv_pos_site_id
 _symmetry_equiv_pos_as_xyz
  1  'x, y, z'
loop_
 _atom_site_type_symbol
 _atom_site_label
 _atom_site_symmetry_multiplicity
 _atom_site_fract_x
 _atom_site_fract_y
 _atom_site_fract_z
 _atom_site_occupancy
  Sm  Sm0  1  0.499905  0.499905  0.500000  1
  Sm  Sm1  1  0.499924  0.499924  0.000000  1
  Dy  Dy2  1  0.533666  0.000059  0.748829  1
  Dy  Dy3  1  0.000059  0.533666  0.251171  1
  Ho  Ho4  1  0.466629  0.999697  0.251063  1
  Ho  Ho5  1  0.999697  0.466629  0.748937  1
  Sb  Sb6  1  0.999969  0.999969  0.000000  1
  Ru  Ru7  1  0.999981  0.999981  0.500000  1
  O  O8  1  0.680983  0.929265  0.469482  1
  O  O9  1  0.929265  0.680983  0.530518  1
  O  O10  1  0.677202  0.929330  0.029666  1
  O  O11  1  0.929330  0.677202  0.970334  1
  O  O12  1  0.318868  0.070796  0.529499  1
  O  O13  1  0.070796  0.318868  0.470501  1
  O  O14  1  0.322701  0.070758  0.971299  1
  O  O15  1  0.070758  0.322701  0.028701  1
  O  O16  1  0.930385  0.070152  0.748475  1
  O  O17  1  0.070152  0.930385  0.251525  1
  O  O18  1  0.364266  0.633871  0.750069  1
  O  O19  1  0.633871  0.364266  0.249931  1
  O  O20  1  0.640813  0.360780  0.748866  1
  O  O21  1  0.360780  0.640813  0.251134  1
