# generated using pymatgen
data_TbHo5Co4(P6Ru7)2
_symmetry_space_group_name_H-M   'P 1'
_cell_length_a   3.87191100
_cell_length_b   10.89615300
_cell_length_c   12.68016200
_cell_angle_alpha   90.00000000
_cell_angle_beta   90.00000000
_cell_angle_gamma   90.00000000
_symmetry_Int_Tables_number   1
_chemical_formula_structural   TbHo5Co4(P6Ru7)2
_chemical_formula_sum   'Tb1 Ho5 Co4 P12 Ru14'
_cell_volume   534.96252608
_cell_formula_units_Z   1
loop_
 _symmetry_equiv_pos_site_id
 _symmetry_equiv_pos_as_xyz
  1  'x, y, z'
loop_
 _atom_site_type_symbol
 _atom_site_label
 _atom_site_symmetry_multiplicity
 _atom_site_fract_x
 _atom_site_fract_y
 _atom_site_fract_z
 _atom_site_occupancy
  Tb  Tb0  1  0.000000  0.500000  0.525784  1
  Ho  Ho1  1  0.500000  0.000000  0.473215  1
  Ho  Ho2  1  0.500000  0.821915  0.202927  1
  Ho  Ho3  1  0.500000  0.178085  0.202927  1
  Ho  Ho4  1  0.000000  0.681176  0.797593  1
  Ho  Ho5  1  0.000000  0.318824  0.797593  1
  Co  Co6  1  0.000000  0.500000  0.988202  1
  Co  Co7  1  0.500000  0.000000  0.013277  1
  Co  Co8  1  0.000000  0.162233  0.010331  1
  Co  Co9  1  0.000000  0.837767  0.010331  1
  P  P10  1  0.500000  0.306160  0.616986  1
  P  P11  1  0.500000  0.693840  0.616986  1
  P  P12  1  0.000000  0.193427  0.383718  1
  P  P13  1  0.000000  0.806573  0.383718  1
  P  P14  1  0.500000  0.500000  0.886095  1
  P  P15  1  0.000000  0.000000  0.113311  1
  P  P16  1  0.500000  0.851969  0.896096  1
  P  P17  1  0.500000  0.148031  0.896096  1
  P  P18  1  0.000000  0.656169  0.101202  1
  P  P19  1  0.000000  0.343831  0.101202  1
  P  P20  1  0.500000  0.500000  0.336232  1
  P  P21  1  0.000000  0.000000  0.662485  1
  Ru  Ru22  1  0.500000  0.299624  0.429134  1
  Ru  Ru23  1  0.500000  0.700376  0.429134  1
  Ru  Ru24  1  0.000000  0.199348  0.570980  1
  Ru  Ru25  1  0.000000  0.800652  0.570980  1
  Ru  Ru26  1  0.500000  0.877664  0.715935  1
  Ru  Ru27  1  0.500000  0.122336  0.715935  1
  Ru  Ru28  1  0.000000  0.623992  0.282077  1
  Ru  Ru29  1  0.000000  0.376008  0.282077  1
  Ru  Ru30  1  0.500000  0.326926  0.992322  1
  Ru  Ru31  1  0.500000  0.673074  0.992322  1
  Ru  Ru32  1  0.500000  0.500000  0.151869  1
  Ru  Ru33  1  0.000000  0.000000  0.851265  1
  Ru  Ru34  1  0.500000  0.500000  0.700705  1
  Ru  Ru35  1  0.000000  0.000000  0.298959  1
