# generated using pymatgen
data_HoLuNbOs3
_symmetry_space_group_name_H-M   'P 1'
_cell_length_a   5.54816700
_cell_length_b   5.54816676
_cell_length_c   8.53962300
_cell_angle_alpha   90.00000000
_cell_angle_beta   90.00000000
_cell_angle_gamma   120.00000740
_symmetry_Int_Tables_number   1
_chemical_formula_structural   HoLuNbOs3
_chemical_formula_sum   'Ho2 Lu2 Nb2 Os6'
_cell_volume   227.65035322
_cell_formula_units_Z   2
loop_
 _symmetry_equiv_pos_site_id
 _symmetry_equiv_pos_as_xyz
  1  'x, y, z'
loop_
 _atom_site_type_symbol
 _atom_site_label
 _atom_site_symmetry_multiplicity
 _atom_site_fract_x
 _atom_site_fract_y
 _atom_site_fract_z
 _atom_site_occupancy
  Ho  Ho0  1  0.666667  0.333333  0.933947  1
  Ho  Ho1  1  0.333333  0.666667  0.066053  1
  Lu  Lu2  1  0.333333  0.666667  0.435967  1
  Lu  Lu3  1  0.666667  0.333333  0.564033  1
  Nb  Nb4  1  0.000000  0.000000  0.500000  1
  Nb  Nb5  1  0.000000  0.000000  0.000000  1
  Os  Os6  1  0.825697  0.174303  0.251724  1
  Os  Os7  1  0.825697  0.651395  0.251724  1
  Os  Os8  1  0.348605  0.174303  0.251724  1
  Os  Os9  1  0.174303  0.825697  0.748276  1
  Os  Os10  1  0.174303  0.348605  0.748276  1
  Os  Os11  1  0.651395  0.825697  0.748276  1
