# generated using pymatgen
data_Lu6Sc4(InPb)3
_symmetry_space_group_name_H-M   'P 1'
_cell_length_a   6.28751502
_cell_length_b   8.75370493
_cell_length_c   8.75371601
_cell_angle_alpha   120.00025965
_cell_angle_beta   89.99972439
_cell_angle_gamma   89.99944033
_symmetry_Int_Tables_number   1
_chemical_formula_structural   Lu6Sc4(InPb)3
_chemical_formula_sum   'Lu6 Sc4 In3 Pb3'
_cell_volume   417.24667747
_cell_formula_units_Z   1
loop_
 _symmetry_equiv_pos_site_id
 _symmetry_equiv_pos_as_xyz
  1  'x, y, z'
loop_
 _atom_site_type_symbol
 _atom_site_label
 _atom_site_symmetry_multiplicity
 _atom_site_fract_x
 _atom_site_fract_y
 _atom_site_fract_z
 _atom_site_occupancy
  Lu  Lu0  1  0.749979  0.234333  0.000030  1
  Lu  Lu1  1  0.749999  0.765716  0.765708  1
  Lu  Lu2  1  0.749989  0.999976  0.234332  1
  Lu  Lu3  1  0.250044  0.764756  0.000019  1
  Lu  Lu4  1  0.250018  0.235241  0.235240  1
  Lu  Lu5  1  0.250038  0.000008  0.764736  1
  Sc  Sc6  1  0.492972  0.333326  0.666646  1
  Sc  Sc7  1  0.493001  0.666653  0.333363  1
  Sc  Sc8  1  0.006976  0.666710  0.333367  1
  Sc  Sc9  1  0.007023  0.333320  0.666649  1
  In  In10  1  0.249980  0.402241  0.999969  1
  In  In11  1  0.250024  0.597803  0.597815  1
  In  In12  1  0.249985  0.000021  0.402236  1
  Pb  Pb13  1  0.749957  0.595910  0.999904  1
  Pb  Pb14  1  0.750039  0.403967  0.404008  1
  Pb  Pb15  1  0.749978  0.000022  0.595978  1
