# generated using pymatgen
data_ErTm(Sb5O13)2
_symmetry_space_group_name_H-M   'P 1'
_cell_length_a   7.41195002
_cell_length_b   7.34160490
_cell_length_c   10.29523100
_cell_angle_alpha   88.82982624
_cell_angle_beta   90.00466903
_cell_angle_gamma   89.97320188
_symmetry_Int_Tables_number   1
_chemical_formula_structural   ErTm(Sb5O13)2
_chemical_formula_sum   'Er1 Tm1 Sb10 O26'
_cell_volume   560.10436306
_cell_formula_units_Z   1
loop_
 _symmetry_equiv_pos_site_id
 _symmetry_equiv_pos_as_xyz
  1  'x, y, z'
loop_
 _atom_site_type_symbol
 _atom_site_label
 _atom_site_symmetry_multiplicity
 _atom_site_fract_x
 _atom_site_fract_y
 _atom_site_fract_z
 _atom_site_occupancy
  Er  Er0  1  0.500000  0.500000  0.000000  1
  Tm  Tm1  1  0.000000  0.500000  0.000000  1
  Sb  Sb2  1  0.249264  0.727513  0.732801  1
  Sb  Sb3  1  0.750736  0.272487  0.267199  1
  Sb  Sb4  1  0.500000  0.000000  0.000000  1
  Sb  Sb5  1  0.749960  0.756827  0.749565  1
  Sb  Sb6  1  0.249757  0.747169  0.251052  1
  Sb  Sb7  1  0.500000  0.500000  0.500000  1
  Sb  Sb8  1  0.000000  0.500000  0.500000  1
  Sb  Sb9  1  0.750243  0.252831  0.748948  1
  Sb  Sb10  1  0.250040  0.243173  0.250435  1
  Sb  Sb11  1  0.000000  0.000000  0.000000  1
  O  O12  1  0.447917  0.690325  0.371624  1
  O  O13  1  0.751202  0.457072  0.124219  1
  O  O14  1  0.249459  0.493581  0.158654  1
  O  O15  1  0.454316  0.309093  0.365689  1
  O  O16  1  0.556998  0.217752  0.886076  1
  O  O17  1  0.943023  0.217987  0.886390  1
  O  O18  1  0.449748  0.209655  0.120204  1
  O  O19  1  0.750022  0.999750  0.072579  1
  O  O20  1  0.249978  0.000250  0.927421  1
  O  O21  1  0.750328  0.004177  0.685810  1
  O  O22  1  0.550252  0.790345  0.879796  1
  O  O23  1  0.949288  0.790531  0.879978  1
  O  O24  1  0.443002  0.782248  0.113924  1
  O  O25  1  0.051823  0.690447  0.371850  1
  O  O26  1  0.545684  0.690907  0.634311  1
  O  O27  1  0.954684  0.691266  0.634149  1
  O  O28  1  0.249977  0.518283  0.581421  1
  O  O29  1  0.750541  0.506419  0.841346  1
  O  O30  1  0.750023  0.481717  0.418579  1
  O  O31  1  0.045316  0.308734  0.365851  1
  O  O32  1  0.552083  0.309675  0.628376  1
  O  O33  1  0.948177  0.309553  0.628150  1
  O  O34  1  0.050712  0.209469  0.120022  1
  O  O35  1  0.249672  0.995823  0.314190  1
  O  O36  1  0.056977  0.782013  0.113610  1
  O  O37  1  0.248798  0.542928  0.875781  1
