# generated using pymatgen
data_Dy4Hf2Sn6IrRh5
_symmetry_space_group_name_H-M   'P 1'
_cell_length_a   7.52008332
_cell_length_b   7.45724889
_cell_length_c   7.58685081
_cell_angle_alpha   90.00537774
_cell_angle_beta   90.04314520
_cell_angle_gamma   119.64963958
_symmetry_Int_Tables_number   1
_chemical_formula_structural   Dy4Hf2Sn6IrRh5
_chemical_formula_sum   'Dy4 Hf2 Sn6 Ir1 Rh5'
_cell_volume   369.75643521
_cell_formula_units_Z   1
loop_
 _symmetry_equiv_pos_site_id
 _symmetry_equiv_pos_as_xyz
  1  'x, y, z'
loop_
 _atom_site_type_symbol
 _atom_site_label
 _atom_site_symmetry_multiplicity
 _atom_site_fract_x
 _atom_site_fract_y
 _atom_site_fract_z
 _atom_site_occupancy
  Dy  Dy0  1  0.001326  0.404651  0.750401  1
  Dy  Dy1  1  0.001875  0.404387  0.251150  1
  Dy  Dy2  1  0.588441  0.593272  0.250919  1
  Dy  Dy3  1  0.410611  0.002041  0.250890  1
  Hf  Hf4  1  0.602903  0.601994  0.748589  1
  Hf  Hf5  1  0.393709  0.992985  0.748706  1
  Sn  Sn6  1  0.263399  0.261420  0.508810  1
  Sn  Sn7  1  0.997393  0.733387  0.497104  1
  Sn  Sn8  1  0.998924  0.734420  0.003143  1
  Sn  Sn9  1  0.739510  0.003533  0.509015  1
  Sn  Sn10  1  0.737528  0.000937  0.990933  1
  Sn  Sn11  1  0.263254  0.262441  0.991324  1
  Ir  Ir12  1  0.344981  0.676310  0.526600  1
  Rh  Rh13  1  0.656179  0.331651  0.530950  1
  Rh  Rh14  1  0.344039  0.675661  0.971677  1
  Rh  Rh15  1  0.000145  0.986348  0.749737  1
  Rh  Rh16  1  0.999710  0.003000  0.250457  1
  Rh  Rh17  1  0.656078  0.331560  0.969596  1
