# generated using pymatgen
data_P(O2F7)2
_symmetry_space_group_name_H-M   'P 1'
_cell_length_a   12.06263200
_cell_length_b   6.39397104
_cell_length_c   8.39595588
_cell_angle_alpha   70.68893297
_cell_angle_beta   90.00000000
_cell_angle_gamma   90.00000000
_symmetry_Int_Tables_number   1
_chemical_formula_structural   P(O2F7)2
_chemical_formula_sum   'P2 O8 F28'
_cell_volume   611.13044049
_cell_formula_units_Z   2
loop_
 _symmetry_equiv_pos_site_id
 _symmetry_equiv_pos_as_xyz
  1  'x, y, z'
loop_
 _atom_site_type_symbol
 _atom_site_label
 _atom_site_symmetry_multiplicity
 _atom_site_fract_x
 _atom_site_fract_y
 _atom_site_fract_z
 _atom_site_occupancy
  P  P0  1  0.500000  0.500000  0.500000  1
  P  P1  1  0.000000  0.500000  0.000000  1
  O  O2  1  0.363532  0.757952  0.905625  1
  O  O3  1  0.636468  0.242048  0.094375  1
  O  O4  1  0.863532  0.242048  0.594375  1
  O  O5  1  0.136468  0.757952  0.405625  1
  O  O6  1  0.737409  0.757564  0.873083  1
  O  O7  1  0.262591  0.242436  0.126917  1
  O  O8  1  0.237409  0.242436  0.626917  1
  O  O9  1  0.762591  0.757564  0.373083  1
  F  F10  1  0.433120  0.879669  0.772487  1
  F  F11  1  0.566880  0.120331  0.227513  1
  F  F12  1  0.933120  0.120331  0.727513  1
  F  F13  1  0.066880  0.879669  0.272487  1
  F  F14  1  0.443245  0.739976  0.479441  1
  F  F15  1  0.556755  0.260024  0.520559  1
  F  F16  1  0.943245  0.260024  0.020559  1
  F  F17  1  0.056755  0.739976  0.979441  1
  F  F18  1  0.439012  0.391492  0.683981  1
  F  F19  1  0.560988  0.608508  0.316019  1
  F  F20  1  0.939012  0.608508  0.816019  1
  F  F21  1  0.060988  0.391492  0.183981  1
  F  F22  1  0.096389  0.800729  0.550406  1
  F  F23  1  0.903611  0.199271  0.449594  1
  F  F24  1  0.596389  0.199271  0.949594  1
  F  F25  1  0.403611  0.800729  0.050406  1
  F  F26  1  0.341028  0.288217  0.994199  1
  F  F27  1  0.658972  0.711783  0.005801  1
  F  F28  1  0.841028  0.711783  0.505801  1
  F  F29  1  0.158972  0.288217  0.494199  1
  F  F30  1  0.107482  0.434741  0.906085  1
  F  F31  1  0.892518  0.565259  0.093915  1
  F  F32  1  0.607482  0.565259  0.593915  1
  F  F33  1  0.392518  0.434741  0.406085  1
  F  F34  1  0.184516  0.087933  0.767394  1
  F  F35  1  0.815484  0.912067  0.232606  1
  F  F36  1  0.684516  0.912067  0.732606  1
  F  F37  1  0.315484  0.087933  0.267394  1
