# generated using pymatgen
data_Er3Tm2(TlSb)2
_symmetry_space_group_name_H-M   'P 1'
_cell_length_a   8.76382901
_cell_length_b   8.76372295
_cell_length_c   8.04121400
_cell_angle_alpha   90.00270013
_cell_angle_beta   89.99757449
_cell_angle_gamma   125.40660373
_symmetry_Int_Tables_number   1
_chemical_formula_structural   Er3Tm2(TlSb)2
_chemical_formula_sum   'Er6 Tm4 Tl4 Sb4'
_cell_volume   503.37805741
_cell_formula_units_Z   2
loop_
 _symmetry_equiv_pos_site_id
 _symmetry_equiv_pos_as_xyz
  1  'x, y, z'
loop_
 _atom_site_type_symbol
 _atom_site_label
 _atom_site_symmetry_multiplicity
 _atom_site_fract_x
 _atom_site_fract_y
 _atom_site_fract_z
 _atom_site_occupancy
  Er  Er0  1  0.531063  0.805770  0.166069  1
  Er  Er1  1  0.305757  0.031060  0.333932  1
  Er  Er2  1  0.194447  0.468879  0.833932  1
  Er  Er3  1  0.968874  0.694443  0.666064  1
  Er  Er4  1  0.694417  0.968952  0.665880  1
  Er  Er5  1  0.468953  0.194409  0.834125  1
  Tm  Tm6  1  0.805015  0.531149  0.165594  1
  Tm  Tm7  1  0.031155  0.305018  0.334404  1
  Tm  Tm8  1  0.500119  0.499964  0.499822  1
  Tm  Tm9  1  0.999964  0.000115  0.000174  1
  Tl  Tl10  1  0.633894  0.633699  0.867314  1
  Tl  Tl11  1  0.133705  0.133899  0.632686  1
  Tl  Tl12  1  0.866392  0.866370  0.366859  1
  Tl  Tl13  1  0.366354  0.366383  0.133147  1
  Sb  Sb14  1  0.296217  0.702673  0.499686  1
  Sb  Sb15  1  0.202667  0.796214  0.000321  1
  Sb  Sb16  1  0.704025  0.296971  0.499180  1
  Sb  Sb17  1  0.796983  0.204030  0.000815  1
