# generated using pymatgen
data_Ta3TiReTcB4
_symmetry_space_group_name_H-M   'P 1'
_cell_length_a   6.00594877
_cell_length_b   6.00586877
_cell_length_c   3.28418400
_cell_angle_alpha   90.00000000
_cell_angle_beta   90.00000000
_cell_angle_gamma   89.67759860
_symmetry_Int_Tables_number   1
_chemical_formula_structural   Ta3TiReTcB4
_chemical_formula_sum   'Ta3 Ti1 Re1 Tc1 B4'
_cell_volume   118.46172909
_cell_formula_units_Z   1
loop_
 _symmetry_equiv_pos_site_id
 _symmetry_equiv_pos_as_xyz
  1  'x, y, z'
loop_
 _atom_site_type_symbol
 _atom_site_label
 _atom_site_symmetry_multiplicity
 _atom_site_fract_x
 _atom_site_fract_y
 _atom_site_fract_z
 _atom_site_occupancy
  Ta  Ta0  1  0.821543  0.676179  0.500000  1
  Ta  Ta1  1  0.324639  0.823298  0.500000  1
  Ta  Ta2  1  0.177645  0.323021  0.500000  1
  Ti  Ti3  1  0.676394  0.177376  0.500000  1
  Re  Re4  1  0.996748  0.001644  0.000000  1
  Tc  Tc5  1  0.501675  0.496886  0.000000  1
  B  B6  1  0.110478  0.611564  0.000000  1
  B  B7  1  0.611817  0.893150  0.000000  1
  B  B8  1  0.391641  0.110707  0.000000  1
  B  B9  1  0.887420  0.386175  0.000000  1
