# generated using pymatgen
data_Er2Tc3Ge4
_symmetry_space_group_name_H-M   'P 1'
_cell_length_a   8.31368300
_cell_length_b   5.65514911
_cell_length_c   6.99228837
_cell_angle_alpha   76.04152327
_cell_angle_beta   90.00000000
_cell_angle_gamma   90.00000000
_symmetry_Int_Tables_number   1
_chemical_formula_structural   Er2Tc3Ge4
_chemical_formula_sum   'Er4 Tc6 Ge8'
_cell_volume   319.03572927
_cell_formula_units_Z   2
loop_
 _symmetry_equiv_pos_site_id
 _symmetry_equiv_pos_as_xyz
  1  'x, y, z'
loop_
 _atom_site_type_symbol
 _atom_site_label
 _atom_site_symmetry_multiplicity
 _atom_site_fract_x
 _atom_site_fract_y
 _atom_site_fract_z
 _atom_site_occupancy
  Er  Er0  1  0.551444  0.077814  0.244876  1
  Er  Er1  1  0.051444  0.422186  0.755124  1
  Er  Er2  1  0.448556  0.922186  0.755124  1
  Er  Er3  1  0.948556  0.577814  0.244876  1
  Tc  Tc4  1  0.204803  0.115633  0.112102  1
  Tc  Tc5  1  0.704803  0.384367  0.887898  1
  Tc  Tc6  1  0.795197  0.884367  0.887898  1
  Tc  Tc7  1  0.295197  0.615633  0.112102  1
  Tc  Tc8  1  0.000000  0.000000  0.500000  1
  Tc  Tc9  1  0.500000  0.500000  0.500000  1
  Ge  Ge10  1  0.900248  0.119462  0.130376  1
  Ge  Ge11  1  0.400248  0.380538  0.869624  1
  Ge  Ge12  1  0.099752  0.880538  0.869624  1
  Ge  Ge13  1  0.599752  0.619462  0.130376  1
  Ge  Ge14  1  0.749100  0.224175  0.577613  1
  Ge  Ge15  1  0.249100  0.275825  0.422387  1
  Ge  Ge16  1  0.250900  0.775825  0.422387  1
  Ge  Ge17  1  0.750900  0.724175  0.577613  1
