# generated using pymatgen
data_Li5Mg(SnRh2)6
_symmetry_space_group_name_H-M   'P 1'
_cell_length_a   4.39883700
_cell_length_b   6.24472700
_cell_length_c   13.25026900
_cell_angle_alpha   90.00000000
_cell_angle_beta   89.99930239
_cell_angle_gamma   90.00000000
_symmetry_Int_Tables_number   1
_chemical_formula_structural   Li5Mg(SnRh2)6
_chemical_formula_sum   'Li5 Mg1 Sn6 Rh12'
_cell_volume   363.97874371
_cell_formula_units_Z   1
loop_
 _symmetry_equiv_pos_site_id
 _symmetry_equiv_pos_as_xyz
  1  'x, y, z'
loop_
 _atom_site_type_symbol
 _atom_site_label
 _atom_site_symmetry_multiplicity
 _atom_site_fract_x
 _atom_site_fract_y
 _atom_site_fract_z
 _atom_site_occupancy
  Li  Li0  1  0.000000  0.000000  0.000563  1
  Li  Li1  1  0.499787  0.500000  0.167159  1
  Li  Li2  1  0.999723  0.000000  0.333277  1
  Li  Li3  1  0.500000  0.500000  0.499575  1
  Li  Li4  1  0.000273  0.000000  0.666094  1
  Mg  Mg5  1  0.500185  0.500000  0.833323  1
  Sn  Sn6  1  0.000017  0.500000  0.003591  1
  Sn  Sn7  1  0.499876  0.000000  0.168071  1
  Sn  Sn8  1  0.999878  0.500000  0.333348  1
  Sn  Sn9  1  0.499999  0.000000  0.498450  1
  Sn  Sn10  1  0.000144  0.500000  0.663151  1
  Sn  Sn11  1  0.500179  0.000000  0.833351  1
  Rh  Rh12  1  0.500009  0.248516  0.000599  1
  Rh  Rh13  1  0.500009  0.751484  0.000599  1
  Rh  Rh14  1  0.999808  0.248823  0.167230  1
  Rh  Rh15  1  0.999808  0.751178  0.167230  1
  Rh  Rh16  1  0.499814  0.251135  0.333315  1
  Rh  Rh17  1  0.499814  0.748864  0.333315  1
  Rh  Rh18  1  0.000000  0.248852  0.499464  1
  Rh  Rh19  1  0.000000  0.751149  0.499464  1
  Rh  Rh20  1  0.500180  0.248424  0.666052  1
  Rh  Rh21  1  0.500180  0.751575  0.666052  1
  Rh  Rh22  1  0.000162  0.249229  0.833364  1
  Rh  Rh23  1  0.000162  0.750772  0.833364  1
