# generated using pymatgen
data_TbSmBr2N
_symmetry_space_group_name_H-M   'P 1'
_cell_length_a   3.72242900
_cell_length_b   3.72242868
_cell_length_c   10.69084200
_cell_angle_alpha   90.00000000
_cell_angle_beta   90.00000000
_cell_angle_gamma   119.99999393
_symmetry_Int_Tables_number   1
_chemical_formula_structural   TbSmBr2N
_chemical_formula_sum   'Tb1 Sm1 Br2 N1'
_cell_volume   128.29076011
_cell_formula_units_Z   1
loop_
 _symmetry_equiv_pos_site_id
 _symmetry_equiv_pos_as_xyz
  1  'x, y, z'
loop_
 _atom_site_type_symbol
 _atom_site_label
 _atom_site_symmetry_multiplicity
 _atom_site_fract_x
 _atom_site_fract_y
 _atom_site_fract_z
 _atom_site_occupancy
  Tb  Tb0  1  0.666665  0.333332  0.623201  1
  Sm  Sm1  1  0.333333  0.666667  0.376126  1
  Br  Br2  1  0.666665  0.333332  0.188749  1
  Br  Br3  1  0.333333  0.666667  0.805458  1
  N  N4  1  0.000000  0.000000  0.506465  1
