# generated using pymatgen
data_FeB2MoW
_symmetry_space_group_name_H-M   'P 1'
_cell_length_a   4.53575525
_cell_length_b   4.53575539
_cell_length_c   4.53575490
_cell_angle_alpha   139.13363084
_cell_angle_beta   119.23894581
_cell_angle_gamma   75.83645766
_symmetry_Int_Tables_number   1
_chemical_formula_structural   FeB2MoW
_chemical_formula_sum   'Fe1 B2 Mo1 W1'
_cell_volume   51.99009646
_cell_formula_units_Z   1
loop_
 _symmetry_equiv_pos_site_id
 _symmetry_equiv_pos_as_xyz
  1  'x, y, z'
loop_
 _atom_site_type_symbol
 _atom_site_label
 _atom_site_symmetry_multiplicity
 _atom_site_fract_x
 _atom_site_fract_y
 _atom_site_fract_z
 _atom_site_occupancy
  Fe  Fe0  1  0.000180  0.000180  0.000000  1
  B  B1  1  0.704622  0.499979  0.204643  1
  B  B2  1  0.295336  0.499979  0.795357  1
  Mo  Mo3  1  0.702530  0.202530  0.500000  1
  W  W4  1  0.297332  0.797332  0.500000  1
