# generated using pymatgen
data_Ca2AuClO2
_symmetry_space_group_name_H-M   'P 1'
_cell_length_a   9.63790232
_cell_length_b   9.63790232
_cell_length_c   9.63790183
_cell_angle_alpha   22.70257927
_cell_angle_beta   22.70257988
_cell_angle_gamma   22.70258075
_symmetry_Int_Tables_number   1
_chemical_formula_structural   Ca2AuClO2
_chemical_formula_sum   'Ca2 Au1 Cl1 O2'
_cell_volume   116.99773652
_cell_formula_units_Z   1
loop_
 _symmetry_equiv_pos_site_id
 _symmetry_equiv_pos_as_xyz
  1  'x, y, z'
loop_
 _atom_site_type_symbol
 _atom_site_label
 _atom_site_symmetry_multiplicity
 _atom_site_fract_x
 _atom_site_fract_y
 _atom_site_fract_z
 _atom_site_occupancy
  Ca  Ca0  1  0.259345  0.259345  0.259345  1
  Ca  Ca1  1  0.740655  0.740655  0.740655  1
  Au  Au2  1  0.500000  0.500000  0.500000  1
  Cl  Cl3  1  0.000000  0.000000  0.000000  1
  O  O4  1  0.427564  0.427564  0.427564  1
  O  O5  1  0.572436  0.572436  0.572436  1
