# generated using pymatgen
data_YbPr4SnGe2
_symmetry_space_group_name_H-M   'P 1'
_cell_length_a   8.00502200
_cell_length_b   9.22369766
_cell_length_c   8.00502200
_cell_angle_alpha   115.71773010
_cell_angle_beta   90.00000000
_cell_angle_gamma   115.71773010
_symmetry_Int_Tables_number   1
_chemical_formula_structural   YbPr4SnGe2
_chemical_formula_sum   'Yb2 Pr8 Sn2 Ge4'
_cell_volume   466.67233187
_cell_formula_units_Z   2
loop_
 _symmetry_equiv_pos_site_id
 _symmetry_equiv_pos_as_xyz
  1  'x, y, z'
loop_
 _atom_site_type_symbol
 _atom_site_label
 _atom_site_symmetry_multiplicity
 _atom_site_fract_x
 _atom_site_fract_y
 _atom_site_fract_z
 _atom_site_occupancy
  Yb  Yb0  1  0.000000  0.000000  0.000000  1
  Yb  Yb1  1  0.500000  0.000000  0.500000  1
  Pr  Pr2  1  0.531375  0.717916  0.686542  1
  Pr  Pr3  1  0.186542  0.717916  0.031375  1
  Pr  Pr4  1  0.686542  0.717916  0.186542  1
  Pr  Pr5  1  0.031375  0.717916  0.531375  1
  Pr  Pr6  1  0.468625  0.282084  0.313458  1
  Pr  Pr7  1  0.813458  0.282084  0.968625  1
  Pr  Pr8  1  0.313458  0.282084  0.813458  1
  Pr  Pr9  1  0.968625  0.282084  0.468625  1
  Sn  Sn10  1  0.750000  0.500000  0.750000  1
  Sn  Sn11  1  0.250000  0.500000  0.250000  1
  Ge  Ge12  1  0.874404  0.000000  0.625596  1
  Ge  Ge13  1  0.125596  0.000000  0.374404  1
  Ge  Ge14  1  0.625596  0.000000  0.125596  1
  Ge  Ge15  1  0.374404  0.000000  0.874404  1
