# generated using pymatgen
data_Ho4MnAl18IrPd4
_symmetry_space_group_name_H-M   'P 1'
_cell_length_a   7.57718586
_cell_length_b   7.57718573
_cell_length_c   9.44634925
_cell_angle_alpha   89.98661318
_cell_angle_beta   89.98661529
_cell_angle_gamma   119.47150129
_symmetry_Int_Tables_number   1
_chemical_formula_structural   Ho4MnAl18IrPd4
_chemical_formula_sum   'Ho4 Mn1 Al18 Ir1 Pd4'
_cell_volume   472.17038629
_cell_formula_units_Z   1
loop_
 _symmetry_equiv_pos_site_id
 _symmetry_equiv_pos_as_xyz
  1  'x, y, z'
loop_
 _atom_site_type_symbol
 _atom_site_label
 _atom_site_symmetry_multiplicity
 _atom_site_fract_x
 _atom_site_fract_y
 _atom_site_fract_z
 _atom_site_occupancy
  Ho  Ho0  1  0.994546  0.670721  0.248901  1
  Ho  Ho1  1  0.005454  0.329279  0.751099  1
  Ho  Ho2  1  0.670721  0.994546  0.248901  1
  Ho  Ho3  1  0.329279  0.005454  0.751099  1
  Mn  Mn4  1  0.000000  0.000000  0.000000  1
  Al  Al5  1  0.122952  0.122952  0.244777  1
  Al  Al6  1  0.877048  0.877048  0.755223  1
  Al  Al7  1  0.999755  0.325302  0.074130  1
  Al  Al8  1  0.000245  0.674698  0.925870  1
  Al  Al9  1  0.999624  0.667962  0.577125  1
  Al  Al10  1  0.332038  0.000376  0.422875  1
  Al  Al11  1  0.000376  0.332038  0.422875  1
  Al  Al12  1  0.667962  0.999624  0.577125  1
  Al  Al13  1  0.674698  0.000245  0.925870  1
  Al  Al14  1  0.325302  0.999755  0.074130  1
  Al  Al15  1  0.330681  0.330681  0.555593  1
  Al  Al16  1  0.669319  0.669319  0.444407  1
  Al  Al17  1  0.676136  0.676136  0.053026  1
  Al  Al18  1  0.323864  0.323864  0.946974  1
  Al  Al19  1  0.341260  0.547315  0.249309  1
  Al  Al20  1  0.658740  0.452685  0.750691  1
  Al  Al21  1  0.547315  0.341260  0.249309  1
  Al  Al22  1  0.452685  0.658740  0.750691  1
  Ir  Ir23  1  0.000000  0.000000  0.500000  1
  Pd  Pd24  1  0.672212  0.327788  0.000000  1
  Pd  Pd25  1  0.327788  0.672212  0.000000  1
  Pd  Pd26  1  0.327819  0.672181  0.500000  1
  Pd  Pd27  1  0.672181  0.327819  0.500000  1
