# generated using pymatgen
data_TbDy2Y(Co5As3)4
_symmetry_space_group_name_H-M   'P 1'
_cell_length_a   3.79072400
_cell_length_b   12.18585718
_cell_length_c   10.68936817
_cell_angle_alpha   89.98012042
_cell_angle_beta   90.00000000
_cell_angle_gamma   90.00000000
_symmetry_Int_Tables_number   1
_chemical_formula_structural   TbDy2Y(Co5As3)4
_chemical_formula_sum   'Tb1 Dy2 Y1 Co20 As12'
_cell_volume   493.77631914
_cell_formula_units_Z   1
loop_
 _symmetry_equiv_pos_site_id
 _symmetry_equiv_pos_as_xyz
  1  'x, y, z'
loop_
 _atom_site_type_symbol
 _atom_site_label
 _atom_site_symmetry_multiplicity
 _atom_site_fract_x
 _atom_site_fract_y
 _atom_site_fract_z
 _atom_site_occupancy
  Tb  Tb0  1  0.750000  0.701603  0.081819  1
  Dy  Dy1  1  0.250000  0.298508  0.918289  1
  Dy  Dy2  1  0.750000  0.201529  0.418311  1
  Y  Y3  1  0.250000  0.798396  0.581785  1
  Co  Co4  1  0.750000  0.696674  0.383909  1
  Co  Co5  1  0.250000  0.303189  0.616101  1
  Co  Co6  1  0.250000  0.803364  0.883721  1
  Co  Co7  1  0.750000  0.196795  0.116183  1
  Co  Co8  1  0.750000  0.990903  0.211766  1
  Co  Co9  1  0.250000  0.009113  0.788124  1
  Co  Co10  1  0.250000  0.508889  0.711808  1
  Co  Co11  1  0.750000  0.490904  0.288179  1
  Co  Co12  1  0.750000  0.677246  0.783758  1
  Co  Co13  1  0.250000  0.322643  0.216199  1
  Co  Co14  1  0.250000  0.822766  0.283917  1
  Co  Co15  1  0.750000  0.177334  0.716151  1
  Co  Co16  1  0.750000  0.932372  0.969271  1
  Co  Co17  1  0.250000  0.068051  0.030678  1
  Co  Co18  1  0.250000  0.567694  0.469453  1
  Co  Co19  1  0.750000  0.432019  0.530705  1
  Co  Co20  1  0.750000  0.988318  0.593041  1
  Co  Co21  1  0.250000  0.012033  0.406874  1
  Co  Co22  1  0.250000  0.511650  0.093011  1
  Co  Co23  1  0.750000  0.487932  0.906860  1
  As  As24  1  0.750000  0.613935  0.584605  1
  As  As25  1  0.250000  0.385836  0.415458  1
  As  As26  1  0.250000  0.886169  0.084608  1
  As  As27  1  0.750000  0.114257  0.915419  1
  As  As28  1  0.750000  0.890746  0.399170  1
  As  As29  1  0.250000  0.109353  0.600662  1
  As  As30  1  0.250000  0.609210  0.899029  1
  As  As31  1  0.750000  0.390631  0.100662  1
  As  As32  1  0.750000  0.870438  0.769313  1
  As  As33  1  0.250000  0.129687  0.230790  1
  As  As34  1  0.250000  0.629536  0.269619  1
  As  As35  1  0.750000  0.370274  0.730753  1
