# generated using pymatgen
data_TbCe3Lu4(ReB6)4
_symmetry_space_group_name_H-M   'P 1'
_cell_length_a   3.68520800
_cell_length_b   9.13392932
_cell_length_c   11.53378001
_cell_angle_alpha   90.06353044
_cell_angle_beta   90.00000000
_cell_angle_gamma   90.00000000
_symmetry_Int_Tables_number   1
_chemical_formula_structural   TbCe3Lu4(ReB6)4
_chemical_formula_sum   'Tb1 Ce3 Lu4 Re4 B24'
_cell_volume   388.23174888
_cell_formula_units_Z   1
loop_
 _symmetry_equiv_pos_site_id
 _symmetry_equiv_pos_as_xyz
  1  'x, y, z'
loop_
 _atom_site_type_symbol
 _atom_site_label
 _atom_site_symmetry_multiplicity
 _atom_site_fract_x
 _atom_site_fract_y
 _atom_site_fract_z
 _atom_site_occupancy
  Tb  Tb0  1  0.000000  0.177865  0.913926  1
  Ce  Ce1  1  0.000000  0.321120  0.414384  1
  Ce  Ce2  1  0.000000  0.678275  0.586622  1
  Ce  Ce3  1  0.000000  0.823343  0.085279  1
  Lu  Lu4  1  0.000000  0.944870  0.372452  1
  Lu  Lu5  1  0.000000  0.055880  0.628353  1
  Lu  Lu6  1  0.000000  0.443426  0.127655  1
  Lu  Lu7  1  0.000000  0.555643  0.871903  1
  Re  Re8  1  0.000000  0.639371  0.319873  1
  Re  Re9  1  0.000000  0.361876  0.679255  1
  Re  Re10  1  0.000000  0.139409  0.180502  1
  Re  Re11  1  0.000000  0.859537  0.819909  1
  B  B12  1  0.500000  0.554862  0.431282  1
  B  B13  1  0.500000  0.445055  0.568885  1
  B  B14  1  0.500000  0.054648  0.067783  1
  B  B15  1  0.500000  0.945481  0.931972  1
  B  B16  1  0.500000  0.750752  0.418011  1
  B  B17  1  0.500000  0.248935  0.582508  1
  B  B18  1  0.500000  0.250536  0.081199  1
  B  B19  1  0.500000  0.749861  0.918099  1
  B  B20  1  0.500000  0.792514  0.265509  1
  B  B21  1  0.500000  0.206991  0.734749  1
  B  B22  1  0.500000  0.292343  0.233518  1
  B  B23  1  0.500000  0.707730  0.766023  1
  B  B24  1  0.500000  0.630465  0.184825  1
  B  B25  1  0.500000  0.369238  0.815504  1
  B  B26  1  0.500000  0.130671  0.314536  1
  B  B27  1  0.500000  0.869910  0.685545  1
  B  B28  1  0.500000  0.983303  0.212818  1
  B  B29  1  0.500000  0.017659  0.786812  1
  B  B30  1  0.500000  0.482987  0.286282  1
  B  B31  1  0.500000  0.516762  0.714016  1
  B  B32  1  0.500000  0.599925  0.027554  1
  B  B33  1  0.500000  0.398749  0.971866  1
  B  B34  1  0.500000  0.102139  0.472195  1
  B  B35  1  0.500000  0.897869  0.528398  1
