# generated using pymatgen
data_Zr4TaTi2Re5
_symmetry_space_group_name_H-M   'P 1'
_cell_length_a   5.35648395
_cell_length_b   5.35648322
_cell_length_c   8.82602900
_cell_angle_alpha   90.00000000
_cell_angle_beta   90.00000000
_cell_angle_gamma   120.51699843
_symmetry_Int_Tables_number   1
_chemical_formula_structural   Zr4TaTi2Re5
_chemical_formula_sum   'Zr4 Ta1 Ti2 Re5'
_cell_volume   218.15711108
_cell_formula_units_Z   1
loop_
 _symmetry_equiv_pos_site_id
 _symmetry_equiv_pos_as_xyz
  1  'x, y, z'
loop_
 _atom_site_type_symbol
 _atom_site_label
 _atom_site_symmetry_multiplicity
 _atom_site_fract_x
 _atom_site_fract_y
 _atom_site_fract_z
 _atom_site_occupancy
  Zr  Zr0  1  0.333424  0.666576  0.441598  1
  Zr  Zr1  1  0.665489  0.334511  0.567530  1
  Zr  Zr2  1  0.665489  0.334511  0.932470  1
  Zr  Zr3  1  0.333424  0.666576  0.058402  1
  Ta  Ta4  1  0.829556  0.170444  0.250000  1
  Ti  Ti5  1  0.002968  0.997032  0.503830  1
  Ti  Ti6  1  0.002968  0.997032  0.996170  1
  Re  Re7  1  0.829266  0.662733  0.250000  1
  Re  Re8  1  0.337267  0.170734  0.250000  1
  Re  Re9  1  0.170440  0.829560  0.750000  1
  Re  Re10  1  0.167807  0.338097  0.750000  1
  Re  Re11  1  0.661903  0.832193  0.750000  1
