# generated using pymatgen
data_TmLu7B24MoOs3
_symmetry_space_group_name_H-M   'P 1'
_cell_length_a   3.59850700
_cell_length_b   9.06583265
_cell_length_c   11.43851501
_cell_angle_alpha   89.91447289
_cell_angle_beta   90.00000000
_cell_angle_gamma   90.00000000
_symmetry_Int_Tables_number   1
_chemical_formula_structural   TmLu7B24MoOs3
_chemical_formula_sum   'Tm1 Lu7 B24 Mo1 Os3'
_cell_volume   373.16354706
_cell_formula_units_Z   1
loop_
 _symmetry_equiv_pos_site_id
 _symmetry_equiv_pos_as_xyz
  1  'x, y, z'
loop_
 _atom_site_type_symbol
 _atom_site_label
 _atom_site_symmetry_multiplicity
 _atom_site_fract_x
 _atom_site_fract_y
 _atom_site_fract_z
 _atom_site_occupancy
  Tm  Tm0  1  0.000000  0.321612  0.413125  1
  Lu  Lu1  1  0.000000  0.678056  0.584573  1
  Lu  Lu2  1  0.000000  0.819594  0.087639  1
  Lu  Lu3  1  0.000000  0.178471  0.914639  1
  Lu  Lu4  1  0.000000  0.945087  0.372994  1
  Lu  Lu5  1  0.000000  0.057199  0.628102  1
  Lu  Lu6  1  0.000000  0.443644  0.126619  1
  Lu  Lu7  1  0.000000  0.556515  0.871736  1
  B  B8  1  0.500000  0.551104  0.436136  1
  B  B9  1  0.500000  0.446386  0.567627  1
  B  B10  1  0.500000  0.053307  0.066190  1
  B  B11  1  0.500000  0.946488  0.933876  1
  B  B12  1  0.500000  0.751702  0.422373  1
  B  B13  1  0.500000  0.251080  0.580625  1
  B  B14  1  0.500000  0.249316  0.079572  1
  B  B15  1  0.500000  0.750501  0.919728  1
  B  B16  1  0.500000  0.795245  0.264187  1
  B  B17  1  0.500000  0.207706  0.734880  1
  B  B18  1  0.500000  0.291485  0.233138  1
  B  B19  1  0.500000  0.708295  0.765316  1
  B  B20  1  0.500000  0.631478  0.182420  1
  B  B21  1  0.500000  0.368420  0.815675  1
  B  B22  1  0.500000  0.130916  0.314446  1
  B  B23  1  0.500000  0.869514  0.684887  1
  B  B24  1  0.500000  0.982215  0.212638  1
  B  B25  1  0.500000  0.018372  0.787899  1
  B  B26  1  0.500000  0.477628  0.286426  1
  B  B27  1  0.500000  0.517807  0.713138  1
  B  B28  1  0.500000  0.604360  0.027477  1
  B  B29  1  0.500000  0.395075  0.970334  1
  B  B30  1  0.500000  0.105219  0.471401  1
  B  B31  1  0.500000  0.897324  0.529971  1
  Mo  Mo32  1  0.000000  0.637901  0.321174  1
  Os  Os33  1  0.000000  0.361003  0.680652  1
  Os  Os34  1  0.000000  0.137513  0.177337  1
  Os  Os35  1  0.000000  0.862458  0.821050  1
