# generated using pymatgen
data_Ho4TmTl15
_symmetry_space_group_name_H-M   'P 1'
_cell_length_a   4.78144200
_cell_length_b   4.78144200
_cell_length_c   23.76133300
_cell_angle_alpha   90.00000000
_cell_angle_beta   90.00000000
_cell_angle_gamma   90.00000000
_symmetry_Int_Tables_number   1
_chemical_formula_structural   Ho4TmTl15
_chemical_formula_sum   'Ho4 Tm1 Tl15'
_cell_volume   543.23605266
_cell_formula_units_Z   1
loop_
 _symmetry_equiv_pos_site_id
 _symmetry_equiv_pos_as_xyz
  1  'x, y, z'
loop_
 _atom_site_type_symbol
 _atom_site_label
 _atom_site_symmetry_multiplicity
 _atom_site_fract_x
 _atom_site_fract_y
 _atom_site_fract_z
 _atom_site_occupancy
  Ho  Ho0  1  0.000000  0.000000  0.198624  1
  Ho  Ho1  1  0.000000  0.000000  0.399383  1
  Ho  Ho2  1  0.000000  0.000000  0.600617  1
  Ho  Ho3  1  0.000000  0.000000  0.801376  1
  Tm  Tm4  1  0.000000  0.000000  0.000000  1
  Tl  Tl5  1  0.500000  0.500000  0.000000  1
  Tl  Tl6  1  0.500000  0.500000  0.198537  1
  Tl  Tl7  1  0.500000  0.500000  0.399299  1
  Tl  Tl8  1  0.500000  0.500000  0.600701  1
  Tl  Tl9  1  0.500000  0.500000  0.801463  1
  Tl  Tl10  1  0.500000  0.000000  0.098594  1
  Tl  Tl11  1  0.500000  0.000000  0.298785  1
  Tl  Tl12  1  0.500000  0.000000  0.500000  1
  Tl  Tl13  1  0.500000  0.000000  0.701215  1
  Tl  Tl14  1  0.500000  0.000000  0.901406  1
  Tl  Tl15  1  0.000000  0.500000  0.098594  1
  Tl  Tl16  1  0.000000  0.500000  0.298785  1
  Tl  Tl17  1  0.000000  0.500000  0.500000  1
  Tl  Tl18  1  0.000000  0.500000  0.701215  1
  Tl  Tl19  1  0.000000  0.500000  0.901406  1
