# generated using pymatgen
data_Ho2NbIr3
_symmetry_space_group_name_H-M   'P 1'
_cell_length_a   5.26007735
_cell_length_b   5.26007737
_cell_length_c   5.26007774
_cell_angle_alpha   64.77373370
_cell_angle_beta   64.77373333
_cell_angle_gamma   64.77373491
_symmetry_Int_Tables_number   1
_chemical_formula_structural   Ho2NbIr3
_chemical_formula_sum   'Ho2 Nb1 Ir3'
_cell_volume   113.65995155
_cell_formula_units_Z   1
loop_
 _symmetry_equiv_pos_site_id
 _symmetry_equiv_pos_as_xyz
  1  'x, y, z'
loop_
 _atom_site_type_symbol
 _atom_site_label
 _atom_site_symmetry_multiplicity
 _atom_site_fract_x
 _atom_site_fract_y
 _atom_site_fract_z
 _atom_site_occupancy
  Ho  Ho0  1  0.251442  0.251442  0.251442  1
  Ho  Ho1  1  0.998557  0.998557  0.998557  1
  Nb  Nb2  1  0.624999  0.624999  0.624999  1
  Ir  Ir3  1  0.624999  0.125001  0.624999  1
  Ir  Ir4  1  0.125001  0.624999  0.624999  1
  Ir  Ir5  1  0.624999  0.624999  0.125001  1
