# generated using pymatgen
data_Tb3Y(InRh2)4
_symmetry_space_group_name_H-M   'P 1'
_cell_length_a   6.37868800
_cell_length_b   6.37864300
_cell_length_c   7.25060700
_cell_angle_alpha   90.00003807
_cell_angle_beta   90.00023531
_cell_angle_gamma   89.99836520
_symmetry_Int_Tables_number   1
_chemical_formula_structural   Tb3Y(InRh2)4
_chemical_formula_sum   'Tb3 Y1 In4 Rh8'
_cell_volume   295.00815563
_cell_formula_units_Z   1
loop_
 _symmetry_equiv_pos_site_id
 _symmetry_equiv_pos_as_xyz
  1  'x, y, z'
loop_
 _atom_site_type_symbol
 _atom_site_label
 _atom_site_symmetry_multiplicity
 _atom_site_fract_x
 _atom_site_fract_y
 _atom_site_fract_z
 _atom_site_occupancy
  Tb  Tb0  1  0.749980  0.250026  0.000007  1
  Tb  Tb1  1  0.250013  0.749968  0.999999  1
  Tb  Tb2  1  0.750080  0.250023  0.499989  1
  Y  Y3  1  0.249931  0.749981  0.500014  1
  In  In4  1  0.250011  0.249993  0.999966  1
  In  In5  1  0.749982  0.750002  0.000024  1
  In  In6  1  0.249996  0.249994  0.499989  1
  In  In7  1  0.750002  0.750005  0.500000  1
  Rh  Rh8  1  0.999769  0.000219  0.249781  1
  Rh  Rh9  1  0.999779  0.499789  0.249782  1
  Rh  Rh10  1  0.500211  0.000230  0.249808  1
  Rh  Rh11  1  0.500206  0.499773  0.249812  1
  Rh  Rh12  1  0.500240  0.000226  0.750195  1
  Rh  Rh13  1  0.500242  0.499767  0.750193  1
  Rh  Rh14  1  0.999774  0.000225  0.750222  1
  Rh  Rh15  1  0.999785  0.499778  0.750222  1
