# generated using pymatgen
data_Ho7Er5Os3Pt
_symmetry_space_group_name_H-M   'P 1'
_cell_length_a   6.37912658
_cell_length_b   7.31810262
_cell_length_c   9.00435840
_cell_angle_alpha   89.99326284
_cell_angle_beta   90.03347487
_cell_angle_gamma   90.09924652
_symmetry_Int_Tables_number   1
_chemical_formula_structural   Ho7Er5Os3Pt
_chemical_formula_sum   'Ho7 Er5 Os3 Pt1'
_cell_volume   420.35068502
_cell_formula_units_Z   1
loop_
 _symmetry_equiv_pos_site_id
 _symmetry_equiv_pos_as_xyz
  1  'x, y, z'
loop_
 _atom_site_type_symbol
 _atom_site_label
 _atom_site_symmetry_multiplicity
 _atom_site_fract_x
 _atom_site_fract_y
 _atom_site_fract_z
 _atom_site_occupancy
  Ho  Ho0  1  0.335000  0.671796  0.059086  1
  Ho  Ho1  1  0.172680  0.182120  0.441242  1
  Ho  Ho2  1  0.670910  0.323350  0.562405  1
  Ho  Ho3  1  0.823005  0.823601  0.933135  1
  Ho  Ho4  1  0.873333  0.534453  0.250173  1
  Ho  Ho5  1  0.624435  0.038405  0.249904  1
  Ho  Ho6  1  0.123554  0.463032  0.750351  1
  Er  Er7  1  0.670312  0.323556  0.937734  1
  Er  Er8  1  0.823847  0.824004  0.566598  1
  Er  Er9  1  0.335415  0.671227  0.441123  1
  Er  Er10  1  0.172384  0.180988  0.058431  1
  Er  Er11  1  0.369683  0.962447  0.749739  1
  Os  Os12  1  0.462530  0.384307  0.249244  1
  Os  Os13  1  0.963855  0.114330  0.750817  1
  Os  Os14  1  0.533590  0.614992  0.749314  1
  Pt  Pt15  1  0.045466  0.887392  0.250704  1
