# generated using pymatgen
data_Ta2MnMo(PO4)6
_symmetry_space_group_name_H-M   'P 1'
_cell_length_a   8.70455310
_cell_length_b   8.70051742
_cell_length_c   8.97317672
_cell_angle_alpha   90.02293955
_cell_angle_beta   61.08068847
_cell_angle_gamma   119.44888900
_symmetry_Int_Tables_number   1
_chemical_formula_structural   Ta2MnMo(PO4)6
_chemical_formula_sum   'Ta2 Mn1 Mo1 P6 O24'
_cell_volume   492.22405193
_cell_formula_units_Z   1
loop_
 _symmetry_equiv_pos_site_id
 _symmetry_equiv_pos_as_xyz
  1  'x, y, z'
loop_
 _atom_site_type_symbol
 _atom_site_label
 _atom_site_symmetry_multiplicity
 _atom_site_fract_x
 _atom_site_fract_y
 _atom_site_fract_z
 _atom_site_occupancy
  Ta  Ta0  1  0.782367  0.143073  0.077846  1
  Ta  Ta1  1  0.783906  0.640515  0.574329  1
  Mn  Mn2  1  0.209025  0.354084  0.433377  1
  Mo  Mo3  1  0.211946  0.856571  0.931080  1
  P  P4  1  0.278502  0.036783  0.255560  1
  P  P5  1  0.714094  0.747521  0.249359  1
  P  P6  1  0.280994  0.248820  0.745761  1
  P  P7  1  0.716199  0.969157  0.750557  1
  P  P8  1  0.009866  0.534047  0.742993  1
  P  P9  1  0.004482  0.464335  0.252943  1
  O  O10  1  0.486960  0.069198  0.224275  1
  O  O11  1  0.868636  0.364801  0.912843  1
  O  O12  1  0.882356  0.137347  0.589311  1
  O  O13  1  0.852881  0.554016  0.720488  1
  O  O14  1  0.126820  0.626971  0.085075  1
  O  O15  1  0.089293  0.857184  0.417344  1
  O  O16  1  0.157940  0.445270  0.271211  1
  O  O17  1  0.142273  0.715095  0.772124  1
  O  O18  1  0.160424  0.514553  0.576733  1
  O  O19  1  0.270577  0.204812  0.281073  1
  O  O20  1  0.285829  0.007865  0.082633  1
  O  O21  1  0.713016  0.924151  0.225200  1
  O  O22  1  0.534023  0.576737  0.263218  1
  O  O23  1  0.267747  0.260090  0.584270  1
  O  O24  1  0.855619  0.493408  0.418652  1
  O  O25  1  0.085214  0.220455  0.919431  1
  O  O26  1  0.927971  0.795786  0.076048  1
  O  O27  1  0.492937  0.912468  0.796116  1
  O  O28  1  0.735210  0.734249  0.410266  1
  O  O29  1  0.482939  0.428942  0.716116  1
  O  O30  1  0.298496  0.083997  0.772789  1
  O  O31  1  0.717616  0.995431  0.920597  1
  O  O32  1  0.720790  0.794315  0.722718  1
  O  O33  1  0.853052  0.287955  0.227667  1
