# generated using pymatgen
data_SmThCo2(P2Rh)2
_symmetry_space_group_name_H-M   'P 1'
_cell_length_a   4.06395900
_cell_length_b   4.06395900
_cell_length_c   9.34679700
_cell_angle_alpha   90.00000000
_cell_angle_beta   90.00000000
_cell_angle_gamma   90.00000000
_symmetry_Int_Tables_number   1
_chemical_formula_structural   SmThCo2(P2Rh)2
_chemical_formula_sum   'Sm1 Th1 Co2 P4 Rh2'
_cell_volume   154.36948176
_cell_formula_units_Z   1
loop_
 _symmetry_equiv_pos_site_id
 _symmetry_equiv_pos_as_xyz
  1  'x, y, z'
loop_
 _atom_site_type_symbol
 _atom_site_label
 _atom_site_symmetry_multiplicity
 _atom_site_fract_x
 _atom_site_fract_y
 _atom_site_fract_z
 _atom_site_occupancy
  Sm  Sm0  1  0.000000  0.500000  0.261651  1
  Th  Th1  1  0.500000  0.000000  0.737743  1
  Co  Co2  1  0.000000  0.500000  0.606866  1
  Co  Co3  1  0.500000  0.000000  0.394841  1
  P  P4  1  0.000000  0.000000  0.497826  1
  P  P5  1  0.500000  0.500000  0.497826  1
  P  P6  1  0.000000  0.500000  0.852031  1
  P  P7  1  0.500000  0.000000  0.153124  1
  Rh  Rh8  1  0.000000  0.000000  0.999047  1
  Rh  Rh9  1  0.500000  0.500000  0.999047  1
