# generated using pymatgen
data_PrLuAl9RePd2
_symmetry_space_group_name_H-M   'P 1'
_cell_length_a   7.59539532
_cell_length_b   7.63863606
_cell_length_c   9.58902100
_cell_angle_alpha   90.00000000
_cell_angle_beta   90.00000000
_cell_angle_gamma   118.27996312
_symmetry_Int_Tables_number   1
_chemical_formula_structural   PrLuAl9RePd2
_chemical_formula_sum   'Pr2 Lu2 Al18 Re2 Pd4'
_cell_volume   489.93718632
_cell_formula_units_Z   2
loop_
 _symmetry_equiv_pos_site_id
 _symmetry_equiv_pos_as_xyz
  1  'x, y, z'
loop_
 _atom_site_type_symbol
 _atom_site_label
 _atom_site_symmetry_multiplicity
 _atom_site_fract_x
 _atom_site_fract_y
 _atom_site_fract_z
 _atom_site_occupancy
  Pr  Pr0  1  0.994513  0.680713  0.250000  1
  Pr  Pr1  1  0.005487  0.319287  0.750000  1
  Lu  Lu2  1  0.687237  0.992977  0.250000  1
  Lu  Lu3  1  0.312763  0.007023  0.750000  1
  Al  Al4  1  0.136394  0.135466  0.250000  1
  Al  Al5  1  0.863606  0.864534  0.750000  1
  Al  Al6  1  0.001834  0.332687  0.078781  1
  Al  Al7  1  0.998166  0.667313  0.921219  1
  Al  Al8  1  0.998166  0.667313  0.578781  1
  Al  Al9  1  0.339374  0.004101  0.425521  1
  Al  Al10  1  0.001834  0.332687  0.421219  1
  Al  Al11  1  0.660626  0.995899  0.574479  1
  Al  Al12  1  0.660626  0.995899  0.925521  1
  Al  Al13  1  0.339374  0.004101  0.074479  1
  Al  Al14  1  0.330855  0.328289  0.545747  1
  Al  Al15  1  0.669145  0.671712  0.454253  1
  Al  Al16  1  0.669145  0.671712  0.045747  1
  Al  Al17  1  0.330855  0.328289  0.954253  1
  Al  Al18  1  0.350464  0.554531  0.250000  1
  Al  Al19  1  0.649536  0.445469  0.750000  1
  Al  Al20  1  0.551553  0.339600  0.250000  1
  Al  Al21  1  0.448447  0.660400  0.750000  1
  Re  Re22  1  0.000000  0.000000  0.000000  1
  Re  Re23  1  0.000000  0.000000  0.500000  1
  Pd  Pd24  1  0.671982  0.329152  0.000039  1
  Pd  Pd25  1  0.328018  0.670848  0.999961  1
  Pd  Pd26  1  0.328018  0.670848  0.500039  1
  Pd  Pd27  1  0.671982  0.329152  0.499961  1
