# generated using pymatgen
data_Li6AlAs5Rh12
_symmetry_space_group_name_H-M   'P 1'
_cell_length_a   4.16387412
_cell_length_b   5.90294600
_cell_length_c   12.50205100
_cell_angle_alpha   90.00000000
_cell_angle_beta   90.01388405
_cell_angle_gamma   90.00000000
_symmetry_Int_Tables_number   1
_chemical_formula_structural   Li6AlAs5Rh12
_chemical_formula_sum   'Li6 Al1 As5 Rh12'
_cell_volume   307.28945394
_cell_formula_units_Z   1
loop_
 _symmetry_equiv_pos_site_id
 _symmetry_equiv_pos_as_xyz
  1  'x, y, z'
loop_
 _atom_site_type_symbol
 _atom_site_label
 _atom_site_symmetry_multiplicity
 _atom_site_fract_x
 _atom_site_fract_y
 _atom_site_fract_z
 _atom_site_occupancy
  Li  Li0  1  0.000000  0.000000  0.000000  1
  Li  Li1  1  0.499741  0.500001  0.164840  1
  Li  Li2  1  0.999783  0.000000  0.333824  1
  Li  Li3  1  0.499999  0.500001  0.500000  1
  Li  Li4  1  0.000218  0.000000  0.666175  1
  Li  Li5  1  0.500260  0.500001  0.835159  1
  Al  Al6  1  0.000000  0.500001  0.000000  1
  As  As7  1  0.499792  0.000000  0.162636  1
  As  As8  1  0.999808  0.500001  0.331154  1
  As  As9  1  0.499999  0.000000  0.500000  1
  As  As10  1  0.000191  0.500001  0.668845  1
  As  As11  1  0.500210  0.000000  0.837364  1
  Rh  Rh12  1  0.499999  0.248575  0.000000  1
  Rh  Rh13  1  0.499999  0.751426  0.000000  1
  Rh  Rh14  1  0.999784  0.248787  0.169354  1
  Rh  Rh15  1  0.999784  0.751212  0.169354  1
  Rh  Rh16  1  0.499876  0.249590  0.334508  1
  Rh  Rh17  1  0.499876  0.750410  0.334508  1
  Rh  Rh18  1  0.000000  0.250812  0.500000  1
  Rh  Rh19  1  0.000000  0.749189  0.500000  1
  Rh  Rh20  1  0.500123  0.249590  0.665492  1
  Rh  Rh21  1  0.500123  0.750410  0.665492  1
  Rh  Rh22  1  0.000218  0.248787  0.830646  1
  Rh  Rh23  1  0.000218  0.751212  0.830646  1
