# generated using pymatgen
data_LiBe8Ir4Rh3
_symmetry_space_group_name_H-M   'P 1'
_cell_length_a   5.58744800
_cell_length_b   5.58505900
_cell_length_c   5.57707900
_cell_angle_alpha   90.00000000
_cell_angle_beta   90.00000000
_cell_angle_gamma   90.00000000
_symmetry_Int_Tables_number   1
_chemical_formula_structural   LiBe8Ir4Rh3
_chemical_formula_sum   'Li1 Be8 Ir4 Rh3'
_cell_volume   174.03959182
_cell_formula_units_Z   1
loop_
 _symmetry_equiv_pos_site_id
 _symmetry_equiv_pos_as_xyz
  1  'x, y, z'
loop_
 _atom_site_type_symbol
 _atom_site_label
 _atom_site_symmetry_multiplicity
 _atom_site_fract_x
 _atom_site_fract_y
 _atom_site_fract_z
 _atom_site_occupancy
  Li  Li0  1  0.753613  0.749999  0.500005  1
  Be  Be1  1  0.006783  0.007088  0.239183  1
  Be  Be2  1  0.006783  0.492911  0.239183  1
  Be  Be3  1  0.492931  0.006669  0.249102  1
  Be  Be4  1  0.492931  0.493332  0.249102  1
  Be  Be5  1  0.492929  0.006669  0.750899  1
  Be  Be6  1  0.492929  0.493330  0.750899  1
  Be  Be7  1  0.006783  0.007088  0.760817  1
  Be  Be8  1  0.006783  0.492913  0.760817  1
  Ir  Ir9  1  0.747028  0.250000  0.000000  1
  Ir  Ir10  1  0.253204  0.749999  0.000000  1
  Ir  Ir11  1  0.751484  0.250000  0.499999  1
  Ir  Ir12  1  0.246734  0.749999  0.499999  1
  Rh  Rh13  1  0.252482  0.250000  0.000000  1
  Rh  Rh14  1  0.749750  0.749999  0.000000  1
  Rh  Rh15  1  0.246852  0.250000  0.499996  1
