# generated using pymatgen
data_V12Fe5Si7N4
_symmetry_space_group_name_H-M   'P 1'
_cell_length_a   7.55580871
_cell_length_b   7.55580776
_cell_length_c   7.54937052
_cell_angle_alpha   60.40360873
_cell_angle_beta   60.40360800
_cell_angle_gamma   60.39267448
_symmetry_Int_Tables_number   1
_chemical_formula_structural   V12Fe5Si7N4
_chemical_formula_sum   'V12 Fe5 Si7 N4'
_cell_volume   307.51629360
_cell_formula_units_Z   1
loop_
 _symmetry_equiv_pos_site_id
 _symmetry_equiv_pos_as_xyz
  1  'x, y, z'
loop_
 _atom_site_type_symbol
 _atom_site_label
 _atom_site_symmetry_multiplicity
 _atom_site_fract_x
 _atom_site_fract_y
 _atom_site_fract_z
 _atom_site_occupancy
  V  V0  1  0.809601  0.809601  0.188728  1
  V  V1  1  0.190437  0.190437  0.809098  1
  V  V2  1  0.809753  0.188766  0.809632  1
  V  V3  1  0.190445  0.809073  0.190441  1
  V  V4  1  0.188766  0.809753  0.809632  1
  V  V5  1  0.809073  0.190445  0.190441  1
  V  V6  1  0.439525  0.439525  0.061157  1
  V  V7  1  0.058158  0.058158  0.442287  1
  V  V8  1  0.439442  0.061207  0.439438  1
  V  V9  1  0.058035  0.442346  0.058207  1
  V  V10  1  0.061207  0.439442  0.439438  1
  V  V11  1  0.442346  0.058035  0.058207  1
  Fe  Fe12  1  0.130756  0.621614  0.621631  1
  Fe  Fe13  1  0.621614  0.130756  0.621631  1
  Fe  Fe14  1  0.621518  0.621518  0.130944  1
  Fe  Fe15  1  0.624418  0.624418  0.624469  1
  Fe  Fe16  1  0.835469  0.835469  0.835761  1
  Si  Si17  1  0.757673  0.413731  0.413382  1
  Si  Si18  1  0.413731  0.757673  0.413382  1
  Si  Si19  1  0.413624  0.413624  0.757842  1
  Si  Si20  1  0.414110  0.414110  0.413598  1
  Si  Si21  1  0.498969  0.836163  0.836685  1
  Si  Si22  1  0.836163  0.498969  0.836685  1
  Si  Si23  1  0.836455  0.836455  0.498711  1
  N  N24  1  0.626649  0.123377  0.123359  1
  N  N25  1  0.123377  0.626649  0.123359  1
  N  N26  1  0.123408  0.123408  0.626584  1
  N  N27  1  0.125277  0.125277  0.125270  1
