# generated using pymatgen
data_DyPa3(SnPt2)2
_symmetry_space_group_name_H-M   'P 1'
_cell_length_a   7.80799852
_cell_length_b   7.80799852
_cell_length_c   3.69771200
_cell_angle_alpha   90.00000000
_cell_angle_beta   90.00000000
_cell_angle_gamma   90.40810128
_symmetry_Int_Tables_number   1
_chemical_formula_structural   DyPa3(SnPt2)2
_chemical_formula_sum   'Dy1 Pa3 Sn2 Pt4'
_cell_volume   225.42470510
_cell_formula_units_Z   1
loop_
 _symmetry_equiv_pos_site_id
 _symmetry_equiv_pos_as_xyz
  1  'x, y, z'
loop_
 _atom_site_type_symbol
 _atom_site_label
 _atom_site_symmetry_multiplicity
 _atom_site_fract_x
 _atom_site_fract_y
 _atom_site_fract_z
 _atom_site_occupancy
  Dy  Dy0  1  0.674576  0.825424  0.500001  1
  Pa  Pa1  1  0.329447  0.170553  0.500001  1
  Pa  Pa2  1  0.825760  0.327020  0.500001  1
  Pa  Pa3  1  0.172980  0.674240  0.500001  1
  Sn  Sn4  1  0.991912  0.996574  0.000000  1
  Sn  Sn5  1  0.503426  0.508088  0.000000  1
  Pt  Pt6  1  0.624495  0.137760  0.000000  1
  Pt  Pt7  1  0.134372  0.365628  0.000000  1
  Pt  Pt8  1  0.880791  0.619209  0.000000  1
  Pt  Pt9  1  0.362240  0.875505  0.000000  1
