# generated using pymatgen
data_ErLu3Ga18NiIr5
_symmetry_space_group_name_H-M   'P 1'
_cell_length_a   7.55173485
_cell_length_b   7.55034481
_cell_length_c   9.41373024
_cell_angle_alpha   90.22067691
_cell_angle_beta   90.22310589
_cell_angle_gamma   120.07807209
_symmetry_Int_Tables_number   1
_chemical_formula_structural   ErLu3Ga18NiIr5
_chemical_formula_sum   'Er1 Lu3 Ga18 Ni1 Ir5'
_cell_volume   464.46248374
_cell_formula_units_Z   1
loop_
 _symmetry_equiv_pos_site_id
 _symmetry_equiv_pos_as_xyz
  1  'x, y, z'
loop_
 _atom_site_type_symbol
 _atom_site_label
 _atom_site_symmetry_multiplicity
 _atom_site_fract_x
 _atom_site_fract_y
 _atom_site_fract_z
 _atom_site_occupancy
  Er  Er0  1  0.334429  0.003140  0.749624  1
  Lu  Lu1  1  0.996949  0.665464  0.250497  1
  Lu  Lu2  1  0.003044  0.334380  0.749539  1
  Lu  Lu3  1  0.665599  0.997032  0.250457  1
  Ga  Ga4  1  0.118082  0.118268  0.244585  1
  Ga  Ga5  1  0.881066  0.881304  0.755284  1
  Ga  Ga6  1  0.997916  0.329093  0.080587  1
  Ga  Ga7  1  0.001442  0.670187  0.920143  1
  Ga  Ga8  1  0.001120  0.666337  0.581042  1
  Ga  Ga9  1  0.332984  0.998297  0.417731  1
  Ga  Ga10  1  0.998275  0.332976  0.418270  1
  Ga  Ga11  1  0.667597  0.001696  0.581014  1
  Ga  Ga12  1  0.671621  0.002071  0.920221  1
  Ga  Ga13  1  0.329146  0.997961  0.081131  1
  Ga  Ga14  1  0.331742  0.332281  0.565755  1
  Ga  Ga15  1  0.668204  0.668181  0.433374  1
  Ga  Ga16  1  0.674266  0.674310  0.066459  1
  Ga  Ga17  1  0.325837  0.326469  0.934430  1
  Ga  Ga18  1  0.338842  0.545422  0.249252  1
  Ga  Ga19  1  0.661649  0.455165  0.750751  1
  Ga  Ga20  1  0.545541  0.339046  0.249272  1
  Ga  Ga21  1  0.454584  0.660978  0.750756  1
  Ni  Ni22  1  0.000017  0.999946  0.000069  1
  Ir  Ir23  1  0.672033  0.328072  0.000269  1
  Ir  Ir24  1  0.327990  0.672062  0.000205  1
  Ir  Ir25  1  0.328202  0.671987  0.499784  1
  Ir  Ir26  1  0.671847  0.328043  0.499773  1
  Ir  Ir27  1  0.999976  0.999830  0.499730  1
