# generated using pymatgen
data_ErTm4In2Sb
_symmetry_space_group_name_H-M   'P 1'
_cell_length_a   8.88565209
_cell_length_b   8.88638519
_cell_length_c   6.46455100
_cell_angle_alpha   90.00000000
_cell_angle_beta   90.00000000
_cell_angle_gamma   120.01361526
_symmetry_Int_Tables_number   1
_chemical_formula_structural   ErTm4In2Sb
_chemical_formula_sum   'Er2 Tm8 In4 Sb2'
_cell_volume   442.00159537
_cell_formula_units_Z   2
loop_
 _symmetry_equiv_pos_site_id
 _symmetry_equiv_pos_as_xyz
  1  'x, y, z'
loop_
 _atom_site_type_symbol
 _atom_site_label
 _atom_site_symmetry_multiplicity
 _atom_site_fract_x
 _atom_site_fract_y
 _atom_site_fract_z
 _atom_site_occupancy
  Er  Er0  1  0.759985  0.999947  0.750000  1
  Er  Er1  1  0.239463  0.235766  0.750000  1
  Tm  Tm2  1  0.331422  0.665119  0.003582  1
  Tm  Tm3  1  0.666325  0.334915  0.496373  1
  Tm  Tm4  1  0.666325  0.334915  0.003627  1
  Tm  Tm5  1  0.331422  0.665119  0.496418  1
  Tm  Tm6  1  0.236508  0.999934  0.250000  1
  Tm  Tm7  1  0.999887  0.238592  0.250000  1
  Tm  Tm8  1  0.761407  0.761439  0.250000  1
  Tm  Tm9  1  0.003745  0.764434  0.750000  1
  In  In10  1  0.603249  0.999963  0.250000  1
  In  In11  1  0.400903  0.999789  0.750000  1
  In  In12  1  0.999279  0.605761  0.250000  1
  In  In13  1  0.393490  0.394150  0.250000  1
  Sb  Sb14  1  0.606490  0.606204  0.750000  1
  Sb  Sb15  1  0.000102  0.393954  0.750000  1
