# generated using pymatgen
data_Cs4Ta5NbBr18
_symmetry_space_group_name_H-M   'P 1'
_cell_length_a   10.91757471
_cell_length_b   10.92330972
_cell_length_c   10.77671526
_cell_angle_alpha   76.41179712
_cell_angle_beta   76.36382829
_cell_angle_gamma   116.12503923
_symmetry_Int_Tables_number   1
_chemical_formula_structural   Cs4Ta5NbBr18
_chemical_formula_sum   'Cs4 Ta5 Nb1 Br18'
_cell_volume   1033.39916321
_cell_formula_units_Z   1
loop_
 _symmetry_equiv_pos_site_id
 _symmetry_equiv_pos_as_xyz
  1  'x, y, z'
loop_
 _atom_site_type_symbol
 _atom_site_label
 _atom_site_symmetry_multiplicity
 _atom_site_fract_x
 _atom_site_fract_y
 _atom_site_fract_z
 _atom_site_occupancy
  Cs  Cs0  1  0.736863  0.051737  0.321666  1
  Cs  Cs1  1  0.264913  0.948604  0.677439  1
  Cs  Cs2  1  0.950034  0.265299  0.676931  1
  Cs  Cs3  1  0.052170  0.735347  0.322060  1
  Ta  Ta4  1  0.603125  0.603448  0.117253  1
  Ta  Ta5  1  0.396196  0.396370  0.883125  1
  Ta  Ta6  1  0.457291  0.299153  0.128352  1
  Ta  Ta7  1  0.542042  0.700774  0.872022  1
  Ta  Ta8  1  0.700129  0.542349  0.872264  1
  Nb  Nb9  1  0.296934  0.457037  0.129449  1
  Br  Br10  1  0.696558  0.303415  0.000121  1
  Br  Br11  1  0.303768  0.698464  0.998689  1
  Br  Br12  1  0.399721  0.021487  0.304290  1
  Br  Br13  1  0.602534  0.978952  0.694423  1
  Br  Br14  1  0.978127  0.601581  0.695342  1
  Br  Br15  1  0.017227  0.397423  0.307452  1
  Br  Br16  1  0.321146  0.123155  0.013619  1
  Br  Br17  1  0.678758  0.876813  0.986483  1
  Br  Br18  1  0.876789  0.678895  0.986597  1
  Br  Br19  1  0.122277  0.319825  0.012270  1
  Br  Br20  1  0.745326  0.744297  0.273657  1
  Br  Br21  1  0.257485  0.256219  0.724574  1
  Br  Br22  1  0.803001  0.803238  0.682235  1
  Br  Br23  1  0.196638  0.194867  0.318834  1
  Br  Br24  1  0.574917  0.378829  0.302474  1
  Br  Br25  1  0.424869  0.621145  0.697597  1
  Br  Br26  1  0.621156  0.424882  0.697564  1
  Br  Br27  1  0.380007  0.576398  0.303218  1
