# generated using pymatgen
data_BaNaLa(H6Ir)2
_symmetry_space_group_name_H-M   'P 1'
_cell_length_a   5.17002000
_cell_length_b   5.17001980
_cell_length_c   8.56992300
_cell_angle_alpha   90.00000000
_cell_angle_beta   90.00000000
_cell_angle_gamma   119.99998851
_symmetry_Int_Tables_number   1
_chemical_formula_structural   BaNaLa(H6Ir)2
_chemical_formula_sum   'Ba1 Na1 La1 H12 Ir2'
_cell_volume   198.37732556
_cell_formula_units_Z   1
loop_
 _symmetry_equiv_pos_site_id
 _symmetry_equiv_pos_as_xyz
  1  'x, y, z'
loop_
 _atom_site_type_symbol
 _atom_site_label
 _atom_site_symmetry_multiplicity
 _atom_site_fract_x
 _atom_site_fract_y
 _atom_site_fract_z
 _atom_site_occupancy
  Ba  Ba0  1  0.000000  0.000000  0.034977  1
  Na  Na1  1  0.666667  0.333333  0.350403  1
  La  La2  1  0.333333  0.666667  0.615925  1
  H  H3  1  0.175017  0.824983  0.367622  1
  H  H4  1  0.649967  0.824983  0.367622  1
  H  H5  1  0.175017  0.350033  0.367622  1
  H  H6  1  0.824871  0.175129  0.631621  1
  H  H7  1  0.350257  0.175129  0.631621  1
  H  H8  1  0.824871  0.649743  0.631621  1
  H  H9  1  0.516145  0.032289  0.855889  1
  H  H10  1  0.516145  0.483855  0.855889  1
  H  H11  1  0.967711  0.483855  0.855889  1
  H  H12  1  0.483703  0.967406  0.144308  1
  H  H13  1  0.483703  0.516297  0.144308  1
  H  H14  1  0.032594  0.516297  0.144308  1
  Ir  Ir15  1  0.666667  0.333333  0.739589  1
  Ir  Ir16  1  0.333333  0.666667  0.260788  1
