# generated using pymatgen
data_Ca10AlTcN10
_symmetry_space_group_name_H-M   'P 1'
_cell_length_a   6.90148654
_cell_length_b   6.90148524
_cell_length_c   8.77694451
_cell_angle_alpha   81.36958130
_cell_angle_beta   81.36958143
_cell_angle_gamma   60.23035481
_symmetry_Int_Tables_number   1
_chemical_formula_structural   Ca10AlTcN10
_chemical_formula_sum   'Ca10 Al1 Tc1 N10'
_cell_volume   357.37767693
_cell_formula_units_Z   1
loop_
 _symmetry_equiv_pos_site_id
 _symmetry_equiv_pos_as_xyz
  1  'x, y, z'
loop_
 _atom_site_type_symbol
 _atom_site_label
 _atom_site_symmetry_multiplicity
 _atom_site_fract_x
 _atom_site_fract_y
 _atom_site_fract_z
 _atom_site_occupancy
  Ca  Ca0  1  0.889233  0.359110  0.833724  1
  Ca  Ca1  1  0.878597  0.878597  0.815036  1
  Ca  Ca2  1  0.735040  0.735040  0.542420  1
  Ca  Ca3  1  0.738598  0.259169  0.521846  1
  Ca  Ca4  1  0.616168  0.138421  0.133900  1
  Ca  Ca5  1  0.359110  0.889233  0.833724  1
  Ca  Ca6  1  0.259169  0.738598  0.521846  1
  Ca  Ca7  1  0.243745  0.243745  0.506532  1
  Ca  Ca8  1  0.140084  0.140084  0.162019  1
  Ca  Ca9  1  0.138421  0.616168  0.133900  1
  Al  Al10  1  0.369671  0.369671  0.770970  1
  Tc  Tc11  1  0.633163  0.633163  0.228136  1
  N  N12  1  0.904447  0.474400  0.318170  1
  N  N13  1  0.990663  0.990663  0.030288  1
  N  N14  1  0.683229  0.683229  0.022518  1
  N  N15  1  0.538754  0.538754  0.697876  1
  N  N16  1  0.474400  0.904447  0.318170  1
  N  N17  1  0.545025  0.081361  0.667859  1
  N  N18  1  0.475466  0.475466  0.287458  1
  N  N19  1  0.306140  0.306140  0.984403  1
  N  N20  1  0.061806  0.061806  0.647155  1
  N  N21  1  0.081361  0.545025  0.667859  1
