# generated using pymatgen
data_Hf12Tc5MoIr6
_symmetry_space_group_name_H-M   'P 1'
_cell_length_a   4.61627800
_cell_length_b   6.51609200
_cell_length_c   13.89943600
_cell_angle_alpha   90.00000000
_cell_angle_beta   90.00002066
_cell_angle_gamma   90.00000000
_symmetry_Int_Tables_number   1
_chemical_formula_structural   Hf12Tc5MoIr6
_chemical_formula_sum   'Hf12 Tc5 Mo1 Ir6'
_cell_volume   418.09631565
_cell_formula_units_Z   1
loop_
 _symmetry_equiv_pos_site_id
 _symmetry_equiv_pos_as_xyz
  1  'x, y, z'
loop_
 _atom_site_type_symbol
 _atom_site_label
 _atom_site_symmetry_multiplicity
 _atom_site_fract_x
 _atom_site_fract_y
 _atom_site_fract_z
 _atom_site_occupancy
  Hf  Hf0  1  0.500001  0.250449  0.000000  1
  Hf  Hf1  1  0.500001  0.749551  0.000000  1
  Hf  Hf2  1  0.999990  0.249615  0.166146  1
  Hf  Hf3  1  0.999990  0.750386  0.166146  1
  Hf  Hf4  1  0.499996  0.249895  0.332892  1
  Hf  Hf5  1  0.499996  0.750105  0.332892  1
  Hf  Hf6  1  0.000000  0.249580  0.500000  1
  Hf  Hf7  1  0.000000  0.750420  0.500000  1
  Hf  Hf8  1  0.500003  0.249895  0.667108  1
  Hf  Hf9  1  0.500003  0.750105  0.667108  1
  Hf  Hf10  1  0.000010  0.249615  0.833854  1
  Hf  Hf11  1  0.000010  0.750386  0.833854  1
  Tc  Tc12  1  0.499992  0.499999  0.167423  1
  Tc  Tc13  1  0.999996  0.000000  0.334373  1
  Tc  Tc14  1  0.500001  0.499999  0.500000  1
  Tc  Tc15  1  0.000004  0.000000  0.665627  1
  Tc  Tc16  1  0.500008  0.499999  0.832576  1
  Mo  Mo17  1  0.000000  0.000000  0.000000  1
  Ir  Ir18  1  0.000000  0.499999  0.000000  1
  Ir  Ir19  1  0.499994  0.000000  0.167752  1
  Ir  Ir20  1  0.999991  0.499999  0.333997  1
  Ir  Ir21  1  0.500001  0.000000  0.500000  1
  Ir  Ir22  1  0.000009  0.499999  0.666004  1
  Ir  Ir23  1  0.500005  0.000000  0.832248  1
