# generated using pymatgen
data_Dy5TiRuO12
_symmetry_space_group_name_H-M   'P 1'
_cell_length_a   6.84857824
_cell_length_b   6.84857757
_cell_length_c   7.30303450
_cell_angle_alpha   74.50286908
_cell_angle_beta   74.50287037
_cell_angle_gamma   50.68656099
_symmetry_Int_Tables_number   1
_chemical_formula_structural   Dy5TiRuO12
_chemical_formula_sum   'Dy5 Ti1 Ru1 O12'
_cell_volume   253.16936454
_cell_formula_units_Z   1
loop_
 _symmetry_equiv_pos_site_id
 _symmetry_equiv_pos_as_xyz
  1  'x, y, z'
loop_
 _atom_site_type_symbol
 _atom_site_label
 _atom_site_symmetry_multiplicity
 _atom_site_fract_x
 _atom_site_fract_y
 _atom_site_fract_z
 _atom_site_occupancy
  Dy  Dy0  1  0.304244  0.300692  0.360314  1
  Dy  Dy1  1  0.699308  0.695756  0.639686  1
  Dy  Dy2  1  0.688897  0.697033  0.167817  1
  Dy  Dy3  1  0.302967  0.311103  0.832183  1
  Dy  Dy4  1  0.001349  0.998651  0.500000  1
  Ti  Ti5  1  0.767962  0.232038  0.000000  1
  Ru  Ru6  1  0.250316  0.749684  0.000000  1
  O  O7  1  0.096018  0.597141  0.574901  1
  O  O8  1  0.001200  0.997597  0.185450  1
  O  O9  1  0.402859  0.903982  0.425099  1
  O  O10  1  0.497525  0.503130  0.185959  1
  O  O11  1  0.095291  0.575798  0.083125  1
  O  O12  1  0.903551  0.403263  0.423722  1
  O  O13  1  0.002403  0.998800  0.814550  1
  O  O14  1  0.596737  0.096448  0.576278  1
  O  O15  1  0.496870  0.502475  0.814041  1
  O  O16  1  0.572156  0.103853  0.081357  1
  O  O17  1  0.424202  0.904709  0.916875  1
  O  O18  1  0.896147  0.427844  0.918643  1
