# generated using pymatgen
data_RbYb(HO2)2
_symmetry_space_group_name_H-M   'P 1'
_cell_length_a   6.19396174
_cell_length_b   6.08380400
_cell_length_c   6.11488221
_cell_angle_alpha   89.99907489
_cell_angle_beta   92.81318008
_cell_angle_gamma   89.99887945
_symmetry_Int_Tables_number   1
_chemical_formula_structural   RbYb(HO2)2
_chemical_formula_sum   'Rb2 Yb2 H4 O8'
_cell_volume   230.14849152
_cell_formula_units_Z   2
loop_
 _symmetry_equiv_pos_site_id
 _symmetry_equiv_pos_as_xyz
  1  'x, y, z'
loop_
 _atom_site_type_symbol
 _atom_site_label
 _atom_site_symmetry_multiplicity
 _atom_site_fract_x
 _atom_site_fract_y
 _atom_site_fract_z
 _atom_site_occupancy
  Rb  Rb0  1  0.252948  0.743970  0.745109  1
  Rb  Rb1  1  0.247052  0.243967  0.254867  1
  Yb  Yb2  1  0.662275  0.195697  0.768253  1
  Yb  Yb3  1  0.837738  0.695693  0.231759  1
  H  H4  1  0.338326  0.762150  0.233008  1
  H  H5  1  0.161676  0.262153  0.766955  1
  H  H6  1  0.757382  0.248949  0.201443  1
  H  H7  1  0.742625  0.748971  0.798567  1
  O  O8  1  0.861484  0.481718  0.581468  1
  O  O9  1  0.638504  0.981714  0.418552  1
  O  O10  1  0.850061  0.996819  0.489297  1
  O  O11  1  0.649953  0.496830  0.510723  1
  O  O12  1  0.187082  0.720695  0.221248  1
  O  O13  1  0.312924  0.220711  0.778736  1
  O  O14  1  0.792079  0.349986  0.084953  1
  O  O15  1  0.707891  0.849979  0.915064  1
