# generated using pymatgen
data_Er3Tm(B6Rh)2
_symmetry_space_group_name_H-M   'P 1'
_cell_length_a   3.62856400
_cell_length_b   9.13179809
_cell_length_c   11.45842411
_cell_angle_alpha   89.98401101
_cell_angle_beta   90.00000000
_cell_angle_gamma   90.00000000
_symmetry_Int_Tables_number   1
_chemical_formula_structural   Er3Tm(B6Rh)2
_chemical_formula_sum   'Er6 Tm2 B24 Rh4'
_cell_volume   379.67846381
_cell_formula_units_Z   2
loop_
 _symmetry_equiv_pos_site_id
 _symmetry_equiv_pos_as_xyz
  1  'x, y, z'
loop_
 _atom_site_type_symbol
 _atom_site_label
 _atom_site_symmetry_multiplicity
 _atom_site_fract_x
 _atom_site_fract_y
 _atom_site_fract_z
 _atom_site_occupancy
  Er  Er0  1  0.500000  0.322089  0.413500  1
  Er  Er1  1  0.500000  0.677911  0.586500  1
  Er  Er2  1  0.500000  0.177576  0.913391  1
  Er  Er3  1  0.500000  0.822424  0.086609  1
  Er  Er4  1  0.500000  0.444543  0.126556  1
  Er  Er5  1  0.500000  0.555457  0.873444  1
  Tm  Tm6  1  0.500000  0.055448  0.626528  1
  Tm  Tm7  1  0.500000  0.944552  0.373472  1
  B  B8  1  0.000000  0.109472  0.470183  1
  B  B9  1  0.000000  0.890528  0.529817  1
  B  B10  1  0.000000  0.389604  0.969940  1
  B  B11  1  0.000000  0.610396  0.030060  1
  B  B12  1  0.000000  0.132892  0.316074  1
  B  B13  1  0.000000  0.867108  0.683926  1
  B  B14  1  0.000000  0.366678  0.815811  1
  B  B15  1  0.000000  0.633322  0.184189  1
  B  B16  1  0.000000  0.053689  0.065414  1
  B  B17  1  0.000000  0.946311  0.934586  1
  B  B18  1  0.000000  0.446192  0.565382  1
  B  B19  1  0.000000  0.553808  0.434618  1
  B  B20  1  0.000000  0.482588  0.286979  1
  B  B21  1  0.000000  0.517412  0.713021  1
  B  B22  1  0.000000  0.017611  0.786623  1
  B  B23  1  0.000000  0.982389  0.213377  1
  B  B24  1  0.000000  0.249516  0.079200  1
  B  B25  1  0.000000  0.750484  0.920800  1
  B  B26  1  0.000000  0.249989  0.579157  1
  B  B27  1  0.000000  0.750011  0.420843  1
  B  B28  1  0.000000  0.294611  0.235810  1
  B  B29  1  0.000000  0.705389  0.764190  1
  B  B30  1  0.000000  0.204964  0.735563  1
  B  B31  1  0.000000  0.795036  0.264437  1
  Rh  Rh32  1  0.500000  0.139645  0.178882  1
  Rh  Rh33  1  0.500000  0.860355  0.821118  1
  Rh  Rh34  1  0.500000  0.359883  0.678618  1
  Rh  Rh35  1  0.500000  0.640117  0.321382  1
