# generated using pymatgen
data_Ca21Mg(Ga6Sb)2
_symmetry_space_group_name_H-M   'P 1'
_cell_length_a   11.35901384
_cell_length_b   11.35901501
_cell_length_c   11.42851500
_cell_angle_alpha   59.79739190
_cell_angle_beta   59.79738847
_cell_angle_gamma   59.99081887
_symmetry_Int_Tables_number   1
_chemical_formula_structural   Ca21Mg(Ga6Sb)2
_chemical_formula_sum   'Ca21 Mg1 Ga12 Sb2'
_cell_volume   1039.41585061
_cell_formula_units_Z   1
loop_
 _symmetry_equiv_pos_site_id
 _symmetry_equiv_pos_as_xyz
  1  'x, y, z'
loop_
 _atom_site_type_symbol
 _atom_site_label
 _atom_site_symmetry_multiplicity
 _atom_site_fract_x
 _atom_site_fract_y
 _atom_site_fract_z
 _atom_site_occupancy
  Ca  Ca0  1  0.996666  0.003334  0.000000  1
  Ca  Ca1  1  0.127398  0.134881  0.126628  1
  Ca  Ca2  1  0.391127  0.876010  0.866431  1
  Ca  Ca3  1  0.870604  0.387930  0.870733  1
  Ca  Ca4  1  0.865119  0.872602  0.388907  1
  Ca  Ca5  1  0.123990  0.608873  0.133569  1
  Ca  Ca6  1  0.127398  0.134881  0.611093  1
  Ca  Ca7  1  0.612070  0.129396  0.129267  1
  Ca  Ca8  1  0.865119  0.872602  0.873372  1
  Ca  Ca9  1  0.506309  0.827780  0.493695  1
  Ca  Ca10  1  0.827982  0.499637  0.500876  1
  Ca  Ca11  1  0.506309  0.827780  0.172216  1
  Ca  Ca12  1  0.172220  0.493691  0.827784  1
  Ca  Ca13  1  0.827982  0.499637  0.171505  1
  Ca  Ca14  1  0.507129  0.492871  0.827715  1
  Ca  Ca15  1  0.171384  0.828616  0.500000  1
  Ca  Ca16  1  0.500363  0.172018  0.828495  1
  Ca  Ca17  1  0.507129  0.492871  0.172285  1
  Ca  Ca18  1  0.828442  0.171558  0.500000  1
  Ca  Ca19  1  0.172220  0.493691  0.506305  1
  Ca  Ca20  1  0.500363  0.172018  0.499124  1
  Mg  Mg21  1  0.501883  0.498117  0.500000  1
  Ga  Ga22  1  0.783401  0.216599  0.216365  1
  Ga  Ga23  1  0.784277  0.784275  0.215724  1
  Ga  Ga24  1  0.215725  0.215723  0.784276  1
  Ga  Ga25  1  0.783401  0.216599  0.783635  1
  Ga  Ga26  1  0.309204  0.310151  0.309126  1
  Ga  Ga27  1  0.926363  0.691813  0.690912  1
  Ga  Ga28  1  0.689963  0.930494  0.689772  1
  Ga  Ga29  1  0.689849  0.690797  0.928480  1
  Ga  Ga30  1  0.308187  0.073637  0.309088  1
  Ga  Ga31  1  0.309203  0.310151  0.071520  1
  Ga  Ga32  1  0.069506  0.310037  0.310228  1
  Ga  Ga33  1  0.689849  0.690797  0.690873  1
  Sb  Sb34  1  0.215934  0.784066  0.212961  1
  Sb  Sb35  1  0.215934  0.784066  0.787039  1
