# generated using pymatgen
data_Y4AlZn5Pt8
_symmetry_space_group_name_H-M   'P 1'
_cell_length_a   8.02067843
_cell_length_b   8.02067830
_cell_length_c   7.67148000
_cell_angle_alpha   89.96573973
_cell_angle_beta   90.03426027
_cell_angle_gamma   139.29947598
_symmetry_Int_Tables_number   1
_chemical_formula_structural   Y4AlZn5Pt8
_chemical_formula_sum   'Y4 Al1 Zn5 Pt8'
_cell_volume   321.82444296
_cell_formula_units_Z   1
loop_
 _symmetry_equiv_pos_site_id
 _symmetry_equiv_pos_as_xyz
  1  'x, y, z'
loop_
 _atom_site_type_symbol
 _atom_site_label
 _atom_site_symmetry_multiplicity
 _atom_site_fract_x
 _atom_site_fract_y
 _atom_site_fract_z
 _atom_site_occupancy
  Y  Y0  1  0.111370  0.888630  0.408529  1
  Y  Y1  1  0.888630  0.111370  0.591471  1
  Y  Y2  1  0.388853  0.611147  0.911998  1
  Y  Y3  1  0.611147  0.388853  0.088002  1
  Al  Al4  1  0.500000  0.500000  0.500000  1
  Zn  Zn5  1  0.000000  0.000000  0.000000  1
  Zn  Zn6  1  0.021628  0.476969  0.250883  1
  Zn  Zn7  1  0.476969  0.021628  0.749117  1
  Zn  Zn8  1  0.978372  0.523031  0.749117  1
  Zn  Zn9  1  0.523031  0.978372  0.250883  1
  Pt  Pt10  1  0.193310  0.304760  0.254562  1
  Pt  Pt11  1  0.304760  0.193310  0.745438  1
  Pt  Pt12  1  0.806690  0.695240  0.745438  1
  Pt  Pt13  1  0.695240  0.806690  0.254562  1
  Pt  Pt14  1  0.178725  0.821275  0.026129  1
  Pt  Pt15  1  0.821275  0.178725  0.973871  1
  Pt  Pt16  1  0.324799  0.675201  0.527041  1
  Pt  Pt17  1  0.675201  0.324799  0.472959  1
