# generated using pymatgen
data_DyHo2Er5(Si3Rh)4
_symmetry_space_group_name_H-M   'P 1'
_cell_length_a   8.14712700
_cell_length_b   8.14712828
_cell_length_c   7.84008400
_cell_angle_alpha   90.00000000
_cell_angle_beta   90.00000000
_cell_angle_gamma   120.01760586
_symmetry_Int_Tables_number   1
_chemical_formula_structural   DyHo2Er5(Si3Rh)4
_chemical_formula_sum   'Dy1 Ho2 Er5 Si12 Rh4'
_cell_volume   450.59183060
_cell_formula_units_Z   1
loop_
 _symmetry_equiv_pos_site_id
 _symmetry_equiv_pos_as_xyz
  1  'x, y, z'
loop_
 _atom_site_type_symbol
 _atom_site_label
 _atom_site_symmetry_multiplicity
 _atom_site_fract_x
 _atom_site_fract_y
 _atom_site_fract_z
 _atom_site_occupancy
  Dy  Dy0  1  0.000099  0.999901  0.250000  1
  Ho  Ho1  1  0.999954  0.000046  0.750000  1
  Ho  Ho2  1  0.491545  0.508455  0.250000  1
  Er  Er3  1  0.491569  0.983356  0.250000  1
  Er  Er4  1  0.016644  0.508431  0.250000  1
  Er  Er5  1  0.508564  0.491436  0.750000  1
  Er  Er6  1  0.982758  0.491289  0.750000  1
  Er  Er7  1  0.508711  0.017242  0.750000  1
  Si  Si8  1  0.832997  0.167003  0.501187  1
  Si  Si9  1  0.833073  0.665948  0.501481  1
  Si  Si10  1  0.334052  0.166927  0.501481  1
  Si  Si11  1  0.832997  0.167003  0.998813  1
  Si  Si12  1  0.833073  0.665948  0.998519  1
  Si  Si13  1  0.334052  0.166927  0.998519  1
  Si  Si14  1  0.167176  0.832824  0.001294  1
  Si  Si15  1  0.665678  0.832976  0.000902  1
  Si  Si16  1  0.167024  0.334322  0.000902  1
  Si  Si17  1  0.167176  0.832824  0.498706  1
  Si  Si18  1  0.665678  0.832976  0.499098  1
  Si  Si19  1  0.167024  0.334322  0.499098  1
  Rh  Rh20  1  0.666930  0.333070  0.466506  1
  Rh  Rh21  1  0.666930  0.333070  0.033494  1
  Rh  Rh22  1  0.333147  0.666853  0.964758  1
  Rh  Rh23  1  0.333147  0.666853  0.535242  1
