# generated using pymatgen
data_AcLa7(Tb3Si4)4
_symmetry_space_group_name_H-M   'P 1'
_cell_length_a   7.85153234
_cell_length_b   7.85172460
_cell_length_c   14.72195168
_cell_angle_alpha   89.88549329
_cell_angle_beta   90.04424834
_cell_angle_gamma   89.90363131
_symmetry_Int_Tables_number   1
_chemical_formula_structural   AcLa7(Tb3Si4)4
_chemical_formula_sum   'Ac1 La7 Tb12 Si16'
_cell_volume   907.57653334
_cell_formula_units_Z   1
loop_
 _symmetry_equiv_pos_site_id
 _symmetry_equiv_pos_as_xyz
  1  'x, y, z'
loop_
 _atom_site_type_symbol
 _atom_site_label
 _atom_site_symmetry_multiplicity
 _atom_site_fract_x
 _atom_site_fract_y
 _atom_site_fract_z
 _atom_site_occupancy
  Ac  Ac0  1  0.984981  0.640573  0.042352  1
  La  La1  1  0.010579  0.364618  0.545226  1
  La  La2  1  0.633856  0.989276  0.953627  1
  La  La3  1  0.135883  0.509276  0.794505  1
  La  La4  1  0.865460  0.490617  0.296651  1
  La  La5  1  0.510799  0.135851  0.205290  1
  La  La6  1  0.490170  0.863371  0.704947  1
  La  La7  1  0.364443  0.010787  0.455645  1
  Tb  Tb8  1  0.364401  0.489014  0.374937  1
  Tb  Tb9  1  0.865027  0.012055  0.376645  1
  Tb  Tb10  1  0.988560  0.136054  0.125116  1
  Tb  Tb11  1  0.011328  0.864392  0.624497  1
  Tb  Tb12  1  0.634060  0.508975  0.872958  1
  Tb  Tb13  1  0.489003  0.365119  0.625640  1
  Tb  Tb14  1  0.510901  0.635018  0.125964  1
  Tb  Tb15  1  0.136663  0.988792  0.874484  1
  Tb  Tb16  1  0.685587  0.684878  0.500178  1
  Tb  Tb17  1  0.815454  0.184333  0.749417  1
  Tb  Tb18  1  0.186591  0.816878  0.250846  1
  Tb  Tb19  1  0.314983  0.314324  0.999900  1
  Si  Si20  1  0.070200  0.713904  0.438732  1
  Si  Si21  1  0.927685  0.281668  0.937327  1
  Si  Si22  1  0.713070  0.069885  0.561907  1
  Si  Si23  1  0.214635  0.428878  0.189228  1
  Si  Si24  1  0.787429  0.569831  0.688058  1
  Si  Si25  1  0.429534  0.212534  0.811066  1
  Si  Si26  1  0.568763  0.787393  0.312780  1
  Si  Si27  1  0.290144  0.932964  0.061908  1
  Si  Si28  1  0.842144  0.798477  0.804304  1
  Si  Si29  1  0.159054  0.199850  0.305312  1
  Si  Si30  1  0.797362  0.843757  0.198480  1
  Si  Si31  1  0.300147  0.658942  0.554921  1
  Si  Si32  1  0.696105  0.336964  0.053383  1
  Si  Si33  1  0.658567  0.300399  0.445718  1
  Si  Si34  1  0.345805  0.701875  0.943407  1
  Si  Si35  1  0.200630  0.158480  0.694646  1
