# generated using pymatgen
data_NaGd6OsI12
_symmetry_space_group_name_H-M   'P 1'
_cell_length_a   9.93064754
_cell_length_b   9.93064719
_cell_length_c   9.93064800
_cell_angle_alpha   107.18182433
_cell_angle_beta   107.18181230
_cell_angle_gamma   107.18181423
_symmetry_Int_Tables_number   1
_chemical_formula_structural   NaGd6OsI12
_chemical_formula_sum   'Na1 Gd6 Os1 I12'
_cell_volume   811.52307987
_cell_formula_units_Z   1
loop_
 _symmetry_equiv_pos_site_id
 _symmetry_equiv_pos_as_xyz
  1  'x, y, z'
loop_
 _atom_site_type_symbol
 _atom_site_label
 _atom_site_symmetry_multiplicity
 _atom_site_fract_x
 _atom_site_fract_y
 _atom_site_fract_z
 _atom_site_occupancy
  Na  Na0  1  0.500000  0.500000  0.500000  1
  Gd  Gd1  1  0.103039  0.309279  0.032904  1
  Gd  Gd2  1  0.309279  0.032905  0.103039  1
  Gd  Gd3  1  0.032905  0.103039  0.309279  1
  Gd  Gd4  1  0.967095  0.896962  0.690721  1
  Gd  Gd5  1  0.690721  0.967096  0.896961  1
  Gd  Gd6  1  0.896961  0.690721  0.967096  1
  Os  Os7  1  0.000000  0.000000  0.000000  1
  I  I8  1  0.227994  0.683800  0.073002  1
  I  I9  1  0.457600  0.381225  0.151503  1
  I  I10  1  0.683800  0.073002  0.227994  1
  I  I11  1  0.926998  0.772006  0.316201  1
  I  I12  1  0.151503  0.457600  0.381225  1
  I  I13  1  0.381225  0.151503  0.457601  1
  I  I14  1  0.618775  0.848497  0.542400  1
  I  I15  1  0.848497  0.542400  0.618775  1
  I  I16  1  0.073002  0.227994  0.683800  1
  I  I17  1  0.316200  0.926998  0.772006  1
  I  I18  1  0.542400  0.618775  0.848498  1
  I  I19  1  0.772006  0.316201  0.926998  1
