# generated using pymatgen
data_Y3Er(Al3Rh)6
_symmetry_space_group_name_H-M   'P 1'
_cell_length_a   7.55273121
_cell_length_b   7.55479935
_cell_length_c   9.49004800
_cell_angle_alpha   90.00000000
_cell_angle_beta   90.00000000
_cell_angle_gamma   119.40819074
_symmetry_Int_Tables_number   1
_chemical_formula_structural   Y3Er(Al3Rh)6
_chemical_formula_sum   'Y3 Er1 Al18 Rh6'
_cell_volume   471.72091851
_cell_formula_units_Z   1
loop_
 _symmetry_equiv_pos_site_id
 _symmetry_equiv_pos_as_xyz
  1  'x, y, z'
loop_
 _atom_site_type_symbol
 _atom_site_label
 _atom_site_symmetry_multiplicity
 _atom_site_fract_x
 _atom_site_fract_y
 _atom_site_fract_z
 _atom_site_occupancy
  Y  Y0  1  0.994266  0.671339  0.750000  1
  Y  Y1  1  0.005931  0.328592  0.250000  1
  Y  Y2  1  0.671344  0.994146  0.750000  1
  Er  Er3  1  0.328129  0.005779  0.250000  1
  Al  Al4  1  0.129280  0.129006  0.750000  1
  Al  Al5  1  0.871605  0.871002  0.250000  1
  Al  Al6  1  0.001005  0.335152  0.573456  1
  Al  Al7  1  0.999600  0.665292  0.425607  1
  Al  Al8  1  0.999600  0.665292  0.074393  1
  Al  Al9  1  0.335152  0.000918  0.927307  1
  Al  Al10  1  0.001005  0.335152  0.926544  1
  Al  Al11  1  0.664262  0.999134  0.074500  1
  Al  Al12  1  0.664262  0.999134  0.425500  1
  Al  Al13  1  0.335152  0.000918  0.572693  1
  Al  Al14  1  0.333451  0.333017  0.050172  1
  Al  Al15  1  0.666578  0.666542  0.951250  1
  Al  Al16  1  0.666578  0.666542  0.548750  1
  Al  Al17  1  0.333451  0.333017  0.449828  1
  Al  Al18  1  0.339536  0.549126  0.750000  1
  Al  Al19  1  0.659624  0.449956  0.250000  1
  Al  Al20  1  0.548951  0.339166  0.750000  1
  Al  Al21  1  0.450865  0.661309  0.250000  1
  Rh  Rh22  1  0.671834  0.327757  0.499471  1
  Rh  Rh23  1  0.327982  0.672209  0.499426  1
  Rh  Rh24  1  0.327982  0.672209  0.000574  1
  Rh  Rh25  1  0.671834  0.327757  0.000529  1
  Rh  Rh26  1  0.000370  0.000269  0.499398  1
  Rh  Rh27  1  0.000370  0.000269  0.000602  1
