# generated using pymatgen
data_Ca2Cd5Ag6
_symmetry_space_group_name_H-M   'P 1'
_cell_length_a   9.48440100
_cell_length_b   9.48440100
_cell_length_c   9.48440100
_cell_angle_alpha   90.00000000
_cell_angle_beta   90.00000000
_cell_angle_gamma   90.00000000
_symmetry_Int_Tables_number   1
_chemical_formula_structural   Ca2Cd5Ag6
_chemical_formula_sum   'Ca6 Cd15 Ag18'
_cell_volume   853.15850183
_cell_formula_units_Z   3
loop_
 _symmetry_equiv_pos_site_id
 _symmetry_equiv_pos_as_xyz
  1  'x, y, z'
loop_
 _atom_site_type_symbol
 _atom_site_label
 _atom_site_symmetry_multiplicity
 _atom_site_fract_x
 _atom_site_fract_y
 _atom_site_fract_z
 _atom_site_occupancy
  Ca  Ca0  1  0.500000  0.805134  0.000000  1
  Ca  Ca1  1  0.500000  0.194866  0.000000  1
  Ca  Ca2  1  0.805134  0.000000  0.500000  1
  Ca  Ca3  1  0.000000  0.500000  0.805134  1
  Ca  Ca4  1  0.000000  0.500000  0.194866  1
  Ca  Ca5  1  0.194866  0.000000  0.500000  1
  Cd  Cd6  1  0.282581  0.282581  0.717419  1
  Cd  Cd7  1  0.717419  0.717419  0.282581  1
  Cd  Cd8  1  0.717419  0.282581  0.717419  1
  Cd  Cd9  1  0.500000  0.000000  0.333990  1
  Cd  Cd10  1  0.500000  0.000000  0.666010  1
  Cd  Cd11  1  0.333990  0.500000  0.000000  1
  Cd  Cd12  1  0.666010  0.500000  0.000000  1
  Cd  Cd13  1  0.000000  0.333990  0.500000  1
  Cd  Cd14  1  0.717419  0.717419  0.717419  1
  Cd  Cd15  1  0.282581  0.717419  0.282581  1
  Cd  Cd16  1  0.000000  0.666010  0.500000  1
  Cd  Cd17  1  0.282581  0.717419  0.717419  1
  Cd  Cd18  1  0.717419  0.282581  0.282581  1
  Cd  Cd19  1  0.282581  0.282581  0.282581  1
  Cd  Cd20  1  0.000000  0.000000  0.000000  1
  Ag  Ag21  1  0.843110  0.740486  0.000000  1
  Ag  Ag22  1  0.259514  0.000000  0.156890  1
  Ag  Ag23  1  0.000000  0.156890  0.740486  1
  Ag  Ag24  1  0.156890  0.259514  0.000000  1
  Ag  Ag25  1  0.843110  0.259514  0.000000  1
  Ag  Ag26  1  0.728898  0.500000  0.500000  1
  Ag  Ag27  1  0.000000  0.843110  0.740486  1
  Ag  Ag28  1  0.156890  0.740486  0.000000  1
  Ag  Ag29  1  0.740486  0.000000  0.156890  1
  Ag  Ag30  1  0.000000  0.156890  0.259514  1
  Ag  Ag31  1  0.500000  0.500000  0.271102  1
  Ag  Ag32  1  0.500000  0.500000  0.728898  1
  Ag  Ag33  1  0.500000  0.728898  0.500000  1
  Ag  Ag34  1  0.259514  0.000000  0.843110  1
  Ag  Ag35  1  0.271102  0.500000  0.500000  1
  Ag  Ag36  1  0.740486  0.000000  0.843110  1
  Ag  Ag37  1  0.000000  0.843110  0.259514  1
  Ag  Ag38  1  0.500000  0.271102  0.500000  1
