# generated using pymatgen
data_RuCl12
_symmetry_space_group_name_H-M   'P 1'
_cell_length_a   11.41743983
_cell_length_b   10.55848335
_cell_length_c   7.51424342
_cell_angle_alpha   59.11710738
_cell_angle_beta   37.55455130
_cell_angle_gamma   61.05271700
_symmetry_Int_Tables_number   1
_chemical_formula_structural   RuCl12
_chemical_formula_sum   'Ru1 Cl12'
_cell_volume   468.67430635
_cell_formula_units_Z   1
loop_
 _symmetry_equiv_pos_site_id
 _symmetry_equiv_pos_as_xyz
  1  'x, y, z'
loop_
 _atom_site_type_symbol
 _atom_site_label
 _atom_site_symmetry_multiplicity
 _atom_site_fract_x
 _atom_site_fract_y
 _atom_site_fract_z
 _atom_site_occupancy
  Ru  Ru0  1  0.999859  0.000136  0.999990  1
  Cl  Cl1  1  0.503768  0.636102  0.101068  1
  Cl  Cl2  1  0.731102  0.523568  0.035342  1
  Cl  Cl3  1  0.849883  0.798753  0.211358  1
  Cl  Cl4  1  0.553815  0.862565  0.381795  1
  Cl  Cl5  1  0.736118  0.089917  0.445861  1
  Cl  Cl6  1  0.126185  0.845770  0.181183  1
  Cl  Cl7  1  0.873307  0.154487  0.819247  1
  Cl  Cl8  1  0.263661  0.909896  0.554917  1
  Cl  Cl9  1  0.446588  0.137179  0.618672  1
  Cl  Cl10  1  0.150148  0.201194  0.788382  1
  Cl  Cl11  1  0.269023  0.476589  0.964235  1
  Cl  Cl12  1  0.496539  0.363839  0.897950  1
