# generated using pymatgen
data_Er10Zn4BiSb
_symmetry_space_group_name_H-M   'P 1'
_cell_length_a   8.52862975
_cell_length_b   8.52862994
_cell_length_c   8.52862909
_cell_angle_alpha   123.51584187
_cell_angle_beta   123.51584023
_cell_angle_gamma   84.01114131
_symmetry_Int_Tables_number   1
_chemical_formula_structural   Er10Zn4BiSb
_chemical_formula_sum   'Er10 Zn4 Bi1 Sb1'
_cell_volume   412.87518644
_cell_formula_units_Z   1
loop_
 _symmetry_equiv_pos_site_id
 _symmetry_equiv_pos_as_xyz
  1  'x, y, z'
loop_
 _atom_site_type_symbol
 _atom_site_label
 _atom_site_symmetry_multiplicity
 _atom_site_fract_x
 _atom_site_fract_y
 _atom_site_fract_z
 _atom_site_occupancy
  Er  Er0  1  0.497821  0.497821  0.000000  1
  Er  Er1  1  0.002179  0.002179  0.000000  1
  Er  Er2  1  0.508282  0.011058  0.805165  1
  Er  Er3  1  0.205892  0.703116  0.194835  1
  Er  Er4  1  0.011058  0.205892  0.502776  1
  Er  Er5  1  0.703116  0.508282  0.497224  1
  Er  Er6  1  0.488942  0.991718  0.194835  1
  Er  Er7  1  0.796884  0.294108  0.805165  1
  Er  Er8  1  0.991718  0.796884  0.502776  1
  Er  Er9  1  0.294108  0.488942  0.497224  1
  Zn  Zn10  1  0.139174  0.639174  0.778349  1
  Zn  Zn11  1  0.860826  0.360826  0.221651  1
  Zn  Zn12  1  0.639174  0.860826  0.500000  1
  Zn  Zn13  1  0.360826  0.139174  0.500000  1
  Bi  Bi14  1  0.750000  0.750000  0.000000  1
  Sb  Sb15  1  0.250000  0.250000  0.000000  1
