# generated using pymatgen
data_NdY3Er4(Si3Rh)4
_symmetry_space_group_name_H-M   'P 1'
_cell_length_a   8.17369609
_cell_length_b   8.18028385
_cell_length_c   7.95541800
_cell_angle_alpha   90.00000000
_cell_angle_beta   90.00000000
_cell_angle_gamma   120.02666141
_symmetry_Int_Tables_number   1
_chemical_formula_structural   NdY3Er4(Si3Rh)4
_chemical_formula_sum   'Nd1 Y3 Er4 Si12 Rh4'
_cell_volume   460.53618139
_cell_formula_units_Z   1
loop_
 _symmetry_equiv_pos_site_id
 _symmetry_equiv_pos_as_xyz
  1  'x, y, z'
loop_
 _atom_site_type_symbol
 _atom_site_label
 _atom_site_symmetry_multiplicity
 _atom_site_fract_x
 _atom_site_fract_y
 _atom_site_fract_z
 _atom_site_occupancy
  Nd  Nd0  1  0.000121  0.000060  0.250000  1
  Y  Y1  1  0.000106  0.000053  0.750000  1
  Y  Y2  1  0.491126  0.508743  0.250000  1
  Y  Y3  1  0.491126  0.982383  0.250000  1
  Er  Er4  1  0.015631  0.507815  0.250000  1
  Er  Er5  1  0.508990  0.490923  0.750000  1
  Er  Er6  1  0.981900  0.490949  0.750000  1
  Er  Er7  1  0.508990  0.018067  0.750000  1
  Si  Si8  1  0.832481  0.167733  0.503236  1
  Si  Si9  1  0.832481  0.664749  0.503236  1
  Si  Si10  1  0.335641  0.167821  0.503548  1
  Si  Si11  1  0.832481  0.167733  0.996764  1
  Si  Si12  1  0.832481  0.664749  0.996764  1
  Si  Si13  1  0.335641  0.167821  0.996452  1
  Si  Si14  1  0.167952  0.831654  0.998288  1
  Si  Si15  1  0.663734  0.831867  0.997202  1
  Si  Si16  1  0.167952  0.336297  0.998288  1
  Si  Si17  1  0.167952  0.831654  0.501712  1
  Si  Si18  1  0.663734  0.831867  0.502798  1
  Si  Si19  1  0.167952  0.336297  0.501712  1
  Rh  Rh20  1  0.667828  0.333914  0.469443  1
  Rh  Rh21  1  0.667828  0.333914  0.030557  1
  Rh  Rh22  1  0.332937  0.666469  0.961680  1
  Rh  Rh23  1  0.332937  0.666469  0.538320  1
