# generated using pymatgen
data_PuPa2(GaNi)3
_symmetry_space_group_name_H-M   'P 1'
_cell_length_a   6.70892914
_cell_length_b   6.70892892
_cell_length_c   4.04470100
_cell_angle_alpha   90.00000000
_cell_angle_beta   90.00000000
_cell_angle_gamma   119.93328183
_symmetry_Int_Tables_number   1
_chemical_formula_structural   PuPa2(GaNi)3
_chemical_formula_sum   'Pu1 Pa2 Ga3 Ni3'
_cell_volume   157.76658733
_cell_formula_units_Z   1
loop_
 _symmetry_equiv_pos_site_id
 _symmetry_equiv_pos_as_xyz
  1  'x, y, z'
loop_
 _atom_site_type_symbol
 _atom_site_label
 _atom_site_symmetry_multiplicity
 _atom_site_fract_x
 _atom_site_fract_y
 _atom_site_fract_z
 _atom_site_occupancy
  Pu  Pu0  1  0.575945  0.575945  0.500000  1
  Pa  Pa1  1  0.424147  0.999336  0.500000  1
  Pa  Pa2  1  0.999336  0.424147  0.500000  1
  Ga  Ga3  1  0.760751  0.993433  0.000000  1
  Ga  Ga4  1  0.993433  0.760751  0.000000  1
  Ga  Ga5  1  0.245105  0.245105  0.000000  1
  Ni  Ni6  1  0.317712  0.667600  0.000000  1
  Ni  Ni7  1  0.667600  0.317712  0.000000  1
  Ni  Ni8  1  0.015971  0.015971  0.500000  1
