# generated using pymatgen
data_Ba6Sc2Fe2O13
_symmetry_space_group_name_H-M   'P 1'
_cell_length_a   11.38893451
_cell_length_b   11.38893370
_cell_length_c   5.75006400
_cell_angle_alpha   90.00000000
_cell_angle_beta   90.00000000
_cell_angle_gamma   150.68242975
_symmetry_Int_Tables_number   1
_chemical_formula_structural   Ba6Sc2Fe2O13
_chemical_formula_sum   'Ba6 Sc2 Fe2 O13'
_cell_volume   365.19470375
_cell_formula_units_Z   1
loop_
 _symmetry_equiv_pos_site_id
 _symmetry_equiv_pos_as_xyz
  1  'x, y, z'
loop_
 _atom_site_type_symbol
 _atom_site_label
 _atom_site_symmetry_multiplicity
 _atom_site_fract_x
 _atom_site_fract_y
 _atom_site_fract_z
 _atom_site_occupancy
  Ba  Ba0  1  0.500000  0.500000  0.000000  1
  Ba  Ba1  1  0.000000  0.000000  0.500000  1
  Ba  Ba2  1  0.183047  0.816953  0.500000  1
  Ba  Ba3  1  0.684294  0.315706  0.000000  1
  Ba  Ba4  1  0.315706  0.684294  0.000000  1
  Ba  Ba5  1  0.816953  0.183047  0.500000  1
  Sc  Sc6  1  0.905173  0.094827  0.000000  1
  Sc  Sc7  1  0.094827  0.905173  0.000000  1
  Fe  Fe8  1  0.394582  0.605418  0.500000  1
  Fe  Fe9  1  0.605418  0.394582  0.500000  1
  O  O10  1  0.640829  0.822407  0.732045  1
  O  O11  1  0.177593  0.359171  0.267955  1
  O  O12  1  0.822407  0.640829  0.732045  1
  O  O13  1  0.359171  0.177593  0.267955  1
  O  O14  1  0.177593  0.359171  0.732045  1
  O  O15  1  0.640829  0.822407  0.267955  1
  O  O16  1  0.359171  0.177593  0.732045  1
  O  O17  1  0.822407  0.640829  0.267955  1
  O  O18  1  0.306029  0.693971  0.500000  1
  O  O19  1  0.810949  0.189051  0.000000  1
  O  O20  1  0.189051  0.810949  0.000000  1
  O  O21  1  0.693971  0.306029  0.500000  1
  O  O22  1  0.000000  0.000000  0.000000  1
