# generated using pymatgen
data_Pr2Th2Zn10SiGe
_symmetry_space_group_name_H-M   'P 1'
_cell_length_a   8.37096402
_cell_length_b   8.37096456
_cell_length_c   8.91582600
_cell_angle_alpha   90.00000000
_cell_angle_beta   90.00000000
_cell_angle_gamma   149.14215421
_symmetry_Int_Tables_number   1
_chemical_formula_structural   Pr2Th2Zn10SiGe
_chemical_formula_sum   'Pr2 Th2 Zn10 Si1 Ge1'
_cell_volume   320.44505041
_cell_formula_units_Z   1
loop_
 _symmetry_equiv_pos_site_id
 _symmetry_equiv_pos_as_xyz
  1  'x, y, z'
loop_
 _atom_site_type_symbol
 _atom_site_label
 _atom_site_symmetry_multiplicity
 _atom_site_fract_x
 _atom_site_fract_y
 _atom_site_fract_z
 _atom_site_occupancy
  Pr  Pr0  1  0.000040  0.999960  0.497256  1
  Pr  Pr1  1  0.000040  0.999960  0.002744  1
  Th  Th2  1  0.202015  0.797985  0.250000  1
  Th  Th3  1  0.797208  0.202792  0.750000  1
  Zn  Zn4  1  0.814345  0.185655  0.392442  1
  Zn  Zn5  1  0.185368  0.814632  0.606946  1
  Zn  Zn6  1  0.814345  0.185655  0.107558  1
  Zn  Zn7  1  0.185368  0.814632  0.893054  1
  Zn  Zn8  1  0.650903  0.349097  0.477866  1
  Zn  Zn9  1  0.347298  0.652702  0.519090  1
  Zn  Zn10  1  0.650903  0.349097  0.022134  1
  Zn  Zn11  1  0.347298  0.652702  0.980910  1
  Zn  Zn12  1  0.406194  0.593806  0.250000  1
  Zn  Zn13  1  0.597341  0.402659  0.750000  1
  Si  Si14  1  0.559276  0.440724  0.250000  1
  Ge  Ge15  1  0.442054  0.557946  0.750000  1
