# generated using pymatgen
data_V3Ni2PN
_symmetry_space_group_name_H-M   'P 1'
_cell_length_a   7.53636118
_cell_length_b   7.53636125
_cell_length_c   7.53636100
_cell_angle_alpha   59.99999671
_cell_angle_beta   59.99999641
_cell_angle_gamma   59.99999791
_symmetry_Int_Tables_number   1
_chemical_formula_structural   V3Ni2PN
_chemical_formula_sum   'V12 Ni8 P4 N4'
_cell_volume   302.67048881
_cell_formula_units_Z   4
loop_
 _symmetry_equiv_pos_site_id
 _symmetry_equiv_pos_as_xyz
  1  'x, y, z'
loop_
 _atom_site_type_symbol
 _atom_site_label
 _atom_site_symmetry_multiplicity
 _atom_site_fract_x
 _atom_site_fract_y
 _atom_site_fract_z
 _atom_site_occupancy
  V  V0  1  0.814827  0.814827  0.185173  1
  V  V1  1  0.185173  0.185173  0.814827  1
  V  V2  1  0.814827  0.185173  0.814827  1
  V  V3  1  0.185173  0.814827  0.185173  1
  V  V4  1  0.185173  0.814827  0.814827  1
  V  V5  1  0.814827  0.185173  0.185173  1
  V  V6  1  0.435173  0.435173  0.064827  1
  V  V7  1  0.064827  0.064827  0.435173  1
  V  V8  1  0.435173  0.064827  0.435173  1
  V  V9  1  0.064827  0.435173  0.064827  1
  V  V10  1  0.064827  0.435173  0.435173  1
  V  V11  1  0.435173  0.064827  0.064827  1
  Ni  Ni12  1  0.747748  0.417417  0.417417  1
  Ni  Ni13  1  0.417417  0.747748  0.417417  1
  Ni  Ni14  1  0.417417  0.417417  0.747748  1
  Ni  Ni15  1  0.417417  0.417417  0.417417  1
  Ni  Ni16  1  0.502252  0.832583  0.832583  1
  Ni  Ni17  1  0.832583  0.502252  0.832583  1
  Ni  Ni18  1  0.832583  0.832583  0.502252  1
  Ni  Ni19  1  0.832583  0.832583  0.832583  1
  P  P20  1  0.125000  0.625000  0.625000  1
  P  P21  1  0.625000  0.125000  0.625000  1
  P  P22  1  0.625000  0.625000  0.125000  1
  P  P23  1  0.625000  0.625000  0.625000  1
  N  N24  1  0.625000  0.125000  0.125000  1
  N  N25  1  0.125000  0.625000  0.125000  1
  N  N26  1  0.125000  0.125000  0.625000  1
  N  N27  1  0.125000  0.125000  0.125000  1
