# generated using pymatgen
data_Rb2TbPuO6
_symmetry_space_group_name_H-M   'P 1'
_cell_length_a   6.07487598
_cell_length_b   6.07488318
_cell_length_c   6.07486300
_cell_angle_alpha   60.00002823
_cell_angle_beta   60.00015236
_cell_angle_gamma   59.99982648
_symmetry_Int_Tables_number   1
_chemical_formula_structural   Rb2TbPuO6
_chemical_formula_sum   'Rb2 Tb1 Pu1 O6'
_cell_volume   158.52467113
_cell_formula_units_Z   1
loop_
 _symmetry_equiv_pos_site_id
 _symmetry_equiv_pos_as_xyz
  1  'x, y, z'
loop_
 _atom_site_type_symbol
 _atom_site_label
 _atom_site_symmetry_multiplicity
 _atom_site_fract_x
 _atom_site_fract_y
 _atom_site_fract_z
 _atom_site_occupancy
  Rb  Rb0  1  0.750000  0.750000  0.750000  1
  Rb  Rb1  1  0.250000  0.250000  0.250000  1
  Tb  Tb2  1  0.000000  0.000000  0.000000  1
  Pu  Pu3  1  0.500000  0.500000  0.500000  1
  O  O4  1  0.734897  0.265103  0.265103  1
  O  O5  1  0.265102  0.265102  0.734898  1
  O  O6  1  0.265103  0.734897  0.734897  1
  O  O7  1  0.265104  0.734897  0.265104  1
  O  O8  1  0.734896  0.265103  0.734896  1
  O  O9  1  0.734898  0.734898  0.265102  1
