# generated using pymatgen
data_Mn7FePbO16
_symmetry_space_group_name_H-M   'P 1'
_cell_length_a   5.93877118
_cell_length_b   7.17444691
_cell_length_c   7.23176850
_cell_angle_alpha   88.43076706
_cell_angle_beta   78.08328958
_cell_angle_gamma   77.88113733
_symmetry_Int_Tables_number   1
_chemical_formula_structural   Mn7FePbO16
_chemical_formula_sum   'Mn7 Fe1 Pb1 O16'
_cell_volume   294.72641465
_cell_formula_units_Z   1
loop_
 _symmetry_equiv_pos_site_id
 _symmetry_equiv_pos_as_xyz
  1  'x, y, z'
loop_
 _atom_site_type_symbol
 _atom_site_label
 _atom_site_symmetry_multiplicity
 _atom_site_fract_x
 _atom_site_fract_y
 _atom_site_fract_z
 _atom_site_occupancy
  Mn  Mn0  1  0.081956  0.504983  0.180009  1
  Mn  Mn1  1  0.168860  0.819048  0.516356  1
  Mn  Mn2  1  0.668282  0.821411  0.520909  1
  Mn  Mn3  1  0.337521  0.184366  0.472303  1
  Mn  Mn4  1  0.838002  0.184258  0.486206  1
  Mn  Mn5  1  0.432049  0.488089  0.813723  1
  Mn  Mn6  1  0.927576  0.490435  0.814348  1
  Fe  Fe7  1  0.578561  0.518699  0.186130  1
  Pb  Pb8  1  0.010172  0.952988  0.045679  1
  O  O9  1  0.845839  0.650327  0.050123  1
  O  O10  1  0.310488  0.650548  0.051614  1
  O  O11  1  0.980786  0.704497  0.378871  1
  O  O12  1  0.481826  0.709246  0.388578  1
  O  O13  1  0.855718  0.955609  0.645370  1
  O  O14  1  0.350587  0.960140  0.637753  1
  O  O15  1  0.336333  0.370800  0.283459  1
  O  O16  1  0.846866  0.364533  0.284095  1
  O  O17  1  0.169544  0.631826  0.711825  1
  O  O18  1  0.665952  0.635972  0.717055  1
  O  O19  1  0.139611  0.034055  0.348488  1
  O  O20  1  0.670396  0.038895  0.353580  1
  O  O21  1  0.020794  0.300428  0.617052  1
  O  O22  1  0.530944  0.305243  0.613406  1
  O  O23  1  0.177099  0.357546  0.944178  1
  O  O24  1  0.681338  0.366059  0.938887  1
