# generated using pymatgen
data_Tm12MnIn2FeTc
_symmetry_space_group_name_H-M   'P 1'
_cell_length_a   8.27408613
_cell_length_b   8.27408682
_cell_length_c   8.27408791
_cell_angle_alpha   108.73583315
_cell_angle_beta   108.73584833
_cell_angle_gamma   110.95221551
_symmetry_Int_Tables_number   1
_chemical_formula_structural   Tm12MnIn2FeTc
_chemical_formula_sum   'Tm12 Mn1 In2 Fe1 Tc1'
_cell_volume   435.83288871
_cell_formula_units_Z   1
loop_
 _symmetry_equiv_pos_site_id
 _symmetry_equiv_pos_as_xyz
  1  'x, y, z'
loop_
 _atom_site_type_symbol
 _atom_site_label
 _atom_site_symmetry_multiplicity
 _atom_site_fract_x
 _atom_site_fract_y
 _atom_site_fract_z
 _atom_site_occupancy
  Tm  Tm0  1  0.192442  0.430882  0.238440  1
  Tm  Tm1  1  0.807462  0.569811  0.762349  1
  Tm  Tm2  1  0.192442  0.954002  0.761560  1
  Tm  Tm3  1  0.954002  0.192442  0.761560  1
  Tm  Tm4  1  0.807462  0.045112  0.237651  1
  Tm  Tm5  1  0.045112  0.807462  0.237651  1
  Tm  Tm6  1  0.430882  0.192442  0.238440  1
  Tm  Tm7  1  0.569811  0.807462  0.762349  1
  Tm  Tm8  1  0.306533  0.306533  0.614894  1
  Tm  Tm9  1  0.691640  0.691640  0.385106  1
  Tm  Tm10  1  0.691640  0.306533  0.000000  1
  Tm  Tm11  1  0.306533  0.691640  0.000000  1
  Mn  Mn12  1  0.387256  0.387256  0.000000  1
  In  In13  1  0.999484  0.499484  0.500000  1
  In  In14  1  0.499484  0.999484  0.500000  1
  Fe  Fe15  1  0.618200  0.618200  0.000000  1
  Tc  Tc16  1  0.999617  0.999617  0.000000  1
