# generated using pymatgen
data_LuTiNb5Sn6
_symmetry_space_group_name_H-M   'P 1'
_cell_length_a   5.78006163
_cell_length_b   5.76085458
_cell_length_c   9.68553700
_cell_angle_alpha   90.00000000
_cell_angle_beta   90.00000000
_cell_angle_gamma   119.89014611
_symmetry_Int_Tables_number   1
_chemical_formula_structural   LuTiNb5Sn6
_chemical_formula_sum   'Lu1 Ti1 Nb5 Sn6'
_cell_volume   279.61045144
_cell_formula_units_Z   1
loop_
 _symmetry_equiv_pos_site_id
 _symmetry_equiv_pos_as_xyz
  1  'x, y, z'
loop_
 _atom_site_type_symbol
 _atom_site_label
 _atom_site_symmetry_multiplicity
 _atom_site_fract_x
 _atom_site_fract_y
 _atom_site_fract_z
 _atom_site_occupancy
  Lu  Lu0  1  0.000000  0.000000  0.001390  1
  Ti  Ti1  1  0.000000  0.500000  0.751249  1
  Nb  Nb2  1  0.500000  0.500000  0.750724  1
  Nb  Nb3  1  0.500000  0.000000  0.750724  1
  Nb  Nb4  1  0.500000  0.500000  0.248199  1
  Nb  Nb5  1  0.500000  0.000000  0.248199  1
  Nb  Nb6  1  0.000000  0.500000  0.249878  1
  Sn  Sn7  1  0.668838  0.334419  0.998568  1
  Sn  Sn8  1  0.331162  0.665581  0.998568  1
  Sn  Sn9  1  0.669186  0.334592  0.500364  1
  Sn  Sn10  1  0.330814  0.665408  0.500364  1
  Sn  Sn11  1  0.000000  0.000000  0.684292  1
  Sn  Sn12  1  0.000000  0.000000  0.317481  1
