# generated using pymatgen
data_Zr4Ta6AlSi7
_symmetry_space_group_name_H-M   'P 1'
_cell_length_a   6.91990930
_cell_length_b   6.87910832
_cell_length_c   12.79039900
_cell_angle_alpha   90.00000000
_cell_angle_beta   90.00000000
_cell_angle_gamma   90.03432363
_symmetry_Int_Tables_number   1
_chemical_formula_structural   Zr4Ta6AlSi7
_chemical_formula_sum   'Zr8 Ta12 Al2 Si14'
_cell_volume   608.85876832
_cell_formula_units_Z   2
loop_
 _symmetry_equiv_pos_site_id
 _symmetry_equiv_pos_as_xyz
  1  'x, y, z'
loop_
 _atom_site_type_symbol
 _atom_site_label
 _atom_site_symmetry_multiplicity
 _atom_site_fract_x
 _atom_site_fract_y
 _atom_site_fract_z
 _atom_site_occupancy
  Zr  Zr0  1  0.001779  0.663533  0.031628  1
  Zr  Zr1  1  0.998221  0.336467  0.531628  1
  Zr  Zr2  1  0.656530  0.999836  0.969844  1
  Zr  Zr3  1  0.162385  0.500565  0.779489  1
  Zr  Zr4  1  0.837615  0.499435  0.279489  1
  Zr  Zr5  1  0.499369  0.159016  0.219457  1
  Zr  Zr6  1  0.500631  0.840984  0.719457  1
  Zr  Zr7  1  0.343470  0.000164  0.469844  1
  Ta  Ta8  1  0.351868  0.502263  0.375281  1
  Ta  Ta9  1  0.843193  0.999830  0.372057  1
  Ta  Ta10  1  0.006172  0.152200  0.128692  1
  Ta  Ta11  1  0.993828  0.847800  0.628692  1
  Ta  Ta12  1  0.648132  0.497737  0.875281  1
  Ta  Ta13  1  0.505282  0.347989  0.624147  1
  Ta  Ta14  1  0.494718  0.652011  0.124147  1
  Ta  Ta15  1  0.156807  0.000170  0.872057  1
  Ta  Ta16  1  0.665400  0.669529  0.501312  1
  Ta  Ta17  1  0.828399  0.167746  0.747839  1
  Ta  Ta18  1  0.171601  0.832254  0.247839  1
  Ta  Ta19  1  0.334600  0.330471  0.001312  1
  Al  Al20  1  0.043334  0.700281  0.435690  1
  Al  Al21  1  0.956666  0.299719  0.935690  1
  Si  Si22  1  0.701688  0.043250  0.562681  1
  Si  Si23  1  0.200741  0.456634  0.186934  1
  Si  Si24  1  0.799259  0.543366  0.686934  1
  Si  Si25  1  0.456235  0.201581  0.813724  1
  Si  Si26  1  0.543765  0.798419  0.313724  1
  Si  Si27  1  0.298312  0.956750  0.062681  1
  Si  Si28  1  0.864809  0.791963  0.823553  1
  Si  Si29  1  0.135191  0.208037  0.323553  1
  Si  Si30  1  0.791684  0.864518  0.177803  1
  Si  Si31  1  0.290932  0.635431  0.572117  1
  Si  Si32  1  0.709068  0.364569  0.072117  1
  Si  Si33  1  0.636546  0.293296  0.427750  1
  Si  Si34  1  0.363454  0.706704  0.927750  1
  Si  Si35  1  0.208316  0.135482  0.677803  1
