# generated using pymatgen
data_Y4MnV2FeB16
_symmetry_space_group_name_H-M   'P 1'
_cell_length_a   3.42956300
_cell_length_b   5.94562907
_cell_length_c   11.49987265
_cell_angle_alpha   90.04792231
_cell_angle_beta   90.00000000
_cell_angle_gamma   90.00000000
_symmetry_Int_Tables_number   1
_chemical_formula_structural   Y4MnV2FeB16
_chemical_formula_sum   'Y4 Mn1 V2 Fe1 B16'
_cell_volume   234.49278030
_cell_formula_units_Z   1
loop_
 _symmetry_equiv_pos_site_id
 _symmetry_equiv_pos_as_xyz
  1  'x, y, z'
loop_
 _atom_site_type_symbol
 _atom_site_label
 _atom_site_symmetry_multiplicity
 _atom_site_fract_x
 _atom_site_fract_y
 _atom_site_fract_z
 _atom_site_occupancy
  Y  Y0  1  0.500000  0.376808  0.152307  1
  Y  Y1  1  0.500000  0.625192  0.848655  1
  Y  Y2  1  0.500000  0.125048  0.649598  1
  Y  Y3  1  0.500000  0.876546  0.349007  1
  Mn  Mn4  1  0.500000  0.376469  0.417170  1
  V  V5  1  0.500000  0.624120  0.579460  1
  V  V6  1  0.500000  0.126853  0.919554  1
  Fe  Fe7  1  0.500000  0.874632  0.083933  1
  B  B8  1  0.000000  0.109779  0.050049  1
  B  B9  1  0.000000  0.883245  0.956235  1
  B  B10  1  0.000000  0.383451  0.543487  1
  B  B11  1  0.000000  0.609906  0.450529  1
  B  B12  1  0.000000  0.138037  0.465465  1
  B  B13  1  0.000000  0.864439  0.530666  1
  B  B14  1  0.000000  0.365017  0.969963  1
  B  B15  1  0.000000  0.638464  0.034076  1
  B  B16  1  0.000000  0.023812  0.191954  1
  B  B17  1  0.000000  0.973332  0.808866  1
  B  B18  1  0.000000  0.473665  0.690932  1
  B  B19  1  0.000000  0.523914  0.308228  1
  B  B20  1  0.000000  0.220122  0.316450  1
  B  B21  1  0.000000  0.783355  0.684825  1
  B  B22  1  0.000000  0.282950  0.814961  1
  B  B23  1  0.000000  0.720846  0.183630  1
