# generated using pymatgen
data_HoLu19Rh12
_symmetry_space_group_name_H-M   'P 1'
_cell_length_a   10.67052406
_cell_length_b   10.67425849
_cell_length_c   6.26960401
_cell_angle_alpha   89.98476870
_cell_angle_beta   90.00369325
_cell_angle_gamma   90.00448347
_symmetry_Int_Tables_number   1
_chemical_formula_structural   HoLu19Rh12
_chemical_formula_sum   'Ho1 Lu19 Rh12'
_cell_volume   714.10744111
_cell_formula_units_Z   1
loop_
 _symmetry_equiv_pos_site_id
 _symmetry_equiv_pos_as_xyz
  1  'x, y, z'
loop_
 _atom_site_type_symbol
 _atom_site_label
 _atom_site_symmetry_multiplicity
 _atom_site_fract_x
 _atom_site_fract_y
 _atom_site_fract_z
 _atom_site_occupancy
  Ho  Ho0  1  0.087891  0.290349  0.123769  1
  Lu  Lu1  1  0.291821  0.087011  0.377500  1
  Lu  Lu2  1  0.291311  0.912366  0.877434  1
  Lu  Lu3  1  0.708635  0.087577  0.877014  1
  Lu  Lu4  1  0.708640  0.912315  0.377267  1
  Lu  Lu5  1  0.587617  0.791336  0.877269  1
  Lu  Lu6  1  0.587608  0.208658  0.377242  1
  Lu  Lu7  1  0.412422  0.791269  0.377151  1
  Lu  Lu8  1  0.412510  0.208644  0.877065  1
  Lu  Lu9  1  0.208860  0.412789  0.622794  1
  Lu  Lu10  1  0.208797  0.588261  0.122782  1
  Lu  Lu11  1  0.790839  0.412653  0.122812  1
  Lu  Lu12  1  0.791105  0.587721  0.622859  1
  Lu  Lu13  1  0.912294  0.708763  0.122889  1
  Lu  Lu14  1  0.911951  0.291485  0.622808  1
  Lu  Lu15  1  0.087730  0.708805  0.622858  1
  Lu  Lu16  1  0.999859  0.999851  0.499988  1
  Lu  Lu17  1  0.999679  0.999298  0.999745  1
  Lu  Lu18  1  0.500036  0.500117  0.999765  1
  Lu  Lu19  1  0.500149  0.500097  0.499993  1
  Rh  Rh20  1  0.845297  0.153158  0.250500  1
  Rh  Rh21  1  0.846301  0.846105  0.750033  1
  Rh  Rh22  1  0.154208  0.152905  0.747565  1
  Rh  Rh23  1  0.153671  0.846280  0.249911  1
  Rh  Rh24  1  0.653723  0.346281  0.750054  1
  Rh  Rh25  1  0.653762  0.653765  0.250003  1
  Rh  Rh26  1  0.347677  0.346464  0.250833  1
  Rh  Rh27  1  0.346393  0.653741  0.750011  1
  Rh  Rh28  1  0.500177  0.999939  0.122106  1
  Rh  Rh29  1  0.500003  0.999897  0.622187  1
  Rh  Rh30  1  0.999551  0.501090  0.876918  1
  Rh  Rh31  1  0.999480  0.501012  0.378876  1
