# generated using pymatgen
data_Nd2Sc2CrFeB12
_symmetry_space_group_name_H-M   'P 1'
_cell_length_a   3.51761200
_cell_length_b   9.05895744
_cell_length_c   11.50393790
_cell_angle_alpha   89.87443263
_cell_angle_beta   90.00000000
_cell_angle_gamma   90.00000000
_symmetry_Int_Tables_number   1
_chemical_formula_structural   Nd2Sc2CrFeB12
_chemical_formula_sum   'Nd4 Sc4 Cr2 Fe2 B24'
_cell_volume   366.58242462
_cell_formula_units_Z   2
loop_
 _symmetry_equiv_pos_site_id
 _symmetry_equiv_pos_as_xyz
  1  'x, y, z'
loop_
 _atom_site_type_symbol
 _atom_site_label
 _atom_site_symmetry_multiplicity
 _atom_site_fract_x
 _atom_site_fract_y
 _atom_site_fract_z
 _atom_site_occupancy
  Nd  Nd0  1  0.000000  0.822983  0.084257  1
  Nd  Nd1  1  0.000000  0.177017  0.915743  1
  Nd  Nd2  1  0.000000  0.321979  0.414706  1
  Nd  Nd3  1  0.000000  0.678021  0.585294  1
  Sc  Sc4  1  0.000000  0.443759  0.130067  1
  Sc  Sc5  1  0.000000  0.556241  0.869933  1
  Sc  Sc6  1  0.000000  0.944340  0.369805  1
  Sc  Sc7  1  0.000000  0.055660  0.630195  1
  Cr  Cr8  1  0.000000  0.642357  0.315881  1
  Cr  Cr9  1  0.000000  0.357643  0.684119  1
  Fe  Fe10  1  0.000000  0.142210  0.183420  1
  Fe  Fe11  1  0.000000  0.857790  0.816580  1
  B  B12  1  0.500000  0.058892  0.072832  1
  B  B13  1  0.500000  0.941108  0.927168  1
  B  B14  1  0.500000  0.556738  0.429007  1
  B  B15  1  0.500000  0.443262  0.570993  1
  B  B16  1  0.500000  0.252773  0.086063  1
  B  B17  1  0.500000  0.747227  0.913937  1
  B  B18  1  0.500000  0.753993  0.414951  1
  B  B19  1  0.500000  0.246007  0.585049  1
  B  B20  1  0.500000  0.292138  0.233904  1
  B  B21  1  0.500000  0.707862  0.766096  1
  B  B22  1  0.500000  0.795022  0.265344  1
  B  B23  1  0.500000  0.204978  0.734656  1
  B  B24  1  0.500000  0.128448  0.314733  1
  B  B25  1  0.500000  0.871552  0.685267  1
  B  B26  1  0.500000  0.628785  0.183577  1
  B  B27  1  0.500000  0.371215  0.816423  1
  B  B28  1  0.500000  0.483610  0.284435  1
  B  B29  1  0.500000  0.516390  0.715565  1
  B  B30  1  0.500000  0.986110  0.214636  1
  B  B31  1  0.500000  0.013890  0.785364  1
  B  B32  1  0.500000  0.094805  0.474403  1
  B  B33  1  0.500000  0.905195  0.525597  1
  B  B34  1  0.500000  0.595293  0.024950  1
  B  B35  1  0.500000  0.404707  0.975050  1
