# generated using pymatgen
data_Pr2Y3BiPb3
_symmetry_space_group_name_H-M   'P 1'
_cell_length_a   8.33030100
_cell_length_b   8.38467900
_cell_length_c   15.83159800
_cell_angle_alpha   90.00000000
_cell_angle_beta   90.00000000
_cell_angle_gamma   90.00000000
_symmetry_Int_Tables_number   1
_chemical_formula_structural   Pr2Y3BiPb3
_chemical_formula_sum   'Pr8 Y12 Bi4 Pb12'
_cell_volume   1105.78804010
_cell_formula_units_Z   4
loop_
 _symmetry_equiv_pos_site_id
 _symmetry_equiv_pos_as_xyz
  1  'x, y, z'
loop_
 _atom_site_type_symbol
 _atom_site_label
 _atom_site_symmetry_multiplicity
 _atom_site_fract_x
 _atom_site_fract_y
 _atom_site_fract_z
 _atom_site_occupancy
  Pr  Pr0  1  0.468910  0.674910  0.599838  1
  Pr  Pr1  1  0.968910  0.825090  0.900162  1
  Pr  Pr2  1  0.531090  0.325090  0.099838  1
  Pr  Pr3  1  0.031090  0.174910  0.400162  1
  Pr  Pr4  1  0.523706  0.323931  0.401197  1
  Pr  Pr5  1  0.023706  0.176069  0.098803  1
  Pr  Pr6  1  0.476294  0.676069  0.901197  1
  Pr  Pr7  1  0.976294  0.823931  0.598803  1
  Y  Y8  1  0.632119  0.156618  0.624076  1
  Y  Y9  1  0.132119  0.343382  0.875924  1
  Y  Y10  1  0.367881  0.843382  0.124076  1
  Y  Y11  1  0.867881  0.656618  0.375924  1
  Y  Y12  1  0.362051  0.841435  0.376872  1
  Y  Y13  1  0.862051  0.658565  0.123128  1
  Y  Y14  1  0.637949  0.158565  0.876872  1
  Y  Y15  1  0.137949  0.341435  0.623128  1
  Y  Y16  1  0.801963  0.497920  0.752035  1
  Y  Y17  1  0.301963  0.002080  0.747965  1
  Y  Y18  1  0.198037  0.502080  0.252035  1
  Y  Y19  1  0.698037  0.997920  0.247965  1
  Bi  Bi20  1  0.707356  0.960293  0.455932  1
  Bi  Bi21  1  0.207356  0.539707  0.044068  1
  Bi  Bi22  1  0.292644  0.039707  0.955932  1
  Bi  Bi23  1  0.792644  0.460293  0.544068  1
  Pb  Pb24  1  0.291599  0.038613  0.543735  1
  Pb  Pb25  1  0.791599  0.461387  0.956265  1
  Pb  Pb26  1  0.708401  0.961387  0.043735  1
  Pb  Pb27  1  0.208401  0.538613  0.456265  1
  Pb  Pb28  1  0.439053  0.370286  0.750748  1
  Pb  Pb29  1  0.939053  0.129714  0.749252  1
  Pb  Pb30  1  0.560947  0.629714  0.250748  1
  Pb  Pb31  1  0.060947  0.870286  0.249252  1
  Pb  Pb32  1  0.662537  0.850424  0.749344  1
  Pb  Pb33  1  0.162537  0.649576  0.750656  1
  Pb  Pb34  1  0.337463  0.149576  0.249344  1
  Pb  Pb35  1  0.837463  0.350424  0.250656  1
