# generated using pymatgen
data_Dy3AgSn3RuRh
_symmetry_space_group_name_H-M   'P 1'
_cell_length_a   7.81043200
_cell_length_b   7.81043278
_cell_length_c   3.73233500
_cell_angle_alpha   90.00000000
_cell_angle_beta   90.00000000
_cell_angle_gamma   119.99998824
_symmetry_Int_Tables_number   1
_chemical_formula_structural   Dy3AgSn3RuRh
_chemical_formula_sum   'Dy3 Ag1 Sn3 Ru1 Rh1'
_cell_volume   197.17936107
_cell_formula_units_Z   1
loop_
 _symmetry_equiv_pos_site_id
 _symmetry_equiv_pos_as_xyz
  1  'x, y, z'
loop_
 _atom_site_type_symbol
 _atom_site_label
 _atom_site_symmetry_multiplicity
 _atom_site_fract_x
 _atom_site_fract_y
 _atom_site_fract_z
 _atom_site_occupancy
  Dy  Dy0  1  0.386405  0.408203  0.500000  1
  Dy  Dy1  1  0.591797  0.978202  0.500000  1
  Dy  Dy2  1  0.021798  0.613595  0.500000  1
  Ag  Ag3  1  0.666667  0.333333  0.000000  1
  Sn  Sn4  1  0.739680  0.735882  0.000000  1
  Sn  Sn5  1  0.264118  0.003799  0.000000  1
  Sn  Sn6  1  0.996201  0.260320  0.000000  1
  Ru  Ru7  1  0.000000  0.000000  0.500000  1
  Rh  Rh8  1  0.333333  0.666667  0.000000  1
