# generated using pymatgen
data_La2SiSe5
_symmetry_space_group_name_H-M   'P 1'
_cell_length_a   13.30774700
_cell_length_b   8.02535643
_cell_length_c   8.29606382
_cell_angle_alpha   78.64542476
_cell_angle_beta   90.00000000
_cell_angle_gamma   90.00000000
_symmetry_Int_Tables_number   1
_chemical_formula_structural   La2SiSe5
_chemical_formula_sum   'La8 Si4 Se20'
_cell_volume   868.67328525
_cell_formula_units_Z   4
loop_
 _symmetry_equiv_pos_site_id
 _symmetry_equiv_pos_as_xyz
  1  'x, y, z'
loop_
 _atom_site_type_symbol
 _atom_site_label
 _atom_site_symmetry_multiplicity
 _atom_site_fract_x
 _atom_site_fract_y
 _atom_site_fract_z
 _atom_site_occupancy
  La  La0  1  0.836237  0.840599  0.630263  1
  La  La1  1  0.163763  0.159401  0.369737  1
  La  La2  1  0.336237  0.159401  0.869737  1
  La  La3  1  0.663763  0.840599  0.130263  1
  La  La4  1  0.404595  0.761213  0.541285  1
  La  La5  1  0.595405  0.238787  0.458715  1
  La  La6  1  0.904595  0.238787  0.958715  1
  La  La7  1  0.095405  0.761213  0.041285  1
  Si  Si8  1  0.116706  0.665662  0.593267  1
  Si  Si9  1  0.883294  0.334338  0.406733  1
  Si  Si10  1  0.616706  0.334338  0.906733  1
  Si  Si11  1  0.383294  0.665662  0.093267  1
  Se  Se12  1  0.473057  0.828020  0.882469  1
  Se  Se13  1  0.526943  0.171980  0.117531  1
  Se  Se14  1  0.973057  0.171980  0.617531  1
  Se  Se15  1  0.026943  0.828020  0.382469  1
  Se  Se16  1  0.204680  0.873060  0.694095  1
  Se  Se17  1  0.795320  0.126940  0.305905  1
  Se  Se18  1  0.704680  0.126940  0.805905  1
  Se  Se19  1  0.295320  0.873060  0.194095  1
  Se  Se20  1  0.231016  0.468256  0.547773  1
  Se  Se21  1  0.768984  0.531744  0.452227  1
  Se  Se22  1  0.731016  0.531744  0.952227  1
  Se  Se23  1  0.268984  0.468256  0.047773  1
  Se  Se24  1  0.878876  0.861515  0.998414  1
  Se  Se25  1  0.121124  0.138485  0.001586  1
  Se  Se26  1  0.378876  0.138485  0.501586  1
  Se  Se27  1  0.621124  0.861515  0.498414  1
  Se  Se28  1  0.494678  0.420423  0.716545  1
  Se  Se29  1  0.505322  0.579577  0.283455  1
  Se  Se30  1  0.994678  0.579577  0.783455  1
  Se  Se31  1  0.005322  0.420423  0.216545  1
