# generated using pymatgen
data_CaEu2(HgPd)3
_symmetry_space_group_name_H-M   'P 1'
_cell_length_a   7.75240378
_cell_length_b   7.77053514
_cell_length_c   4.12735200
_cell_angle_alpha   90.00000000
_cell_angle_beta   90.00000000
_cell_angle_gamma   120.07739045
_symmetry_Int_Tables_number   1
_chemical_formula_structural   CaEu2(HgPd)3
_chemical_formula_sum   'Ca1 Eu2 Hg3 Pd3'
_cell_volume   215.15440700
_cell_formula_units_Z   1
loop_
 _symmetry_equiv_pos_site_id
 _symmetry_equiv_pos_as_xyz
  1  'x, y, z'
loop_
 _atom_site_type_symbol
 _atom_site_label
 _atom_site_symmetry_multiplicity
 _atom_site_fract_x
 _atom_site_fract_y
 _atom_site_fract_z
 _atom_site_occupancy
  Ca  Ca0  1  0.000000  0.599227  0.500000  1
  Eu  Eu1  1  0.400963  0.400442  0.500000  1
  Eu  Eu2  1  0.599037  0.999479  0.500000  1
  Hg  Hg3  1  0.744820  0.739400  0.000000  1
  Hg  Hg4  1  0.255180  0.994579  0.000000  1
  Hg  Hg5  1  0.000000  0.264874  0.000000  1
  Pd  Pd6  1  0.664881  0.332408  0.000000  1
  Pd  Pd7  1  0.335119  0.667529  0.000000  1
  Pd  Pd8  1  0.000000  0.002059  0.500000  1
