# generated using pymatgen
data_Ho6NiBr10
_symmetry_space_group_name_H-M   'P 1'
_cell_length_a   7.28304510
_cell_length_b   9.09987388
_cell_length_c   9.14652701
_cell_angle_alpha   107.97265455
_cell_angle_beta   97.08849018
_cell_angle_gamma   105.36162928
_symmetry_Int_Tables_number   1
_chemical_formula_structural   Ho6NiBr10
_chemical_formula_sum   'Ho6 Ni1 Br10'
_cell_volume   541.91952068
_cell_formula_units_Z   1
loop_
 _symmetry_equiv_pos_site_id
 _symmetry_equiv_pos_as_xyz
  1  'x, y, z'
loop_
 _atom_site_type_symbol
 _atom_site_label
 _atom_site_symmetry_multiplicity
 _atom_site_fract_x
 _atom_site_fract_y
 _atom_site_fract_z
 _atom_site_occupancy
  Ho  Ho0  1  0.854015  0.131594  0.674898  1
  Ho  Ho1  1  0.527424  0.706481  0.408052  1
  Ho  Ho2  1  0.472576  0.293519  0.591948  1
  Ho  Ho3  1  0.145985  0.868406  0.325102  1
  Ho  Ho4  1  0.620633  0.043745  0.257450  1
  Ho  Ho5  1  0.379367  0.956255  0.742550  1
  Ni  Ni6  1  0.500000  0.000000  0.500000  1
  Br  Br7  1  0.414071  0.628772  0.673690  1
  Br  Br8  1  0.754747  0.083689  0.960302  1
  Br  Br9  1  0.245253  0.916311  0.039698  1
  Br  Br10  1  0.953010  0.821561  0.586589  1
  Br  Br11  1  0.284563  0.258333  0.846793  1
  Br  Br12  1  0.715437  0.741667  0.153207  1
  Br  Br13  1  0.046990  0.178439  0.413411  1
  Br  Br14  1  0.585929  0.371228  0.326310  1
  Br  Br15  1  0.857265  0.455195  0.772402  1
  Br  Br16  1  0.142735  0.544805  0.227598  1
