# generated using pymatgen
data_TbLu9(Bi3S)2
_symmetry_space_group_name_H-M   'P 1'
_cell_length_a   9.03692270
_cell_length_b   9.03076533
_cell_length_c   6.47092900
_cell_angle_alpha   90.00000000
_cell_angle_beta   90.00000000
_cell_angle_gamma   119.97746942
_symmetry_Int_Tables_number   1
_chemical_formula_structural   TbLu9(Bi3S)2
_chemical_formula_sum   'Tb1 Lu9 Bi6 S2'
_cell_volume   457.44717014
_cell_formula_units_Z   1
loop_
 _symmetry_equiv_pos_site_id
 _symmetry_equiv_pos_as_xyz
  1  'x, y, z'
loop_
 _atom_site_type_symbol
 _atom_site_label
 _atom_site_symmetry_multiplicity
 _atom_site_fract_x
 _atom_site_fract_y
 _atom_site_fract_z
 _atom_site_occupancy
  Tb  Tb0  1  0.000000  0.749650  0.750000  1
  Lu  Lu1  1  0.666453  0.333281  0.499910  1
  Lu  Lu2  1  0.333547  0.666829  0.499910  1
  Lu  Lu3  1  0.333547  0.666829  0.000090  1
  Lu  Lu4  1  0.666453  0.333281  0.000090  1
  Lu  Lu5  1  0.751906  0.752780  0.250000  1
  Lu  Lu6  1  0.248094  0.000874  0.250000  1
  Lu  Lu7  1  0.000000  0.248220  0.250000  1
  Lu  Lu8  1  0.247183  0.246141  0.750000  1
  Lu  Lu9  1  0.752817  0.998958  0.750000  1
  Bi  Bi10  1  0.395241  0.395496  0.250000  1
  Bi  Bi11  1  0.604759  0.000254  0.250000  1
  Bi  Bi12  1  0.000000  0.603953  0.250000  1
  Bi  Bi13  1  0.601899  0.603743  0.750000  1
  Bi  Bi14  1  0.398101  0.001844  0.750000  1
  Bi  Bi15  1  0.000000  0.392822  0.750000  1
  S  S16  1  0.000000  0.002523  0.498013  1
  S  S17  1  0.000000  0.002523  0.001987  1
