# generated using pymatgen
data_Hf2Nb4Co16Si7
_symmetry_space_group_name_H-M   'P 1'
_cell_length_a   7.94866072
_cell_length_b   7.94866120
_cell_length_c   7.93423700
_cell_angle_alpha   60.06001482
_cell_angle_beta   60.06001285
_cell_angle_gamma   59.92563294
_symmetry_Int_Tables_number   1
_chemical_formula_structural   Hf2Nb4Co16Si7
_chemical_formula_sum   'Hf2 Nb4 Co16 Si7'
_cell_volume   354.58989308
_cell_formula_units_Z   1
loop_
 _symmetry_equiv_pos_site_id
 _symmetry_equiv_pos_as_xyz
  1  'x, y, z'
loop_
 _atom_site_type_symbol
 _atom_site_label
 _atom_site_symmetry_multiplicity
 _atom_site_fract_x
 _atom_site_fract_y
 _atom_site_fract_z
 _atom_site_occupancy
  Hf  Hf0  1  0.203786  0.796214  0.204726  1
  Hf  Hf1  1  0.203786  0.796214  0.795274  1
  Nb  Nb2  1  0.796651  0.203349  0.202462  1
  Nb  Nb3  1  0.793831  0.795742  0.205213  1
  Nb  Nb4  1  0.204258  0.206169  0.794787  1
  Nb  Nb5  1  0.796651  0.203349  0.797538  1
  Co  Co6  1  0.167561  0.167883  0.167292  1
  Co  Co7  1  0.503854  0.832479  0.831834  1
  Co  Co8  1  0.833086  0.500966  0.832975  1
  Co  Co9  1  0.832117  0.832439  0.502736  1
  Co  Co10  1  0.167521  0.496146  0.168166  1
  Co  Co11  1  0.167561  0.167883  0.497264  1
  Co  Co12  1  0.499034  0.166914  0.167025  1
  Co  Co13  1  0.832117  0.832439  0.832708  1
  Co  Co14  1  0.382866  0.377970  0.382011  1
  Co  Co15  1  0.140037  0.617003  0.621480  1
  Co  Co16  1  0.618567  0.145564  0.617935  1
  Co  Co17  1  0.622030  0.617134  0.142847  1
  Co  Co18  1  0.382997  0.859963  0.378520  1
  Co  Co19  1  0.382866  0.377970  0.857153  1
  Co  Co20  1  0.854436  0.381433  0.382065  1
  Co  Co21  1  0.622030  0.617134  0.617989  1
  Si  Si22  1  0.496804  0.503196  0.500000  1
  Si  Si23  1  0.998530  0.499367  0.001955  1
  Si  Si24  1  0.500633  0.001470  0.998045  1
  Si  Si25  1  0.998530  0.499367  0.500147  1
  Si  Si26  1  0.500633  0.001470  0.499853  1
  Si  Si27  1  0.996339  0.003661  0.500000  1
  Si  Si28  1  0.500889  0.499111  0.000000  1
