# generated using pymatgen
data_Hf18Ta2MnRe6Ge
_symmetry_space_group_name_H-M   'P 1'
_cell_length_a   8.64971100
_cell_length_b   8.64971085
_cell_length_c   8.57808500
_cell_angle_alpha   90.00000000
_cell_angle_beta   90.00000000
_cell_angle_gamma   120.00000440
_symmetry_Int_Tables_number   1
_chemical_formula_structural   Hf18Ta2MnRe6Ge
_chemical_formula_sum   'Hf18 Ta2 Mn1 Re6 Ge1'
_cell_volume   555.80716984
_cell_formula_units_Z   1
loop_
 _symmetry_equiv_pos_site_id
 _symmetry_equiv_pos_as_xyz
  1  'x, y, z'
loop_
 _atom_site_type_symbol
 _atom_site_label
 _atom_site_symmetry_multiplicity
 _atom_site_fract_x
 _atom_site_fract_y
 _atom_site_fract_z
 _atom_site_occupancy
  Hf  Hf0  1  0.202976  0.797024  0.442824  1
  Hf  Hf1  1  0.202976  0.405951  0.442824  1
  Hf  Hf2  1  0.594049  0.797024  0.442824  1
  Hf  Hf3  1  0.804765  0.195235  0.545992  1
  Hf  Hf4  1  0.804765  0.609530  0.545992  1
  Hf  Hf5  1  0.390470  0.195235  0.545992  1
  Hf  Hf6  1  0.804765  0.195235  0.954008  1
  Hf  Hf7  1  0.804765  0.609530  0.954008  1
  Hf  Hf8  1  0.390470  0.195235  0.954008  1
  Hf  Hf9  1  0.202976  0.797024  0.057176  1
  Hf  Hf10  1  0.202976  0.405951  0.057176  1
  Hf  Hf11  1  0.594049  0.797024  0.057176  1
  Hf  Hf12  1  0.538785  0.461215  0.250000  1
  Hf  Hf13  1  0.538785  0.077568  0.250000  1
  Hf  Hf14  1  0.922432  0.461215  0.250000  1
  Hf  Hf15  1  0.460305  0.539695  0.750000  1
  Hf  Hf16  1  0.460305  0.920610  0.750000  1
  Hf  Hf17  1  0.079390  0.539695  0.750000  1
  Ta  Ta18  1  0.000000  0.000000  0.500225  1
  Ta  Ta19  1  0.000000  0.000000  0.999775  1
  Mn  Mn20  1  0.333333  0.666667  0.250000  1
  Re  Re21  1  0.886571  0.113429  0.250000  1
  Re  Re22  1  0.886571  0.773143  0.250000  1
  Re  Re23  1  0.226857  0.113429  0.250000  1
  Re  Re24  1  0.113075  0.886925  0.750000  1
  Re  Re25  1  0.113075  0.226148  0.750000  1
  Re  Re26  1  0.773852  0.886925  0.750000  1
  Ge  Ge27  1  0.666667  0.333333  0.750000  1
