# generated using pymatgen
data_Er8Ga12Ir2PtAu
_symmetry_space_group_name_H-M   'P 1'
_cell_length_a   7.04015400
_cell_length_b   8.84567126
_cell_length_c   8.84568300
_cell_angle_alpha   120.00022058
_cell_angle_beta   90.00012988
_cell_angle_gamma   90.00003621
_symmetry_Int_Tables_number   1
_chemical_formula_structural   Er8Ga12Ir2PtAu
_chemical_formula_sum   'Er8 Ga12 Ir2 Pt1 Au1'
_cell_volume   477.06108616
_cell_formula_units_Z   1
loop_
 _symmetry_equiv_pos_site_id
 _symmetry_equiv_pos_as_xyz
  1  'x, y, z'
loop_
 _atom_site_type_symbol
 _atom_site_label
 _atom_site_symmetry_multiplicity
 _atom_site_fract_x
 _atom_site_fract_y
 _atom_site_fract_z
 _atom_site_occupancy
  Er  Er0  1  0.754758  0.999999  0.000001  1
  Er  Er1  1  0.250773  0.999998  0.999999  1
  Er  Er2  1  0.750463  0.472444  0.527552  1
  Er  Er3  1  0.246071  0.513939  0.486063  1
  Er  Er4  1  0.750462  0.055109  0.527554  1
  Er  Er5  1  0.246069  0.972127  0.486066  1
  Er  Er6  1  0.750464  0.472446  0.944891  1
  Er  Er7  1  0.246069  0.513938  0.027873  1
  Ga  Ga8  1  0.951156  0.831952  0.168050  1
  Ga  Ga9  1  0.044783  0.167228  0.832771  1
  Ga  Ga10  1  0.951159  0.336096  0.168050  1
  Ga  Ga11  1  0.452887  0.168082  0.831922  1
  Ga  Ga12  1  0.044782  0.665537  0.832765  1
  Ga  Ga13  1  0.547146  0.836092  0.163908  1
  Ga  Ga14  1  0.951148  0.831950  0.663901  1
  Ga  Ga15  1  0.452893  0.663841  0.831919  1
  Ga  Ga16  1  0.044791  0.167231  0.334461  1
  Ga  Ga17  1  0.547141  0.327814  0.163906  1
  Ga  Ga18  1  0.452889  0.168080  0.336160  1
  Ga  Ga19  1  0.547142  0.836093  0.672185  1
  Ir  Ir20  1  0.030578  0.333333  0.666669  1
  Ir  Ir21  1  0.469545  0.333335  0.666666  1
  Pt  Pt22  1  0.979428  0.666666  0.333332  1
  Au  Au23  1  0.537401  0.666668  0.333335  1
