# generated using pymatgen
data_NdHo3Sc2(AlPt2)2
_symmetry_space_group_name_H-M   'P 1'
_cell_length_a   4.44525500
_cell_length_b   7.20841554
_cell_length_c   8.03840780
_cell_angle_alpha   90.45920032
_cell_angle_beta   90.00000000
_cell_angle_gamma   90.00000000
_symmetry_Int_Tables_number   1
_chemical_formula_structural   NdHo3Sc2(AlPt2)2
_chemical_formula_sum   'Nd1 Ho3 Sc2 Al2 Pt4'
_cell_volume   257.56840010
_cell_formula_units_Z   1
loop_
 _symmetry_equiv_pos_site_id
 _symmetry_equiv_pos_as_xyz
  1  'x, y, z'
loop_
 _atom_site_type_symbol
 _atom_site_label
 _atom_site_symmetry_multiplicity
 _atom_site_fract_x
 _atom_site_fract_y
 _atom_site_fract_z
 _atom_site_occupancy
  Nd  Nd0  1  0.250000  0.521254  0.828700  1
  Ho  Ho1  1  0.750000  0.443639  0.180070  1
  Ho  Ho2  1  0.250000  0.051262  0.675344  1
  Ho  Ho3  1  0.750000  0.978533  0.328484  1
  Sc  Sc4  1  0.750000  0.874255  0.936480  1
  Sc  Sc5  1  0.250000  0.627387  0.433436  1
  Al  Al6  1  0.750000  0.357268  0.562122  1
  Al  Al7  1  0.250000  0.140208  0.065327  1
  Pt  Pt8  1  0.750000  0.733028  0.611784  1
  Pt  Pt9  1  0.750000  0.235135  0.878652  1
  Pt  Pt10  1  0.250000  0.259391  0.377904  1
  Pt  Pt11  1  0.250000  0.778641  0.121694  1
