# generated using pymatgen
data_LaPa3(Al8Pt3)3
_symmetry_space_group_name_H-M   'P 1'
_cell_length_a   7.59971805
_cell_length_b   7.59257959
_cell_length_c   13.18631603
_cell_angle_alpha   84.49575007
_cell_angle_beta   101.09166965
_cell_angle_gamma   119.88680803
_symmetry_Int_Tables_number   1
_chemical_formula_structural   LaPa3(Al8Pt3)3
_chemical_formula_sum   'La1 Pa3 Al24 Pt9'
_cell_volume   647.36036425
_cell_formula_units_Z   1
loop_
 _symmetry_equiv_pos_site_id
 _symmetry_equiv_pos_as_xyz
  1  'x, y, z'
loop_
 _atom_site_type_symbol
 _atom_site_label
 _atom_site_symmetry_multiplicity
 _atom_site_fract_x
 _atom_site_fract_y
 _atom_site_fract_z
 _atom_site_occupancy
  La  La0  1  0.231245  0.498967  0.190760  1
  Pa  Pa1  1  0.437657  0.832569  0.804803  1
  Pa  Pa2  1  0.564172  0.167650  0.196848  1
  Pa  Pa3  1  0.765435  0.501479  0.804774  1
  Al  Al4  1  0.483541  0.166372  0.947624  1
  Al  Al5  1  0.518951  0.836497  0.051882  1
  Al  Al6  1  0.021423  0.166932  0.560232  1
  Al  Al7  1  0.979675  0.833548  0.439193  1
  Al  Al8  1  0.351608  0.832776  0.557955  1
  Al  Al9  1  0.648305  0.166803  0.442494  1
  Al  Al10  1  0.619814  0.832699  0.334119  1
  Al  Al11  1  0.379412  0.165529  0.668187  1
  Al  Al12  1  0.055120  0.490253  0.668401  1
  Al  Al13  1  0.946914  0.509557  0.333825  1
  Al  Al14  1  0.732926  0.843831  0.666785  1
  Al  Al15  1  0.268327  0.158475  0.334788  1
  Al  Al16  1  0.147025  0.500825  0.941947  1
  Al  Al17  1  0.848040  0.499453  0.051953  1
  Al  Al18  1  0.816021  0.831930  0.952402  1
  Al  Al19  1  0.182877  0.165398  0.046436  1
  Al  Al20  1  0.314006  0.500040  0.442087  1
  Al  Al21  1  0.686107  0.500313  0.557928  1
  Al  Al22  1  0.102058  0.841985  0.182934  1
  Al  Al23  1  0.899750  0.163342  0.817261  1
  Al  Al24  1  0.307661  0.367025  0.816438  1
  Al  Al25  1  0.697221  0.629740  0.184156  1
  Al  Al26  1  0.104193  0.960029  0.817262  1
  Al  Al27  1  0.889598  0.034994  0.183258  1
  Pt  Pt28  1  0.388807  0.509164  0.640072  1
  Pt  Pt29  1  0.614051  0.491215  0.361861  1
  Pt  Pt30  1  0.169596  0.828680  0.999191  1
  Pt  Pt31  1  0.830811  0.171849  0.999272  1
  Pt  Pt32  1  0.296521  0.835338  0.362000  1
  Pt  Pt33  1  0.704488  0.167260  0.639642  1
  Pt  Pt34  1  0.046585  0.824179  0.639004  1
  Pt  Pt35  1  0.952074  0.173440  0.362556  1
  Pt  Pt36  1  0.497987  0.499866  0.999670  1
