# generated using pymatgen
data_DyY3NiOs7
_symmetry_space_group_name_H-M   'P 1'
_cell_length_a   5.32009248
_cell_length_b   5.32009259
_cell_length_c   8.73644800
_cell_angle_alpha   89.84493773
_cell_angle_beta   90.15506227
_cell_angle_gamma   120.45452604
_symmetry_Int_Tables_number   1
_chemical_formula_structural   DyY3NiOs7
_chemical_formula_sum   'Dy1 Y3 Ni1 Os7'
_cell_volume   213.15444730
_cell_formula_units_Z   1
loop_
 _symmetry_equiv_pos_site_id
 _symmetry_equiv_pos_as_xyz
  1  'x, y, z'
loop_
 _atom_site_type_symbol
 _atom_site_label
 _atom_site_symmetry_multiplicity
 _atom_site_fract_x
 _atom_site_fract_y
 _atom_site_fract_z
 _atom_site_occupancy
  Dy  Dy0  1  0.334266  0.665734  0.065387  1
  Y  Y1  1  0.332813  0.667187  0.432898  1
  Y  Y2  1  0.669505  0.330495  0.562428  1
  Y  Y3  1  0.670543  0.329457  0.938650  1
  Ni  Ni4  1  0.828400  0.171600  0.250111  1
  Os  Os5  1  0.006557  0.993443  0.497691  1
  Os  Os6  1  0.006985  0.993015  0.002799  1
  Os  Os7  1  0.819492  0.661316  0.249978  1
  Os  Os8  1  0.338684  0.180508  0.249978  1
  Os  Os9  1  0.166071  0.833929  0.750176  1
  Os  Os10  1  0.174472  0.347786  0.749953  1
  Os  Os11  1  0.652214  0.825528  0.749953  1
