# generated using pymatgen
data_TmLu2Ni19B10
_symmetry_space_group_name_H-M   'P 1'
_cell_length_a   7.87209253
_cell_length_b   7.87209376
_cell_length_c   5.75043800
_cell_angle_alpha   88.92013775
_cell_angle_beta   88.92014205
_cell_angle_gamma   66.77018237
_symmetry_Int_Tables_number   1
_chemical_formula_structural   TmLu2Ni19B10
_chemical_formula_sum   'Tm1 Lu2 Ni19 B10'
_cell_volume   327.38083447
_cell_formula_units_Z   1
loop_
 _symmetry_equiv_pos_site_id
 _symmetry_equiv_pos_as_xyz
  1  'x, y, z'
loop_
 _atom_site_type_symbol
 _atom_site_label
 _atom_site_symmetry_multiplicity
 _atom_site_fract_x
 _atom_site_fract_y
 _atom_site_fract_z
 _atom_site_occupancy
  Tm  Tm0  1  0.374358  0.374358  0.385364  1
  Lu  Lu1  1  0.626496  0.626496  0.615630  1
  Lu  Lu2  1  0.999956  0.999956  0.000361  1
  Ni  Ni3  1  0.180479  0.180479  0.729142  1
  Ni  Ni4  1  0.483498  0.954004  0.302745  1
  Ni  Ni5  1  0.954004  0.483498  0.302745  1
  Ni  Ni6  1  0.516632  0.045583  0.696910  1
  Ni  Ni7  1  0.045583  0.516632  0.696910  1
  Ni  Ni8  1  0.121636  0.624147  0.074460  1
  Ni  Ni9  1  0.624147  0.121636  0.074460  1
  Ni  Ni10  1  0.877639  0.376475  0.925028  1
  Ni  Ni11  1  0.710531  0.230699  0.699083  1
  Ni  Ni12  1  0.769837  0.289386  0.300728  1
  Ni  Ni13  1  0.289386  0.769837  0.300728  1
  Ni  Ni14  1  0.230699  0.710531  0.699083  1
  Ni  Ni15  1  0.161747  0.161747  0.293265  1
  Ni  Ni16  1  0.838106  0.838106  0.706847  1
  Ni  Ni17  1  0.621848  0.621848  0.128884  1
  Ni  Ni18  1  0.377637  0.377637  0.872567  1
  Ni  Ni19  1  0.999998  0.999998  0.500204  1
  Ni  Ni20  1  0.376475  0.877639  0.925028  1
  Ni  Ni21  1  0.819019  0.819019  0.270913  1
  B  B22  1  0.066341  0.698895  0.430805  1
  B  B23  1  0.302787  0.933142  0.569121  1
  B  B24  1  0.933142  0.302787  0.569121  1
  B  B25  1  0.857215  0.649297  0.974438  1
  B  B26  1  0.649297  0.857215  0.974438  1
  B  B27  1  0.142266  0.350422  0.025461  1
  B  B28  1  0.614980  0.384940  0.999636  1
  B  B29  1  0.384940  0.614980  0.999636  1
  B  B30  1  0.698895  0.066341  0.430805  1
  B  B31  1  0.350422  0.142266  0.025461  1
