# generated using pymatgen
data_Ho6HfCo17P12
_symmetry_space_group_name_H-M   'P 1'
_cell_length_a   3.69338300
_cell_length_b   10.56223700
_cell_length_c   12.24780200
_cell_angle_alpha   90.00000000
_cell_angle_beta   90.00000000
_cell_angle_gamma   90.00000000
_symmetry_Int_Tables_number   1
_chemical_formula_structural   Ho6HfCo17P12
_chemical_formula_sum   'Ho6 Hf1 Co17 P12'
_cell_volume   477.79149075
_cell_formula_units_Z   1
loop_
 _symmetry_equiv_pos_site_id
 _symmetry_equiv_pos_as_xyz
  1  'x, y, z'
loop_
 _atom_site_type_symbol
 _atom_site_label
 _atom_site_symmetry_multiplicity
 _atom_site_fract_x
 _atom_site_fract_y
 _atom_site_fract_z
 _atom_site_occupancy
  Ho  Ho0  1  0.000000  0.500000  0.527812  1
  Ho  Ho1  1  0.500000  0.000000  0.477734  1
  Ho  Ho2  1  0.500000  0.821595  0.207258  1
  Ho  Ho3  1  0.500000  0.178405  0.207258  1
  Ho  Ho4  1  0.000000  0.682481  0.795923  1
  Ho  Ho5  1  0.000000  0.317519  0.795923  1
  Hf  Hf6  1  0.500000  0.500000  0.153583  1
  Co  Co7  1  0.000000  0.500000  0.984190  1
  Co  Co8  1  0.500000  0.000000  0.013732  1
  Co  Co9  1  0.500000  0.294837  0.433522  1
  Co  Co10  1  0.500000  0.705163  0.433522  1
  Co  Co11  1  0.000000  0.202275  0.570143  1
  Co  Co12  1  0.000000  0.797725  0.570143  1
  Co  Co13  1  0.500000  0.879948  0.707975  1
  Co  Co14  1  0.500000  0.120052  0.707975  1
  Co  Co15  1  0.000000  0.622690  0.294978  1
  Co  Co16  1  0.000000  0.377310  0.294978  1
  Co  Co17  1  0.500000  0.327722  0.989326  1
  Co  Co18  1  0.500000  0.672278  0.989326  1
  Co  Co19  1  0.000000  0.162130  0.002514  1
  Co  Co20  1  0.000000  0.837870  0.002514  1
  Co  Co21  1  0.000000  0.000000  0.838241  1
  Co  Co22  1  0.500000  0.500000  0.702296  1
  Co  Co23  1  0.000000  0.000000  0.296906  1
  P  P24  1  0.500000  0.309798  0.617459  1
  P  P25  1  0.500000  0.690202  0.617459  1
  P  P26  1  0.000000  0.188249  0.385856  1
  P  P27  1  0.000000  0.811751  0.385856  1
  P  P28  1  0.500000  0.500000  0.881058  1
  P  P29  1  0.000000  0.000000  0.117168  1
  P  P30  1  0.500000  0.851462  0.889052  1
  P  P31  1  0.500000  0.148538  0.889052  1
  P  P32  1  0.000000  0.664513  0.101761  1
  P  P33  1  0.000000  0.335487  0.101761  1
  P  P34  1  0.500000  0.500000  0.360449  1
  P  P35  1  0.000000  0.000000  0.655296  1
