# generated using pymatgen
data_Ca5Dy(RuO6)2
_symmetry_space_group_name_H-M   'P 1'
_cell_length_a   5.82991923
_cell_length_b   5.56946562
_cell_length_c   9.74881304
_cell_angle_alpha   55.59952111
_cell_angle_beta   89.87946721
_cell_angle_gamma   89.93615027
_symmetry_Int_Tables_number   1
_chemical_formula_structural   Ca5Dy(RuO6)2
_chemical_formula_sum   'Ca5 Dy1 Ru2 O12'
_cell_volume   261.17887688
_cell_formula_units_Z   1
loop_
 _symmetry_equiv_pos_site_id
 _symmetry_equiv_pos_as_xyz
  1  'x, y, z'
loop_
 _atom_site_type_symbol
 _atom_site_label
 _atom_site_symmetry_multiplicity
 _atom_site_fract_x
 _atom_site_fract_y
 _atom_site_fract_z
 _atom_site_occupancy
  Ca  Ca0  1  0.441536  0.230328  0.750881  1
  Ca  Ca1  1  0.558464  0.769672  0.249119  1
  Ca  Ca2  1  0.937615  0.761728  0.756415  1
  Ca  Ca3  1  0.062385  0.238272  0.243585  1
  Ca  Ca4  1  0.500000  0.500000  0.000000  1
  Dy  Dy5  1  0.000000  0.500000  0.500000  1
  Ru  Ru6  1  0.000000  0.000000  0.000000  1
  Ru  Ru7  1  0.500000  0.000000  0.500000  1
  O  O8  1  0.721646  0.896078  0.933966  1
  O  O9  1  0.278354  0.103922  0.066034  1
  O  O10  1  0.217212  0.111692  0.566867  1
  O  O11  1  0.782788  0.888308  0.433133  1
  O  O12  1  0.047550  0.346871  0.767265  1
  O  O13  1  0.952450  0.653129  0.232735  1
  O  O14  1  0.547555  0.660125  0.725413  1
  O  O15  1  0.452445  0.339875  0.274587  1
  O  O16  1  0.179537  0.771678  0.945571  1
  O  O17  1  0.820463  0.228322  0.054429  1
  O  O18  1  0.685709  0.229654  0.556232  1
  O  O19  1  0.314291  0.770346  0.443768  1
