# generated using pymatgen
data_Dy4HfSc2AlPt4
_symmetry_space_group_name_H-M   'P 1'
_cell_length_a   4.57029100
_cell_length_b   7.04736140
_cell_length_c   8.21642636
_cell_angle_alpha   86.26215979
_cell_angle_beta   90.00000000
_cell_angle_gamma   90.00000000
_symmetry_Int_Tables_number   1
_chemical_formula_structural   Dy4HfSc2AlPt4
_chemical_formula_sum   'Dy4 Hf1 Sc2 Al1 Pt4'
_cell_volume   264.07576165
_cell_formula_units_Z   1
loop_
 _symmetry_equiv_pos_site_id
 _symmetry_equiv_pos_as_xyz
  1  'x, y, z'
loop_
 _atom_site_type_symbol
 _atom_site_label
 _atom_site_symmetry_multiplicity
 _atom_site_fract_x
 _atom_site_fract_y
 _atom_site_fract_z
 _atom_site_occupancy
  Dy  Dy0  1  0.250000  0.467364  0.185566  1
  Dy  Dy1  1  0.750000  0.519452  0.813856  1
  Dy  Dy2  1  0.750000  0.039429  0.673107  1
  Dy  Dy3  1  0.250000  0.987883  0.338549  1
  Hf  Hf4  1  0.250000  0.860434  0.927845  1
  Sc  Sc5  1  0.750000  0.134192  0.071627  1
  Sc  Sc6  1  0.750000  0.644184  0.433022  1
  Al  Al7  1  0.250000  0.360257  0.569476  1
  Pt  Pt8  1  0.250000  0.728219  0.618621  1
  Pt  Pt9  1  0.750000  0.268586  0.385613  1
  Pt  Pt10  1  0.750000  0.753958  0.094036  1
  Pt  Pt11  1  0.250000  0.236045  0.888683  1
