# generated using pymatgen
data_Er12Tc3As
_symmetry_space_group_name_H-M   'P 1'
_cell_length_a   6.18098200
_cell_length_b   7.36213279
_cell_length_c   8.99242800
_cell_angle_alpha   90.00000000
_cell_angle_beta   90.00000000
_cell_angle_gamma   90.19986272
_symmetry_Int_Tables_number   1
_chemical_formula_structural   Er12Tc3As
_chemical_formula_sum   'Er12 Tc3 As1'
_cell_volume   409.19983734
_cell_formula_units_Z   1
loop_
 _symmetry_equiv_pos_site_id
 _symmetry_equiv_pos_as_xyz
  1  'x, y, z'
loop_
 _atom_site_type_symbol
 _atom_site_label
 _atom_site_symmetry_multiplicity
 _atom_site_fract_x
 _atom_site_fract_y
 _atom_site_fract_z
 _atom_site_occupancy
  Er  Er0  1  0.620335  0.040802  0.250000  1
  Er  Er1  1  0.370558  0.961174  0.750000  1
  Er  Er2  1  0.117633  0.469789  0.750000  1
  Er  Er3  1  0.869041  0.526678  0.250000  1
  Er  Er4  1  0.156962  0.190607  0.058654  1
  Er  Er5  1  0.835414  0.823252  0.935071  1
  Er  Er6  1  0.660405  0.318746  0.935650  1
  Er  Er7  1  0.835414  0.823252  0.564929  1
  Er  Er8  1  0.351039  0.667208  0.058603  1
  Er  Er9  1  0.156962  0.190607  0.441346  1
  Er  Er10  1  0.351039  0.667208  0.441397  1
  Er  Er11  1  0.660405  0.318746  0.564350  1
  Tc  Tc12  1  0.448769  0.381400  0.250000  1
  Tc  Tc13  1  0.539002  0.618757  0.750000  1
  Tc  Tc14  1  0.964105  0.118790  0.750000  1
  As  As15  1  0.062915  0.882982  0.250000  1
