# generated using pymatgen
data_Y8Ho2Si6C
_symmetry_space_group_name_H-M   'P 1'
_cell_length_a   8.46496800
_cell_length_b   8.46496858
_cell_length_c   6.40542500
_cell_angle_alpha   90.00000000
_cell_angle_beta   90.00000000
_cell_angle_gamma   119.99999773
_symmetry_Int_Tables_number   1
_chemical_formula_structural   Y8Ho2Si6C
_chemical_formula_sum   'Y8 Ho2 Si6 C1'
_cell_volume   397.49279705
_cell_formula_units_Z   1
loop_
 _symmetry_equiv_pos_site_id
 _symmetry_equiv_pos_as_xyz
  1  'x, y, z'
loop_
 _atom_site_type_symbol
 _atom_site_label
 _atom_site_symmetry_multiplicity
 _atom_site_fract_x
 _atom_site_fract_y
 _atom_site_fract_z
 _atom_site_occupancy
  Y  Y0  1  0.000000  0.763712  0.271169  1
  Y  Y1  1  0.236288  0.236288  0.271169  1
  Y  Y2  1  0.763712  0.000000  0.271169  1
  Y  Y3  1  0.000000  0.236288  0.728831  1
  Y  Y4  1  0.763712  0.763712  0.728831  1
  Y  Y5  1  0.236288  0.000000  0.728831  1
  Y  Y6  1  0.333333  0.666667  0.000000  1
  Y  Y7  1  0.666667  0.333333  0.000000  1
  Ho  Ho8  1  0.666667  0.333333  0.500000  1
  Ho  Ho9  1  0.333333  0.666667  0.500000  1
  Si  Si10  1  0.000000  0.399878  0.256050  1
  Si  Si11  1  0.600122  0.600122  0.256050  1
  Si  Si12  1  0.399878  0.000000  0.256050  1
  Si  Si13  1  0.000000  0.600122  0.743950  1
  Si  Si14  1  0.399878  0.399878  0.743950  1
  Si  Si15  1  0.600122  0.000000  0.743950  1
  C  C16  1  0.000000  0.000000  0.500000  1
