# generated using pymatgen
data_Li4Nd3Sn3Sb
_symmetry_space_group_name_H-M   'P 1'
_cell_length_a   8.83599642
_cell_length_b   8.83599636
_cell_length_c   8.83599581
_cell_angle_alpha   149.26169590
_cell_angle_beta   131.23403945
_cell_angle_gamma   58.75844718
_symmetry_Int_Tables_number   1
_chemical_formula_structural   Li4Nd3Sn3Sb
_chemical_formula_sum   'Li4 Nd3 Sn3 Sb1'
_cell_volume   263.10062136
_cell_formula_units_Z   1
loop_
 _symmetry_equiv_pos_site_id
 _symmetry_equiv_pos_as_xyz
  1  'x, y, z'
loop_
 _atom_site_type_symbol
 _atom_site_label
 _atom_site_symmetry_multiplicity
 _atom_site_fract_x
 _atom_site_fract_y
 _atom_site_fract_z
 _atom_site_occupancy
  Li  Li0  1  0.483700  0.672059  0.811642  1
  Li  Li1  1  0.860418  0.672059  0.188358  1
  Li  Li2  1  0.138198  0.327548  0.810651  1
  Li  Li3  1  0.516898  0.327548  0.189349  1
  Nd  Nd4  1  0.500608  0.000608  0.500000  1
  Nd  Nd5  1  0.871782  0.871782  0.000000  1
  Nd  Nd6  1  0.127389  0.127389  0.000000  1
  Sn  Sn7  1  0.714977  0.214977  0.500000  1
  Sn  Sn8  1  0.802880  0.500362  0.302519  1
  Sn  Sn9  1  0.197843  0.500362  0.697481  1
  Sb  Sb10  1  0.285306  0.785306  0.500000  1
