# generated using pymatgen
data_Ca4LuIn(RuO6)2
_symmetry_space_group_name_H-M   'P 1'
_cell_length_a   5.54308799
_cell_length_b   5.74748014
_cell_length_c   7.94486038
_cell_angle_alpha   89.68933053
_cell_angle_beta   90.46910876
_cell_angle_gamma   90.02768023
_symmetry_Int_Tables_number   1
_chemical_formula_structural   Ca4LuIn(RuO6)2
_chemical_formula_sum   'Ca4 Lu1 In1 Ru2 O12'
_cell_volume   253.10139481
_cell_formula_units_Z   1
loop_
 _symmetry_equiv_pos_site_id
 _symmetry_equiv_pos_as_xyz
  1  'x, y, z'
loop_
 _atom_site_type_symbol
 _atom_site_label
 _atom_site_symmetry_multiplicity
 _atom_site_fract_x
 _atom_site_fract_y
 _atom_site_fract_z
 _atom_site_occupancy
  Ca  Ca0  1  0.516923  0.556024  0.248405  1
  Ca  Ca1  1  0.984710  0.057812  0.247945  1
  Ca  Ca2  1  0.015291  0.942188  0.752054  1
  Ca  Ca3  1  0.483076  0.443977  0.751595  1
  Lu  Lu4  1  0.500000  0.000000  0.500000  1
  In  In5  1  0.000000  0.500000  0.000000  1
  Ru  Ru6  1  0.500000  0.000000  0.000000  1
  Ru  Ru7  1  0.000000  0.500000  0.500000  1
  O  O8  1  0.789306  0.810076  0.055507  1
  O  O9  1  0.683590  0.286821  0.060625  1
  O  O10  1  0.395702  0.961815  0.236340  1
  O  O11  1  0.109245  0.459381  0.262932  1
  O  O12  1  0.814712  0.785564  0.442641  1
  O  O13  1  0.712912  0.309593  0.446981  1
  O  O14  1  0.287087  0.690405  0.553019  1
  O  O15  1  0.185289  0.214435  0.557360  1
  O  O16  1  0.890756  0.540619  0.737068  1
  O  O17  1  0.604299  0.038186  0.763659  1
  O  O18  1  0.316411  0.713179  0.939374  1
  O  O19  1  0.210695  0.189923  0.944493  1
