# generated using pymatgen
data_Er5TcWC7
_symmetry_space_group_name_H-M   'P 1'
_cell_length_a   8.30256745
_cell_length_b   8.30256767
_cell_length_c   3.39960100
_cell_angle_alpha   90.00000000
_cell_angle_beta   90.00000000
_cell_angle_gamma   122.20038738
_symmetry_Int_Tables_number   1
_chemical_formula_structural   Er5TcWC7
_chemical_formula_sum   'Er5 Tc1 W1 C7'
_cell_volume   198.29896574
_cell_formula_units_Z   1
loop_
 _symmetry_equiv_pos_site_id
 _symmetry_equiv_pos_as_xyz
  1  'x, y, z'
loop_
 _atom_site_type_symbol
 _atom_site_label
 _atom_site_symmetry_multiplicity
 _atom_site_fract_x
 _atom_site_fract_y
 _atom_site_fract_z
 _atom_site_occupancy
  Er  Er0  1  0.501379  0.498621  0.000000  1
  Er  Er1  1  0.074840  0.333646  0.500000  1
  Er  Er2  1  0.922012  0.662790  0.500000  1
  Er  Er3  1  0.666354  0.925160  0.500000  1
  Er  Er4  1  0.337210  0.077988  0.500000  1
  Tc  Tc5  1  0.713370  0.286630  0.000000  1
  W  W6  1  0.285771  0.714229  0.000000  1
  C  C7  1  0.624789  0.375211  0.500000  1
  C  C8  1  0.376518  0.623482  0.500000  1
  C  C9  1  0.999828  0.000172  0.000000  1
  C  C10  1  0.168385  0.169384  0.000000  1
  C  C11  1  0.830616  0.831615  0.000000  1
  C  C12  1  0.000039  0.501113  0.000000  1
  C  C13  1  0.498887  0.999961  0.000000  1
