# generated using pymatgen
data_Y15Ho(InIr)4
_symmetry_space_group_name_H-M   'P 1'
_cell_length_a   9.68625201
_cell_length_b   9.68554364
_cell_length_c   9.69570370
_cell_angle_alpha   119.96470647
_cell_angle_beta   90.00023484
_cell_angle_gamma   119.99867647
_symmetry_Int_Tables_number   1
_chemical_formula_structural   Y15Ho(InIr)4
_chemical_formula_sum   'Y15 Ho1 In4 Ir4'
_cell_volume   643.55158961
_cell_formula_units_Z   1
loop_
 _symmetry_equiv_pos_site_id
 _symmetry_equiv_pos_as_xyz
  1  'x, y, z'
loop_
 _atom_site_type_symbol
 _atom_site_label
 _atom_site_symmetry_multiplicity
 _atom_site_fract_x
 _atom_site_fract_y
 _atom_site_fract_z
 _atom_site_occupancy
  Y  Y0  1  0.940134  0.500099  0.060068  1
  Y  Y1  1  0.559688  0.119456  0.059828  1
  Y  Y2  1  0.559685  0.500058  0.059825  1
  Y  Y3  1  0.808232  0.999935  0.191637  1
  Y  Y4  1  0.191790  0.999932  0.191676  1
  Y  Y5  1  0.191787  0.383531  0.191674  1
  Y  Y6  1  0.560136  0.500017  0.439900  1
  Y  Y7  1  0.940127  0.500049  0.440181  1
  Y  Y8  1  0.940124  0.880254  0.440184  1
  Y  Y9  1  0.348937  0.302190  0.651061  1
  Y  Y10  1  0.348944  0.697813  0.651063  1
  Y  Y11  1  0.953261  0.302203  0.651150  1
  Y  Y12  1  0.191570  0.999964  0.808353  1
  Y  Y13  1  0.808332  0.999962  0.808265  1
  Y  Y14  1  0.808331  0.616636  0.808262  1
  Ho  Ho15  1  0.348362  0.696829  0.045289  1
  In  In16  1  0.583015  0.166216  0.416822  1
  In  In17  1  0.250577  0.833588  0.416596  1
  In  In18  1  0.583017  0.833621  0.416822  1
  In  In19  1  0.583359  0.166452  0.749549  1
  Ir  Ir20  1  0.140915  0.281826  0.422737  1
  Ir  Ir21  1  0.141659  0.283359  0.859694  1
  Ir  Ir22  1  0.141658  0.717996  0.859695  1
  Ir  Ir23  1  0.576366  0.718018  0.859673  1
