# generated using pymatgen
data_Pr6Nd10Cd4Ru3Pt
_symmetry_space_group_name_H-M   'P 1'
_cell_length_a   9.94477447
_cell_length_b   9.96600858
_cell_length_c   9.96600800
_cell_angle_alpha   60.00000192
_cell_angle_beta   59.92934483
_cell_angle_gamma   59.92934187
_symmetry_Int_Tables_number   1
_chemical_formula_structural   Pr6Nd10Cd4Ru3Pt
_chemical_formula_sum   'Pr6 Nd10 Cd4 Ru3 Pt1'
_cell_volume   697.68244135
_cell_formula_units_Z   1
loop_
 _symmetry_equiv_pos_site_id
 _symmetry_equiv_pos_as_xyz
  1  'x, y, z'
loop_
 _atom_site_type_symbol
 _atom_site_label
 _atom_site_symmetry_multiplicity
 _atom_site_fract_x
 _atom_site_fract_y
 _atom_site_fract_z
 _atom_site_occupancy
  Pr  Pr0  1  0.937730  0.561970  0.561970  1
  Pr  Pr1  1  0.559101  0.938327  0.938327  1
  Pr  Pr2  1  0.559101  0.938327  0.564245  1
  Pr  Pr3  1  0.937730  0.561970  0.938328  1
  Pr  Pr4  1  0.559101  0.564245  0.938327  1
  Pr  Pr5  1  0.937730  0.938328  0.561970  1
  Nd  Nd6  1  0.343474  0.349904  0.349904  1
  Nd  Nd7  1  0.343474  0.349904  0.956719  1
  Nd  Nd8  1  0.343474  0.956719  0.349904  1
  Nd  Nd9  1  0.960597  0.346468  0.346468  1
  Nd  Nd10  1  0.815314  0.190425  0.190425  1
  Nd  Nd11  1  0.190300  0.810837  0.810837  1
  Nd  Nd12  1  0.190300  0.810837  0.188025  1
  Nd  Nd13  1  0.815314  0.190425  0.803836  1
  Nd  Nd14  1  0.190300  0.188025  0.810837  1
  Nd  Nd15  1  0.815314  0.803836  0.190425  1
  Cd  Cd16  1  0.579533  0.579695  0.579695  1
  Cd  Cd17  1  0.579533  0.579695  0.261077  1
  Cd  Cd18  1  0.579533  0.261077  0.579695  1
  Cd  Cd19  1  0.261401  0.579533  0.579533  1
  Ru  Ru20  1  0.141638  0.138242  0.138242  1
  Ru  Ru21  1  0.141638  0.138242  0.581878  1
  Ru  Ru22  1  0.141638  0.581878  0.138242  1
  Pt  Pt23  1  0.576729  0.141091  0.141091  1
