# generated using pymatgen
data_Mg2ZnCu2Ir
_symmetry_space_group_name_H-M   'P 1'
_cell_length_a   5.22028856
_cell_length_b   4.91416603
_cell_length_c   5.22028868
_cell_angle_alpha   119.93749052
_cell_angle_beta   123.24666698
_cell_angle_gamma   88.90225801
_symmetry_Int_Tables_number   1
_chemical_formula_structural   Mg2ZnCu2Ir
_chemical_formula_sum   'Mg2 Zn1 Cu2 Ir1'
_cell_volume   90.87580274
_cell_formula_units_Z   1
loop_
 _symmetry_equiv_pos_site_id
 _symmetry_equiv_pos_as_xyz
  1  'x, y, z'
loop_
 _atom_site_type_symbol
 _atom_site_label
 _atom_site_symmetry_multiplicity
 _atom_site_fract_x
 _atom_site_fract_y
 _atom_site_fract_z
 _atom_site_occupancy
  Mg  Mg0  1  0.129509  0.867299  0.237790  1
  Mg  Mg1  1  0.870491  0.132701  0.762210  1
  Zn  Zn2  1  0.500000  0.000000  0.000000  1
  Cu  Cu3  1  0.500000  0.500000  0.000000  1
  Cu  Cu4  1  0.000000  0.500000  0.500000  1
  Ir  Ir5  1  0.500000  0.500000  0.500000  1
