# generated using pymatgen
data_Pr4DyMo3(P3Ir4)4
_symmetry_space_group_name_H-M   'P 1'
_cell_length_a   12.77749200
_cell_length_b   12.77749229
_cell_length_c   4.03103800
_cell_angle_alpha   90.00000000
_cell_angle_beta   90.00000000
_cell_angle_gamma   119.99999926
_symmetry_Int_Tables_number   1
_chemical_formula_structural   Pr4DyMo3(P3Ir4)4
_chemical_formula_sum   'Pr4 Dy1 Mo3 P12 Ir16'
_cell_volume   569.95264354
_cell_formula_units_Z   1
loop_
 _symmetry_equiv_pos_site_id
 _symmetry_equiv_pos_as_xyz
  1  'x, y, z'
loop_
 _atom_site_type_symbol
 _atom_site_label
 _atom_site_symmetry_multiplicity
 _atom_site_fract_x
 _atom_site_fract_y
 _atom_site_fract_z
 _atom_site_occupancy
  Pr  Pr0  1  0.333333  0.666667  0.500000  1
  Pr  Pr1  1  0.000014  0.812381  0.000000  1
  Pr  Pr2  1  0.187619  0.187633  0.000000  1
  Pr  Pr3  1  0.812367  0.999986  0.000000  1
  Dy  Dy4  1  0.666667  0.333333  0.500000  1
  Mo  Mo5  1  0.998865  0.452378  0.500000  1
  Mo  Mo6  1  0.547622  0.546486  0.500000  1
  Mo  Mo7  1  0.453514  0.001135  0.500000  1
  P  P8  1  0.000430  0.635830  0.500000  1
  P  P9  1  0.364170  0.364600  0.500000  1
  P  P10  1  0.635400  0.999570  0.500000  1
  P  P11  1  0.517953  0.684520  0.000000  1
  P  P12  1  0.315480  0.833433  0.000000  1
  P  P13  1  0.166567  0.482047  0.000000  1
  P  P14  1  0.484297  0.169458  0.000000  1
  P  P15  1  0.685161  0.515703  0.000000  1
  P  P16  1  0.830542  0.314839  0.000000  1
  P  P17  1  0.999409  0.178894  0.500000  1
  P  P18  1  0.821106  0.820515  0.500000  1
  P  P19  1  0.179485  0.000591  0.500000  1
  Ir  Ir20  1  0.511186  0.869899  0.000000  1
  Ir  Ir21  1  0.130101  0.641288  0.000000  1
  Ir  Ir22  1  0.358712  0.488814  0.000000  1
  Ir  Ir23  1  0.492882  0.358425  0.000000  1
  Ir  Ir24  1  0.865544  0.507118  0.000000  1
  Ir  Ir25  1  0.641575  0.134456  0.000000  1
  Ir  Ir26  1  0.998964  0.287965  0.000000  1
  Ir  Ir27  1  0.712035  0.710999  0.000000  1
  Ir  Ir28  1  0.289001  0.001036  0.000000  1
  Ir  Ir29  1  0.623241  0.800736  0.500000  1
  Ir  Ir30  1  0.199264  0.822505  0.500000  1
  Ir  Ir31  1  0.177495  0.376759  0.500000  1
  Ir  Ir32  1  0.378545  0.179321  0.500000  1
  Ir  Ir33  1  0.800776  0.621455  0.500000  1
  Ir  Ir34  1  0.820679  0.199224  0.500000  1
  Ir  Ir35  1  0.000000  0.000000  0.500000  1
