# generated using pymatgen
data_Dy17Ho3Si15Pd
_symmetry_space_group_name_H-M   'P 1'
_cell_length_a   7.44648379
_cell_length_b   7.68617393
_cell_length_c   14.61436000
_cell_angle_alpha   89.81179854
_cell_angle_beta   89.66962628
_cell_angle_gamma   90.19599123
_symmetry_Int_Tables_number   1
_chemical_formula_structural   Dy17Ho3Si15Pd
_chemical_formula_sum   'Dy17 Ho3 Si15 Pd1'
_cell_volume   836.42908479
_cell_formula_units_Z   1
loop_
 _symmetry_equiv_pos_site_id
 _symmetry_equiv_pos_as_xyz
  1  'x, y, z'
loop_
 _atom_site_type_symbol
 _atom_site_label
 _atom_site_symmetry_multiplicity
 _atom_site_fract_x
 _atom_site_fract_y
 _atom_site_fract_z
 _atom_site_occupancy
  Dy  Dy0  1  0.351977  0.011057  0.751233  1
  Dy  Dy1  1  0.974183  0.818187  0.099198  1
  Dy  Dy2  1  0.471161  0.683015  0.401138  1
  Dy  Dy3  1  0.526571  0.319883  0.900148  1
  Dy  Dy4  1  0.029605  0.183784  0.599218  1
  Dy  Dy5  1  0.029786  0.181510  0.900656  1
  Dy  Dy6  1  0.529946  0.317408  0.598653  1
  Dy  Dy7  1  0.472836  0.682677  0.100529  1
  Dy  Dy8  1  0.969162  0.816785  0.400188  1
  Dy  Dy9  1  0.680553  0.817496  0.880071  1
  Dy  Dy10  1  0.179736  0.681147  0.621770  1
  Dy  Dy11  1  0.818482  0.330087  0.120296  1
  Dy  Dy12  1  0.316631  0.178031  0.376387  1
  Dy  Dy13  1  0.320850  0.178746  0.123554  1
  Dy  Dy14  1  0.819106  0.319980  0.377289  1
  Dy  Dy15  1  0.179105  0.675619  0.877930  1
  Dy  Dy16  1  0.682505  0.819956  0.622533  1
  Ho  Ho17  1  0.647885  0.991929  0.249382  1
  Ho  Ho18  1  0.148619  0.511028  0.248126  1
  Ho  Ho19  1  0.847322  0.487895  0.754617  1
  Si  Si20  1  0.765625  0.629517  0.251822  1
  Si  Si21  1  0.265841  0.872077  0.250843  1
  Si  Si22  1  0.734064  0.124817  0.749108  1
  Si  Si23  1  0.233163  0.373744  0.746801  1
  Si  Si24  1  0.019575  0.105565  0.249123  1
  Si  Si25  1  0.522827  0.396474  0.251689  1
  Si  Si26  1  0.473835  0.605327  0.747301  1
  Si  Si27  1  0.977327  0.895542  0.748613  1
  Si  Si28  1  0.354655  0.972019  0.539993  1
  Si  Si29  1  0.647373  0.027260  0.042383  1
  Si  Si30  1  0.147073  0.470434  0.459813  1
  Si  Si31  1  0.156736  0.471997  0.042013  1
  Si  Si32  1  0.644341  0.028544  0.459129  1
  Si  Si33  1  0.353206  0.969378  0.961274  1
  Si  Si34  1  0.854815  0.528771  0.539267  1
  Pd  Pd35  1  0.853522  0.522316  0.957914  1
