# generated using pymatgen
data_PrBe2Pd3
_symmetry_space_group_name_H-M   'P 1'
_cell_length_a   6.57718884
_cell_length_b   6.57718901
_cell_length_c   6.57718809
_cell_angle_alpha   130.07486346
_cell_angle_beta   115.27714389
_cell_angle_gamma   85.94091815
_symmetry_Int_Tables_number   1
_chemical_formula_structural   PrBe2Pd3
_chemical_formula_sum   'Pr2 Be4 Pd6'
_cell_volume   188.11339196
_cell_formula_units_Z   2
loop_
 _symmetry_equiv_pos_site_id
 _symmetry_equiv_pos_as_xyz
  1  'x, y, z'
loop_
 _atom_site_type_symbol
 _atom_site_label
 _atom_site_symmetry_multiplicity
 _atom_site_fract_x
 _atom_site_fract_y
 _atom_site_fract_z
 _atom_site_occupancy
  Pr  Pr0  1  0.250000  0.990691  0.740691  1
  Pr  Pr1  1  0.750000  0.009309  0.259309  1
  Be  Be2  1  0.082676  0.313349  0.230673  1
  Be  Be3  1  0.917324  0.686651  0.769327  1
  Be  Be4  1  0.417324  0.647997  0.230673  1
  Be  Be5  1  0.582676  0.352003  0.769327  1
  Pd  Pd6  1  0.500000  0.500000  0.500000  1
  Pd  Pd7  1  0.000000  0.500000  0.000000  1
  Pd  Pd8  1  0.261629  0.000000  0.261629  1
  Pd  Pd9  1  0.738371  0.000000  0.738371  1
  Pd  Pd10  1  0.238371  0.500000  0.738371  1
  Pd  Pd11  1  0.761629  0.500000  0.261629  1
