# generated using pymatgen
data_Dy3Ho9Zn2Ni3Ru
_symmetry_space_group_name_H-M   'P 1'
_cell_length_a   8.30059682
_cell_length_b   8.28978912
_cell_length_c   8.28978400
_cell_angle_alpha   112.72074144
_cell_angle_beta   109.55462023
_cell_angle_gamma   106.15615963
_symmetry_Int_Tables_number   1
_chemical_formula_structural   Dy3Ho9Zn2Ni3Ru
_chemical_formula_sum   'Dy3 Ho9 Zn2 Ni3 Ru1'
_cell_volume   437.93395157
_cell_formula_units_Z   1
loop_
 _symmetry_equiv_pos_site_id
 _symmetry_equiv_pos_as_xyz
  1  'x, y, z'
loop_
 _atom_site_type_symbol
 _atom_site_label
 _atom_site_symmetry_multiplicity
 _atom_site_fract_x
 _atom_site_fract_y
 _atom_site_fract_z
 _atom_site_occupancy
  Dy  Dy0  1  0.439308  0.246916  0.192392  1
  Dy  Dy1  1  0.574258  0.766362  0.807896  1
  Dy  Dy2  1  0.041548  0.233899  0.807649  1
  Ho  Ho3  1  0.946238  0.753182  0.193056  1
  Ho  Ho4  1  0.183785  0.279844  0.463694  1
  Ho  Ho5  1  0.824622  0.721703  0.546142  1
  Ho  Ho6  1  0.183785  0.720090  0.903941  1
  Ho  Ho7  1  0.824622  0.278481  0.102920  1
  Ho  Ho8  1  0.325523  0.636934  0.308485  1
  Ho  Ho9  1  0.671786  0.363460  0.689305  1
  Ho  Ho10  1  0.325522  0.017037  0.688587  1
  Ho  Ho11  1  0.671786  0.982482  0.308326  1
  Zn  Zn12  1  0.492286  0.500349  0.991937  1
  Zn  Zn13  1  0.015544  0.999449  0.016095  1
  Ni  Ni14  1  0.654047  0.000237  0.653812  1
  Ni  Ni15  1  0.116086  0.617893  0.498193  1
  Ni  Ni16  1  0.881374  0.381806  0.499569  1
  Ru  Ru17  1  0.327878  0.999876  0.328002  1
