# generated using pymatgen
data_Tb2HoCo7(NiP3)2
_symmetry_space_group_name_H-M   'P 1'
_cell_length_a   3.72519100
_cell_length_b   10.50497700
_cell_length_c   12.23019100
_cell_angle_alpha   90.00000000
_cell_angle_beta   90.00000000
_cell_angle_gamma   90.00000000
_symmetry_Int_Tables_number   1
_chemical_formula_structural   Tb2HoCo7(NiP3)2
_chemical_formula_sum   'Tb4 Ho2 Co14 Ni4 P12'
_cell_volume   478.60462425
_cell_formula_units_Z   2
loop_
 _symmetry_equiv_pos_site_id
 _symmetry_equiv_pos_as_xyz
  1  'x, y, z'
loop_
 _atom_site_type_symbol
 _atom_site_label
 _atom_site_symmetry_multiplicity
 _atom_site_fract_x
 _atom_site_fract_y
 _atom_site_fract_z
 _atom_site_occupancy
  Tb  Tb0  1  0.000000  0.500000  0.520877  1
  Tb  Tb1  1  0.500000  0.000000  0.478286  1
  Tb  Tb2  1  0.000000  0.685185  0.794428  1
  Tb  Tb3  1  0.000000  0.314815  0.794428  1
  Ho  Ho4  1  0.500000  0.815267  0.205921  1
  Ho  Ho5  1  0.500000  0.184733  0.205921  1
  Co  Co6  1  0.000000  0.500000  0.985154  1
  Co  Co7  1  0.500000  0.000000  0.016691  1
  Co  Co8  1  0.500000  0.333944  0.996760  1
  Co  Co9  1  0.500000  0.666056  0.996760  1
  Co  Co10  1  0.000000  0.165314  0.004475  1
  Co  Co11  1  0.000000  0.834686  0.004475  1
  Co  Co12  1  0.500000  0.298402  0.429536  1
  Co  Co13  1  0.500000  0.701598  0.429536  1
  Co  Co14  1  0.000000  0.201481  0.569337  1
  Co  Co15  1  0.000000  0.798519  0.569337  1
  Co  Co16  1  0.500000  0.879777  0.710335  1
  Co  Co17  1  0.500000  0.120223  0.710335  1
  Co  Co18  1  0.000000  0.620913  0.288982  1
  Co  Co19  1  0.000000  0.379087  0.288982  1
  Ni  Ni20  1  0.500000  0.500000  0.162326  1
  Ni  Ni21  1  0.000000  0.000000  0.837330  1
  Ni  Ni22  1  0.500000  0.500000  0.703290  1
  Ni  Ni23  1  0.000000  0.000000  0.296627  1
  P  P24  1  0.500000  0.500000  0.883689  1
  P  P25  1  0.000000  0.000000  0.117968  1
  P  P26  1  0.500000  0.500000  0.345510  1
  P  P27  1  0.000000  0.000000  0.653745  1
  P  P28  1  0.500000  0.309298  0.614759  1
  P  P29  1  0.500000  0.690702  0.614759  1
  P  P30  1  0.000000  0.190320  0.384015  1
  P  P31  1  0.000000  0.809680  0.384015  1
  P  P32  1  0.500000  0.847267  0.895502  1
  P  P33  1  0.500000  0.152733  0.895502  1
  P  P34  1  0.000000  0.653969  0.105203  1
  P  P35  1  0.000000  0.346031  0.105203  1
