# generated using pymatgen
data_Er5Tm3Si12PtRh3
_symmetry_space_group_name_H-M   'P 1'
_cell_length_a   8.14270600
_cell_length_b   8.14294969
_cell_length_c   7.80555800
_cell_angle_alpha   89.99801580
_cell_angle_beta   90.00086231
_cell_angle_gamma   119.99999008
_symmetry_Int_Tables_number   1
_chemical_formula_structural   Er5Tm3Si12PtRh3
_chemical_formula_sum   'Er5 Tm3 Si12 Pt1 Rh3'
_cell_volume   448.21370959
_cell_formula_units_Z   1
loop_
 _symmetry_equiv_pos_site_id
 _symmetry_equiv_pos_as_xyz
  1  'x, y, z'
loop_
 _atom_site_type_symbol
 _atom_site_label
 _atom_site_symmetry_multiplicity
 _atom_site_fract_x
 _atom_site_fract_y
 _atom_site_fract_z
 _atom_site_occupancy
  Er  Er0  1  0.017525  0.508802  0.748068  1
  Er  Er1  1  0.491261  0.508788  0.748050  1
  Er  Er2  1  0.510487  0.020952  0.252337  1
  Er  Er3  1  0.000008  0.999997  0.748688  1
  Er  Er4  1  0.000010  0.000019  0.250532  1
  Tm  Tm5  1  0.979075  0.489590  0.252456  1
  Tm  Tm6  1  0.510521  0.489603  0.252452  1
  Tm  Tm7  1  0.491480  0.982965  0.747931  1
  Si  Si8  1  0.166945  0.833147  0.499513  1
  Si  Si9  1  0.166859  0.333718  0.499248  1
  Si  Si10  1  0.666204  0.833144  0.499508  1
  Si  Si11  1  0.335619  0.167850  0.000345  1
  Si  Si12  1  0.833229  0.666464  0.500236  1
  Si  Si13  1  0.832233  0.167847  0.000347  1
  Si  Si14  1  0.832152  0.664303  0.000606  1
  Si  Si15  1  0.164288  0.328577  0.000009  1
  Si  Si16  1  0.671293  0.835698  0.999821  1
  Si  Si17  1  0.333462  0.166780  0.500462  1
  Si  Si18  1  0.833313  0.166777  0.500457  1
  Si  Si19  1  0.164406  0.835700  0.999818  1
  Pt  Pt20  1  0.333252  0.666512  0.034769  1
  Rh  Rh21  1  0.666571  0.333135  0.963459  1
  Rh  Rh22  1  0.666579  0.333156  0.536268  1
  Rh  Rh23  1  0.333228  0.666480  0.464621  1
