# generated using pymatgen
data_Dy6Tm4Si5Sb
_symmetry_space_group_name_H-M   'P 1'
_cell_length_a   8.50687045
_cell_length_b   8.50686866
_cell_length_c   6.28524600
_cell_angle_alpha   90.00000000
_cell_angle_beta   90.00000000
_cell_angle_gamma   120.21214527
_symmetry_Int_Tables_number   1
_chemical_formula_structural   Dy6Tm4Si5Sb
_chemical_formula_sum   'Dy6 Tm4 Si5 Sb1'
_cell_volume   393.06111849
_cell_formula_units_Z   1
loop_
 _symmetry_equiv_pos_site_id
 _symmetry_equiv_pos_as_xyz
  1  'x, y, z'
loop_
 _atom_site_type_symbol
 _atom_site_label
 _atom_site_symmetry_multiplicity
 _atom_site_fract_x
 _atom_site_fract_y
 _atom_site_fract_z
 _atom_site_occupancy
  Dy  Dy0  1  0.764725  0.764725  0.250000  1
  Dy  Dy1  1  0.240776  0.987577  0.250000  1
  Dy  Dy2  1  0.987577  0.240776  0.250000  1
  Dy  Dy3  1  0.241687  0.241687  0.750000  1
  Dy  Dy4  1  0.755006  0.999125  0.750000  1
  Dy  Dy5  1  0.999125  0.755006  0.750000  1
  Tm  Tm6  1  0.674681  0.331402  0.503499  1
  Tm  Tm7  1  0.331402  0.674681  0.503499  1
  Tm  Tm8  1  0.331402  0.674681  0.996501  1
  Tm  Tm9  1  0.674681  0.331402  0.996501  1
  Si  Si10  1  0.603765  0.998784  0.250000  1
  Si  Si11  1  0.998784  0.603765  0.250000  1
  Si  Si12  1  0.606429  0.606429  0.750000  1
  Si  Si13  1  0.394162  0.002268  0.750000  1
  Si  Si14  1  0.002268  0.394162  0.750000  1
  Sb  Sb15  1  0.393526  0.393526  0.250000  1
