# generated using pymatgen
data_Dy10In8Pt3Au
_symmetry_space_group_name_H-M   'P 1'
_cell_length_a   3.64217300
_cell_length_b   8.18532735
_cell_length_c   18.31748177
_cell_angle_alpha   90.03342391
_cell_angle_beta   90.00000000
_cell_angle_gamma   90.00000000
_symmetry_Int_Tables_number   1
_chemical_formula_structural   Dy10In8Pt3Au
_chemical_formula_sum   'Dy10 In8 Pt3 Au1'
_cell_volume   546.08760272
_cell_formula_units_Z   1
loop_
 _symmetry_equiv_pos_site_id
 _symmetry_equiv_pos_as_xyz
  1  'x, y, z'
loop_
 _atom_site_type_symbol
 _atom_site_label
 _atom_site_symmetry_multiplicity
 _atom_site_fract_x
 _atom_site_fract_y
 _atom_site_fract_z
 _atom_site_occupancy
  Dy  Dy0  1  0.000000  0.120393  0.419541  1
  Dy  Dy1  1  0.000000  0.883717  0.585976  1
  Dy  Dy2  1  0.000000  0.383934  0.914434  1
  Dy  Dy3  1  0.000000  0.616354  0.083967  1
  Dy  Dy4  1  0.000000  0.252448  0.217476  1
  Dy  Dy5  1  0.000000  0.755533  0.779760  1
  Dy  Dy6  1  0.000000  0.255862  0.720690  1
  Dy  Dy7  1  0.000000  0.731934  0.279007  1
  Dy  Dy8  1  0.000000  0.999548  0.999280  1
  Dy  Dy9  1  0.000000  0.499262  0.500403  1
  In  In10  1  0.500000  0.424053  0.352442  1
  In  In11  1  0.500000  0.574980  0.648590  1
  In  In12  1  0.500000  0.075055  0.851544  1
  In  In13  1  0.500000  0.923489  0.147189  1
  In  In14  1  0.500000  0.291278  0.066139  1
  In  In15  1  0.500000  0.708291  0.932904  1
  In  In16  1  0.500000  0.208758  0.567737  1
  In  In17  1  0.500000  0.790768  0.433804  1
  Pt  Pt18  1  0.500000  0.974613  0.697058  1
  Pt  Pt19  1  0.500000  0.474839  0.803239  1
  Pt  Pt20  1  0.500000  0.526978  0.196621  1
  Au  Au21  1  0.500000  0.027914  0.302200  1
