# generated using pymatgen
data_Lu8In3Pd
_symmetry_space_group_name_H-M   'P 1'
_cell_length_a   10.31798100
_cell_length_b   10.31798154
_cell_length_c   6.79440700
_cell_angle_alpha   90.00000000
_cell_angle_beta   90.00000000
_cell_angle_gamma   120.00000147
_symmetry_Int_Tables_number   1
_chemical_formula_structural   Lu8In3Pd
_chemical_formula_sum   'Lu16 In6 Pd2'
_cell_volume   626.42871073
_cell_formula_units_Z   2
loop_
 _symmetry_equiv_pos_site_id
 _symmetry_equiv_pos_as_xyz
  1  'x, y, z'
loop_
 _atom_site_type_symbol
 _atom_site_label
 _atom_site_symmetry_multiplicity
 _atom_site_fract_x
 _atom_site_fract_y
 _atom_site_fract_z
 _atom_site_occupancy
  Lu  Lu0  1  0.528752  0.057504  0.527246  1
  Lu  Lu1  1  0.942496  0.471248  0.527246  1
  Lu  Lu2  1  0.528752  0.471248  0.527246  1
  Lu  Lu3  1  0.471248  0.942496  0.027246  1
  Lu  Lu4  1  0.057504  0.528752  0.027246  1
  Lu  Lu5  1  0.471248  0.528752  0.027246  1
  Lu  Lu6  1  0.175496  0.350991  0.731590  1
  Lu  Lu7  1  0.649009  0.824504  0.731590  1
  Lu  Lu8  1  0.175496  0.824504  0.731590  1
  Lu  Lu9  1  0.824504  0.649009  0.231590  1
  Lu  Lu10  1  0.350991  0.175496  0.231590  1
  Lu  Lu11  1  0.824504  0.175496  0.231590  1
  Lu  Lu12  1  0.666667  0.333333  0.897586  1
  Lu  Lu13  1  0.333333  0.666667  0.397586  1
  Lu  Lu14  1  0.000000  0.000000  0.504034  1
  Lu  Lu15  1  0.000000  0.000000  0.004034  1
  In  In16  1  0.837540  0.675080  0.767730  1
  In  In17  1  0.324920  0.162460  0.767730  1
  In  In18  1  0.837540  0.162460  0.767730  1
  In  In19  1  0.162460  0.324920  0.267730  1
  In  In20  1  0.675080  0.837540  0.267730  1
  In  In21  1  0.162460  0.837540  0.267730  1
  Pd  Pd22  1  0.666667  0.333333  0.296521  1
  Pd  Pd23  1  0.333333  0.666667  0.796521  1
