# generated using pymatgen
data_KRbBaSrBi2
_symmetry_space_group_name_H-M   'P 1'
_cell_length_a   5.60986800
_cell_length_b   9.13025100
_cell_length_c   10.71516400
_cell_angle_alpha   90.00000000
_cell_angle_beta   90.00000000
_cell_angle_gamma   90.00000000
_symmetry_Int_Tables_number   1
_chemical_formula_structural   KRbBaSrBi2
_chemical_formula_sum   'K2 Rb2 Ba2 Sr2 Bi4'
_cell_volume   548.82537375
_cell_formula_units_Z   2
loop_
 _symmetry_equiv_pos_site_id
 _symmetry_equiv_pos_as_xyz
  1  'x, y, z'
loop_
 _atom_site_type_symbol
 _atom_site_label
 _atom_site_symmetry_multiplicity
 _atom_site_fract_x
 _atom_site_fract_y
 _atom_site_fract_z
 _atom_site_occupancy
  K  K0  1  0.000000  0.346837  0.337299  1
  K  K1  1  0.000000  0.846837  0.662701  1
  Rb  Rb2  1  0.500000  0.033244  0.421905  1
  Rb  Rb3  1  0.500000  0.533244  0.578095  1
  Ba  Ba4  1  0.000000  0.990491  0.059995  1
  Ba  Ba5  1  0.000000  0.490491  0.940005  1
  Sr  Sr6  1  0.500000  0.148049  0.817428  1
  Sr  Sr7  1  0.500000  0.648049  0.182572  1
  Bi  Bi8  1  0.000000  0.249006  0.673016  1
  Bi  Bi9  1  0.500000  0.277971  0.115499  1
  Bi  Bi10  1  0.000000  0.749006  0.326984  1
  Bi  Bi11  1  0.500000  0.777971  0.884501  1
