# generated using pymatgen
data_Pr2DyHo(GeO5)2
_symmetry_space_group_name_H-M   'P 1'
_cell_length_a   8.35166038
_cell_length_b   8.35170423
_cell_length_c   10.87872298
_cell_angle_alpha   61.25696479
_cell_angle_beta   61.25724933
_cell_angle_gamma   49.81305031
_symmetry_Int_Tables_number   1
_chemical_formula_structural   Pr2DyHo(GeO5)2
_chemical_formula_sum   'Pr4 Dy2 Ho2 Ge4 O20'
_cell_volume   491.49681353
_cell_formula_units_Z   2
loop_
 _symmetry_equiv_pos_site_id
 _symmetry_equiv_pos_as_xyz
  1  'x, y, z'
loop_
 _atom_site_type_symbol
 _atom_site_label
 _atom_site_symmetry_multiplicity
 _atom_site_fract_x
 _atom_site_fract_y
 _atom_site_fract_z
 _atom_site_occupancy
  Pr  Pr0  1  0.722110  0.207278  0.963889  1
  Pr  Pr1  1  0.792726  0.277873  0.536114  1
  Pr  Pr2  1  0.277997  0.792607  0.035655  1
  Pr  Pr3  1  0.207386  0.722012  0.464343  1
  Dy  Dy4  1  0.013671  0.264659  0.162048  1
  Dy  Dy5  1  0.735339  0.986329  0.337953  1
  Ho  Ho6  1  0.986028  0.736393  0.837637  1
  Ho  Ho7  1  0.263596  0.013977  0.662369  1
  Ge  Ge8  1  0.777903  0.595764  0.690924  1
  Ge  Ge9  1  0.404241  0.222096  0.809073  1
  Ge  Ge10  1  0.222340  0.403994  0.309431  1
  Ge  Ge11  1  0.596006  0.777661  0.190570  1
  O  O12  1  0.785534  0.629866  0.056834  1
  O  O13  1  0.370137  0.214465  0.443167  1
  O  O14  1  0.214644  0.371876  0.941764  1
  O  O15  1  0.628125  0.785357  0.558234  1
  O  O16  1  0.585644  0.587360  0.359830  1
  O  O17  1  0.412644  0.414354  0.140172  1
  O  O18  1  0.414842  0.412372  0.639899  1
  O  O19  1  0.587625  0.585165  0.860098  1
  O  O20  1  0.948022  0.656864  0.683787  1
  O  O21  1  0.343129  0.051983  0.816215  1
  O  O22  1  0.051656  0.343433  0.316894  1
  O  O23  1  0.656569  0.948348  0.183102  1
  O  O24  1  0.886766  0.080491  0.390949  1
  O  O25  1  0.919512  0.113231  0.109051  1
  O  O26  1  0.113805  0.919143  0.609759  1
  O  O27  1  0.080851  0.886199  0.890241  1
  O  O28  1  0.077773  0.674565  0.325294  1
  O  O29  1  0.325437  0.922234  0.174703  1
  O  O30  1  0.923036  0.325094  0.674800  1
  O  O31  1  0.674907  0.076957  0.825200  1
