# generated using pymatgen
data_AcPr7(WO6)4
_symmetry_space_group_name_H-M   'P 1'
_cell_length_a   5.47705946
_cell_length_b   9.47727433
_cell_length_c   10.35303600
_cell_angle_alpha   90.05453129
_cell_angle_beta   89.89929144
_cell_angle_gamma   89.99490269
_symmetry_Int_Tables_number   1
_chemical_formula_structural   AcPr7(WO6)4
_chemical_formula_sum   'Ac1 Pr7 W4 O24'
_cell_volume   537.40012435
_cell_formula_units_Z   1
loop_
 _symmetry_equiv_pos_site_id
 _symmetry_equiv_pos_as_xyz
  1  'x, y, z'
loop_
 _atom_site_type_symbol
 _atom_site_label
 _atom_site_symmetry_multiplicity
 _atom_site_fract_x
 _atom_site_fract_y
 _atom_site_fract_z
 _atom_site_occupancy
  Ac  Ac0  1  0.525860  0.219033  0.361876  1
  Pr  Pr1  1  0.474991  0.606248  0.539743  1
  Pr  Pr2  1  0.976947  0.897125  0.462014  1
  Pr  Pr3  1  0.521983  0.103188  0.960210  1
  Pr  Pr4  1  0.024804  0.395781  0.037964  1
  Pr  Pr5  1  0.966892  0.779073  0.865732  1
  Pr  Pr6  1  0.466697  0.717533  0.132167  1
  Pr  Pr7  1  0.030657  0.282350  0.634675  1
  W  W8  1  0.458362  0.995570  0.649053  1
  W  W9  1  0.959687  0.507558  0.354054  1
  W  W10  1  0.541394  0.496026  0.853208  1
  W  W11  1  0.039728  0.999659  0.143355  1
  O  O12  1  0.245236  0.087454  0.513542  1
  O  O13  1  0.751895  0.416635  0.491586  1
  O  O14  1  0.750311  0.587775  0.990535  1
  O  O15  1  0.248025  0.908194  0.006761  1
  O  O16  1  0.722031  0.110468  0.570204  1
  O  O17  1  0.216793  0.393710  0.440412  1
  O  O18  1  0.278824  0.610526  0.935280  1
  O  O19  1  0.777685  0.886282  0.063468  1
  O  O20  1  0.571917  0.851157  0.525870  1
  O  O21  1  0.074900  0.655366  0.472136  1
  O  O22  1  0.429259  0.349580  0.974045  1
  O  O23  1  0.921165  0.149892  0.027297  1
  O  O24  1  0.188701  0.864000  0.257640  1
  O  O25  1  0.683044  0.636553  0.741151  1
  O  O26  1  0.827107  0.365723  0.240842  1
  O  O27  1  0.316100  0.137362  0.759791  1
  O  O28  1  0.836867  0.045901  0.286048  1
  O  O29  1  0.331149  0.450167  0.714009  1
  O  O30  1  0.174573  0.550214  0.214418  1
  O  O31  1  0.665259  0.946702  0.788752  1
  O  O32  1  0.305839  0.132442  0.168204  1
  O  O33  1  0.809179  0.365527  0.822325  1
  O  O34  1  0.692397  0.636546  0.321962  1
  O  O35  1  0.193742  0.862681  0.679673  1
