# generated using pymatgen
data_LaMnAl10Rh
_symmetry_space_group_name_H-M   'P 1'
_cell_length_a   6.89692947
_cell_length_b   6.89692873
_cell_length_c   9.20303923
_cell_angle_alpha   90.26381220
_cell_angle_beta   90.26381227
_cell_angle_gamma   96.87774972
_symmetry_Int_Tables_number   1
_chemical_formula_structural   LaMnAl10Rh
_chemical_formula_sum   'La2 Mn2 Al20 Rh2'
_cell_volume   434.60610254
_cell_formula_units_Z   2
loop_
 _symmetry_equiv_pos_site_id
 _symmetry_equiv_pos_as_xyz
  1  'x, y, z'
loop_
 _atom_site_type_symbol
 _atom_site_label
 _atom_site_symmetry_multiplicity
 _atom_site_fract_x
 _atom_site_fract_y
 _atom_site_fract_z
 _atom_site_occupancy
  La  La0  1  0.877951  0.122049  0.750000  1
  La  La1  1  0.122049  0.877951  0.250000  1
  Mn  Mn2  1  0.000000  0.500000  0.000000  1
  Mn  Mn3  1  0.500000  0.000000  0.500000  1
  Al  Al4  1  0.618711  0.374297  0.550262  1
  Al  Al5  1  0.381289  0.625703  0.449738  1
  Al  Al6  1  0.374297  0.618711  0.050262  1
  Al  Al7  1  0.625703  0.381289  0.949738  1
  Al  Al8  1  0.231673  0.224836  0.496819  1
  Al  Al9  1  0.768327  0.775164  0.503181  1
  Al  Al10  1  0.775164  0.768327  0.003181  1
  Al  Al11  1  0.224836  0.231673  0.996819  1
  Al  Al12  1  0.842237  0.166816  0.100846  1
  Al  Al13  1  0.157763  0.833184  0.899154  1
  Al  Al14  1  0.166816  0.842237  0.600846  1
  Al  Al15  1  0.833184  0.157763  0.399154  1
  Al  Al16  1  0.863641  0.589650  0.753510  1
  Al  Al17  1  0.136359  0.410350  0.246490  1
  Al  Al18  1  0.410350  0.136359  0.746490  1
  Al  Al19  1  0.589650  0.863641  0.253510  1
  Al  Al20  1  0.223053  0.480593  0.755396  1
  Al  Al21  1  0.776947  0.519407  0.244604  1
  Al  Al22  1  0.519407  0.776947  0.744604  1
  Al  Al23  1  0.480593  0.223053  0.255396  1
  Rh  Rh24  1  0.000000  0.500000  0.500000  1
  Rh  Rh25  1  0.500000  0.000000  0.000000  1
