# generated using pymatgen
data_Hf8V11Si16Os
_symmetry_space_group_name_H-M   'P 1'
_cell_length_a   6.45271049
_cell_length_b   6.61001976
_cell_length_c   12.51628000
_cell_angle_alpha   90.00000000
_cell_angle_beta   90.00000000
_cell_angle_gamma   89.75749177
_symmetry_Int_Tables_number   1
_chemical_formula_structural   Hf8V11Si16Os
_chemical_formula_sum   'Hf8 V11 Si16 Os1'
_cell_volume   533.84639967
_cell_formula_units_Z   1
loop_
 _symmetry_equiv_pos_site_id
 _symmetry_equiv_pos_as_xyz
  1  'x, y, z'
loop_
 _atom_site_type_symbol
 _atom_site_label
 _atom_site_symmetry_multiplicity
 _atom_site_fract_x
 _atom_site_fract_y
 _atom_site_fract_z
 _atom_site_occupancy
  Hf  Hf0  1  0.994072  0.170738  0.094768  1
  Hf  Hf1  1  0.003956  0.832991  0.908558  1
  Hf  Hf2  1  0.509392  0.670683  0.908363  1
  Hf  Hf3  1  0.003956  0.832991  0.591442  1
  Hf  Hf4  1  0.494349  0.330250  0.093867  1
  Hf  Hf5  1  0.994072  0.170738  0.405232  1
  Hf  Hf6  1  0.494349  0.330250  0.406133  1
  Hf  Hf7  1  0.509392  0.670683  0.591637  1
  V  V8  1  0.835411  0.506494  0.250000  1
  V  V9  1  0.336705  0.994779  0.250000  1
  V  V10  1  0.665827  0.999578  0.750000  1
  V  V11  1  0.336085  0.162474  0.624359  1
  V  V12  1  0.663661  0.831470  0.375534  1
  V  V13  1  0.163314  0.667497  0.377483  1
  V  V14  1  0.663661  0.831470  0.124466  1
  V  V15  1  0.831986  0.329816  0.623617  1
  V  V16  1  0.336085  0.162474  0.875641  1
  V  V17  1  0.831986  0.329816  0.876383  1
  V  V18  1  0.163314  0.667497  0.122517  1
  Si  Si19  1  0.036818  0.129427  0.750000  1
  Si  Si20  1  0.964360  0.873031  0.250000  1
  Si  Si21  1  0.461741  0.626388  0.250000  1
  Si  Si22  1  0.534554  0.371413  0.750000  1
  Si  Si23  1  0.303083  0.866015  0.750000  1
  Si  Si24  1  0.698095  0.133608  0.250000  1
  Si  Si25  1  0.198688  0.367223  0.250000  1
  Si  Si26  1  0.803546  0.633606  0.750000  1
  Si  Si27  1  0.168660  0.455898  0.542414  1
  Si  Si28  1  0.832129  0.542390  0.459272  1
  Si  Si29  1  0.331593  0.957197  0.458098  1
  Si  Si30  1  0.832129  0.542390  0.040728  1
  Si  Si31  1  0.666509  0.042414  0.540304  1
  Si  Si32  1  0.168660  0.455898  0.957586  1
  Si  Si33  1  0.666509  0.042414  0.959696  1
  Si  Si34  1  0.331593  0.957197  0.041902  1
  Os  Os35  1  0.169759  0.510802  0.750000  1
