# generated using pymatgen
data_Zn2CoH4
_symmetry_space_group_name_H-M   'P 1'
_cell_length_a   3.23759331
_cell_length_b   4.68012440
_cell_length_c   4.68057351
_cell_angle_alpha   72.63183097
_cell_angle_beta   69.44763840
_cell_angle_gamma   69.83714627
_symmetry_Int_Tables_number   1
_chemical_formula_structural   Zn2CoH4
_chemical_formula_sum   'Zn2 Co1 H4'
_cell_volume   61.05357587
_cell_formula_units_Z   1
loop_
 _symmetry_equiv_pos_site_id
 _symmetry_equiv_pos_as_xyz
  1  'x, y, z'
loop_
 _atom_site_type_symbol
 _atom_site_label
 _atom_site_symmetry_multiplicity
 _atom_site_fract_x
 _atom_site_fract_y
 _atom_site_fract_z
 _atom_site_occupancy
  Zn  Zn0  1  0.746315  0.938436  0.864333  1
  Zn  Zn1  1  0.201997  0.407399  0.499961  1
  Co  Co2  1  0.500383  0.857533  0.451446  1
  H  H3  1  0.493927  0.159604  0.180616  1
  H  H4  1  0.439675  0.636281  0.776895  1
  H  H5  1  0.732975  0.609193  0.237471  1
  H  H6  1  0.006580  0.907305  0.391186  1
