# generated using pymatgen
data_Ca4AlRh7
_symmetry_space_group_name_H-M   'P 1'
_cell_length_a   5.47299700
_cell_length_b   5.47299587
_cell_length_c   8.40608200
_cell_angle_alpha   90.00000000
_cell_angle_beta   90.00000000
_cell_angle_gamma   119.99998869
_symmetry_Int_Tables_number   1
_chemical_formula_structural   Ca4AlRh7
_chemical_formula_sum   'Ca4 Al1 Rh7'
_cell_volume   218.05931024
_cell_formula_units_Z   1
loop_
 _symmetry_equiv_pos_site_id
 _symmetry_equiv_pos_as_xyz
  1  'x, y, z'
loop_
 _atom_site_type_symbol
 _atom_site_label
 _atom_site_symmetry_multiplicity
 _atom_site_fract_x
 _atom_site_fract_y
 _atom_site_fract_z
 _atom_site_occupancy
  Ca  Ca0  1  0.333333  0.666667  0.062779  1
  Ca  Ca1  1  0.666667  0.333333  0.571040  1
  Ca  Ca2  1  0.666667  0.333333  0.937221  1
  Ca  Ca3  1  0.333333  0.666667  0.428960  1
  Al  Al4  1  0.000000  0.000000  0.500000  1
  Rh  Rh5  1  0.000000  0.000000  0.000000  1
  Rh  Rh6  1  0.830366  0.660732  0.255294  1
  Rh  Rh7  1  0.169634  0.830366  0.744706  1
  Rh  Rh8  1  0.660732  0.830366  0.744706  1
  Rh  Rh9  1  0.339268  0.169634  0.255294  1
  Rh  Rh10  1  0.830366  0.169634  0.255294  1
  Rh  Rh11  1  0.169634  0.339268  0.744706  1
