# generated using pymatgen
data_YbZrU(SnIr)3
_symmetry_space_group_name_H-M   'P 1'
_cell_length_a   7.32715502
_cell_length_b   7.54011941
_cell_length_c   3.88890000
_cell_angle_alpha   90.00000000
_cell_angle_beta   90.00000000
_cell_angle_gamma   120.15877212
_symmetry_Int_Tables_number   1
_chemical_formula_structural   YbZrU(SnIr)3
_chemical_formula_sum   'Yb1 Zr1 U1 Sn3 Ir3'
_cell_volume   185.76930685
_cell_formula_units_Z   1
loop_
 _symmetry_equiv_pos_site_id
 _symmetry_equiv_pos_as_xyz
  1  'x, y, z'
loop_
 _atom_site_type_symbol
 _atom_site_label
 _atom_site_symmetry_multiplicity
 _atom_site_fract_x
 _atom_site_fract_y
 _atom_site_fract_z
 _atom_site_occupancy
  Yb  Yb0  1  0.404598  0.001249  0.500000  1
  Zr  Zr1  1  0.596914  0.600509  0.500000  1
  U  U2  1  0.002181  0.413824  0.500000  1
  Sn  Sn3  1  0.002600  0.756321  0.000000  1
  Sn  Sn4  1  0.275074  0.255485  0.000000  1
  Sn  Sn5  1  0.719310  0.985167  0.000000  1
  Ir  Ir6  1  0.311517  0.632548  0.000000  1
  Ir  Ir7  1  0.701725  0.346560  0.000000  1
  Ir  Ir8  1  0.986080  0.008339  0.500000  1
