# generated using pymatgen
data_Dy3YGa18(RuPt2)2
_symmetry_space_group_name_H-M   'P 1'
_cell_length_a   7.63593694
_cell_length_b   7.63564311
_cell_length_c   9.51785803
_cell_angle_alpha   89.99166488
_cell_angle_beta   90.00214750
_cell_angle_gamma   119.84105689
_symmetry_Int_Tables_number   1
_chemical_formula_structural   Dy3YGa18(RuPt2)2
_chemical_formula_sum   'Dy3 Y1 Ga18 Ru2 Pt4'
_cell_volume   481.36127773
_cell_formula_units_Z   1
loop_
 _symmetry_equiv_pos_site_id
 _symmetry_equiv_pos_as_xyz
  1  'x, y, z'
loop_
 _atom_site_type_symbol
 _atom_site_label
 _atom_site_symmetry_multiplicity
 _atom_site_fract_x
 _atom_site_fract_y
 _atom_site_fract_z
 _atom_site_occupancy
  Dy  Dy0  1  0.673525  0.997930  0.250802  1
  Dy  Dy1  1  0.002054  0.326509  0.749210  1
  Dy  Dy2  1  0.997834  0.673455  0.250223  1
  Y  Y3  1  0.326494  0.002248  0.749798  1
  Ga  Ga4  1  0.864038  0.864330  0.750064  1
  Ga  Ga5  1  0.135674  0.135629  0.249936  1
  Ga  Ga6  1  0.661661  0.667588  0.432046  1
  Ga  Ga7  1  0.338317  0.332640  0.932264  1
  Ga  Ga8  1  0.667694  0.661711  0.068037  1
  Ga  Ga9  1  0.332375  0.338658  0.567603  1
  Ga  Ga10  1  0.450983  0.661069  0.746588  1
  Ga  Ga11  1  0.548951  0.338585  0.246611  1
  Ga  Ga12  1  0.661897  0.451484  0.753374  1
  Ga  Ga13  1  0.338638  0.549030  0.253439  1
  Ga  Ga14  1  0.993304  0.335298  0.082310  1
  Ga  Ga15  1  0.006347  0.664503  0.581895  1
  Ga  Ga16  1  0.335164  0.993269  0.417506  1
  Ga  Ga17  1  0.665068  0.006729  0.918045  1
  Ga  Ga18  1  0.994850  0.658138  0.918558  1
  Ga  Ga19  1  0.004574  0.341312  0.418224  1
  Ga  Ga20  1  0.658979  0.995336  0.581390  1
  Ga  Ga21  1  0.341541  0.004769  0.082071  1
  Ru  Ru22  1  0.328450  0.671359  0.499891  1
  Ru  Ru23  1  0.671945  0.328462  0.000086  1
  Pt  Pt24  1  0.000155  0.999697  0.499965  1
  Pt  Pt25  1  0.999426  0.000346  0.000035  1
  Pt  Pt26  1  0.671634  0.328568  0.499986  1
  Pt  Pt27  1  0.328430  0.671349  0.000043  1
