# generated using pymatgen
data_Yb3Cd3Pd2Pt
_symmetry_space_group_name_H-M   'P 1'
_cell_length_a   7.49936400
_cell_length_b   7.49936559
_cell_length_c   4.09200600
_cell_angle_alpha   90.00000000
_cell_angle_beta   90.00000000
_cell_angle_gamma   120.00000179
_symmetry_Int_Tables_number   1
_chemical_formula_structural   Yb3Cd3Pd2Pt
_chemical_formula_sum   'Yb3 Cd3 Pd2 Pt1'
_cell_volume   199.30392214
_cell_formula_units_Z   1
loop_
 _symmetry_equiv_pos_site_id
 _symmetry_equiv_pos_as_xyz
  1  'x, y, z'
loop_
 _atom_site_type_symbol
 _atom_site_label
 _atom_site_symmetry_multiplicity
 _atom_site_fract_x
 _atom_site_fract_y
 _atom_site_fract_z
 _atom_site_occupancy
  Yb  Yb0  1  0.590095  0.596115  0.000000  1
  Yb  Yb1  1  0.403885  0.993981  0.000000  1
  Yb  Yb2  1  0.006019  0.409905  0.000000  1
  Cd  Cd3  1  0.255780  0.253043  0.500000  1
  Cd  Cd4  1  0.746957  0.002738  0.500000  1
  Cd  Cd5  1  0.997262  0.744220  0.500000  1
  Pd  Pd6  1  0.000000  0.000000  0.000000  1
  Pd  Pd7  1  0.666667  0.333333  0.500000  1
  Pt  Pt8  1  0.333333  0.666667  0.500000  1
