# generated using pymatgen
data_Sc4Zn2ReOs5
_symmetry_space_group_name_H-M   'P 1'
_cell_length_a   5.29854040
_cell_length_b   5.20921462
_cell_length_c   8.63479200
_cell_angle_alpha   90.00000000
_cell_angle_beta   90.00000000
_cell_angle_gamma   121.53121450
_symmetry_Int_Tables_number   1
_chemical_formula_structural   Sc4Zn2ReOs5
_chemical_formula_sum   'Sc4 Zn2 Re1 Os5'
_cell_volume   203.14263887
_cell_formula_units_Z   1
loop_
 _symmetry_equiv_pos_site_id
 _symmetry_equiv_pos_as_xyz
  1  'x, y, z'
loop_
 _atom_site_type_symbol
 _atom_site_label
 _atom_site_symmetry_multiplicity
 _atom_site_fract_x
 _atom_site_fract_y
 _atom_site_fract_z
 _atom_site_occupancy
  Sc  Sc0  1  0.325475  0.671233  0.444063  1
  Sc  Sc1  1  0.663932  0.341076  0.569537  1
  Sc  Sc2  1  0.663932  0.341076  0.930463  1
  Sc  Sc3  1  0.325475  0.671233  0.055937  1
  Zn  Zn4  1  0.355292  0.158057  0.250000  1
  Zn  Zn5  1  0.844560  0.642577  0.250000  1
  Re  Re6  1  0.166604  0.336649  0.750000  1
  Os  Os7  1  0.168738  0.825766  0.750000  1
  Os  Os8  1  0.654278  0.826914  0.750000  1
  Os  Os9  1  0.995314  0.018232  0.003114  1
  Os  Os10  1  0.841084  0.148955  0.250000  1
  Os  Os11  1  0.995314  0.018232  0.496886  1
