# generated using pymatgen
data_Y5Er11Cd4TcNi3
_symmetry_space_group_name_H-M   'P 1'
_cell_length_a   9.58530129
_cell_length_b   9.57441149
_cell_length_c   9.57441153
_cell_angle_alpha   59.44637732
_cell_angle_beta   59.41063565
_cell_angle_gamma   59.41063063
_symmetry_Int_Tables_number   1
_chemical_formula_structural   Y5Er11Cd4TcNi3
_chemical_formula_sum   'Y5 Er11 Cd4 Tc1 Ni3'
_cell_volume   613.15579488
_cell_formula_units_Z   1
loop_
 _symmetry_equiv_pos_site_id
 _symmetry_equiv_pos_as_xyz
  1  'x, y, z'
loop_
 _atom_site_type_symbol
 _atom_site_label
 _atom_site_symmetry_multiplicity
 _atom_site_fract_x
 _atom_site_fract_y
 _atom_site_fract_z
 _atom_site_occupancy
  Y  Y0  1  0.803855  0.191010  0.191010  1
  Y  Y1  1  0.815653  0.185736  0.814164  1
  Y  Y2  1  0.190215  0.804783  0.189528  1
  Y  Y3  1  0.815653  0.814164  0.185736  1
  Y  Y4  1  0.190215  0.189528  0.804783  1
  Er  Er5  1  0.596711  0.596776  0.596776  1
  Er  Er6  1  0.601299  0.602572  0.205314  1
  Er  Er7  1  0.601299  0.205314  0.602572  1
  Er  Er8  1  0.204878  0.602030  0.602030  1
  Er  Er9  1  0.061607  0.436811  0.436811  1
  Er  Er10  1  0.436086  0.061673  0.061673  1
  Er  Er11  1  0.436397  0.061434  0.437424  1
  Er  Er12  1  0.062039  0.436393  0.061255  1
  Er  Er13  1  0.436397  0.437424  0.061434  1
  Er  Er14  1  0.062039  0.061255  0.436393  1
  Er  Er15  1  0.188229  0.813270  0.813270  1
  Cd  Cd16  1  0.829693  0.829333  0.829333  1
  Cd  Cd17  1  0.828780  0.829038  0.507064  1
  Cd  Cd18  1  0.828780  0.507064  0.829038  1
  Cd  Cd19  1  0.505897  0.829148  0.829148  1
  Tc  Tc20  1  0.394418  0.394065  0.394065  1
  Ni  Ni21  1  0.392005  0.393245  0.825657  1
  Ni  Ni22  1  0.392005  0.825657  0.393245  1
  Ni  Ni23  1  0.825846  0.392274  0.392274  1
