# generated using pymatgen
data_AcEr4(FeB3)2
_symmetry_space_group_name_H-M   'P 1'
_cell_length_a   8.34877636
_cell_length_b   8.34877768
_cell_length_c   8.34877676
_cell_angle_alpha   37.88508272
_cell_angle_beta   37.88509201
_cell_angle_gamma   37.88507903
_symmetry_Int_Tables_number   1
_chemical_formula_structural   AcEr4(FeB3)2
_chemical_formula_sum   'Ac1 Er4 Fe2 B6'
_cell_volume   196.93872970
_cell_formula_units_Z   1
loop_
 _symmetry_equiv_pos_site_id
 _symmetry_equiv_pos_as_xyz
  1  'x, y, z'
loop_
 _atom_site_type_symbol
 _atom_site_label
 _atom_site_symmetry_multiplicity
 _atom_site_fract_x
 _atom_site_fract_y
 _atom_site_fract_z
 _atom_site_occupancy
  Ac  Ac0  1  0.000000  0.000000  0.000000  1
  Er  Er1  1  0.580966  0.580966  0.580966  1
  Er  Er2  1  0.419034  0.419034  0.419034  1
  Er  Er3  1  0.751849  0.751849  0.751849  1
  Er  Er4  1  0.248151  0.248151  0.248151  1
  Fe  Fe5  1  0.883847  0.883847  0.883847  1
  Fe  Fe6  1  0.116153  0.116153  0.116153  1
  B  B7  1  0.500000  0.832018  0.167982  1
  B  B8  1  0.167982  0.500000  0.832018  1
  B  B9  1  0.832018  0.167982  0.500000  1
  B  B10  1  0.500000  0.167982  0.832018  1
  B  B11  1  0.832018  0.500000  0.167982  1
  B  B12  1  0.167982  0.832018  0.500000  1
