# generated using pymatgen
data_Li3La2SmSi2Bi
_symmetry_space_group_name_H-M   'P 1'
_cell_length_a   7.41271125
_cell_length_b   7.41271077
_cell_length_c   4.48204200
_cell_angle_alpha   90.00000000
_cell_angle_beta   90.00000000
_cell_angle_gamma   119.09098736
_symmetry_Int_Tables_number   1
_chemical_formula_structural   Li3La2SmSi2Bi
_chemical_formula_sum   'Li3 La2 Sm1 Si2 Bi1'
_cell_volume   215.21191449
_cell_formula_units_Z   1
loop_
 _symmetry_equiv_pos_site_id
 _symmetry_equiv_pos_as_xyz
  1  'x, y, z'
loop_
 _atom_site_type_symbol
 _atom_site_label
 _atom_site_symmetry_multiplicity
 _atom_site_fract_x
 _atom_site_fract_y
 _atom_site_fract_z
 _atom_site_occupancy
  Li  Li0  1  0.243242  0.002430  0.500000  1
  Li  Li1  1  0.754300  0.754300  0.500000  1
  Li  Li2  1  0.002430  0.243242  0.500000  1
  La  La3  1  0.997662  0.548205  0.000000  1
  La  La4  1  0.548205  0.997662  0.000000  1
  Sm  Sm5  1  0.443881  0.443881  0.000000  1
  Si  Si6  1  0.338252  0.661662  0.500000  1
  Si  Si7  1  0.661662  0.338252  0.500000  1
  Bi  Bi8  1  0.010365  0.010365  0.000000  1
