# generated using pymatgen
data_BaLuCuSe2S
_symmetry_space_group_name_H-M   'P 1'
_cell_length_a   7.26409399
_cell_length_b   7.26409292
_cell_length_c   10.24704600
_cell_angle_alpha   90.00000000
_cell_angle_beta   90.00000000
_cell_angle_gamma   147.25907131
_symmetry_Int_Tables_number   1
_chemical_formula_structural   BaLuCuSe2S
_chemical_formula_sum   'Ba2 Lu2 Cu2 Se4 S2'
_cell_volume   292.43637079
_cell_formula_units_Z   2
loop_
 _symmetry_equiv_pos_site_id
 _symmetry_equiv_pos_as_xyz
  1  'x, y, z'
loop_
 _atom_site_type_symbol
 _atom_site_label
 _atom_site_symmetry_multiplicity
 _atom_site_fract_x
 _atom_site_fract_y
 _atom_site_fract_z
 _atom_site_occupancy
  Ba  Ba0  1  0.263082  0.736920  0.250000  1
  Ba  Ba1  1  0.736920  0.263082  0.750000  1
  Lu  Lu2  1  0.000000  0.000000  0.000000  1
  Lu  Lu3  1  0.000000  0.000000  0.500000  1
  Cu  Cu4  1  0.527381  0.472621  0.250000  1
  Cu  Cu5  1  0.472621  0.527381  0.750000  1
  Se  Se6  1  0.634116  0.365886  0.057577  1
  Se  Se7  1  0.634116  0.365886  0.442424  1
  Se  Se8  1  0.365886  0.634116  0.557577  1
  Se  Se9  1  0.365886  0.634116  0.942423  1
  S  S10  1  0.938363  0.061639  0.250000  1
  S  S11  1  0.061639  0.938363  0.750000  1
