# generated using pymatgen
data_TbNdYTe4
_symmetry_space_group_name_H-M   'P 1'
_cell_length_a   4.38904200
_cell_length_b   7.57821358
_cell_length_c   7.66682800
_cell_angle_alpha   71.71989839
_cell_angle_beta   90.00000000
_cell_angle_gamma   90.00000000
_symmetry_Int_Tables_number   1
_chemical_formula_structural   TbNdYTe4
_chemical_formula_sum   'Tb1 Nd1 Y1 Te4'
_cell_volume   242.13804533
_cell_formula_units_Z   1
loop_
 _symmetry_equiv_pos_site_id
 _symmetry_equiv_pos_as_xyz
  1  'x, y, z'
loop_
 _atom_site_type_symbol
 _atom_site_label
 _atom_site_symmetry_multiplicity
 _atom_site_fract_x
 _atom_site_fract_y
 _atom_site_fract_z
 _atom_site_occupancy
  Tb  Tb0  1  0.500000  0.500000  0.000000  1
  Nd  Nd1  1  0.000000  0.500000  0.500000  1
  Y  Y2  1  0.000000  0.000000  0.000000  1
  Te  Te3  1  0.500000  0.761624  0.248397  1
  Te  Te4  1  0.000000  0.249498  0.243722  1
  Te  Te5  1  0.500000  0.238376  0.751603  1
  Te  Te6  1  0.000000  0.750502  0.756278  1
