# generated using pymatgen
data_Li8La7PrSn8
_symmetry_space_group_name_H-M   'P 1'
_cell_length_a   9.68859900
_cell_length_b   9.68859850
_cell_length_c   7.90458200
_cell_angle_alpha   90.00000000
_cell_angle_beta   90.00000000
_cell_angle_gamma   120.00000511
_symmetry_Int_Tables_number   1
_chemical_formula_structural   Li8La7PrSn8
_chemical_formula_sum   'Li8 La7 Pr1 Sn8'
_cell_volume   642.58629517
_cell_formula_units_Z   1
loop_
 _symmetry_equiv_pos_site_id
 _symmetry_equiv_pos_as_xyz
  1  'x, y, z'
loop_
 _atom_site_type_symbol
 _atom_site_label
 _atom_site_symmetry_multiplicity
 _atom_site_fract_x
 _atom_site_fract_y
 _atom_site_fract_z
 _atom_site_occupancy
  Li  Li0  1  0.166469  0.833531  0.190835  1
  Li  Li1  1  0.331837  0.165918  0.687530  1
  Li  Li2  1  0.834082  0.668163  0.687530  1
  Li  Li3  1  0.166469  0.332936  0.190835  1
  Li  Li4  1  0.667064  0.833531  0.190835  1
  Li  Li5  1  0.834082  0.165918  0.687530  1
  Li  Li6  1  0.333333  0.666667  0.816212  1
  Li  Li7  1  0.666667  0.333333  0.318827  1
  La  La8  1  0.513008  0.486992  0.989805  1
  La  La9  1  0.026291  0.513146  0.489719  1
  La  La10  1  0.486854  0.973709  0.489719  1
  La  La11  1  0.513008  0.026016  0.989805  1
  La  La12  1  0.973984  0.486992  0.989805  1
  La  La13  1  0.486854  0.513146  0.489719  1
  La  La14  1  0.000000  0.000000  0.985429  1
  Pr  Pr15  1  0.000000  0.000000  0.484908  1
  Sn  Sn16  1  0.166391  0.833609  0.761660  1
  Sn  Sn17  1  0.331658  0.165829  0.265618  1
  Sn  Sn18  1  0.834171  0.668342  0.265618  1
  Sn  Sn19  1  0.166391  0.332780  0.761660  1
  Sn  Sn20  1  0.667220  0.833609  0.761660  1
  Sn  Sn21  1  0.834171  0.165829  0.265618  1
  Sn  Sn22  1  0.333333  0.666667  0.213270  1
  Sn  Sn23  1  0.666667  0.333333  0.715856  1
