# generated using pymatgen
data_HoEr7Ti7Si16Tc5
_symmetry_space_group_name_H-M   'P 1'
_cell_length_a   6.90827143
_cell_length_b   6.91742494
_cell_length_c   12.72854303
_cell_angle_alpha   89.80177384
_cell_angle_beta   89.91530937
_cell_angle_gamma   89.93445790
_symmetry_Int_Tables_number   1
_chemical_formula_structural   HoEr7Ti7Si16Tc5
_chemical_formula_sum   'Ho1 Er7 Ti7 Si16 Tc5'
_cell_volume   608.25990297
_cell_formula_units_Z   1
loop_
 _symmetry_equiv_pos_site_id
 _symmetry_equiv_pos_as_xyz
  1  'x, y, z'
loop_
 _atom_site_type_symbol
 _atom_site_label
 _atom_site_symmetry_multiplicity
 _atom_site_fract_x
 _atom_site_fract_y
 _atom_site_fract_z
 _atom_site_occupancy
  Ho  Ho0  1  0.997362  0.658341  0.029007  1
  Er  Er1  1  0.340374  0.000278  0.470031  1
  Er  Er2  1  0.498646  0.840318  0.719786  1
  Er  Er3  1  0.499509  0.159040  0.218689  1
  Er  Er4  1  0.839512  0.498497  0.279918  1
  Er  Er5  1  0.159759  0.498978  0.781904  1
  Er  Er6  1  0.658797  0.999786  0.968371  1
  Er  Er7  1  0.000598  0.340799  0.531234  1
  Ti  Ti8  1  0.493715  0.657863  0.126892  1
  Ti  Ti9  1  0.501576  0.346158  0.628639  1
  Ti  Ti10  1  0.655850  0.496864  0.873336  1
  Ti  Ti11  1  0.346171  0.504822  0.373520  1
  Ti  Ti12  1  0.846199  0.996869  0.376609  1
  Ti  Ti13  1  0.003875  0.155611  0.126029  1
  Ti  Ti14  1  0.996048  0.846791  0.622813  1
  Si  Si15  1  0.196785  0.128055  0.687036  1
  Si  Si16  1  0.375520  0.702298  0.933698  1
  Si  Si17  1  0.628351  0.299771  0.434133  1
  Si  Si18  1  0.700269  0.371094  0.065893  1
  Si  Si19  1  0.300045  0.629489  0.566456  1
  Si  Si20  1  0.800057  0.870929  0.183365  1
  Si  Si21  1  0.129550  0.200637  0.317468  1
  Si  Si22  1  0.875068  0.806029  0.815894  1
  Si  Si23  1  0.290220  0.958944  0.062177  1
  Si  Si24  1  0.546953  0.791180  0.317606  1
  Si  Si25  1  0.446439  0.210390  0.819249  1
  Si  Si26  1  0.790598  0.548423  0.682834  1
  Si  Si27  1  0.209175  0.453533  0.182853  1
  Si  Si28  1  0.709124  0.046681  0.567274  1
  Si  Si29  1  0.961829  0.279576  0.931766  1
  Si  Si30  1  0.046250  0.709817  0.431764  1
  Tc  Tc31  1  0.328866  0.332088  0.001092  1
  Tc  Tc32  1  0.169903  0.830757  0.247537  1
  Tc  Tc33  1  0.825969  0.170022  0.748290  1
  Tc  Tc34  1  0.670213  0.669913  0.500479  1
  Tc  Tc35  1  0.160826  0.989359  0.876360  1
