# generated using pymatgen
data_Tb8Dy12Ir11Ru
_symmetry_space_group_name_H-M   'P 1'
_cell_length_a   10.88783900
_cell_length_b   10.88783900
_cell_length_c   6.40493800
_cell_angle_alpha   90.00000000
_cell_angle_beta   90.00000000
_cell_angle_gamma   90.00000000
_symmetry_Int_Tables_number   1
_chemical_formula_structural   Tb8Dy12Ir11Ru
_chemical_formula_sum   'Tb8 Dy12 Ir11 Ru1'
_cell_volume   759.27361917
_cell_formula_units_Z   1
loop_
 _symmetry_equiv_pos_site_id
 _symmetry_equiv_pos_as_xyz
  1  'x, y, z'
loop_
 _atom_site_type_symbol
 _atom_site_label
 _atom_site_symmetry_multiplicity
 _atom_site_fract_x
 _atom_site_fract_y
 _atom_site_fract_z
 _atom_site_occupancy
  Tb  Tb0  1  0.292128  0.087532  0.377315  1
  Tb  Tb1  1  0.292405  0.912418  0.880122  1
  Tb  Tb2  1  0.707595  0.087582  0.880122  1
  Tb  Tb3  1  0.707872  0.912468  0.377315  1
  Tb  Tb4  1  0.587582  0.792405  0.880122  1
  Tb  Tb5  1  0.587532  0.207872  0.377315  1
  Tb  Tb6  1  0.412468  0.792128  0.377315  1
  Tb  Tb7  1  0.412418  0.207595  0.880122  1
  Dy  Dy8  1  0.208815  0.411666  0.621176  1
  Dy  Dy9  1  0.208795  0.588204  0.120879  1
  Dy  Dy10  1  0.791205  0.411796  0.120879  1
  Dy  Dy11  1  0.791185  0.588334  0.621176  1
  Dy  Dy12  1  0.911796  0.708795  0.120879  1
  Dy  Dy13  1  0.911666  0.291185  0.621176  1
  Dy  Dy14  1  0.088334  0.708815  0.621176  1
  Dy  Dy15  1  0.088204  0.291205  0.120879  1
  Dy  Dy16  1  0.000000  0.000000  0.499491  1
  Dy  Dy17  1  0.000000  0.000000  0.999445  1
  Dy  Dy18  1  0.500000  0.500000  0.999445  1
  Dy  Dy19  1  0.500000  0.500000  0.499491  1
  Ir  Ir20  1  0.847414  0.153845  0.250213  1
  Ir  Ir21  1  0.847516  0.846482  0.749953  1
  Ir  Ir22  1  0.152484  0.153518  0.749953  1
  Ir  Ir23  1  0.152586  0.846155  0.250213  1
  Ir  Ir24  1  0.653518  0.347516  0.749953  1
  Ir  Ir25  1  0.653845  0.652586  0.250213  1
  Ir  Ir26  1  0.346155  0.347414  0.250213  1
  Ir  Ir27  1  0.346482  0.652484  0.749953  1
  Ir  Ir28  1  0.500000  0.000000  0.624141  1
  Ir  Ir29  1  0.000000  0.500000  0.877165  1
  Ir  Ir30  1  0.000000  0.500000  0.377297  1
  Ru  Ru31  1  0.500000  0.000000  0.124895  1
