# generated using pymatgen
data_Tb4MgPb3C
_symmetry_space_group_name_H-M   'P 1'
_cell_length_a   9.09537600
_cell_length_b   9.09537765
_cell_length_c   6.40606600
_cell_angle_alpha   90.00000000
_cell_angle_beta   90.00000000
_cell_angle_gamma   120.00000128
_symmetry_Int_Tables_number   1
_chemical_formula_structural   Tb4MgPb3C
_chemical_formula_sum   'Tb8 Mg2 Pb6 C2'
_cell_volume   458.94794372
_cell_formula_units_Z   2
loop_
 _symmetry_equiv_pos_site_id
 _symmetry_equiv_pos_as_xyz
  1  'x, y, z'
loop_
 _atom_site_type_symbol
 _atom_site_label
 _atom_site_symmetry_multiplicity
 _atom_site_fract_x
 _atom_site_fract_y
 _atom_site_fract_z
 _atom_site_occupancy
  Tb  Tb0  1  0.212065  0.000000  0.250898  1
  Tb  Tb1  1  0.787935  0.000000  0.749102  1
  Tb  Tb2  1  0.000000  0.212065  0.250898  1
  Tb  Tb3  1  0.000000  0.787935  0.749102  1
  Tb  Tb4  1  0.787935  0.787935  0.250898  1
  Tb  Tb5  1  0.212065  0.212065  0.749102  1
  Tb  Tb6  1  0.666667  0.333333  0.500000  1
  Tb  Tb7  1  0.333333  0.666667  0.500000  1
  Mg  Mg8  1  0.333333  0.666667  0.000000  1
  Mg  Mg9  1  0.666667  0.333333  0.000000  1
  Pb  Pb10  1  0.593069  0.000000  0.250568  1
  Pb  Pb11  1  0.406931  0.000000  0.749432  1
  Pb  Pb12  1  0.000000  0.593069  0.250568  1
  Pb  Pb13  1  0.000000  0.406931  0.749432  1
  Pb  Pb14  1  0.406931  0.406931  0.250568  1
  Pb  Pb15  1  0.593069  0.593069  0.749432  1
  C  C16  1  0.000000  0.000000  0.000000  1
  C  C17  1  0.000000  0.000000  0.500000  1
