# generated using pymatgen
data_Y3Ho9CoTc3
_symmetry_space_group_name_H-M   'P 1'
_cell_length_a   6.25009511
_cell_length_b   7.32580792
_cell_length_c   9.12565800
_cell_angle_alpha   90.00000000
_cell_angle_beta   90.00000000
_cell_angle_gamma   90.05180316
_symmetry_Int_Tables_number   1
_chemical_formula_structural   Y3Ho9CoTc3
_chemical_formula_sum   'Y3 Ho9 Co1 Tc3'
_cell_volume   417.83629790
_cell_formula_units_Z   1
loop_
 _symmetry_equiv_pos_site_id
 _symmetry_equiv_pos_as_xyz
  1  'x, y, z'
loop_
 _atom_site_type_symbol
 _atom_site_label
 _atom_site_symmetry_multiplicity
 _atom_site_fract_x
 _atom_site_fract_y
 _atom_site_fract_z
 _atom_site_occupancy
  Y  Y0  1  0.374295  0.539640  0.250000  1
  Y  Y1  1  0.875959  0.952549  0.750000  1
  Y  Y2  1  0.638826  0.458529  0.750000  1
  Ho  Ho3  1  0.661956  0.175547  0.061839  1
  Ho  Ho4  1  0.125679  0.041554  0.250000  1
  Ho  Ho5  1  0.832499  0.677961  0.434977  1
  Ho  Ho6  1  0.334047  0.822479  0.937180  1
  Ho  Ho7  1  0.163758  0.326546  0.564329  1
  Ho  Ho8  1  0.661956  0.175547  0.438161  1
  Ho  Ho9  1  0.163758  0.326546  0.935671  1
  Ho  Ho10  1  0.334047  0.822479  0.562820  1
  Ho  Ho11  1  0.832499  0.677961  0.065023  1
  Co  Co12  1  0.043437  0.614967  0.750000  1
  Tc  Tc13  1  0.957100  0.387431  0.250000  1
  Tc  Tc14  1  0.459492  0.112935  0.750000  1
  Tc  Tc15  1  0.540694  0.887330  0.250000  1
