# generated using pymatgen
data_Rb8Np(UTe4)3
_symmetry_space_group_name_H-M   'P 1'
_cell_length_a   14.97575966
_cell_length_b   7.64682059
_cell_length_c   9.67112017
_cell_angle_alpha   72.95869281
_cell_angle_beta   90.11447369
_cell_angle_gamma   89.75263540
_symmetry_Int_Tables_number   1
_chemical_formula_structural   Rb8Np(UTe4)3
_chemical_formula_sum   'Rb8 Np1 U3 Te12'
_cell_volume   1058.86460778
_cell_formula_units_Z   1
loop_
 _symmetry_equiv_pos_site_id
 _symmetry_equiv_pos_as_xyz
  1  'x, y, z'
loop_
 _atom_site_type_symbol
 _atom_site_label
 _atom_site_symmetry_multiplicity
 _atom_site_fract_x
 _atom_site_fract_y
 _atom_site_fract_z
 _atom_site_occupancy
  Rb  Rb0  1  0.953372  0.669277  0.668454  1
  Rb  Rb1  1  0.460194  0.833520  0.332019  1
  Rb  Rb2  1  0.038297  0.333894  0.331810  1
  Rb  Rb3  1  0.546996  0.169286  0.665641  1
  Rb  Rb4  1  0.868903  0.087107  0.893159  1
  Rb  Rb5  1  0.373133  0.408028  0.109397  1
  Rb  Rb6  1  0.128624  0.908452  0.107652  1
  Rb  Rb7  1  0.629924  0.592294  0.893081  1
  Np  Np8  1  0.749229  0.175509  0.288842  1
  U  U9  1  0.751310  0.676376  0.288629  1
  U  U10  1  0.250787  0.824101  0.710582  1
  U  U11  1  0.249005  0.324035  0.710753  1
  Te  Te12  1  0.912700  0.920470  0.281647  1
  Te  Te13  1  0.410386  0.568269  0.718777  1
  Te  Te14  1  0.089236  0.072397  0.717793  1
  Te  Te15  1  0.588270  0.437685  0.281936  1
  Te  Te16  1  0.820782  0.346268  0.521777  1
  Te  Te17  1  0.320438  0.159072  0.480625  1
  Te  Te18  1  0.178211  0.660378  0.481024  1
  Te  Te19  1  0.679639  0.832511  0.520977  1
  Te  Te20  1  0.843174  0.513409  0.069079  1
  Te  Te21  1  0.341946  0.992245  0.929192  1
  Te  Te22  1  0.159009  0.494766  0.929205  1
  Te  Te23  1  0.656436  0.000651  0.067947  1
