# generated using pymatgen
data_Hf4Ga5Tc3
_symmetry_space_group_name_H-M   'P 1'
_cell_length_a   7.10048933
_cell_length_b   7.94693809
_cell_length_c   12.63651912
_cell_angle_alpha   95.93811585
_cell_angle_beta   73.73091324
_cell_angle_gamma   116.58245082
_symmetry_Int_Tables_number   1
_chemical_formula_structural   Hf4Ga5Tc3
_chemical_formula_sum   'Hf12 Ga15 Tc9'
_cell_volume   611.93419051
_cell_formula_units_Z   3
loop_
 _symmetry_equiv_pos_site_id
 _symmetry_equiv_pos_as_xyz
  1  'x, y, z'
loop_
 _atom_site_type_symbol
 _atom_site_label
 _atom_site_symmetry_multiplicity
 _atom_site_fract_x
 _atom_site_fract_y
 _atom_site_fract_z
 _atom_site_occupancy
  Hf  Hf0  1  0.431729  0.922312  0.476094  1
  Hf  Hf1  1  0.940762  0.433038  0.971747  1
  Hf  Hf2  1  0.482756  0.583085  0.023961  1
  Hf  Hf3  1  0.983028  0.073178  0.522725  1
  Hf  Hf4  1  0.232571  0.340258  0.278855  1
  Hf  Hf5  1  0.716576  0.841463  0.784828  1
  Hf  Hf6  1  0.675780  0.162626  0.219241  1
  Hf  Hf7  1  0.175557  0.664126  0.727414  1
  Hf  Hf8  1  0.722004  0.630595  0.371773  1
  Hf  Hf9  1  0.227269  0.126233  0.872863  1
  Hf  Hf10  1  0.970834  0.866022  0.122087  1
  Hf  Hf11  1  0.466526  0.365326  0.628433  1
  Ga  Ga12  1  0.133094  0.645389  0.375241  1
  Ga  Ga13  1  0.630288  0.141006  0.878041  1
  Ga  Ga14  1  0.373725  0.862720  0.124514  1
  Ga  Ga15  1  0.873206  0.354266  0.623663  1
  Ga  Ga16  1  0.675746  0.500772  0.165887  1
  Ga  Ga17  1  0.172301  0.998571  0.667931  1
  Ga  Ga18  1  0.844765  0.997353  0.329076  1
  Ga  Ga19  1  0.343675  0.500440  0.834631  1
  Ga  Ga20  1  0.415840  0.248123  0.415697  1
  Ga  Ga21  1  0.918474  0.750250  0.914834  1
  Ga  Ga22  1  0.085380  0.254004  0.082837  1
  Ga  Ga23  1  0.582982  0.748847  0.583857  1
  Ga  Ga24  1  0.425500  0.184315  0.075304  1
  Ga  Ga25  1  0.928274  0.688132  0.581143  1
  Ga  Ga26  1  0.817148  0.308812  0.423210  1
  Tc  Tc27  1  0.306558  0.805113  0.934129  1
  Tc  Tc28  1  0.200021  0.958520  0.308602  1
  Tc  Tc29  1  0.700866  0.455241  0.803790  1
  Tc  Tc30  1  0.056667  0.551056  0.186673  1
  Tc  Tc31  1  0.550423  0.042355  0.691063  1
  Tc  Tc32  1  0.517575  0.748288  0.250332  1
  Tc  Tc33  1  0.019511  0.246435  0.750323  1
  Tc  Tc34  1  0.763390  0.002218  0.001868  1
  Tc  Tc35  1  0.263198  0.499512  0.497330  1
