# generated using pymatgen
data_Pa2InCoPt
_symmetry_space_group_name_H-M   'P 1'
_cell_length_a   7.59090300
_cell_length_b   7.59090236
_cell_length_c   3.51347900
_cell_angle_alpha   90.00000000
_cell_angle_beta   90.00000000
_cell_angle_gamma   91.07311003
_symmetry_Int_Tables_number   1
_chemical_formula_structural   Pa2InCoPt
_chemical_formula_sum   'Pa4 In2 Co2 Pt2'
_cell_volume   202.41748852
_cell_formula_units_Z   2
loop_
 _symmetry_equiv_pos_site_id
 _symmetry_equiv_pos_as_xyz
  1  'x, y, z'
loop_
 _atom_site_type_symbol
 _atom_site_label
 _atom_site_symmetry_multiplicity
 _atom_site_fract_x
 _atom_site_fract_y
 _atom_site_fract_z
 _atom_site_occupancy
  Pa  Pa0  1  0.684472  0.184472  0.500000  1
  Pa  Pa1  1  0.315528  0.815528  0.500000  1
  Pa  Pa2  1  0.158339  0.341661  0.500000  1
  Pa  Pa3  1  0.841661  0.658339  0.500000  1
  In  In4  1  0.000000  0.000000  0.000000  1
  In  In5  1  0.500000  0.500000  0.000000  1
  Co  Co6  1  0.130423  0.630423  0.000000  1
  Co  Co7  1  0.869577  0.369577  0.000000  1
  Pt  Pt8  1  0.632113  0.867887  0.000000  1
  Pt  Pt9  1  0.367887  0.132113  0.000000  1
