# generated using pymatgen
data_Hf17ScCr2(Re3P)2
_symmetry_space_group_name_H-M   'P 1'
_cell_length_a   8.54393828
_cell_length_b   8.54393807
_cell_length_c   8.50021900
_cell_angle_alpha   90.00000000
_cell_angle_beta   90.00000000
_cell_angle_gamma   119.91619413
_symmetry_Int_Tables_number   1
_chemical_formula_structural   Hf17ScCr2(Re3P)2
_chemical_formula_sum   'Hf17 Sc1 Cr2 Re6 P2'
_cell_volume   537.82758933
_cell_formula_units_Z   1
loop_
 _symmetry_equiv_pos_site_id
 _symmetry_equiv_pos_as_xyz
  1  'x, y, z'
loop_
 _atom_site_type_symbol
 _atom_site_label
 _atom_site_symmetry_multiplicity
 _atom_site_fract_x
 _atom_site_fract_y
 _atom_site_fract_z
 _atom_site_occupancy
  Hf  Hf0  1  0.194237  0.805763  0.451161  1
  Hf  Hf1  1  0.194707  0.388623  0.450633  1
  Hf  Hf2  1  0.611377  0.805293  0.450633  1
  Hf  Hf3  1  0.805284  0.194716  0.548652  1
  Hf  Hf4  1  0.805590  0.611502  0.549270  1
  Hf  Hf5  1  0.388498  0.194410  0.549270  1
  Hf  Hf6  1  0.805284  0.194716  0.951348  1
  Hf  Hf7  1  0.805590  0.611502  0.950730  1
  Hf  Hf8  1  0.388498  0.194410  0.950730  1
  Hf  Hf9  1  0.194237  0.805763  0.048839  1
  Hf  Hf10  1  0.194707  0.388623  0.049367  1
  Hf  Hf11  1  0.611377  0.805293  0.049367  1
  Hf  Hf12  1  0.539497  0.078776  0.250000  1
  Hf  Hf13  1  0.921224  0.460503  0.250000  1
  Hf  Hf14  1  0.459549  0.540451  0.750000  1
  Hf  Hf15  1  0.460087  0.919725  0.750000  1
  Hf  Hf16  1  0.080275  0.539913  0.750000  1
  Sc  Sc17  1  0.541048  0.458952  0.250000  1
  Cr  Cr18  1  0.999923  0.000077  0.499679  1
  Cr  Cr19  1  0.999923  0.000077  0.000321  1
  Re  Re20  1  0.892943  0.107057  0.250000  1
  Re  Re21  1  0.892687  0.784708  0.250000  1
  Re  Re22  1  0.215292  0.107313  0.250000  1
  Re  Re23  1  0.107038  0.892962  0.750000  1
  Re  Re24  1  0.106960  0.214757  0.750000  1
  Re  Re25  1  0.785243  0.893040  0.750000  1
  P  P26  1  0.332461  0.667539  0.250000  1
  P  P27  1  0.666462  0.333538  0.750000  1
