# generated using pymatgen
data_Eu16ZnCd3Pt4
_symmetry_space_group_name_H-M   'P 1'
_cell_length_a   10.27707309
_cell_length_b   10.27707245
_cell_length_c   10.27707231
_cell_angle_alpha   61.02747428
_cell_angle_beta   61.02747805
_cell_angle_gamma   61.02747542
_symmetry_Int_Tables_number   1
_chemical_formula_structural   Eu16ZnCd3Pt4
_chemical_formula_sum   'Eu16 Zn1 Cd3 Pt4'
_cell_volume   785.28646364
_cell_formula_units_Z   1
loop_
 _symmetry_equiv_pos_site_id
 _symmetry_equiv_pos_as_xyz
  1  'x, y, z'
loop_
 _atom_site_type_symbol
 _atom_site_label
 _atom_site_symmetry_multiplicity
 _atom_site_fract_x
 _atom_site_fract_y
 _atom_site_fract_z
 _atom_site_occupancy
  Eu  Eu0  1  0.347316  0.347316  0.347316  1
  Eu  Eu1  1  0.346937  0.346937  0.958916  1
  Eu  Eu2  1  0.346937  0.958916  0.346937  1
  Eu  Eu3  1  0.958916  0.346937  0.346937  1
  Eu  Eu4  1  0.806891  0.193078  0.193078  1
  Eu  Eu5  1  0.194085  0.806404  0.806404  1
  Eu  Eu6  1  0.193078  0.806891  0.193078  1
  Eu  Eu7  1  0.806404  0.194085  0.806404  1
  Eu  Eu8  1  0.193078  0.193078  0.806891  1
  Eu  Eu9  1  0.806404  0.806404  0.194085  1
  Eu  Eu10  1  0.939338  0.558646  0.558646  1
  Eu  Eu11  1  0.559593  0.941189  0.941189  1
  Eu  Eu12  1  0.558646  0.939338  0.558646  1
  Eu  Eu13  1  0.941189  0.559593  0.941189  1
  Eu  Eu14  1  0.558646  0.558646  0.939338  1
  Eu  Eu15  1  0.941189  0.941189  0.559593  1
  Zn  Zn16  1  0.579757  0.579757  0.579757  1
  Cd  Cd17  1  0.578856  0.578856  0.264889  1
  Cd  Cd18  1  0.578856  0.264889  0.578856  1
  Cd  Cd19  1  0.264889  0.578856  0.578856  1
  Pt  Pt20  1  0.140701  0.140701  0.140701  1
  Pt  Pt21  1  0.140300  0.140300  0.577692  1
  Pt  Pt22  1  0.140300  0.577692  0.140300  1
  Pt  Pt23  1  0.577692  0.140300  0.140300  1
