# generated using pymatgen
data_TbScNb4(B2Ru5)2
_symmetry_space_group_name_H-M   'P 1'
_cell_length_a   9.52410503
_cell_length_b   9.52410575
_cell_length_c   3.08198200
_cell_angle_alpha   90.00000000
_cell_angle_beta   90.00000000
_cell_angle_gamma   90.36221312
_symmetry_Int_Tables_number   1
_chemical_formula_structural   TbScNb4(B2Ru5)2
_chemical_formula_sum   'Tb1 Sc1 Nb4 B4 Ru10'
_cell_volume   279.55663529
_cell_formula_units_Z   1
loop_
 _symmetry_equiv_pos_site_id
 _symmetry_equiv_pos_as_xyz
  1  'x, y, z'
loop_
 _atom_site_type_symbol
 _atom_site_label
 _atom_site_symmetry_multiplicity
 _atom_site_fract_x
 _atom_site_fract_y
 _atom_site_fract_z
 _atom_site_occupancy
  Tb  Tb0  1  0.825610  0.674390  0.000000  1
  Sc  Sc1  1  0.176249  0.323751  0.000000  1
  Nb  Nb2  1  0.323772  0.824834  0.000000  1
  Nb  Nb3  1  0.675166  0.176228  0.000000  1
  Nb  Nb4  1  0.499361  0.499757  0.000000  1
  Nb  Nb5  1  0.000243  0.000639  0.000000  1
  B  B6  1  0.618827  0.881173  0.000000  1
  B  B7  1  0.374668  0.125332  0.000000  1
  B  B8  1  0.123339  0.617584  0.000000  1
  B  B9  1  0.882416  0.376661  0.000000  1
  Ru  Ru10  1  0.559164  0.724250  0.500000  1
  Ru  Ru11  1  0.434500  0.280522  0.500000  1
  Ru  Ru12  1  0.082140  0.783446  0.500000  1
  Ru  Ru13  1  0.923368  0.214382  0.500000  1
  Ru  Ru14  1  0.285618  0.576632  0.500000  1
  Ru  Ru15  1  0.716554  0.417860  0.500000  1
  Ru  Ru16  1  0.219478  0.065500  0.500000  1
  Ru  Ru17  1  0.775750  0.940836  0.500000  1
  Ru  Ru18  1  0.497606  0.002394  0.500000  1
  Ru  Ru19  1  0.006171  0.493829  0.500000  1
