# generated using pymatgen
data_Dy4HoEr3Ga3Co
_symmetry_space_group_name_H-M   'P 1'
_cell_length_a   9.98401200
_cell_length_b   9.98401235
_cell_length_c   6.93026600
_cell_angle_alpha   90.00000000
_cell_angle_beta   90.00000000
_cell_angle_gamma   119.99999223
_symmetry_Int_Tables_number   1
_chemical_formula_structural   Dy4HoEr3Ga3Co
_chemical_formula_sum   'Dy8 Ho2 Er6 Ga6 Co2'
_cell_volume   598.26111158
_cell_formula_units_Z   2
loop_
 _symmetry_equiv_pos_site_id
 _symmetry_equiv_pos_as_xyz
  1  'x, y, z'
loop_
 _atom_site_type_symbol
 _atom_site_label
 _atom_site_symmetry_multiplicity
 _atom_site_fract_x
 _atom_site_fract_y
 _atom_site_fract_z
 _atom_site_occupancy
  Dy  Dy0  1  0.463356  0.536644  0.207699  1
  Dy  Dy1  1  0.073288  0.536644  0.207699  1
  Dy  Dy2  1  0.463356  0.926712  0.207699  1
  Dy  Dy3  1  0.536644  0.463356  0.707699  1
  Dy  Dy4  1  0.926712  0.463356  0.707699  1
  Dy  Dy5  1  0.536644  0.073288  0.707699  1
  Dy  Dy6  1  0.000000  0.000000  0.231612  1
  Dy  Dy7  1  0.000000  0.000000  0.731612  1
  Ho  Ho8  1  0.333333  0.666667  0.826826  1
  Ho  Ho9  1  0.666667  0.333333  0.326826  1
  Er  Er10  1  0.172863  0.827137  0.510921  1
  Er  Er11  1  0.654272  0.827137  0.510921  1
  Er  Er12  1  0.172863  0.345728  0.510921  1
  Er  Er13  1  0.827137  0.172863  0.010921  1
  Er  Er14  1  0.345728  0.172863  0.010921  1
  Er  Er15  1  0.827137  0.654272  0.010921  1
  Ga  Ga16  1  0.163282  0.836718  0.959312  1
  Ga  Ga17  1  0.673438  0.836718  0.959312  1
  Ga  Ga18  1  0.163282  0.326562  0.959312  1
  Ga  Ga19  1  0.836718  0.163282  0.459312  1
  Ga  Ga20  1  0.326562  0.163282  0.459312  1
  Ga  Ga21  1  0.836718  0.673438  0.459312  1
  Co  Co22  1  0.333333  0.666667  0.445187  1
  Co  Co23  1  0.666667  0.333333  0.945187  1
