# generated using pymatgen
data_Yb2MnFeF10
_symmetry_space_group_name_H-M   'P 1'
_cell_length_a   5.56173480
_cell_length_b   5.51444363
_cell_length_c   7.78358986
_cell_angle_alpha   69.95411130
_cell_angle_beta   68.64071836
_cell_angle_gamma   70.79314728
_symmetry_Int_Tables_number   1
_chemical_formula_structural   Yb2MnFeF10
_chemical_formula_sum   'Yb2 Mn1 Fe1 F10'
_cell_volume   203.09148182
_cell_formula_units_Z   1
loop_
 _symmetry_equiv_pos_site_id
 _symmetry_equiv_pos_as_xyz
  1  'x, y, z'
loop_
 _atom_site_type_symbol
 _atom_site_label
 _atom_site_symmetry_multiplicity
 _atom_site_fract_x
 _atom_site_fract_y
 _atom_site_fract_z
 _atom_site_occupancy
  Yb  Yb0  1  0.544931  0.454403  0.746222  1
  Yb  Yb1  1  0.455069  0.545597  0.253778  1
  Mn  Mn2  1  0.000000  0.000000  0.000000  1
  Fe  Fe3  1  0.000000  0.000000  0.500000  1
  F  F4  1  0.095988  0.904391  0.257897  1
  F  F5  1  0.904012  0.095609  0.742103  1
  F  F6  1  0.216854  0.252542  0.378303  1
  F  F7  1  0.754959  0.788828  0.117067  1
  F  F8  1  0.711443  0.309212  0.030384  1
  F  F9  1  0.688185  0.292147  0.464524  1
  F  F10  1  0.288557  0.690788  0.969616  1
  F  F11  1  0.311815  0.707853  0.535476  1
  F  F12  1  0.245041  0.211172  0.882933  1
  F  F13  1  0.783146  0.747458  0.621697  1
