# generated using pymatgen
data_Ho8Er12FeCo3Bi8
_symmetry_space_group_name_H-M   'P 1'
_cell_length_a   7.92506617
_cell_length_b   8.86813000
_cell_length_c   12.34893680
_cell_angle_alpha   90.00000000
_cell_angle_beta   89.93798440
_cell_angle_gamma   90.00000000
_symmetry_Int_Tables_number   1
_chemical_formula_structural   Ho8Er12FeCo3Bi8
_chemical_formula_sum   'Ho8 Er12 Fe1 Co3 Bi8'
_cell_volume   867.88915455
_cell_formula_units_Z   1
loop_
 _symmetry_equiv_pos_site_id
 _symmetry_equiv_pos_as_xyz
  1  'x, y, z'
loop_
 _atom_site_type_symbol
 _atom_site_label
 _atom_site_symmetry_multiplicity
 _atom_site_fract_x
 _atom_site_fract_y
 _atom_site_fract_z
 _atom_site_occupancy
  Ho  Ho0  1  0.886246  0.750000  0.812086  1
  Ho  Ho1  1  0.114692  0.250000  0.188478  1
  Ho  Ho2  1  0.385068  0.250000  0.687647  1
  Ho  Ho3  1  0.613990  0.750000  0.313302  1
  Ho  Ho4  1  0.053977  0.750000  0.496879  1
  Ho  Ho5  1  0.946720  0.250000  0.502664  1
  Ho  Ho6  1  0.555556  0.250000  0.003175  1
  Ho  Ho7  1  0.444870  0.750000  0.996292  1
  Er  Er8  1  0.347337  0.750000  0.700594  1
  Er  Er9  1  0.651545  0.250000  0.300820  1
  Er  Er10  1  0.848924  0.250000  0.800380  1
  Er  Er11  1  0.150701  0.750000  0.198866  1
  Er  Er12  1  0.674605  0.537116  0.563721  1
  Er  Er13  1  0.325402  0.462053  0.436493  1
  Er  Er14  1  0.173124  0.465182  0.937547  1
  Er  Er15  1  0.325402  0.037947  0.436493  1
  Er  Er16  1  0.824920  0.539271  0.063012  1
  Er  Er17  1  0.674605  0.962884  0.563721  1
  Er  Er18  1  0.824920  0.960729  0.063012  1
  Er  Er19  1  0.173124  0.034818  0.937547  1
  Fe  Fe20  1  0.069326  0.750000  0.990374  1
  Co  Co21  1  0.934042  0.250000  0.007743  1
  Co  Co22  1  0.564489  0.250000  0.507511  1
  Co  Co23  1  0.435280  0.750000  0.493517  1
  Bi  Bi24  1  0.571847  0.508352  0.826386  1
  Bi  Bi25  1  0.429090  0.491484  0.173221  1
  Bi  Bi26  1  0.071531  0.491385  0.672967  1
  Bi  Bi27  1  0.429090  0.008516  0.173221  1
  Bi  Bi28  1  0.928099  0.508867  0.326490  1
  Bi  Bi29  1  0.571847  0.991648  0.826386  1
  Bi  Bi30  1  0.928099  0.991133  0.326490  1
  Bi  Bi31  1  0.071531  0.008615  0.672967  1
