# generated using pymatgen
data_Dy2Tm14MgIn3Rh4
_symmetry_space_group_name_H-M   'P 1'
_cell_length_a   9.55104680
_cell_length_b   9.54265906
_cell_length_c   9.54746597
_cell_angle_alpha   60.04825567
_cell_angle_beta   60.03251466
_cell_angle_gamma   60.02461555
_symmetry_Int_Tables_number   1
_chemical_formula_structural   Dy2Tm14MgIn3Rh4
_chemical_formula_sum   'Dy2 Tm14 Mg1 In3 Rh4'
_cell_volume   615.79923486
_cell_formula_units_Z   1
loop_
 _symmetry_equiv_pos_site_id
 _symmetry_equiv_pos_as_xyz
  1  'x, y, z'
loop_
 _atom_site_type_symbol
 _atom_site_label
 _atom_site_symmetry_multiplicity
 _atom_site_fract_x
 _atom_site_fract_y
 _atom_site_fract_z
 _atom_site_occupancy
  Dy  Dy0  1  0.060859  0.061494  0.438037  1
  Dy  Dy1  1  0.435625  0.065390  0.434907  1
  Tm  Tm2  1  0.061521  0.438697  0.060682  1
  Tm  Tm3  1  0.047484  0.649363  0.650439  1
  Tm  Tm4  1  0.435602  0.436146  0.063532  1
  Tm  Tm5  1  0.649692  0.047406  0.650400  1
  Tm  Tm6  1  0.187525  0.812402  0.187152  1
  Tm  Tm7  1  0.187102  0.187547  0.813230  1
  Tm  Tm8  1  0.810376  0.809477  0.190513  1
  Tm  Tm9  1  0.438784  0.061439  0.059974  1
  Tm  Tm10  1  0.812972  0.187626  0.186808  1
  Tm  Tm11  1  0.063544  0.436843  0.435602  1
  Tm  Tm12  1  0.809513  0.190669  0.810441  1
  Tm  Tm13  1  0.190581  0.809073  0.810901  1
  Tm  Tm14  1  0.650040  0.649707  0.047276  1
  Tm  Tm15  1  0.651960  0.651827  0.652195  1
  Mg  Mg16  1  0.422657  0.422751  0.422791  1
  In  In17  1  0.747959  0.418186  0.417459  1
  In  In18  1  0.418377  0.747169  0.417647  1
  In  In19  1  0.417442  0.417410  0.748779  1
  Rh  Rh20  1  0.859006  0.857976  0.425870  1
  Rh  Rh21  1  0.856827  0.856768  0.857591  1
  Rh  Rh22  1  0.426035  0.858252  0.859271  1
  Rh  Rh23  1  0.858515  0.426380  0.858502  1
