# generated using pymatgen
data_RbP4RhO12
_symmetry_space_group_name_H-M   'P 1'
_cell_length_a   13.60206500
_cell_length_b   5.18573854
_cell_length_c   7.54868974
_cell_angle_alpha   80.15085326
_cell_angle_beta   90.00000000
_cell_angle_gamma   90.00000000
_symmetry_Int_Tables_number   1
_chemical_formula_structural   RbP4RhO12
_chemical_formula_sum   'Rb2 P8 Rh2 O24'
_cell_volume   524.61241758
_cell_formula_units_Z   2
loop_
 _symmetry_equiv_pos_site_id
 _symmetry_equiv_pos_as_xyz
  1  'x, y, z'
loop_
 _atom_site_type_symbol
 _atom_site_label
 _atom_site_symmetry_multiplicity
 _atom_site_fract_x
 _atom_site_fract_y
 _atom_site_fract_z
 _atom_site_occupancy
  Rb  Rb0  1  0.008595  0.408238  0.836102  1
  Rb  Rb1  1  0.508595  0.591762  0.163898  1
  P  P2  1  0.871856  0.019997  0.446574  1
  P  P3  1  0.818326  0.783281  0.135080  1
  P  P4  1  0.371856  0.980003  0.553426  1
  P  P5  1  0.179136  0.862054  0.096456  1
  P  P6  1  0.098063  0.024051  0.430141  1
  P  P7  1  0.598063  0.975949  0.569859  1
  P  P8  1  0.679136  0.137946  0.903544  1
  P  P9  1  0.318326  0.216719  0.864920  1
  Rh  Rh10  1  0.235250  0.502241  0.487511  1
  Rh  Rh11  1  0.735250  0.497759  0.512489  1
  O  O12  1  0.156427  0.810127  0.544427  1
  O  O13  1  0.106021  0.295409  0.478714  1
  O  O14  1  0.615374  0.964830  0.779172  1
  O  O15  1  0.985720  0.937196  0.462808  1
  O  O16  1  0.864519  0.289042  0.499237  1
  O  O17  1  0.846148  0.030327  0.240740  1
  O  O18  1  0.115374  0.035170  0.220828  1
  O  O19  1  0.619147  0.162573  0.062581  1
  O  O20  1  0.119147  0.837427  0.937419  1
  O  O21  1  0.234082  0.366619  0.759443  1
  O  O22  1  0.364519  0.710958  0.500763  1
  O  O23  1  0.606021  0.704591  0.521286  1
  O  O24  1  0.656427  0.189873  0.455573  1
  O  O25  1  0.485720  0.062804  0.537192  1
  O  O26  1  0.272540  0.056111  0.046609  1
  O  O27  1  0.908829  0.650539  0.091663  1
  O  O28  1  0.721025  0.379884  0.785767  1
  O  O29  1  0.772540  0.943889  0.953391  1
  O  O30  1  0.408829  0.349461  0.908337  1
  O  O31  1  0.818706  0.802123  0.569203  1
  O  O32  1  0.318706  0.197877  0.430797  1
  O  O33  1  0.346148  0.969673  0.759260  1
  O  O34  1  0.734082  0.633381  0.240557  1
  O  O35  1  0.221025  0.620116  0.214233  1
