# generated using pymatgen
data_Y5TlIn2Se
_symmetry_space_group_name_H-M   'P 1'
_cell_length_a   9.15656700
_cell_length_b   9.15656736
_cell_length_c   6.82679700
_cell_angle_alpha   90.00000000
_cell_angle_beta   90.00000000
_cell_angle_gamma   120.19173211
_symmetry_Int_Tables_number   1
_chemical_formula_structural   Y5TlIn2Se
_chemical_formula_sum   'Y10 Tl2 In4 Se2'
_cell_volume   494.73277299
_cell_formula_units_Z   2
loop_
 _symmetry_equiv_pos_site_id
 _symmetry_equiv_pos_as_xyz
  1  'x, y, z'
loop_
 _atom_site_type_symbol
 _atom_site_label
 _atom_site_symmetry_multiplicity
 _atom_site_fract_x
 _atom_site_fract_y
 _atom_site_fract_z
 _atom_site_occupancy
  Y  Y0  1  0.667599  0.332706  0.999320  1
  Y  Y1  1  0.332706  0.667599  0.999320  1
  Y  Y2  1  0.332706  0.667599  0.500680  1
  Y  Y3  1  0.667599  0.332706  0.500680  1
  Y  Y4  1  0.750886  0.750886  0.750000  1
  Y  Y5  1  0.250339  0.999201  0.750000  1
  Y  Y6  1  0.999201  0.250339  0.750000  1
  Y  Y7  1  0.248584  0.248584  0.250000  1
  Y  Y8  1  0.749458  0.000289  0.250000  1
  Y  Y9  1  0.000289  0.749458  0.250000  1
  Tl  Tl10  1  0.401075  0.000344  0.250000  1
  Tl  Tl11  1  0.000344  0.401075  0.250000  1
  In  In12  1  0.401668  0.401668  0.750000  1
  In  In13  1  0.599451  0.999973  0.750000  1
  In  In14  1  0.999973  0.599451  0.750000  1
  In  In15  1  0.598266  0.598266  0.250000  1
  Se  Se16  1  0.999928  0.999928  0.999884  1
  Se  Se17  1  0.999928  0.999928  0.500116  1
