# generated using pymatgen
data_Ca3PrPd8
_symmetry_space_group_name_H-M   'P 1'
_cell_length_a   9.54273538
_cell_length_b   9.54273451
_cell_length_c   9.54273400
_cell_angle_alpha   33.50747280
_cell_angle_beta   33.50746980
_cell_angle_gamma   33.50746632
_symmetry_Int_Tables_number   1
_chemical_formula_structural   Ca3PrPd8
_chemical_formula_sum   'Ca3 Pr1 Pd8'
_cell_volume   235.87176376
_cell_formula_units_Z   1
loop_
 _symmetry_equiv_pos_site_id
 _symmetry_equiv_pos_as_xyz
  1  'x, y, z'
loop_
 _atom_site_type_symbol
 _atom_site_label
 _atom_site_symmetry_multiplicity
 _atom_site_fract_x
 _atom_site_fract_y
 _atom_site_fract_z
 _atom_site_occupancy
  Ca  Ca0  1  0.563105  0.563105  0.563105  1
  Ca  Ca1  1  0.440034  0.440034  0.440034  1
  Ca  Ca2  1  0.934979  0.934979  0.934979  1
  Pr  Pr3  1  0.062078  0.062078  0.062078  1
  Pd  Pd4  1  0.750166  0.750166  0.750166  1
  Pd  Pd5  1  0.249889  0.249889  0.249889  1
  Pd  Pd6  1  0.001495  0.499789  0.499789  1
  Pd  Pd7  1  0.498888  0.999895  0.999895  1
  Pd  Pd8  1  0.499789  0.001495  0.499789  1
  Pd  Pd9  1  0.999895  0.498888  0.999895  1
  Pd  Pd10  1  0.499789  0.499789  0.001495  1
  Pd  Pd11  1  0.999895  0.999895  0.498888  1
