# generated using pymatgen
data_Tb3CrFeCo7P6
_symmetry_space_group_name_H-M   'P 1'
_cell_length_a   3.71391100
_cell_length_b   10.63528400
_cell_length_c   12.21423900
_cell_angle_alpha   90.00000000
_cell_angle_beta   90.00000000
_cell_angle_gamma   90.00000000
_symmetry_Int_Tables_number   1
_chemical_formula_structural   Tb3CrFeCo7P6
_chemical_formula_sum   'Tb6 Cr2 Fe2 Co14 P12'
_cell_volume   482.44409759
_cell_formula_units_Z   2
loop_
 _symmetry_equiv_pos_site_id
 _symmetry_equiv_pos_as_xyz
  1  'x, y, z'
loop_
 _atom_site_type_symbol
 _atom_site_label
 _atom_site_symmetry_multiplicity
 _atom_site_fract_x
 _atom_site_fract_y
 _atom_site_fract_z
 _atom_site_occupancy
  Tb  Tb0  1  0.000000  0.500000  0.523538  1
  Tb  Tb1  1  0.500000  0.000000  0.476462  1
  Tb  Tb2  1  0.500000  0.818873  0.203235  1
  Tb  Tb3  1  0.500000  0.181127  0.203235  1
  Tb  Tb4  1  0.000000  0.681127  0.796765  1
  Tb  Tb5  1  0.000000  0.318873  0.796765  1
  Cr  Cr6  1  0.500000  0.500000  0.153116  1
  Cr  Cr7  1  0.000000  0.000000  0.846884  1
  Fe  Fe8  1  0.000000  0.500000  0.988427  1
  Fe  Fe9  1  0.500000  0.000000  0.011573  1
  Co  Co10  1  0.500000  0.500000  0.701200  1
  Co  Co11  1  0.000000  0.000000  0.298800  1
  Co  Co12  1  0.500000  0.331843  0.993988  1
  Co  Co13  1  0.500000  0.668157  0.993988  1
  Co  Co14  1  0.000000  0.168157  0.006012  1
  Co  Co15  1  0.000000  0.831843  0.006012  1
  Co  Co16  1  0.500000  0.295977  0.430436  1
  Co  Co17  1  0.500000  0.704023  0.430436  1
  Co  Co18  1  0.000000  0.204023  0.569564  1
  Co  Co19  1  0.000000  0.795977  0.569564  1
  Co  Co20  1  0.500000  0.879737  0.708819  1
  Co  Co21  1  0.500000  0.120263  0.708819  1
  Co  Co22  1  0.000000  0.620263  0.291181  1
  Co  Co23  1  0.000000  0.379737  0.291181  1
  P  P24  1  0.500000  0.500000  0.884453  1
  P  P25  1  0.000000  0.000000  0.115547  1
  P  P26  1  0.500000  0.500000  0.345423  1
  P  P27  1  0.000000  0.000000  0.654577  1
  P  P28  1  0.500000  0.310335  0.616258  1
  P  P29  1  0.500000  0.689665  0.616258  1
  P  P30  1  0.000000  0.189665  0.383742  1
  P  P31  1  0.000000  0.810335  0.383742  1
  P  P32  1  0.500000  0.847193  0.894230  1
  P  P33  1  0.500000  0.152807  0.894230  1
  P  P34  1  0.000000  0.652807  0.105770  1
  P  P35  1  0.000000  0.347193  0.105770  1
