# generated using pymatgen
data_Y2(ReB2)3
_symmetry_space_group_name_H-M   'P 1'
_cell_length_a   6.22587525
_cell_length_b   6.22587619
_cell_length_c   7.51261708
_cell_angle_alpha   89.43235706
_cell_angle_beta   89.43235676
_cell_angle_gamma   113.85228032
_symmetry_Int_Tables_number   1
_chemical_formula_structural   Y2(ReB2)3
_chemical_formula_sum   'Y4 Re6 B12'
_cell_volume   266.28550404
_cell_formula_units_Z   2
loop_
 _symmetry_equiv_pos_site_id
 _symmetry_equiv_pos_as_xyz
  1  'x, y, z'
loop_
 _atom_site_type_symbol
 _atom_site_label
 _atom_site_symmetry_multiplicity
 _atom_site_fract_x
 _atom_site_fract_y
 _atom_site_fract_z
 _atom_site_occupancy
  Y  Y0  1  0.900190  0.557173  0.322013  1
  Y  Y1  1  0.442827  0.099810  0.177987  1
  Y  Y2  1  0.099810  0.442827  0.677987  1
  Y  Y3  1  0.557173  0.900190  0.822013  1
  Re  Re4  1  0.411842  0.588158  0.250000  1
  Re  Re5  1  0.588158  0.411842  0.750000  1
  Re  Re6  1  0.009636  0.193292  0.088368  1
  Re  Re7  1  0.806708  0.990364  0.411632  1
  Re  Re8  1  0.990364  0.806708  0.911632  1
  Re  Re9  1  0.193292  0.009636  0.588368  1
  B  B10  1  0.751730  0.847913  0.130374  1
  B  B11  1  0.152087  0.248270  0.369626  1
  B  B12  1  0.248270  0.152087  0.869626  1
  B  B13  1  0.847913  0.751730  0.630374  1
  B  B14  1  0.412397  0.840008  0.479798  1
  B  B15  1  0.159992  0.587603  0.020202  1
  B  B16  1  0.587603  0.159992  0.520202  1
  B  B17  1  0.840008  0.412397  0.979798  1
  B  B18  1  0.556534  0.649700  0.535671  1
  B  B19  1  0.350300  0.443466  0.964329  1
  B  B20  1  0.443466  0.350300  0.464329  1
  B  B21  1  0.649700  0.556534  0.035671  1
