# generated using pymatgen
data_Y2AsPd5Pt3
_symmetry_space_group_name_H-M   'P 1'
_cell_length_a   4.13326000
_cell_length_b   4.13326000
_cell_length_c   11.25102500
_cell_angle_alpha   90.00000000
_cell_angle_beta   90.00000000
_cell_angle_gamma   90.00000000
_symmetry_Int_Tables_number   1
_chemical_formula_structural   Y2AsPd5Pt3
_chemical_formula_sum   'Y2 As1 Pd5 Pt3'
_cell_volume   192.21069099
_cell_formula_units_Z   1
loop_
 _symmetry_equiv_pos_site_id
 _symmetry_equiv_pos_as_xyz
  1  'x, y, z'
loop_
 _atom_site_type_symbol
 _atom_site_label
 _atom_site_symmetry_multiplicity
 _atom_site_fract_x
 _atom_site_fract_y
 _atom_site_fract_z
 _atom_site_occupancy
  Y  Y0  1  0.500000  0.500000  0.819208  1
  Y  Y1  1  0.500000  0.500000  0.181538  1
  As  As2  1  0.000000  0.000000  0.500014  1
  Pd  Pd3  1  0.500000  0.000000  0.630657  1
  Pd  Pd4  1  0.000000  0.500000  0.630657  1
  Pd  Pd5  1  0.500000  0.000000  0.368968  1
  Pd  Pd6  1  0.000000  0.500000  0.368968  1
  Pd  Pd7  1  0.000000  0.000000  0.816950  1
  Pt  Pt8  1  0.500000  0.000000  0.000033  1
  Pt  Pt9  1  0.000000  0.500000  0.000033  1
  Pt  Pt10  1  0.000000  0.000000  0.182973  1
