# generated using pymatgen
data_Lu12In2Tc3
_symmetry_space_group_name_H-M   'P 1'
_cell_length_a   8.30222024
_cell_length_b   8.30222089
_cell_length_c   8.30222056
_cell_angle_alpha   108.82040982
_cell_angle_beta   108.82041579
_cell_angle_gamma   110.78082678
_symmetry_Int_Tables_number   1
_chemical_formula_structural   Lu12In2Tc3
_chemical_formula_sum   'Lu12 In2 Tc3'
_cell_volume   440.34215857
_cell_formula_units_Z   1
loop_
 _symmetry_equiv_pos_site_id
 _symmetry_equiv_pos_as_xyz
  1  'x, y, z'
loop_
 _atom_site_type_symbol
 _atom_site_label
 _atom_site_symmetry_multiplicity
 _atom_site_fract_x
 _atom_site_fract_y
 _atom_site_fract_z
 _atom_site_occupancy
  Lu  Lu0  1  0.305033  0.305033  0.610067  1
  Lu  Lu1  1  0.694967  0.694967  0.389933  1
  Lu  Lu2  1  0.694967  0.305033  0.000000  1
  Lu  Lu3  1  0.305033  0.694967  0.000000  1
  Lu  Lu4  1  0.190024  0.429027  0.239003  1
  Lu  Lu5  1  0.809976  0.570973  0.760997  1
  Lu  Lu6  1  0.190024  0.951020  0.760997  1
  Lu  Lu7  1  0.951020  0.190024  0.760997  1
  Lu  Lu8  1  0.809976  0.048980  0.239003  1
  Lu  Lu9  1  0.048980  0.809976  0.239003  1
  Lu  Lu10  1  0.429027  0.190024  0.239003  1
  Lu  Lu11  1  0.570973  0.809976  0.760997  1
  In  In12  1  0.000000  0.500000  0.500000  1
  In  In13  1  0.500000  0.000000  0.500000  1
  Tc  Tc14  1  0.370723  0.370723  0.000000  1
  Tc  Tc15  1  0.629277  0.629277  0.000000  1
  Tc  Tc16  1  0.000000  0.000000  0.000000  1
