# generated using pymatgen
data_HfZr7Nb2(GaSn3)2
_symmetry_space_group_name_H-M   'P 1'
_cell_length_a   8.65396600
_cell_length_b   8.65396479
_cell_length_c   5.82261000
_cell_angle_alpha   90.00000000
_cell_angle_beta   90.00000000
_cell_angle_gamma   120.00000463
_symmetry_Int_Tables_number   1
_chemical_formula_structural   HfZr7Nb2(GaSn3)2
_chemical_formula_sum   'Hf1 Zr7 Nb2 Ga2 Sn6'
_cell_volume   377.64055020
_cell_formula_units_Z   1
loop_
 _symmetry_equiv_pos_site_id
 _symmetry_equiv_pos_as_xyz
  1  'x, y, z'
loop_
 _atom_site_type_symbol
 _atom_site_label
 _atom_site_symmetry_multiplicity
 _atom_site_fract_x
 _atom_site_fract_y
 _atom_site_fract_z
 _atom_site_occupancy
  Hf  Hf0  1  0.666667  0.333333  0.500000  1
  Zr  Zr1  1  0.731938  0.731768  0.750698  1
  Zr  Zr2  1  0.268232  0.000170  0.750698  1
  Zr  Zr3  1  0.999830  0.268062  0.750698  1
  Zr  Zr4  1  0.268232  0.268062  0.249302  1
  Zr  Zr5  1  0.731938  0.000170  0.249302  1
  Zr  Zr6  1  0.999830  0.731768  0.249302  1
  Zr  Zr7  1  0.333333  0.666667  0.500000  1
  Nb  Nb8  1  0.666667  0.333333  0.000000  1
  Nb  Nb9  1  0.333333  0.666667  0.000000  1
  Ga  Ga10  1  0.000000  0.000000  0.000000  1
  Ga  Ga11  1  0.000000  0.000000  0.500000  1
  Sn  Sn12  1  0.389844  0.389546  0.753639  1
  Sn  Sn13  1  0.610454  0.000298  0.753639  1
  Sn  Sn14  1  0.999702  0.610156  0.753639  1
  Sn  Sn15  1  0.610454  0.610156  0.246361  1
  Sn  Sn16  1  0.389844  0.000298  0.246361  1
  Sn  Sn17  1  0.999702  0.389546  0.246361  1
