# generated using pymatgen
data_HfZr7(NbSi4)2
_symmetry_space_group_name_H-M   'P 1'
_cell_length_a   7.06912800
_cell_length_b   7.06955646
_cell_length_c   12.94122469
_cell_angle_alpha   90.02684318
_cell_angle_beta   90.00000000
_cell_angle_gamma   90.00000000
_symmetry_Int_Tables_number   1
_chemical_formula_structural   HfZr7(NbSi4)2
_chemical_formula_sum   'Hf2 Zr14 Nb4 Si16'
_cell_volume   646.74539096
_cell_formula_units_Z   2
loop_
 _symmetry_equiv_pos_site_id
 _symmetry_equiv_pos_as_xyz
  1  'x, y, z'
loop_
 _atom_site_type_symbol
 _atom_site_label
 _atom_site_symmetry_multiplicity
 _atom_site_fract_x
 _atom_site_fract_y
 _atom_site_fract_z
 _atom_site_occupancy
  Hf  Hf0  1  0.354868  0.503872  0.376199  1
  Hf  Hf1  1  0.854868  0.996128  0.373801  1
  Zr  Zr2  1  0.003325  0.145875  0.127305  1
  Zr  Zr3  1  0.997210  0.854410  0.625432  1
  Zr  Zr4  1  0.645362  0.496932  0.876061  1
  Zr  Zr5  1  0.503325  0.354125  0.622695  1
  Zr  Zr6  1  0.497210  0.645590  0.124568  1
  Zr  Zr7  1  0.145362  0.003068  0.873939  1
  Zr  Zr8  1  0.999080  0.651234  0.034368  1
  Zr  Zr9  1  0.000859  0.347785  0.532268  1
  Zr  Zr10  1  0.651542  0.998944  0.966615  1
  Zr  Zr11  1  0.151542  0.501056  0.783385  1
  Zr  Zr12  1  0.847604  0.498653  0.283444  1
  Zr  Zr13  1  0.500859  0.152215  0.217732  1
  Zr  Zr14  1  0.499080  0.848766  0.715632  1
  Zr  Zr15  1  0.347604  0.001347  0.466556  1
  Nb  Nb16  1  0.675985  0.674921  0.499214  1
  Nb  Nb17  1  0.824759  0.175215  0.749658  1
  Nb  Nb18  1  0.175985  0.825079  0.250786  1
  Nb  Nb19  1  0.324759  0.324785  0.000342  1
  Si  Si20  1  0.049432  0.699205  0.434990  1
  Si  Si21  1  0.950905  0.300855  0.936284  1
  Si  Si22  1  0.699878  0.048510  0.563271  1
  Si  Si23  1  0.199878  0.451490  0.186729  1
  Si  Si24  1  0.801346  0.548111  0.685233  1
  Si  Si25  1  0.450905  0.199145  0.813716  1
  Si  Si26  1  0.549432  0.800795  0.315010  1
  Si  Si27  1  0.301346  0.951889  0.064767  1
  Si  Si28  1  0.852529  0.797736  0.821048  1
  Si  Si29  1  0.145027  0.205064  0.323489  1
  Si  Si30  1  0.797743  0.853489  0.179139  1
  Si  Si31  1  0.297743  0.646511  0.570861  1
  Si  Si32  1  0.702544  0.352733  0.072054  1
  Si  Si33  1  0.645027  0.294936  0.426511  1
  Si  Si34  1  0.352529  0.702264  0.928952  1
  Si  Si35  1  0.202544  0.147267  0.677946  1
