# generated using pymatgen
data_DyY7Os2(RuC4)2
_symmetry_space_group_name_H-M   'P 1'
_cell_length_a   5.13802500
_cell_length_b   6.46311899
_cell_length_c   9.82060600
_cell_angle_alpha   89.79892557
_cell_angle_beta   90.00000000
_cell_angle_gamma   90.00000000
_symmetry_Int_Tables_number   1
_chemical_formula_structural   DyY7Os2(RuC4)2
_chemical_formula_sum   'Dy1 Y7 Os2 Ru2 C8'
_cell_volume   326.11740491
_cell_formula_units_Z   1
loop_
 _symmetry_equiv_pos_site_id
 _symmetry_equiv_pos_as_xyz
  1  'x, y, z'
loop_
 _atom_site_type_symbol
 _atom_site_label
 _atom_site_symmetry_multiplicity
 _atom_site_fract_x
 _atom_site_fract_y
 _atom_site_fract_z
 _atom_site_occupancy
  Dy  Dy0  1  0.250000  0.684130  0.553260  1
  Y  Y1  1  0.750000  0.315323  0.447072  1
  Y  Y2  1  0.750000  0.819986  0.053278  1
  Y  Y3  1  0.250000  0.180070  0.946687  1
  Y  Y4  1  0.250000  0.526245  0.217802  1
  Y  Y5  1  0.750000  0.473489  0.782361  1
  Y  Y6  1  0.750000  0.974833  0.720199  1
  Y  Y7  1  0.250000  0.025253  0.279911  1
  Os  Os8  1  0.750000  0.775276  0.364882  1
  Os  Os9  1  0.250000  0.224602  0.635259  1
  Ru  Ru10  1  0.250000  0.723417  0.865026  1
  Ru  Ru11  1  0.750000  0.276559  0.135068  1
  C  C12  1  0.250000  0.459976  0.755329  1
  C  C13  1  0.750000  0.540610  0.244052  1
  C  C14  1  0.750000  0.039160  0.259441  1
  C  C15  1  0.250000  0.960380  0.740264  1
  C  C16  1  0.250000  0.825268  0.052433  1
  C  C17  1  0.750000  0.174763  0.947461  1
  C  C18  1  0.750000  0.677055  0.552409  1
  C  C19  1  0.250000  0.323604  0.447806  1
