# generated using pymatgen
data_Ce3Tm13MgCo4Ag3
_symmetry_space_group_name_H-M   'P 1'
_cell_length_a   9.30428935
_cell_length_b   9.36333381
_cell_length_c   9.36333400
_cell_angle_alpha   60.00000640
_cell_angle_beta   59.78986147
_cell_angle_gamma   59.78986595
_symmetry_Int_Tables_number   1
_chemical_formula_structural   Ce3Tm13MgCo4Ag3
_chemical_formula_sum   'Ce3 Tm13 Mg1 Co4 Ag3'
_cell_volume   574.96646584
_cell_formula_units_Z   1
loop_
 _symmetry_equiv_pos_site_id
 _symmetry_equiv_pos_as_xyz
  1  'x, y, z'
loop_
 _atom_site_type_symbol
 _atom_site_label
 _atom_site_symmetry_multiplicity
 _atom_site_fract_x
 _atom_site_fract_y
 _atom_site_fract_z
 _atom_site_occupancy
  Ce  Ce0  1  0.338526  0.345832  0.345832  1
  Ce  Ce1  1  0.338526  0.345832  0.969811  1
  Ce  Ce2  1  0.338526  0.969811  0.345832  1
  Tm  Tm3  1  0.941686  0.352772  0.352772  1
  Tm  Tm4  1  0.810808  0.189163  0.189163  1
  Tm  Tm5  1  0.187166  0.813616  0.813616  1
  Tm  Tm6  1  0.187166  0.813616  0.185604  1
  Tm  Tm7  1  0.810808  0.189163  0.810867  1
  Tm  Tm8  1  0.187166  0.185604  0.813616  1
  Tm  Tm9  1  0.810808  0.810867  0.189163  1
  Tm  Tm10  1  0.933884  0.564014  0.564014  1
  Tm  Tm11  1  0.562825  0.936717  0.936717  1
  Tm  Tm12  1  0.562825  0.936717  0.563739  1
  Tm  Tm13  1  0.933884  0.564014  0.938086  1
  Tm  Tm14  1  0.562825  0.563739  0.936717  1
  Tm  Tm15  1  0.933884  0.938086  0.564014  1
  Mg  Mg16  1  0.286153  0.571282  0.571282  1
  Co  Co17  1  0.151688  0.141083  0.141083  1
  Co  Co18  1  0.151688  0.141083  0.566147  1
  Co  Co19  1  0.151688  0.566147  0.141083  1
  Co  Co20  1  0.560620  0.146460  0.146460  1
  Ag  Ag21  1  0.585620  0.582873  0.582873  1
  Ag  Ag22  1  0.585620  0.582873  0.248633  1
  Ag  Ag23  1  0.585620  0.248633  0.582873  1
