# generated using pymatgen
data_ErMgB6Ru
_symmetry_space_group_name_H-M   'P 1'
_cell_length_a   3.55017700
_cell_length_b   8.88294100
_cell_length_c   11.23059300
_cell_angle_alpha   90.00000000
_cell_angle_beta   90.00000000
_cell_angle_gamma   90.00000000
_symmetry_Int_Tables_number   1
_chemical_formula_structural   ErMgB6Ru
_chemical_formula_sum   'Er4 Mg4 B24 Ru4'
_cell_volume   354.16812494
_cell_formula_units_Z   4
loop_
 _symmetry_equiv_pos_site_id
 _symmetry_equiv_pos_as_xyz
  1  'x, y, z'
loop_
 _atom_site_type_symbol
 _atom_site_label
 _atom_site_symmetry_multiplicity
 _atom_site_fract_x
 _atom_site_fract_y
 _atom_site_fract_z
 _atom_site_occupancy
  Er  Er0  1  0.000000  0.323633  0.413772  1
  Er  Er1  1  0.000000  0.676367  0.586228  1
  Er  Er2  1  0.000000  0.823633  0.086228  1
  Er  Er3  1  0.000000  0.176367  0.913772  1
  Mg  Mg4  1  0.000000  0.943564  0.371224  1
  Mg  Mg5  1  0.000000  0.056436  0.628776  1
  Mg  Mg6  1  0.000000  0.443564  0.128776  1
  Mg  Mg7  1  0.000000  0.556436  0.871224  1
  B  B8  1  0.500000  0.555567  0.432521  1
  B  B9  1  0.500000  0.444433  0.567479  1
  B  B10  1  0.500000  0.055567  0.067479  1
  B  B11  1  0.500000  0.944433  0.932521  1
  B  B12  1  0.500000  0.755024  0.418639  1
  B  B13  1  0.500000  0.244976  0.581361  1
  B  B14  1  0.500000  0.255024  0.081361  1
  B  B15  1  0.500000  0.744976  0.918639  1
  B  B16  1  0.500000  0.793823  0.263150  1
  B  B17  1  0.500000  0.206177  0.736850  1
  B  B18  1  0.500000  0.293823  0.236850  1
  B  B19  1  0.500000  0.706177  0.763150  1
  B  B20  1  0.500000  0.627981  0.182035  1
  B  B21  1  0.500000  0.372019  0.817965  1
  B  B22  1  0.500000  0.127981  0.317965  1
  B  B23  1  0.500000  0.872019  0.682035  1
  B  B24  1  0.500000  0.980853  0.213043  1
  B  B25  1  0.500000  0.019147  0.786957  1
  B  B26  1  0.500000  0.480853  0.286957  1
  B  B27  1  0.500000  0.519147  0.713043  1
  B  B28  1  0.500000  0.593154  0.025603  1
  B  B29  1  0.500000  0.406846  0.974397  1
  B  B30  1  0.500000  0.093154  0.474397  1
  B  B31  1  0.500000  0.906846  0.525603  1
  Ru  Ru32  1  0.000000  0.641032  0.318113  1
  Ru  Ru33  1  0.000000  0.358968  0.681887  1
  Ru  Ru34  1  0.000000  0.141032  0.181887  1
  Ru  Ru35  1  0.000000  0.858968  0.818113  1
