# generated using pymatgen
data_LaNd9Se10
_symmetry_space_group_name_H-M   'P 1'
_cell_length_a   7.33315209
_cell_length_b   8.42397455
_cell_length_c   9.54466274
_cell_angle_alpha   103.26060481
_cell_angle_beta   96.81923715
_cell_angle_gamma   106.87040637
_symmetry_Int_Tables_number   1
_chemical_formula_structural   LaNd9Se10
_chemical_formula_sum   'La1 Nd9 Se10'
_cell_volume   538.21753405
_cell_formula_units_Z   1
loop_
 _symmetry_equiv_pos_site_id
 _symmetry_equiv_pos_as_xyz
  1  'x, y, z'
loop_
 _atom_site_type_symbol
 _atom_site_label
 _atom_site_symmetry_multiplicity
 _atom_site_fract_x
 _atom_site_fract_y
 _atom_site_fract_z
 _atom_site_occupancy
  La  La0  1  0.000000  0.500000  0.000000  1
  Nd  Nd1  1  0.799483  0.600020  0.599267  1
  Nd  Nd2  1  0.598510  0.199098  0.200115  1
  Nd  Nd3  1  0.401490  0.800902  0.799885  1
  Nd  Nd4  1  0.600129  0.701161  0.201226  1
  Nd  Nd5  1  0.200517  0.399980  0.400733  1
  Nd  Nd6  1  0.399871  0.298839  0.798774  1
  Nd  Nd7  1  0.000000  0.000000  0.000000  1
  Nd  Nd8  1  0.201951  0.901090  0.400607  1
  Nd  Nd9  1  0.798049  0.098910  0.599393  1
  Se  Se10  1  0.698072  0.650534  0.899537  1
  Se  Se11  1  0.500300  0.250546  0.499747  1
  Se  Se12  1  0.698844  0.148525  0.899771  1
  Se  Se13  1  0.301156  0.851475  0.100229  1
  Se  Se14  1  0.499700  0.749454  0.500253  1
  Se  Se15  1  0.100220  0.449506  0.697983  1
  Se  Se16  1  0.301928  0.349466  0.100463  1
  Se  Se17  1  0.900677  0.050519  0.300459  1
  Se  Se18  1  0.099323  0.949481  0.699541  1
  Se  Se19  1  0.899780  0.550494  0.302017  1
