# generated using pymatgen
data_Ce2Si2PRh3
_symmetry_space_group_name_H-M   'P 1'
_cell_length_a   8.90527497
_cell_length_b   8.90527478
_cell_length_c   4.10347900
_cell_angle_alpha   90.00000000
_cell_angle_beta   90.00000000
_cell_angle_gamma   153.95285452
_symmetry_Int_Tables_number   1
_chemical_formula_structural   Ce2Si2PRh3
_chemical_formula_sum   'Ce2 Si2 P1 Rh3'
_cell_volume   142.89622655
_cell_formula_units_Z   1
loop_
 _symmetry_equiv_pos_site_id
 _symmetry_equiv_pos_as_xyz
  1  'x, y, z'
loop_
 _atom_site_type_symbol
 _atom_site_label
 _atom_site_symmetry_multiplicity
 _atom_site_fract_x
 _atom_site_fract_y
 _atom_site_fract_z
 _atom_site_occupancy
  Ce  Ce0  1  0.099406  0.900594  0.750000  1
  Ce  Ce1  1  0.899746  0.100254  0.250000  1
  Si  Si2  1  0.325047  0.674953  0.750000  1
  Si  Si3  1  0.675543  0.324457  0.250000  1
  P  P4  1  0.539140  0.460860  0.250000  1
  Rh  Rh5  1  0.464895  0.535105  0.750000  1
  Rh  Rh6  1  0.248611  0.751389  0.250000  1
  Rh  Rh7  1  0.747611  0.252389  0.750000  1
