# generated using pymatgen
data_Re3S2Br5
_symmetry_space_group_name_H-M   'P 1'
_cell_length_a   9.78304251
_cell_length_b   9.80409361
_cell_length_c   13.05745237
_cell_angle_alpha   83.44904924
_cell_angle_beta   84.45603069
_cell_angle_gamma   82.67818339
_symmetry_Int_Tables_number   1
_chemical_formula_structural   Re3S2Br5
_chemical_formula_sum   'Re12 S8 Br20'
_cell_volume   1229.78045791
_cell_formula_units_Z   4
loop_
 _symmetry_equiv_pos_site_id
 _symmetry_equiv_pos_as_xyz
  1  'x, y, z'
loop_
 _atom_site_type_symbol
 _atom_site_label
 _atom_site_symmetry_multiplicity
 _atom_site_fract_x
 _atom_site_fract_y
 _atom_site_fract_z
 _atom_site_occupancy
  Re  Re0  1  0.073796  0.053960  0.112333  1
  Re  Re1  1  0.031250  0.815142  0.054454  1
  Re  Re2  1  0.178548  0.978607  0.930732  1
  Re  Re3  1  0.326415  0.601151  0.498076  1
  Re  Re4  1  0.418414  0.336020  0.504446  1
  Re  Re5  1  0.486324  0.491326  0.645303  1
  Re  Re6  1  0.513056  0.508287  0.355190  1
  Re  Re7  1  0.580837  0.663510  0.495917  1
  Re  Re8  1  0.673043  0.398392  0.502413  1
  Re  Re9  1  0.822360  0.019479  0.063855  1
  Re  Re10  1  0.973071  0.182751  0.938713  1
  Re  Re11  1  0.932273  0.944910  0.883009  1
  S  S12  1  0.071416  0.098270  0.781076  1
  S  S13  1  0.125600  0.764597  0.886581  1
  S  S14  1  0.283388  0.451180  0.372336  1
  S  S15  1  0.249597  0.865203  0.093957  1
  S  S16  1  0.405013  0.730220  0.624399  1
  S  S17  1  0.594454  0.269317  0.376030  1
  S  S18  1  0.752010  0.134493  0.904111  1
  S  S19  1  0.715991  0.548626  0.628029  1
  Br  Br20  1  0.068040  0.568456  0.132691  1
  Br  Br21  1  0.169498  0.127984  0.264695  1
  Br  Br22  1  0.090841  0.737807  0.494883  1
  Br  Br23  1  0.227262  0.433905  0.646875  1
  Br  Br24  1  0.221159  0.218651  0.992772  1
  Br  Br25  1  0.308599  0.118162  0.517732  1
  Br  Br26  1  0.415053  0.775351  0.350408  1
  Br  Br27  1  0.581954  0.044683  0.151664  1
  Br  Br28  1  0.466705  0.474421  0.839566  1
  Br  Br29  1  0.532652  0.524754  0.160436  1
  Br  Br30  1  0.419891  0.954265  0.843158  1
  Br  Br31  1  0.584548  0.223915  0.649560  1
  Br  Br32  1  0.690473  0.882155  0.481738  1
  Br  Br33  1  0.777765  0.782650  0.011186  1
  Br  Br34  1  0.772293  0.565424  0.353060  1
  Br  Br35  1  0.861203  0.254518  0.122461  1
  Br  Br36  1  0.908590  0.262274  0.505242  1
  Br  Br37  1  0.834926  0.869730  0.731500  1
  Br  Br38  1  0.925511  0.896178  0.237596  1
  Br  Br39  1  0.936177  0.429279  0.861819  1
