# generated using pymatgen
data_Lu3VO6
_symmetry_space_group_name_H-M   'P 1'
_cell_length_a   6.40255423
_cell_length_b   6.40255476
_cell_length_c   6.40255440
_cell_angle_alpha   92.12858408
_cell_angle_beta   92.12858628
_cell_angle_gamma   92.12859783
_symmetry_Int_Tables_number   1
_chemical_formula_structural   Lu3VO6
_chemical_formula_sum   'Lu6 V2 O12'
_cell_volume   261.90086577
_cell_formula_units_Z   2
loop_
 _symmetry_equiv_pos_site_id
 _symmetry_equiv_pos_as_xyz
  1  'x, y, z'
loop_
 _atom_site_type_symbol
 _atom_site_label
 _atom_site_symmetry_multiplicity
 _atom_site_fract_x
 _atom_site_fract_y
 _atom_site_fract_z
 _atom_site_occupancy
  Lu  Lu0  1  0.436950  0.746086  0.929171  1
  Lu  Lu1  1  0.253914  0.070829  0.563050  1
  Lu  Lu2  1  0.070829  0.563050  0.253914  1
  Lu  Lu3  1  0.929171  0.436950  0.746086  1
  Lu  Lu4  1  0.746086  0.929171  0.436950  1
  Lu  Lu5  1  0.563050  0.253914  0.070829  1
  V  V6  1  0.500000  0.500000  0.500000  1
  V  V7  1  0.000000  0.000000  0.000000  1
  O  O8  1  0.084791  0.693682  0.928537  1
  O  O9  1  0.306318  0.071463  0.915209  1
  O  O10  1  0.193771  0.407440  0.537323  1
  O  O11  1  0.071463  0.915209  0.306318  1
  O  O12  1  0.592560  0.462677  0.806229  1
  O  O13  1  0.462677  0.806229  0.592560  1
  O  O14  1  0.537323  0.193771  0.407440  1
  O  O15  1  0.407440  0.537323  0.193771  1
  O  O16  1  0.928537  0.084791  0.693682  1
  O  O17  1  0.806229  0.592560  0.462677  1
  O  O18  1  0.693682  0.928537  0.084791  1
  O  O19  1  0.915209  0.306318  0.071463  1
