# generated using pymatgen
data_CaU3O8
_symmetry_space_group_name_H-M   'P 1'
_cell_length_a   5.36873443
_cell_length_b   5.36873443
_cell_length_c   5.36873443
_cell_angle_alpha   89.89584620
_cell_angle_beta   89.89584620
_cell_angle_gamma   89.89584620
_symmetry_Int_Tables_number   1
_chemical_formula_structural   CaU3O8
_chemical_formula_sum   'Ca1 U3 O8'
_cell_volume   154.74392746
_cell_formula_units_Z   1
loop_
 _symmetry_equiv_pos_site_id
 _symmetry_equiv_pos_as_xyz
  1  'x, y, z'
loop_
 _atom_site_type_symbol
 _atom_site_label
 _atom_site_symmetry_multiplicity
 _atom_site_fract_x
 _atom_site_fract_y
 _atom_site_fract_z
 _atom_site_occupancy
  Ca  Ca0  1  0.000000  0.000000  0.000000  1
  U  U1  1  0.500001  0.500001  0.000000  1
  U  U2  1  0.500001  0.000000  0.500001  1
  U  U3  1  0.000000  0.500001  0.500001  1
  O  O4  1  0.255579  0.255579  0.255579  1
  O  O5  1  0.259963  0.740862  0.254301  1
  O  O6  1  0.740862  0.254301  0.259963  1
  O  O7  1  0.745700  0.740038  0.259139  1
  O  O8  1  0.254301  0.259963  0.740862  1
  O  O9  1  0.259139  0.745700  0.740038  1
  O  O10  1  0.740038  0.259139  0.745700  1
  O  O11  1  0.744422  0.744422  0.744422  1
