# generated using pymatgen
data_Sc8V11Si16Mo
_symmetry_space_group_name_H-M   'P 1'
_cell_length_a   6.48863702
_cell_length_b   6.66141373
_cell_length_c   12.56651300
_cell_angle_alpha   90.00000000
_cell_angle_beta   90.00000000
_cell_angle_gamma   90.07320359
_symmetry_Int_Tables_number   1
_chemical_formula_structural   Sc8V11Si16Mo
_chemical_formula_sum   'Sc8 V11 Si16 Mo1'
_cell_volume   543.16817784
_cell_formula_units_Z   1
loop_
 _symmetry_equiv_pos_site_id
 _symmetry_equiv_pos_as_xyz
  1  'x, y, z'
loop_
 _atom_site_type_symbol
 _atom_site_label
 _atom_site_symmetry_multiplicity
 _atom_site_fract_x
 _atom_site_fract_y
 _atom_site_fract_z
 _atom_site_occupancy
  Sc  Sc0  1  0.498088  0.328989  0.093862  1
  Sc  Sc1  1  0.997634  0.171322  0.406111  1
  Sc  Sc2  1  0.501715  0.671601  0.595190  1
  Sc  Sc3  1  0.002048  0.829486  0.904791  1
  Sc  Sc4  1  0.501715  0.671601  0.904810  1
  Sc  Sc5  1  0.002048  0.829486  0.595209  1
  Sc  Sc6  1  0.498088  0.328989  0.406138  1
  Sc  Sc7  1  0.997634  0.171322  0.093889  1
  V  V8  1  0.836436  0.328331  0.626589  1
  V  V9  1  0.336120  0.171622  0.873812  1
  V  V10  1  0.164649  0.670189  0.125700  1
  V  V11  1  0.663300  0.829167  0.374310  1
  V  V12  1  0.164649  0.670189  0.374300  1
  V  V13  1  0.663300  0.829167  0.125690  1
  V  V14  1  0.836436  0.328331  0.873411  1
  V  V15  1  0.336120  0.171622  0.626188  1
  V  V16  1  0.663182  0.009861  0.750000  1
  V  V17  1  0.163181  0.489763  0.750000  1
  V  V18  1  0.336286  0.989703  0.250000  1
  Si  Si19  1  0.666111  0.039211  0.542407  1
  Si  Si20  1  0.166636  0.461229  0.957515  1
  Si  Si21  1  0.333583  0.960999  0.041455  1
  Si  Si22  1  0.833616  0.540659  0.460260  1
  Si  Si23  1  0.333583  0.960999  0.458545  1
  Si  Si24  1  0.833616  0.540659  0.039740  1
  Si  Si25  1  0.666111  0.039211  0.957593  1
  Si  Si26  1  0.166636  0.461229  0.542485  1
  Si  Si27  1  0.537201  0.375464  0.750000  1
  Si  Si28  1  0.036889  0.123805  0.750000  1
  Si  Si29  1  0.460501  0.625962  0.250000  1
  Si  Si30  1  0.964683  0.878276  0.250000  1
  Si  Si31  1  0.801270  0.633022  0.750000  1
  Si  Si32  1  0.301135  0.867298  0.750000  1
  Si  Si33  1  0.202697  0.363539  0.250000  1
  Si  Si34  1  0.696691  0.130656  0.250000  1
  Mo  Mo35  1  0.836414  0.507038  0.250000  1
