# generated using pymatgen
data_HfSc11(Si3Ru)4
_symmetry_space_group_name_H-M   'P 1'
_cell_length_a   3.98684300
_cell_length_b   10.31600563
_cell_length_c   11.69370789
_cell_angle_alpha   90.14859138
_cell_angle_beta   90.00000000
_cell_angle_gamma   90.00000000
_symmetry_Int_Tables_number   1
_chemical_formula_structural   HfSc11(Si3Ru)4
_chemical_formula_sum   'Hf1 Sc11 Si12 Ru4'
_cell_volume   480.94064803
_cell_formula_units_Z   1
loop_
 _symmetry_equiv_pos_site_id
 _symmetry_equiv_pos_as_xyz
  1  'x, y, z'
loop_
 _atom_site_type_symbol
 _atom_site_label
 _atom_site_symmetry_multiplicity
 _atom_site_fract_x
 _atom_site_fract_y
 _atom_site_fract_z
 _atom_site_occupancy
  Hf  Hf0  1  0.250000  0.876654  0.019606  1
  Sc  Sc1  1  0.250000  0.622815  0.519894  1
  Sc  Sc2  1  0.750000  0.124386  0.980982  1
  Sc  Sc3  1  0.750000  0.377454  0.480479  1
  Sc  Sc4  1  0.250000  0.921999  0.603699  1
  Sc  Sc5  1  0.250000  0.578874  0.103859  1
  Sc  Sc6  1  0.750000  0.077825  0.395008  1
  Sc  Sc7  1  0.750000  0.422251  0.896557  1
  Sc  Sc8  1  0.250000  0.658704  0.798008  1
  Sc  Sc9  1  0.250000  0.840079  0.299104  1
  Sc  Sc10  1  0.750000  0.340607  0.202190  1
  Sc  Sc11  1  0.750000  0.158481  0.702013  1
  Si  Si12  1  0.250000  0.016108  0.823510  1
  Si  Si13  1  0.250000  0.484128  0.322438  1
  Si  Si14  1  0.750000  0.982591  0.175070  1
  Si  Si15  1  0.750000  0.516378  0.677560  1
  Si  Si16  1  0.250000  0.252951  0.841960  1
  Si  Si17  1  0.250000  0.246519  0.341455  1
  Si  Si18  1  0.750000  0.748234  0.157591  1
  Si  Si19  1  0.750000  0.753408  0.658536  1
  Si  Si20  1  0.250000  0.194335  0.545335  1
  Si  Si21  1  0.250000  0.306699  0.046006  1
  Si  Si22  1  0.750000  0.805028  0.454927  1
  Si  Si23  1  0.750000  0.694878  0.954772  1
  Ru  Ru24  1  0.250000  0.390592  0.677007  1
  Ru  Ru25  1  0.250000  0.107839  0.174656  1
  Ru  Ru26  1  0.750000  0.609922  0.321986  1
  Ru  Ru27  1  0.750000  0.890263  0.825796  1
