# generated using pymatgen
data_Nd8YEr3In20
_symmetry_space_group_name_H-M   'P 1'
_cell_length_a   6.64601840
_cell_length_b   10.54988900
_cell_length_c   12.48723103
_cell_angle_alpha   90.00000000
_cell_angle_beta   90.02413887
_cell_angle_gamma   90.00000000
_symmetry_Int_Tables_number   1
_chemical_formula_structural   Nd8YEr3In20
_chemical_formula_sum   'Nd8 Y1 Er3 In20'
_cell_volume   875.53908480
_cell_formula_units_Z   1
loop_
 _symmetry_equiv_pos_site_id
 _symmetry_equiv_pos_as_xyz
  1  'x, y, z'
loop_
 _atom_site_type_symbol
 _atom_site_label
 _atom_site_symmetry_multiplicity
 _atom_site_fract_x
 _atom_site_fract_y
 _atom_site_fract_z
 _atom_site_occupancy
  Nd  Nd0  1  0.889755  0.491653  0.142670  1
  Nd  Nd1  1  0.610061  0.007910  0.642895  1
  Nd  Nd2  1  0.110391  0.991468  0.857596  1
  Nd  Nd3  1  0.389441  0.507817  0.357513  1
  Nd  Nd4  1  0.110391  0.508532  0.857596  1
  Nd  Nd5  1  0.389441  0.992183  0.357513  1
  Nd  Nd6  1  0.889755  0.008347  0.142670  1
  Nd  Nd7  1  0.610061  0.492090  0.642895  1
  Y  Y8  1  0.852018  0.250000  0.442845  1
  Er  Er9  1  0.351190  0.750000  0.056158  1
  Er  Er10  1  0.148724  0.750000  0.556545  1
  Er  Er11  1  0.648930  0.250000  0.943876  1
  In  In12  1  0.616005  0.750000  0.503379  1
  In  In13  1  0.883759  0.750000  0.003586  1
  In  In14  1  0.382063  0.250000  0.497365  1
  In  In15  1  0.116405  0.250000  0.996094  1
  In  In16  1  0.651302  0.750000  0.244266  1
  In  In17  1  0.848474  0.750000  0.744478  1
  In  In18  1  0.348496  0.250000  0.755908  1
  In  In19  1  0.153754  0.250000  0.254443  1
  In  In20  1  0.119013  0.750000  0.282549  1
  In  In21  1  0.381670  0.750000  0.782854  1
  In  In22  1  0.881243  0.250000  0.717815  1
  In  In23  1  0.618454  0.250000  0.216107  1
  In  In24  1  0.875736  0.545542  0.402473  1
  In  In25  1  0.624138  0.955648  0.902509  1
  In  In26  1  0.123796  0.044127  0.597816  1
  In  In27  1  0.375933  0.455757  0.097393  1
  In  In28  1  0.123796  0.455873  0.597816  1
  In  In29  1  0.375933  0.044243  0.097393  1
  In  In30  1  0.875736  0.954458  0.402473  1
  In  In31  1  0.624138  0.544352  0.902509  1
