# generated using pymatgen
data_Nd3YMn4Al4O20
_symmetry_space_group_name_H-M   'P 1'
_cell_length_a   5.71457500
_cell_length_b   7.42226408
_cell_length_c   8.55039479
_cell_angle_alpha   89.87927285
_cell_angle_beta   90.00002005
_cell_angle_gamma   90.00001546
_symmetry_Int_Tables_number   1
_chemical_formula_structural   Nd3YMn4Al4O20
_chemical_formula_sum   'Nd3 Y1 Mn4 Al4 O20'
_cell_volume   362.66491465
_cell_formula_units_Z   1
loop_
 _symmetry_equiv_pos_site_id
 _symmetry_equiv_pos_as_xyz
  1  'x, y, z'
loop_
 _atom_site_type_symbol
 _atom_site_label
 _atom_site_symmetry_multiplicity
 _atom_site_fract_x
 _atom_site_fract_y
 _atom_site_fract_z
 _atom_site_occupancy
  Nd  Nd0  1  0.000000  0.635830  0.330096  1
  Nd  Nd1  1  0.000000  0.365096  0.670289  1
  Nd  Nd2  1  0.000000  0.133495  0.168280  1
  Y  Y3  1  0.000000  0.863668  0.829840  1
  Mn  Mn4  1  0.256321  0.502046  0.999192  1
  Mn  Mn5  1  0.744184  0.999342  0.501243  1
  Mn  Mn6  1  0.743680  0.502044  0.999192  1
  Mn  Mn7  1  0.255818  0.999344  0.501244  1
  Al  Al8  1  0.499999  0.890931  0.139386  1
  Al  Al9  1  0.500001  0.104190  0.858745  1
  Al  Al10  1  0.500000  0.392372  0.360106  1
  Al  Al11  1  0.500000  0.609991  0.641710  1
  O  O12  1  0.286040  0.499904  0.501333  1
  O  O13  1  0.716896  0.994895  0.996868  1
  O  O14  1  0.713960  0.499904  0.501333  1
  O  O15  1  0.283102  0.994895  0.996868  1
  O  O16  1  0.000000  0.662019  0.050094  1
  O  O17  1  0.000000  0.344117  0.946991  1
  O  O18  1  0.000000  0.157492  0.447456  1
  O  O19  1  0.000000  0.841031  0.557652  1
  O  O20  1  0.500000  0.658763  0.069140  1
  O  O21  1  0.500000  0.340749  0.928224  1
  O  O22  1  0.500000  0.159925  0.433900  1
  O  O23  1  0.500000  0.840432  0.567002  1
  O  O24  1  0.257580  0.900296  0.289722  1
  O  O25  1  0.253905  0.095260  0.711738  1
  O  O26  1  0.742775  0.400270  0.209827  1
  O  O27  1  0.744987  0.607936  0.790621  1
  O  O28  1  0.746094  0.095259  0.711738  1
  O  O29  1  0.742420  0.900295  0.289722  1
  O  O30  1  0.255014  0.607936  0.790621  1
  O  O31  1  0.257225  0.400271  0.209826  1
