# generated using pymatgen
data_Lu3Th(NiP)4
_symmetry_space_group_name_H-M   'P 1'
_cell_length_a   3.90854100
_cell_length_b   3.90853919
_cell_length_c   15.10039000
_cell_angle_alpha   90.00000000
_cell_angle_beta   90.00000000
_cell_angle_gamma   120.00000683
_symmetry_Int_Tables_number   1
_chemical_formula_structural   Lu3Th(NiP)4
_chemical_formula_sum   'Lu3 Th1 Ni4 P4'
_cell_volume   199.77811409
_cell_formula_units_Z   1
loop_
 _symmetry_equiv_pos_site_id
 _symmetry_equiv_pos_as_xyz
  1  'x, y, z'
loop_
 _atom_site_type_symbol
 _atom_site_label
 _atom_site_symmetry_multiplicity
 _atom_site_fract_x
 _atom_site_fract_y
 _atom_site_fract_z
 _atom_site_occupancy
  Lu  Lu0  1  0.000000  0.000000  0.500000  1
  Lu  Lu1  1  0.000000  0.000000  0.257702  1
  Lu  Lu2  1  0.000000  0.000000  0.742298  1
  Th  Th3  1  0.000000  0.000000  0.000000  1
  Ni  Ni4  1  0.333333  0.666667  0.369750  1
  Ni  Ni5  1  0.666667  0.333333  0.630250  1
  Ni  Ni6  1  0.666667  0.333333  0.861184  1
  Ni  Ni7  1  0.333333  0.666667  0.138816  1
  P  P8  1  0.333333  0.666667  0.869476  1
  P  P9  1  0.666667  0.333333  0.130524  1
  P  P10  1  0.666667  0.333333  0.381928  1
  P  P11  1  0.333333  0.666667  0.618072  1
