# generated using pymatgen
data_Dy5ErSc4(In2Rh)4
_symmetry_space_group_name_H-M   'P 1'
_cell_length_a   3.55398200
_cell_length_b   7.90276456
_cell_length_c   17.89841696
_cell_angle_alpha   90.12495153
_cell_angle_beta   90.00000000
_cell_angle_gamma   90.00000000
_symmetry_Int_Tables_number   1
_chemical_formula_structural   Dy5ErSc4(In2Rh)4
_chemical_formula_sum   'Dy5 Er1 Sc4 In8 Rh4'
_cell_volume   502.69880847
_cell_formula_units_Z   1
loop_
 _symmetry_equiv_pos_site_id
 _symmetry_equiv_pos_as_xyz
  1  'x, y, z'
loop_
 _atom_site_type_symbol
 _atom_site_label
 _atom_site_symmetry_multiplicity
 _atom_site_fract_x
 _atom_site_fract_y
 _atom_site_fract_z
 _atom_site_occupancy
  Dy  Dy0  1  0.000000  0.000914  0.000480  1
  Dy  Dy1  1  0.000000  0.499493  0.499870  1
  Dy  Dy2  1  0.000000  0.752648  0.784802  1
  Dy  Dy3  1  0.000000  0.247788  0.215348  1
  Dy  Dy4  1  0.000000  0.251924  0.715255  1
  Er  Er5  1  0.000000  0.747392  0.284523  1
  Sc  Sc6  1  0.000000  0.877844  0.589960  1
  Sc  Sc7  1  0.000000  0.120777  0.409265  1
  Sc  Sc8  1  0.000000  0.378874  0.909771  1
  Sc  Sc9  1  0.000000  0.622613  0.090647  1
  In  In10  1  0.500000  0.812066  0.440325  1
  In  In11  1  0.500000  0.186546  0.558516  1
  In  In12  1  0.500000  0.314933  0.059129  1
  In  In13  1  0.500000  0.687194  0.941509  1
  In  In14  1  0.500000  0.918926  0.151189  1
  In  In15  1  0.500000  0.080283  0.849618  1
  In  In16  1  0.500000  0.420760  0.349315  1
  In  In17  1  0.500000  0.579552  0.650430  1
  Rh  Rh18  1  0.500000  0.965120  0.692720  1
  Rh  Rh19  1  0.500000  0.032329  0.306834  1
  Rh  Rh20  1  0.500000  0.465656  0.806752  1
  Rh  Rh21  1  0.500000  0.536369  0.193741  1
