# generated using pymatgen
data_Gd4Dy3YB20
_symmetry_space_group_name_H-M   'P 1'
_cell_length_a   7.12725211
_cell_length_b   7.12705091
_cell_length_c   7.15740343
_cell_angle_alpha   76.84279351
_cell_angle_beta   89.99031702
_cell_angle_gamma   90.01449169
_symmetry_Int_Tables_number   1
_chemical_formula_structural   Gd4Dy3YB20
_chemical_formula_sum   'Gd4 Dy3 Y1 B20'
_cell_volume   354.02551261
_cell_formula_units_Z   1
loop_
 _symmetry_equiv_pos_site_id
 _symmetry_equiv_pos_as_xyz
  1  'x, y, z'
loop_
 _atom_site_type_symbol
 _atom_site_label
 _atom_site_symmetry_multiplicity
 _atom_site_fract_x
 _atom_site_fract_y
 _atom_site_fract_z
 _atom_site_occupancy
  Gd  Gd0  1  0.692254  0.770110  0.627226  1
  Gd  Gd1  1  0.191836  0.230171  0.873171  1
  Gd  Gd2  1  0.307859  0.230331  0.373123  1
  Gd  Gd3  1  0.808283  0.769863  0.126600  1
  Dy  Dy4  1  0.815217  0.244208  0.246451  1
  Dy  Dy5  1  0.684883  0.244201  0.746461  1
  Dy  Dy6  1  0.184821  0.755613  0.753573  1
  Y  Y7  1  0.315208  0.756652  0.253455  1
  B  B8  1  0.502277  0.314216  0.040368  1
  B  B9  1  0.002293  0.685745  0.459780  1
  B  B10  1  0.497594  0.685577  0.959556  1
  B  B11  1  0.997794  0.314468  0.540392  1
  B  B12  1  0.489510  0.925322  0.926094  1
  B  B13  1  0.989593  0.074684  0.573693  1
  B  B14  1  0.510740  0.074843  0.073587  1
  B  B15  1  0.010046  0.925262  0.426352  1
  B  B16  1  0.326232  0.496329  0.039668  1
  B  B17  1  0.826331  0.503472  0.459995  1
  B  B18  1  0.673589  0.503434  0.960282  1
  B  B19  1  0.173685  0.496536  0.540057  1
  B  B20  1  0.910578  0.498823  0.910685  1
  B  B21  1  0.410784  0.500912  0.589467  1
  B  B22  1  0.089113  0.500899  0.089235  1
  B  B23  1  0.589574  0.498543  0.410843  1
  B  B24  1  0.961639  0.496684  0.674178  1
  B  B25  1  0.461586  0.503240  0.825897  1
  B  B26  1  0.038125  0.503235  0.325704  1
  B  B27  1  0.538557  0.496629  0.174108  1
