# generated using pymatgen
data_LaPr(ZnRh)2
_symmetry_space_group_name_H-M   'P 1'
_cell_length_a   4.08119500
_cell_length_b   7.36304052
_cell_length_c   16.65257718
_cell_angle_alpha   89.95699403
_cell_angle_beta   90.00000000
_cell_angle_gamma   90.00000000
_symmetry_Int_Tables_number   1
_chemical_formula_structural   LaPr(ZnRh)2
_chemical_formula_sum   'La4 Pr4 Zn8 Rh8'
_cell_volume   500.40987217
_cell_formula_units_Z   4
loop_
 _symmetry_equiv_pos_site_id
 _symmetry_equiv_pos_as_xyz
  1  'x, y, z'
loop_
 _atom_site_type_symbol
 _atom_site_label
 _atom_site_symmetry_multiplicity
 _atom_site_fract_x
 _atom_site_fract_y
 _atom_site_fract_z
 _atom_site_occupancy
  La  La0  1  0.750000  0.453129  0.217084  1
  La  La1  1  0.750000  0.953302  0.283914  1
  La  La2  1  0.750000  0.831291  0.059057  1
  La  La3  1  0.250000  0.046330  0.716809  1
  Pr  Pr4  1  0.250000  0.168858  0.939681  1
  Pr  Pr5  1  0.250000  0.546348  0.783255  1
  Pr  Pr6  1  0.750000  0.332389  0.440828  1
  Pr  Pr7  1  0.250000  0.667704  0.559791  1
  Zn  Zn8  1  0.250000  0.999100  0.441069  1
  Zn  Zn9  1  0.750000  0.500182  0.939045  1
  Zn  Zn10  1  0.750000  0.000916  0.559304  1
  Zn  Zn11  1  0.250000  0.625892  0.351652  1
  Zn  Zn12  1  0.750000  0.375437  0.649791  1
  Zn  Zn13  1  0.750000  0.872225  0.850732  1
  Zn  Zn14  1  0.250000  0.495985  0.059361  1
  Zn  Zn15  1  0.250000  0.127479  0.149487  1
  Rh  Rh16  1  0.250000  0.242702  0.566307  1
  Rh  Rh17  1  0.750000  0.258864  0.066158  1
  Rh  Rh18  1  0.250000  0.244869  0.312682  1
  Rh  Rh19  1  0.750000  0.253177  0.812515  1
  Rh  Rh20  1  0.250000  0.743335  0.936012  1
  Rh  Rh21  1  0.750000  0.756981  0.686344  1
  Rh  Rh22  1  0.750000  0.758326  0.433567  1
  Rh  Rh23  1  0.250000  0.745179  0.185556  1
