# generated using pymatgen
data_Ce10HgPb6I
_symmetry_space_group_name_H-M   'P 1'
_cell_length_a   9.72161300
_cell_length_b   9.72161340
_cell_length_c   6.70711200
_cell_angle_alpha   90.00000000
_cell_angle_beta   90.00000000
_cell_angle_gamma   120.00000203
_symmetry_Int_Tables_number   1
_chemical_formula_structural   Ce10HgPb6I
_chemical_formula_sum   'Ce10 Hg1 Pb6 I1'
_cell_volume   548.96272502
_cell_formula_units_Z   1
loop_
 _symmetry_equiv_pos_site_id
 _symmetry_equiv_pos_as_xyz
  1  'x, y, z'
loop_
 _atom_site_type_symbol
 _atom_site_label
 _atom_site_symmetry_multiplicity
 _atom_site_fract_x
 _atom_site_fract_y
 _atom_site_fract_z
 _atom_site_occupancy
  Ce  Ce0  1  0.666667  0.333333  0.500000  1
  Ce  Ce1  1  0.333333  0.666667  0.500000  1
  Ce  Ce2  1  0.333333  0.666667  0.000000  1
  Ce  Ce3  1  0.666667  0.333333  0.000000  1
  Ce  Ce4  1  0.714164  0.714164  0.249783  1
  Ce  Ce5  1  0.285836  0.000000  0.249783  1
  Ce  Ce6  1  0.000000  0.285836  0.249783  1
  Ce  Ce7  1  0.285836  0.285836  0.750217  1
  Ce  Ce8  1  0.714164  0.000000  0.750217  1
  Ce  Ce9  1  0.000000  0.714164  0.750217  1
  Hg  Hg10  1  0.000000  0.000000  0.500000  1
  Pb  Pb11  1  0.372779  0.372779  0.252092  1
  Pb  Pb12  1  0.627221  0.000000  0.252092  1
  Pb  Pb13  1  0.000000  0.627221  0.252092  1
  Pb  Pb14  1  0.627221  0.627221  0.747908  1
  Pb  Pb15  1  0.372779  0.000000  0.747908  1
  Pb  Pb16  1  0.000000  0.372779  0.747908  1
  I  I17  1  0.000000  0.000000  0.000000  1
