# generated using pymatgen
data_Tb9Tm(IrPt2)2
_symmetry_space_group_name_H-M   'P 1'
_cell_length_a   11.08812400
_cell_length_b   11.08812400
_cell_length_c   6.34977800
_cell_angle_alpha   90.00000000
_cell_angle_beta   90.00000000
_cell_angle_gamma   90.00000000
_symmetry_Int_Tables_number   1
_chemical_formula_structural   Tb9Tm(IrPt2)2
_chemical_formula_sum   'Tb18 Tm2 Ir4 Pt8'
_cell_volume   780.68294176
_cell_formula_units_Z   2
loop_
 _symmetry_equiv_pos_site_id
 _symmetry_equiv_pos_as_xyz
  1  'x, y, z'
loop_
 _atom_site_type_symbol
 _atom_site_label
 _atom_site_symmetry_multiplicity
 _atom_site_fract_x
 _atom_site_fract_y
 _atom_site_fract_z
 _atom_site_occupancy
  Tb  Tb0  1  0.293751  0.087603  0.375223  1
  Tb  Tb1  1  0.293751  0.912397  0.875223  1
  Tb  Tb2  1  0.706249  0.087603  0.875223  1
  Tb  Tb3  1  0.706249  0.912397  0.375223  1
  Tb  Tb4  1  0.587848  0.794603  0.874521  1
  Tb  Tb5  1  0.587848  0.205397  0.374521  1
  Tb  Tb6  1  0.412152  0.794603  0.374521  1
  Tb  Tb7  1  0.412152  0.205397  0.874521  1
  Tb  Tb8  1  0.205397  0.412152  0.625479  1
  Tb  Tb9  1  0.205397  0.587848  0.125479  1
  Tb  Tb10  1  0.794603  0.412152  0.125479  1
  Tb  Tb11  1  0.794603  0.587848  0.625479  1
  Tb  Tb12  1  0.912397  0.706249  0.124777  1
  Tb  Tb13  1  0.912397  0.293751  0.624777  1
  Tb  Tb14  1  0.087603  0.706249  0.624777  1
  Tb  Tb15  1  0.087603  0.293751  0.124777  1
  Tb  Tb16  1  0.500000  0.500000  0.000000  1
  Tb  Tb17  1  0.500000  0.500000  0.500000  1
  Tm  Tm18  1  0.000000  0.000000  0.500000  1
  Tm  Tm19  1  0.000000  0.000000  0.000000  1
  Ir  Ir20  1  0.500000  0.000000  0.119272  1
  Ir  Ir21  1  0.500000  0.000000  0.619272  1
  Ir  Ir22  1  0.000000  0.500000  0.880728  1
  Ir  Ir23  1  0.000000  0.500000  0.380728  1
  Pt  Pt24  1  0.848507  0.151493  0.250000  1
  Pt  Pt25  1  0.848507  0.848507  0.750000  1
  Pt  Pt26  1  0.151493  0.151493  0.750000  1
  Pt  Pt27  1  0.151493  0.848507  0.250000  1
  Pt  Pt28  1  0.653694  0.346306  0.750000  1
  Pt  Pt29  1  0.653694  0.653694  0.250000  1
  Pt  Pt30  1  0.346306  0.346306  0.250000  1
  Pt  Pt31  1  0.346306  0.653694  0.750000  1
