# generated using pymatgen
data_La20IrOs4Rh7
_symmetry_space_group_name_H-M   'P 1'
_cell_length_a   11.45884174
_cell_length_b   11.45930080
_cell_length_c   6.65331413
_cell_angle_alpha   90.01799490
_cell_angle_beta   90.01328141
_cell_angle_gamma   89.96098867
_symmetry_Int_Tables_number   1
_chemical_formula_structural   La20IrOs4Rh7
_chemical_formula_sum   'La20 Ir1 Os4 Rh7'
_cell_volume   873.64850068
_cell_formula_units_Z   1
loop_
 _symmetry_equiv_pos_site_id
 _symmetry_equiv_pos_as_xyz
  1  'x, y, z'
loop_
 _atom_site_type_symbol
 _atom_site_label
 _atom_site_symmetry_multiplicity
 _atom_site_fract_x
 _atom_site_fract_y
 _atom_site_fract_z
 _atom_site_occupancy
  La  La0  1  0.295545  0.089258  0.386039  1
  La  La1  1  0.295624  0.909664  0.885688  1
  La  La2  1  0.704446  0.089265  0.886146  1
  La  La3  1  0.704425  0.910604  0.385984  1
  La  La4  1  0.588389  0.795137  0.885727  1
  La  La5  1  0.589296  0.204411  0.386050  1
  La  La6  1  0.410283  0.794889  0.387141  1
  La  La7  1  0.410644  0.204308  0.886107  1
  La  La8  1  0.204863  0.411623  0.614298  1
  La  La9  1  0.205112  0.589681  0.112896  1
  La  La10  1  0.795589  0.410681  0.113897  1
  La  La11  1  0.795713  0.589356  0.613866  1
  La  La12  1  0.910727  0.704475  0.114060  1
  La  La13  1  0.910754  0.295555  0.613905  1
  La  La14  1  0.090320  0.704385  0.614231  1
  La  La15  1  0.089379  0.295628  0.113980  1
  La  La16  1  0.000021  0.999968  0.499937  1
  La  La17  1  0.000028  0.999965  0.000067  1
  La  La18  1  0.499754  0.500169  0.000244  1
  La  La19  1  0.499812  0.500212  0.499756  1
  Ir  Ir20  1  0.348479  0.651525  0.750000  1
  Os  Os21  1  0.500194  0.000387  0.123749  1
  Os  Os22  1  0.500263  0.000534  0.623793  1
  Os  Os23  1  0.999470  0.499741  0.876213  1
  Os  Os24  1  0.999629  0.499798  0.376238  1
  Rh  Rh25  1  0.848517  0.151482  0.250003  1
  Rh  Rh26  1  0.848625  0.848639  0.749896  1
  Rh  Rh27  1  0.151365  0.151387  0.750084  1
  Rh  Rh28  1  0.151172  0.848837  0.249994  1
  Rh  Rh29  1  0.651380  0.348625  0.750002  1
  Rh  Rh30  1  0.651779  0.651600  0.250048  1
  Rh  Rh31  1  0.348405  0.348212  0.249962  1
