# generated using pymatgen
data_Hf6Ti4Ga12Ir4Rh3
_symmetry_space_group_name_H-M   'P 1'
_cell_length_a   8.77098267
_cell_length_b   8.77098232
_cell_length_c   8.77206103
_cell_angle_alpha   60.00406503
_cell_angle_beta   60.00406523
_cell_angle_gamma   59.99999820
_symmetry_Int_Tables_number   1
_chemical_formula_structural   Hf6Ti4Ga12Ir4Rh3
_chemical_formula_sum   'Hf6 Ti4 Ga12 Ir4 Rh3'
_cell_volume   477.21030319
_cell_formula_units_Z   1
loop_
 _symmetry_equiv_pos_site_id
 _symmetry_equiv_pos_as_xyz
  1  'x, y, z'
loop_
 _atom_site_type_symbol
 _atom_site_label
 _atom_site_symmetry_multiplicity
 _atom_site_fract_x
 _atom_site_fract_y
 _atom_site_fract_z
 _atom_site_occupancy
  Hf  Hf0  1  0.691584  0.691584  0.308846  1
  Hf  Hf1  1  0.307986  0.691584  0.308846  1
  Hf  Hf2  1  0.691584  0.307986  0.308846  1
  Hf  Hf3  1  0.308549  0.308549  0.690945  1
  Hf  Hf4  1  0.691956  0.308549  0.690945  1
  Hf  Hf5  1  0.308549  0.691956  0.690945  1
  Ti  Ti6  1  0.878474  0.878474  0.364579  1
  Ti  Ti7  1  0.878944  0.364112  0.878001  1
  Ti  Ti8  1  0.364112  0.878944  0.878001  1
  Ti  Ti9  1  0.878944  0.878944  0.878001  1
  Ga  Ga10  1  0.119697  0.119697  0.640909  1
  Ga  Ga11  1  0.120099  0.640457  0.119345  1
  Ga  Ga12  1  0.640457  0.120099  0.119345  1
  Ga  Ga13  1  0.120099  0.120099  0.119345  1
  Ga  Ga14  1  0.658705  0.658705  0.023885  1
  Ga  Ga15  1  0.657785  0.024174  0.660257  1
  Ga  Ga16  1  0.024174  0.657785  0.660257  1
  Ga  Ga17  1  0.657785  0.657785  0.660257  1
  Ga  Ga18  1  0.341260  0.341260  0.976221  1
  Ga  Ga19  1  0.341804  0.976336  0.340056  1
  Ga  Ga20  1  0.976336  0.341804  0.340056  1
  Ga  Ga21  1  0.341804  0.341804  0.340056  1
  Ir  Ir22  1  0.000078  0.000078  0.999765  1
  Ir  Ir23  1  0.997609  0.997609  0.502682  1
  Ir  Ir24  1  0.502100  0.997609  0.502682  1
  Ir  Ir25  1  0.997609  0.502100  0.502682  1
  Rh  Rh26  1  0.502032  0.502032  0.998081  1
  Rh  Rh27  1  0.997855  0.502032  0.998081  1
  Rh  Rh28  1  0.502032  0.997855  0.998081  1
