# generated using pymatgen
data_Pr4MnPt5O19
_symmetry_space_group_name_H-M   'P 1'
_cell_length_a   7.84340193
_cell_length_b   7.84340229
_cell_length_c   7.83304509
_cell_angle_alpha   109.54908814
_cell_angle_beta   109.34643834
_cell_angle_gamma   109.57166026
_symmetry_Int_Tables_number   1
_chemical_formula_structural   Pr4MnPt5O19
_chemical_formula_sum   'Pr4 Mn1 Pt5 O19'
_cell_volume   370.70543983
_cell_formula_units_Z   1
loop_
 _symmetry_equiv_pos_site_id
 _symmetry_equiv_pos_as_xyz
  1  'x, y, z'
loop_
 _atom_site_type_symbol
 _atom_site_label
 _atom_site_symmetry_multiplicity
 _atom_site_fract_x
 _atom_site_fract_y
 _atom_site_fract_z
 _atom_site_occupancy
  Pr  Pr0  1  0.674943  0.684984  0.680063  1
  Pr  Pr1  1  0.317371  0.000215  0.996815  1
  Pr  Pr2  1  0.003400  0.320556  0.003185  1
  Pr  Pr3  1  0.004921  0.994880  0.319937  1
  Mn  Mn4  1  0.341307  0.841307  0.500000  1
  Pt  Pt5  1  0.658290  0.158290  0.500000  1
  Pt  Pt6  1  0.843056  0.501922  0.341643  1
  Pt  Pt7  1  0.160279  0.501413  0.658357  1
  Pt  Pt8  1  0.498618  0.337352  0.839031  1
  Pt  Pt9  1  0.498321  0.659588  0.160969  1
  O  O10  1  0.659394  0.659394  0.000000  1
  O  O11  1  0.336602  0.336602  0.000000  1
  O  O12  1  0.651616  0.994836  0.653852  1
  O  O13  1  0.340984  0.997764  0.346148  1
  O  O14  1  0.999486  0.660962  0.661632  1
  O  O15  1  0.999330  0.337854  0.338368  1
  O  O16  1  0.999913  0.999913  0.000000  1
  O  O17  1  0.357894  0.613351  0.326627  1
  O  O18  1  0.641737  0.960967  0.250089  1
  O  O19  1  0.710879  0.391648  0.749911  1
  O  O20  1  0.607853  0.320717  0.357689  1
  O  O21  1  0.286723  0.031267  0.673373  1
  O  O22  1  0.963027  0.250163  0.642311  1
  O  O23  1  0.389474  0.755248  0.705813  1
  O  O24  1  0.049436  0.683662  0.294187  1
  O  O25  1  0.322055  0.360045  0.606728  1
  O  O26  1  0.753317  0.715328  0.393272  1
  O  O27  1  0.680976  0.287386  0.038586  1
  O  O28  1  0.248799  0.642390  0.961414  1
