# generated using pymatgen
data_HoTmPa4(Al3Os)8
_symmetry_space_group_name_H-M   'P 1'
_cell_length_a   8.85007684
_cell_length_b   8.85007703
_cell_length_c   9.45406700
_cell_angle_alpha   90.00000000
_cell_angle_beta   90.00000000
_cell_angle_gamma   119.64960449
_symmetry_Int_Tables_number   1
_chemical_formula_structural   HoTmPa4(Al3Os)8
_chemical_formula_sum   'Ho1 Tm1 Pa4 Al24 Os8'
_cell_volume   643.52587084
_cell_formula_units_Z   1
loop_
 _symmetry_equiv_pos_site_id
 _symmetry_equiv_pos_as_xyz
  1  'x, y, z'
loop_
 _atom_site_type_symbol
 _atom_site_label
 _atom_site_symmetry_multiplicity
 _atom_site_fract_x
 _atom_site_fract_y
 _atom_site_fract_z
 _atom_site_occupancy
  Ho  Ho0  1  0.197689  0.802311  0.250000  1
  Tm  Tm1  1  0.801613  0.198387  0.750000  1
  Pa  Pa2  1  0.199016  0.393285  0.250000  1
  Pa  Pa3  1  0.800953  0.606467  0.750000  1
  Pa  Pa4  1  0.606715  0.800984  0.250000  1
  Pa  Pa5  1  0.393533  0.199047  0.750000  1
  Al  Al6  1  0.331558  0.668442  0.019065  1
  Al  Al7  1  0.668603  0.331397  0.980603  1
  Al  Al8  1  0.668603  0.331397  0.519397  1
  Al  Al9  1  0.331558  0.668442  0.480935  1
  Al  Al10  1  0.161474  0.324666  0.578095  1
  Al  Al11  1  0.838364  0.675258  0.422021  1
  Al  Al12  1  0.675334  0.838526  0.578095  1
  Al  Al13  1  0.838364  0.675258  0.077979  1
  Al  Al14  1  0.324742  0.161636  0.422021  1
  Al  Al15  1  0.161474  0.324666  0.921905  1
  Al  Al16  1  0.162535  0.837465  0.579680  1
  Al  Al17  1  0.324742  0.161636  0.077979  1
  Al  Al18  1  0.837442  0.162558  0.420590  1
  Al  Al19  1  0.675334  0.838526  0.921905  1
  Al  Al20  1  0.837442  0.162558  0.079410  1
  Al  Al21  1  0.162535  0.837465  0.920320  1
  Al  Al22  1  0.560415  0.122591  0.250000  1
  Al  Al23  1  0.439945  0.877703  0.750000  1
  Al  Al24  1  0.877409  0.439585  0.250000  1
  Al  Al25  1  0.122297  0.560055  0.750000  1
  Al  Al26  1  0.564375  0.435625  0.250000  1
  Al  Al27  1  0.435613  0.564387  0.750000  1
  Al  Al28  1  0.000024  0.999976  0.250000  1
  Al  Al29  1  0.999835  0.000165  0.750000  1
  Os  Os30  1  0.500315  0.000127  0.999766  1
  Os  Os31  1  0.999873  0.499685  0.999766  1
  Os  Os32  1  0.500315  0.000127  0.500234  1
  Os  Os33  1  0.500058  0.499942  0.999950  1
  Os  Os34  1  0.999873  0.499685  0.500234  1
  Os  Os35  1  0.500058  0.499942  0.500050  1
  Os  Os36  1  0.999986  0.000014  0.999941  1
  Os  Os37  1  0.999986  0.000014  0.500059  1
