# generated using pymatgen
data_Li2Ca6GaAg13N
_symmetry_space_group_name_H-M   'P 1'
_cell_length_a   8.56913193
_cell_length_b   8.46551399
_cell_length_c   8.50752729
_cell_angle_alpha   108.97278829
_cell_angle_beta   109.95021715
_cell_angle_gamma   108.86327955
_symmetry_Int_Tables_number   1
_chemical_formula_structural   Li2Ca6GaAg13N
_chemical_formula_sum   'Li2 Ca6 Ga1 Ag13 N1'
_cell_volume   478.68904769
_cell_formula_units_Z   1
loop_
 _symmetry_equiv_pos_site_id
 _symmetry_equiv_pos_as_xyz
  1  'x, y, z'
loop_
 _atom_site_type_symbol
 _atom_site_label
 _atom_site_symmetry_multiplicity
 _atom_site_fract_x
 _atom_site_fract_y
 _atom_site_fract_z
 _atom_site_occupancy
  Li  Li0  1  0.690922  0.343694  0.342494  1
  Li  Li1  1  0.345500  0.001367  0.657379  1
  Ca  Ca2  1  0.005587  0.254621  0.254974  1
  Ca  Ca3  1  0.250072  0.998373  0.250473  1
  Ca  Ca4  1  0.748645  0.999621  0.746464  1
  Ca  Ca5  1  0.742702  0.744332  0.999103  1
  Ca  Ca6  1  0.251356  0.257618  0.001281  1
  Ca  Ca7  1  0.996716  0.745387  0.748644  1
  Ga  Ga8  1  0.498602  0.497510  0.498676  1
  Ag  Ag9  1  0.495235  0.003547  0.997760  1
  Ag  Ag10  1  0.998393  0.497914  0.999392  1
  Ag  Ag11  1  0.004392  0.999326  0.504527  1
  Ag  Ag12  1  0.349615  0.693239  0.348629  1
  Ag  Ag13  1  0.348146  0.342217  0.689564  1
  Ag  Ag14  1  0.347078  0.655672  0.000885  1
  Ag  Ag15  1  0.001103  0.348310  0.651178  1
  Ag  Ag16  1  0.004005  0.654401  0.351124  1
  Ag  Ag17  1  0.655426  0.647172  0.312886  1
  Ag  Ag18  1  0.653917  0.004313  0.348654  1
  Ag  Ag19  1  0.651605  0.345798  0.999436  1
  Ag  Ag20  1  0.653771  0.311198  0.645107  1
  Ag  Ag21  1  0.308727  0.655323  0.651412  1
  N  N22  1  0.998487  0.999044  0.999959  1
