# generated using pymatgen
data_Nd10Sn5PbO2
_symmetry_space_group_name_H-M   'P 1'
_cell_length_a   9.28308573
_cell_length_b   9.28308614
_cell_length_c   9.28308600
_cell_angle_alpha   125.85373991
_cell_angle_beta   125.85373413
_cell_angle_gamma   80.12865880
_symmetry_Int_Tables_number   1
_chemical_formula_structural   Nd10Sn5PbO2
_chemical_formula_sum   'Nd10 Sn5 Pb1 O2'
_cell_volume   507.27961864
_cell_formula_units_Z   1
loop_
 _symmetry_equiv_pos_site_id
 _symmetry_equiv_pos_as_xyz
  1  'x, y, z'
loop_
 _atom_site_type_symbol
 _atom_site_label
 _atom_site_symmetry_multiplicity
 _atom_site_fract_x
 _atom_site_fract_y
 _atom_site_fract_z
 _atom_site_occupancy
  Nd  Nd0  1  0.499424  0.305386  0.502021  1
  Nd  Nd1  1  0.803366  0.997402  0.497981  1
  Nd  Nd2  1  0.997406  0.499424  0.194041  1
  Nd  Nd3  1  0.305385  0.803364  0.805962  1
  Nd  Nd4  1  0.505095  0.699080  0.501885  1
  Nd  Nd5  1  0.197194  0.003213  0.498121  1
  Nd  Nd6  1  0.003206  0.505091  0.805997  1
  Nd  Nd7  1  0.699092  0.197210  0.194003  1
  Nd  Nd8  1  0.503303  0.503299  0.000001  1
  Nd  Nd9  1  0.999232  0.999229  0.000001  1
  Sn  Sn10  1  0.141232  0.361269  0.499997  1
  Sn  Sn11  1  0.861269  0.641237  0.500005  1
  Sn  Sn12  1  0.641241  0.141229  0.779960  1
  Sn  Sn13  1  0.361273  0.861279  0.220048  1
  Sn  Sn14  1  0.751357  0.751366  0.999991  1
  Pb  Pb15  1  0.251268  0.251270  0.999987  1
  O  O16  1  0.751240  0.251239  0.499998  1
  O  O17  1  0.251254  0.751251  0.500001  1
