# generated using pymatgen
data_Yb2Cu(SiPd2)3
_symmetry_space_group_name_H-M   'P 1'
_cell_length_a   6.74126437
_cell_length_b   6.71222991
_cell_length_c   6.74126563
_cell_angle_alpha   130.35766656
_cell_angle_beta   113.76718355
_cell_angle_gamma   87.24898020
_symmetry_Int_Tables_number   1
_chemical_formula_structural   Yb2Cu(SiPd2)3
_chemical_formula_sum   'Yb2 Cu1 Si3 Pd6'
_cell_volume   202.56527674
_cell_formula_units_Z   1
loop_
 _symmetry_equiv_pos_site_id
 _symmetry_equiv_pos_as_xyz
  1  'x, y, z'
loop_
 _atom_site_type_symbol
 _atom_site_label
 _atom_site_symmetry_multiplicity
 _atom_site_fract_x
 _atom_site_fract_y
 _atom_site_fract_z
 _atom_site_occupancy
  Yb  Yb0  1  0.008210  0.967335  0.959125  1
  Yb  Yb1  1  0.494505  0.063936  0.569431  1
  Cu  Cu2  1  0.358905  0.440729  0.081822  1
  Si  Si3  1  0.807657  0.237383  0.429726  1
  Si  Si4  1  0.640028  0.700595  0.060567  1
  Si  Si5  1  0.198506  0.617424  0.418919  1
  Pd  Pd6  1  0.942723  0.502897  0.950167  1
  Pd  Pd7  1  0.552729  0.502897  0.560174  1
  Pd  Pd8  1  0.035580  0.994917  0.536961  1
  Pd  Pd9  1  0.797998  0.480986  0.275785  1
  Pd  Pd10  1  0.205201  0.480986  0.682987  1
  Pd  Pd11  1  0.457956  0.994917  0.959336  1
