# generated using pymatgen
data_Dy4ScSn4
_symmetry_space_group_name_H-M   'P 1'
_cell_length_a   7.94179300
_cell_length_b   8.09926100
_cell_length_c   15.35490200
_cell_angle_alpha   90.00000000
_cell_angle_beta   90.00000000
_cell_angle_gamma   90.00097624
_symmetry_Int_Tables_number   1
_chemical_formula_structural   Dy4ScSn4
_chemical_formula_sum   'Dy16 Sc4 Sn16'
_cell_volume   987.66805339
_cell_formula_units_Z   4
loop_
 _symmetry_equiv_pos_site_id
 _symmetry_equiv_pos_as_xyz
  1  'x, y, z'
loop_
 _atom_site_type_symbol
 _atom_site_label
 _atom_site_symmetry_multiplicity
 _atom_site_fract_x
 _atom_site_fract_y
 _atom_site_fract_z
 _atom_site_occupancy
  Dy  Dy0  1  0.365945  0.838483  0.876846  1
  Dy  Dy1  1  0.866212  0.661505  0.623146  1
  Dy  Dy2  1  0.634048  0.161249  0.376507  1
  Dy  Dy3  1  0.134105  0.338429  0.123756  1
  Dy  Dy4  1  0.634048  0.161249  0.123493  1
  Dy  Dy5  1  0.134105  0.338429  0.376244  1
  Dy  Dy6  1  0.365945  0.838483  0.623154  1
  Dy  Dy7  1  0.866212  0.661505  0.876854  1
  Dy  Dy8  1  0.521154  0.320668  0.903534  1
  Dy  Dy9  1  0.021377  0.179523  0.596535  1
  Dy  Dy10  1  0.478642  0.679559  0.403065  1
  Dy  Dy11  1  0.978521  0.820382  0.096706  1
  Dy  Dy12  1  0.478642  0.679559  0.096935  1
  Dy  Dy13  1  0.978521  0.820382  0.403294  1
  Dy  Dy14  1  0.521154  0.320668  0.596466  1
  Dy  Dy15  1  0.021377  0.179523  0.903465  1
  Sc  Sc16  1  0.197481  0.502860  0.750000  1
  Sc  Sc17  1  0.697498  0.996606  0.750000  1
  Sc  Sc18  1  0.802262  0.496783  0.250000  1
  Sc  Sc19  1  0.302357  0.002889  0.250000  1
  Sn  Sn20  1  0.293795  0.035227  0.044393  1
  Sn  Sn21  1  0.793902  0.464637  0.455597  1
  Sn  Sn22  1  0.706084  0.965064  0.544065  1
  Sn  Sn23  1  0.205875  0.535821  0.956629  1
  Sn  Sn24  1  0.706084  0.965064  0.955935  1
  Sn  Sn25  1  0.205875  0.535821  0.543371  1
  Sn  Sn26  1  0.293795  0.035227  0.455607  1
  Sn  Sn27  1  0.793902  0.464637  0.044403  1
  Sn  Sn28  1  0.559639  0.617342  0.750000  1
  Sn  Sn29  1  0.058947  0.883965  0.750000  1
  Sn  Sn30  1  0.441216  0.383886  0.250000  1
  Sn  Sn31  1  0.941011  0.115754  0.250000  1
  Sn  Sn32  1  0.331922  0.152520  0.750000  1
  Sn  Sn33  1  0.829862  0.346267  0.750000  1
  Sn  Sn34  1  0.669294  0.846601  0.250000  1
  Sn  Sn35  1  0.169186  0.653436  0.250000  1
