# generated using pymatgen
data_Zr10BeSnBiPb5
_symmetry_space_group_name_H-M   'P 1'
_cell_length_a   8.85472004
_cell_length_b   8.85471900
_cell_length_c   6.00165100
_cell_angle_alpha   89.99857730
_cell_angle_beta   89.99857810
_cell_angle_gamma   119.94440019
_symmetry_Int_Tables_number   1
_chemical_formula_structural   Zr10BeSnBiPb5
_chemical_formula_sum   'Zr10 Be1 Sn1 Bi1 Pb5'
_cell_volume   407.75005891
_cell_formula_units_Z   1
loop_
 _symmetry_equiv_pos_site_id
 _symmetry_equiv_pos_as_xyz
  1  'x, y, z'
loop_
 _atom_site_type_symbol
 _atom_site_label
 _atom_site_symmetry_multiplicity
 _atom_site_fract_x
 _atom_site_fract_y
 _atom_site_fract_z
 _atom_site_occupancy
  Zr  Zr0  1  0.666800  0.333180  0.000574  1
  Zr  Zr1  1  0.333180  0.666800  0.000574  1
  Zr  Zr2  1  0.333360  0.667173  0.499553  1
  Zr  Zr3  1  0.667173  0.333360  0.499553  1
  Zr  Zr4  1  0.736882  0.736882  0.776352  1
  Zr  Zr5  1  0.262567  0.999038  0.776384  1
  Zr  Zr6  1  0.999038  0.262567  0.776384  1
  Zr  Zr7  1  0.263146  0.263146  0.223366  1
  Zr  Zr8  1  0.736742  0.999836  0.223511  1
  Zr  Zr9  1  0.999836  0.736742  0.223511  1
  Be  Be10  1  0.999771  0.999771  0.000378  1
  Sn  Sn11  1  0.999534  0.999534  0.499704  1
  Bi  Bi12  1  0.390368  0.390368  0.743427  1
  Pb  Pb13  1  0.610889  0.000101  0.742451  1
  Pb  Pb14  1  0.000101  0.610889  0.742451  1
  Pb  Pb15  1  0.611425  0.611425  0.257174  1
  Pb  Pb16  1  0.389337  0.999849  0.257327  1
  Pb  Pb17  1  0.999849  0.389337  0.257327  1
