# generated using pymatgen
data_Na3Th(SbAu)4
_symmetry_space_group_name_H-M   'P 1'
_cell_length_a   4.72789200
_cell_length_b   4.72789337
_cell_length_c   15.13111400
_cell_angle_alpha   90.00000000
_cell_angle_beta   90.00000000
_cell_angle_gamma   120.00001844
_symmetry_Int_Tables_number   1
_chemical_formula_structural   Na3Th(SbAu)4
_chemical_formula_sum   'Na3 Th1 Sb4 Au4'
_cell_volume   292.91166965
_cell_formula_units_Z   1
loop_
 _symmetry_equiv_pos_site_id
 _symmetry_equiv_pos_as_xyz
  1  'x, y, z'
loop_
 _atom_site_type_symbol
 _atom_site_label
 _atom_site_symmetry_multiplicity
 _atom_site_fract_x
 _atom_site_fract_y
 _atom_site_fract_z
 _atom_site_occupancy
  Na  Na0  1  0.000000  0.000000  0.488975  1
  Na  Na1  1  0.000000  0.000000  0.011025  1
  Na  Na2  1  0.000000  0.000000  0.250000  1
  Th  Th3  1  0.000000  0.000000  0.750000  1
  Sb  Sb4  1  0.333333  0.666667  0.350533  1
  Sb  Sb5  1  0.666667  0.333333  0.599181  1
  Sb  Sb6  1  0.666667  0.333333  0.900819  1
  Sb  Sb7  1  0.333333  0.666667  0.149467  1
  Au  Au8  1  0.666667  0.333333  0.393357  1
  Au  Au9  1  0.333333  0.666667  0.651810  1
  Au  Au10  1  0.333333  0.666667  0.848190  1
  Au  Au11  1  0.666667  0.333333  0.106643  1
