# generated using pymatgen
data_Li2Pr2Si2Ge
_symmetry_space_group_name_H-M   'P 1'
_cell_length_a   9.60564569
_cell_length_b   9.60564521
_cell_length_c   6.84548000
_cell_angle_alpha   90.00000000
_cell_angle_beta   90.00000000
_cell_angle_gamma   153.10333356
_symmetry_Int_Tables_number   1
_chemical_formula_structural   Li2Pr2Si2Ge
_chemical_formula_sum   'Li4 Pr4 Si4 Ge2'
_cell_volume   285.73478696
_cell_formula_units_Z   2
loop_
 _symmetry_equiv_pos_site_id
 _symmetry_equiv_pos_as_xyz
  1  'x, y, z'
loop_
 _atom_site_type_symbol
 _atom_site_label
 _atom_site_symmetry_multiplicity
 _atom_site_fract_x
 _atom_site_fract_y
 _atom_site_fract_z
 _atom_site_occupancy
  Li  Li0  1  0.811449  0.188551  0.559212  1
  Li  Li1  1  0.188551  0.811449  0.440788  1
  Li  Li2  1  0.188551  0.811449  0.059212  1
  Li  Li3  1  0.811449  0.188551  0.940788  1
  Pr  Pr4  1  0.551873  0.448127  0.250000  1
  Pr  Pr5  1  0.448127  0.551873  0.750000  1
  Pr  Pr6  1  0.343789  0.656211  0.250000  1
  Pr  Pr7  1  0.656211  0.343789  0.750000  1
  Si  Si8  1  0.942275  0.057725  0.075011  1
  Si  Si9  1  0.057725  0.942275  0.924989  1
  Si  Si10  1  0.057725  0.942275  0.575011  1
  Si  Si11  1  0.942275  0.057725  0.424989  1
  Ge  Ge12  1  0.719511  0.280489  0.250000  1
  Ge  Ge13  1  0.280489  0.719511  0.750000  1
