# generated using pymatgen
data_Tb3DyB16OsRu3
_symmetry_space_group_name_H-M   'P 1'
_cell_length_a   3.56807900
_cell_length_b   5.97058527
_cell_length_c   11.55095108
_cell_angle_alpha   90.02412623
_cell_angle_beta   90.00000000
_cell_angle_gamma   90.00000000
_symmetry_Int_Tables_number   1
_chemical_formula_structural   Tb3DyB16OsRu3
_chemical_formula_sum   'Tb3 Dy1 B16 Os1 Ru3'
_cell_volume   246.07589477
_cell_formula_units_Z   1
loop_
 _symmetry_equiv_pos_site_id
 _symmetry_equiv_pos_as_xyz
  1  'x, y, z'
loop_
 _atom_site_type_symbol
 _atom_site_label
 _atom_site_symmetry_multiplicity
 _atom_site_fract_x
 _atom_site_fract_y
 _atom_site_fract_z
 _atom_site_occupancy
  Tb  Tb0  1  0.000000  0.128576  0.649695  1
  Tb  Tb1  1  0.000000  0.871368  0.350243  1
  Tb  Tb2  1  0.000000  0.628749  0.849711  1
  Dy  Dy3  1  0.000000  0.371190  0.150191  1
  B  B4  1  0.500000  0.476709  0.691512  1
  B  B5  1  0.500000  0.523557  0.308225  1
  B  B6  1  0.500000  0.975794  0.808459  1
  B  B7  1  0.500000  0.024102  0.191616  1
  B  B8  1  0.500000  0.288765  0.814208  1
  B  B9  1  0.500000  0.710996  0.185711  1
  B  B10  1  0.500000  0.788586  0.685467  1
  B  B11  1  0.500000  0.211379  0.314491  1
  B  B12  1  0.500000  0.363627  0.970098  1
  B  B13  1  0.500000  0.636208  0.030352  1
  B  B14  1  0.500000  0.863629  0.530366  1
  B  B15  1  0.500000  0.136312  0.469518  1
  B  B16  1  0.500000  0.388355  0.546444  1
  B  B17  1  0.500000  0.611696  0.453419  1
  B  B18  1  0.500000  0.888193  0.953390  1
  B  B19  1  0.500000  0.112164  0.046803  1
  Os  Os20  1  0.000000  0.140887  0.907533  1
  Ru  Ru21  1  0.000000  0.859030  0.092647  1
  Ru  Ru22  1  0.000000  0.640022  0.592574  1
  Ru  Ru23  1  0.000000  0.360105  0.407324  1
