# generated using pymatgen
data_Tb16MgIn3Pt4
_symmetry_space_group_name_H-M   'P 1'
_cell_length_a   9.76157548
_cell_length_b   9.76157599
_cell_length_c   9.76157599
_cell_angle_alpha   60.22357295
_cell_angle_beta   60.22357618
_cell_angle_gamma   60.22357349
_symmetry_Int_Tables_number   1
_chemical_formula_structural   Tb16MgIn3Pt4
_chemical_formula_sum   'Tb16 Mg1 In3 Pt4'
_cell_volume   661.05495048
_cell_formula_units_Z   1
loop_
 _symmetry_equiv_pos_site_id
 _symmetry_equiv_pos_as_xyz
  1  'x, y, z'
loop_
 _atom_site_type_symbol
 _atom_site_label
 _atom_site_symmetry_multiplicity
 _atom_site_fract_x
 _atom_site_fract_y
 _atom_site_fract_z
 _atom_site_occupancy
  Tb  Tb0  1  0.348869  0.348869  0.348869  1
  Tb  Tb1  1  0.349865  0.349865  0.947946  1
  Tb  Tb2  1  0.349865  0.947946  0.349865  1
  Tb  Tb3  1  0.947946  0.349865  0.349865  1
  Tb  Tb4  1  0.809657  0.191660  0.191660  1
  Tb  Tb5  1  0.191979  0.810390  0.810390  1
  Tb  Tb6  1  0.191660  0.809657  0.191660  1
  Tb  Tb7  1  0.810390  0.191979  0.810390  1
  Tb  Tb8  1  0.191660  0.191660  0.809657  1
  Tb  Tb9  1  0.810390  0.810390  0.191979  1
  Tb  Tb10  1  0.934421  0.565861  0.565861  1
  Tb  Tb11  1  0.564213  0.936978  0.936978  1
  Tb  Tb12  1  0.565861  0.934421  0.565861  1
  Tb  Tb13  1  0.936978  0.564213  0.936978  1
  Tb  Tb14  1  0.565861  0.565861  0.934421  1
  Tb  Tb15  1  0.936978  0.936978  0.564213  1
  Mg  Mg16  1  0.577251  0.577251  0.577251  1
  In  In17  1  0.581623  0.581623  0.253636  1
  In  In18  1  0.581623  0.253636  0.581623  1
  In  In19  1  0.253636  0.581623  0.581623  1
  Pt  Pt20  1  0.143456  0.143456  0.143456  1
  Pt  Pt21  1  0.141342  0.141342  0.573134  1
  Pt  Pt22  1  0.141342  0.573134  0.141342  1
  Pt  Pt23  1  0.573134  0.141342  0.141342  1
