# generated using pymatgen
data_Hf16TaSi16W3
_symmetry_space_group_name_H-M   'P 1'
_cell_length_a   6.95553000
_cell_length_b   6.95552894
_cell_length_c   12.72112926
_cell_angle_alpha   90.03625165
_cell_angle_beta   89.96374582
_cell_angle_gamma   90.20078279
_symmetry_Int_Tables_number   1
_chemical_formula_structural   Hf16TaSi16W3
_chemical_formula_sum   'Hf16 Ta1 Si16 W3'
_cell_volume   615.43645196
_cell_formula_units_Z   1
loop_
 _symmetry_equiv_pos_site_id
 _symmetry_equiv_pos_as_xyz
  1  'x, y, z'
loop_
 _atom_site_type_symbol
 _atom_site_label
 _atom_site_symmetry_multiplicity
 _atom_site_fract_x
 _atom_site_fract_y
 _atom_site_fract_z
 _atom_site_occupancy
  Hf  Hf0  1  0.497059  0.155401  0.530121  1
  Hf  Hf1  1  0.503068  0.846332  0.031569  1
  Hf  Hf2  1  0.655186  0.002034  0.280720  1
  Hf  Hf3  1  0.345808  0.995978  0.780006  1
  Hf  Hf4  1  0.846332  0.503068  0.968431  1
  Hf  Hf5  1  0.155401  0.497059  0.469879  1
  Hf  Hf6  1  0.002034  0.655186  0.719280  1
  Hf  Hf7  1  0.995978  0.345808  0.219994  1
  Hf  Hf8  1  0.497673  0.354677  0.125957  1
  Hf  Hf9  1  0.501720  0.644750  0.625515  1
  Hf  Hf10  1  0.855506  0.001628  0.873818  1
  Hf  Hf11  1  0.144462  0.996295  0.375831  1
  Hf  Hf12  1  0.644750  0.501720  0.374485  1
  Hf  Hf13  1  0.354677  0.497673  0.874043  1
  Hf  Hf14  1  0.001628  0.855506  0.126182  1
  Hf  Hf15  1  0.996295  0.144462  0.624169  1
  Ta  Ta16  1  0.174574  0.174574  0.000000  1
  Si  Si17  1  0.796846  0.146527  0.071213  1
  Si  Si18  1  0.202786  0.853903  0.572177  1
  Si  Si19  1  0.646188  0.703265  0.821688  1
  Si  Si20  1  0.352438  0.296284  0.322255  1
  Si  Si21  1  0.853903  0.202786  0.427823  1
  Si  Si22  1  0.146527  0.796846  0.928787  1
  Si  Si23  1  0.703265  0.646188  0.178312  1
  Si  Si24  1  0.296284  0.352438  0.677745  1
  Si  Si25  1  0.548878  0.198430  0.933092  1
  Si  Si26  1  0.453910  0.802219  0.433733  1
  Si  Si27  1  0.696689  0.953763  0.683263  1
  Si  Si28  1  0.303911  0.045110  0.184667  1
  Si  Si29  1  0.802219  0.453910  0.566267  1
  Si  Si30  1  0.198430  0.548878  0.066908  1
  Si  Si31  1  0.953763  0.696689  0.316737  1
  Si  Si32  1  0.045110  0.303911  0.815333  1
  W  W33  1  0.673422  0.327565  0.749169  1
  W  W34  1  0.327565  0.673422  0.250831  1
  W  W35  1  0.825713  0.825713  0.500000  1
