# generated using pymatgen
data_PmGaSiPt2
_symmetry_space_group_name_H-M   'P 1'
_cell_length_a   5.97578958
_cell_length_b   5.97578902
_cell_length_c   5.97579006
_cell_angle_alpha   138.60968532
_cell_angle_beta   138.60967644
_cell_angle_gamma   59.97051532
_symmetry_Int_Tables_number   1
_chemical_formula_structural   PmGaSiPt2
_chemical_formula_sum   'Pm1 Ga1 Si1 Pt2'
_cell_volume   92.33445878
_cell_formula_units_Z   1
loop_
 _symmetry_equiv_pos_site_id
 _symmetry_equiv_pos_as_xyz
  1  'x, y, z'
loop_
 _atom_site_type_symbol
 _atom_site_label
 _atom_site_symmetry_multiplicity
 _atom_site_fract_x
 _atom_site_fract_y
 _atom_site_fract_z
 _atom_site_occupancy
  Pm  Pm0  1  0.002114  0.002114  0.000000  1
  Ga  Ga1  1  0.386276  0.386276  0.000000  1
  Si  Si2  1  0.624010  0.624010  0.000000  1
  Pt  Pt3  1  0.743800  0.243800  0.500000  1
  Pt  Pt4  1  0.243800  0.743800  0.500000  1
