# generated using pymatgen
data_Er5Co19(Si2P)4
_symmetry_space_group_name_H-M   'P 1'
_cell_length_a   12.07655089
_cell_length_b   12.07285503
_cell_length_c   3.67862300
_cell_angle_alpha   90.00000000
_cell_angle_beta   90.00000000
_cell_angle_gamma   119.96608757
_symmetry_Int_Tables_number   1
_chemical_formula_structural   Er5Co19(Si2P)4
_chemical_formula_sum   'Er5 Co19 Si8 P4'
_cell_volume   464.64056486
_cell_formula_units_Z   1
loop_
 _symmetry_equiv_pos_site_id
 _symmetry_equiv_pos_as_xyz
  1  'x, y, z'
loop_
 _atom_site_type_symbol
 _atom_site_label
 _atom_site_symmetry_multiplicity
 _atom_site_fract_x
 _atom_site_fract_y
 _atom_site_fract_z
 _atom_site_occupancy
  Er  Er0  1  0.333112  0.666279  0.000000  1
  Er  Er1  1  0.666932  0.331697  0.000000  1
  Er  Er2  1  0.001074  0.183508  0.500000  1
  Er  Er3  1  0.816135  0.816869  0.500000  1
  Er  Er4  1  0.184378  0.999934  0.500000  1
  Co  Co5  1  0.627832  0.825516  0.000000  1
  Co  Co6  1  0.175885  0.802888  0.000000  1
  Co  Co7  1  0.196602  0.371936  0.000000  1
  Co  Co8  1  0.374472  0.197020  0.000000  1
  Co  Co9  1  0.824189  0.627101  0.000000  1
  Co  Co10  1  0.797805  0.175427  0.000000  1
  Co  Co11  1  0.999205  0.556469  0.000000  1
  Co  Co12  1  0.442192  0.442532  0.000000  1
  Co  Co13  1  0.554859  0.997152  0.000000  1
  Co  Co14  1  0.521229  0.645529  0.500000  1
  Co  Co15  1  0.354549  0.875929  0.500000  1
  Co  Co16  1  0.122946  0.477832  0.500000  1
  Co  Co17  1  0.485564  0.124581  0.500000  1
  Co  Co18  1  0.644905  0.520888  0.500000  1
  Co  Co19  1  0.874098  0.352732  0.500000  1
  Co  Co20  1  0.999808  0.722429  0.500000  1
  Co  Co21  1  0.278054  0.277107  0.500000  1
  Co  Co22  1  0.721352  0.004701  0.500000  1
  Co  Co23  1  0.999340  0.000143  0.000000  1
  Si  Si24  1  0.999430  0.368273  0.000000  1
  Si  Si25  1  0.630854  0.631051  0.000000  1
  Si  Si26  1  0.369202  0.000478  0.000000  1
  Si  Si27  1  0.521422  0.840161  0.500000  1
  Si  Si28  1  0.159204  0.680790  0.500000  1
  Si  Si29  1  0.318533  0.478019  0.500000  1
  Si  Si30  1  0.478954  0.318131  0.500000  1
  Si  Si31  1  0.840025  0.521508  0.500000  1
  P  P32  1  0.685421  0.164935  0.500000  1
  P  P33  1  0.999863  0.819230  0.000000  1
  P  P34  1  0.181515  0.180200  0.000000  1
  P  P35  1  0.819058  0.001025  0.000000  1
