# generated using pymatgen
data_ErLu4Si6P6Ir19
_symmetry_space_group_name_H-M   'P 1'
_cell_length_a   12.77160700
_cell_length_b   12.77160629
_cell_length_c   3.93259800
_cell_angle_alpha   90.00000000
_cell_angle_beta   90.00000000
_cell_angle_gamma   120.00000443
_symmetry_Int_Tables_number   1
_chemical_formula_structural   ErLu4Si6P6Ir19
_chemical_formula_sum   'Er1 Lu4 Si6 P6 Ir19'
_cell_volume   555.52196406
_cell_formula_units_Z   1
loop_
 _symmetry_equiv_pos_site_id
 _symmetry_equiv_pos_as_xyz
  1  'x, y, z'
loop_
 _atom_site_type_symbol
 _atom_site_label
 _atom_site_symmetry_multiplicity
 _atom_site_fract_x
 _atom_site_fract_y
 _atom_site_fract_z
 _atom_site_occupancy
  Er  Er0  1  0.333333  0.666667  0.000000  1
  Lu  Lu1  1  0.666667  0.333333  0.000000  1
  Lu  Lu2  1  0.816733  0.814814  0.500000  1
  Lu  Lu3  1  0.185186  0.001919  0.500000  1
  Lu  Lu4  1  0.998081  0.183267  0.500000  1
  Si  Si5  1  0.681825  0.163097  0.500000  1
  Si  Si6  1  0.836903  0.518728  0.500000  1
  Si  Si7  1  0.481272  0.318175  0.500000  1
  Si  Si8  1  0.636970  0.636259  0.000000  1
  Si  Si9  1  0.363741  0.000711  0.000000  1
  Si  Si10  1  0.999289  0.363030  0.000000  1
  P  P11  1  0.177767  0.693554  0.500000  1
  P  P12  1  0.515788  0.822233  0.500000  1
  P  P13  1  0.306446  0.484212  0.500000  1
  P  P14  1  0.175686  0.179784  0.000000  1
  P  P15  1  0.820216  0.995900  0.000000  1
  P  P16  1  0.004100  0.824314  0.000000  1
  Ir  Ir17  1  0.809798  0.175908  0.000000  1
  Ir  Ir18  1  0.824092  0.633890  0.000000  1
  Ir  Ir19  1  0.366110  0.190202  0.000000  1
  Ir  Ir20  1  0.182962  0.801761  0.000000  1
  Ir  Ir21  1  0.618799  0.817038  0.000000  1
  Ir  Ir22  1  0.198239  0.381201  0.000000  1
  Ir  Ir23  1  0.458098  0.443428  0.000000  1
  Ir  Ir24  1  0.556572  0.014670  0.000000  1
  Ir  Ir25  1  0.985330  0.541902  0.000000  1
  Ir  Ir26  1  0.277090  0.283640  0.500000  1
  Ir  Ir27  1  0.716360  0.993450  0.500000  1
  Ir  Ir28  1  0.006550  0.722910  0.500000  1
  Ir  Ir29  1  0.868122  0.353127  0.500000  1
  Ir  Ir30  1  0.646873  0.514996  0.500000  1
  Ir  Ir31  1  0.485004  0.131878  0.500000  1
  Ir  Ir32  1  0.368110  0.873486  0.500000  1
  Ir  Ir33  1  0.505377  0.631890  0.500000  1
  Ir  Ir34  1  0.126514  0.494623  0.500000  1
  Ir  Ir35  1  0.000000  0.000000  0.000000  1
