# generated using pymatgen
data_Ho2U(AlRu)3
_symmetry_space_group_name_H-M   'P 1'
_cell_length_a   6.82629874
_cell_length_b   6.82629811
_cell_length_c   4.04893700
_cell_angle_alpha   90.00000000
_cell_angle_beta   90.00000000
_cell_angle_gamma   116.48165551
_symmetry_Int_Tables_number   1
_chemical_formula_structural   Ho2U(AlRu)3
_chemical_formula_sum   'Ho2 U1 Al3 Ru3'
_cell_volume   168.87759786
_cell_formula_units_Z   1
loop_
 _symmetry_equiv_pos_site_id
 _symmetry_equiv_pos_as_xyz
  1  'x, y, z'
loop_
 _atom_site_type_symbol
 _atom_site_label
 _atom_site_symmetry_multiplicity
 _atom_site_fract_x
 _atom_site_fract_y
 _atom_site_fract_z
 _atom_site_occupancy
  Ho  Ho0  1  0.417627  0.008745  0.500000  1
  Ho  Ho1  1  0.008745  0.417627  0.500000  1
  U  U2  1  0.608033  0.608033  0.500000  1
  Al  Al3  1  0.752154  0.024786  0.000000  1
  Al  Al4  1  0.024786  0.752154  0.000000  1
  Al  Al5  1  0.209158  0.209158  0.000000  1
  Ru  Ru6  1  0.379133  0.637669  0.000000  1
  Ru  Ru7  1  0.637669  0.379133  0.000000  1
  Ru  Ru8  1  0.962696  0.962696  0.500000  1
