# generated using pymatgen
data_Pr9Sm6Lu5Sn16
_symmetry_space_group_name_H-M   'P 1'
_cell_length_a   8.17518062
_cell_length_b   8.36658804
_cell_length_c   15.82653300
_cell_angle_alpha   89.98178388
_cell_angle_beta   90.09235810
_cell_angle_gamma   90.08689826
_symmetry_Int_Tables_number   1
_chemical_formula_structural   Pr9Sm6Lu5Sn16
_chemical_formula_sum   'Pr9 Sm6 Lu5 Sn16'
_cell_volume   1082.50632937
_cell_formula_units_Z   1
loop_
 _symmetry_equiv_pos_site_id
 _symmetry_equiv_pos_as_xyz
  1  'x, y, z'
loop_
 _atom_site_type_symbol
 _atom_site_label
 _atom_site_symmetry_multiplicity
 _atom_site_fract_x
 _atom_site_fract_y
 _atom_site_fract_z
 _atom_site_occupancy
  Pr  Pr0  1  0.861717  0.664119  0.878393  1
  Pr  Pr1  1  0.514917  0.320249  0.901634  1
  Pr  Pr2  1  0.013606  0.178863  0.596146  1
  Pr  Pr3  1  0.486034  0.679487  0.404544  1
  Pr  Pr4  1  0.985611  0.821025  0.098274  1
  Pr  Pr5  1  0.485650  0.679337  0.097607  1
  Pr  Pr6  1  0.985899  0.820479  0.403159  1
  Pr  Pr7  1  0.513260  0.320583  0.596214  1
  Pr  Pr8  1  0.014540  0.179098  0.902088  1
  Sm  Sm9  1  0.360751  0.836247  0.876327  1
  Sm  Sm10  1  0.861288  0.663262  0.621268  1
  Sm  Sm11  1  0.639824  0.163681  0.377584  1
  Sm  Sm12  1  0.138896  0.336874  0.122160  1
  Sm  Sm13  1  0.637873  0.163191  0.123866  1
  Sm  Sm14  1  0.140262  0.336163  0.379463  1
  Lu  Lu15  1  0.359818  0.837770  0.623335  1
  Lu  Lu16  1  0.195996  0.502301  0.748411  1
  Lu  Lu17  1  0.693266  0.997833  0.748616  1
  Lu  Lu18  1  0.805559  0.498018  0.250809  1
  Lu  Lu19  1  0.305191  0.001159  0.250653  1
  Sn  Sn20  1  0.300595  0.037897  0.043321  1
  Sn  Sn21  1  0.801279  0.461613  0.456272  1
  Sn  Sn22  1  0.692077  0.960225  0.543933  1
  Sn  Sn23  1  0.204523  0.536448  0.956377  1
  Sn  Sn24  1  0.696840  0.965067  0.956885  1
  Sn  Sn25  1  0.202207  0.543374  0.544262  1
  Sn  Sn26  1  0.302523  0.035921  0.459301  1
  Sn  Sn27  1  0.799407  0.460683  0.045613  1
  Sn  Sn28  1  0.555660  0.621647  0.746936  1
  Sn  Sn29  1  0.060417  0.881922  0.747078  1
  Sn  Sn30  1  0.441311  0.381107  0.250938  1
  Sn  Sn31  1  0.942889  0.119302  0.250724  1
  Sn  Sn32  1  0.322617  0.144032  0.747841  1
  Sn  Sn33  1  0.821780  0.352689  0.748284  1
  Sn  Sn34  1  0.677989  0.853126  0.250899  1
  Sn  Sn35  1  0.177928  0.645211  0.250780  1
