# generated using pymatgen
data_Np2Si5Os3
_symmetry_space_group_name_H-M   'P 1'
_cell_length_a   8.14073772
_cell_length_b   8.14073636
_cell_length_c   5.78351769
_cell_angle_alpha   70.26790876
_cell_angle_beta   70.26790977
_cell_angle_gamma   93.23229043
_symmetry_Int_Tables_number   1
_chemical_formula_structural   Np2Si5Os3
_chemical_formula_sum   'Np4 Si10 Os6'
_cell_volume   333.25535020
_cell_formula_units_Z   2
loop_
 _symmetry_equiv_pos_site_id
 _symmetry_equiv_pos_as_xyz
  1  'x, y, z'
loop_
 _atom_site_type_symbol
 _atom_site_label
 _atom_site_symmetry_multiplicity
 _atom_site_fract_x
 _atom_site_fract_y
 _atom_site_fract_z
 _atom_site_occupancy
  Np  Np0  1  0.867034  0.596293  0.760778  1
  Np  Np1  1  0.403707  0.132966  0.739222  1
  Np  Np2  1  0.132966  0.403707  0.239222  1
  Np  Np3  1  0.596293  0.867034  0.260778  1
  Si  Si4  1  0.065991  0.261281  0.833594  1
  Si  Si5  1  0.738719  0.934009  0.666406  1
  Si  Si6  1  0.934009  0.738719  0.166406  1
  Si  Si7  1  0.261281  0.065991  0.333594  1
  Si  Si8  1  0.203963  0.796037  0.750000  1
  Si  Si9  1  0.796037  0.203963  0.250000  1
  Si  Si10  1  0.514768  0.485232  0.750000  1
  Si  Si11  1  0.485232  0.514768  0.250000  1
  Si  Si12  1  0.776198  0.223802  0.750000  1
  Si  Si13  1  0.223802  0.776198  0.250000  1
  Os  Os14  1  0.253769  0.544018  0.637241  1
  Os  Os15  1  0.455982  0.746231  0.862759  1
  Os  Os16  1  0.746231  0.455982  0.362759  1
  Os  Os17  1  0.544018  0.253769  0.137241  1
  Os  Os18  1  0.000844  0.999156  0.750000  1
  Os  Os19  1  0.999156  0.000844  0.250000  1
