# generated using pymatgen
data_NdHo5Mn2(Co4P3)4
_symmetry_space_group_name_H-M   'P 1'
_cell_length_a   3.68913300
_cell_length_b   10.53418400
_cell_length_c   12.20545200
_cell_angle_alpha   90.00000000
_cell_angle_beta   90.00000000
_cell_angle_gamma   90.00000000
_symmetry_Int_Tables_number   1
_chemical_formula_structural   NdHo5Mn2(Co4P3)4
_chemical_formula_sum   'Nd1 Ho5 Mn2 Co16 P12'
_cell_volume   474.32834669
_cell_formula_units_Z   1
loop_
 _symmetry_equiv_pos_site_id
 _symmetry_equiv_pos_as_xyz
  1  'x, y, z'
loop_
 _atom_site_type_symbol
 _atom_site_label
 _atom_site_symmetry_multiplicity
 _atom_site_fract_x
 _atom_site_fract_y
 _atom_site_fract_z
 _atom_site_occupancy
  Nd  Nd0  1  0.000000  0.500000  0.522967  1
  Ho  Ho1  1  0.500000  0.000000  0.477930  1
  Ho  Ho2  1  0.500000  0.818619  0.204904  1
  Ho  Ho3  1  0.500000  0.181381  0.204904  1
  Ho  Ho4  1  0.000000  0.682191  0.795729  1
  Ho  Ho5  1  0.000000  0.317809  0.795729  1
  Mn  Mn6  1  0.500000  0.500000  0.156123  1
  Mn  Mn7  1  0.000000  0.000000  0.841895  1
  Co  Co8  1  0.000000  0.500000  0.986552  1
  Co  Co9  1  0.500000  0.000000  0.013822  1
  Co  Co10  1  0.500000  0.293066  0.429700  1
  Co  Co11  1  0.500000  0.706934  0.429700  1
  Co  Co12  1  0.000000  0.200815  0.570245  1
  Co  Co13  1  0.000000  0.799185  0.570245  1
  Co  Co14  1  0.500000  0.880213  0.710566  1
  Co  Co15  1  0.500000  0.119787  0.710566  1
  Co  Co16  1  0.000000  0.621365  0.288938  1
  Co  Co17  1  0.000000  0.378635  0.288938  1
  Co  Co18  1  0.500000  0.332743  0.993706  1
  Co  Co19  1  0.500000  0.667257  0.993706  1
  Co  Co20  1  0.000000  0.166685  0.006095  1
  Co  Co21  1  0.000000  0.833315  0.006095  1
  Co  Co22  1  0.500000  0.500000  0.705293  1
  Co  Co23  1  0.000000  0.000000  0.296829  1
  P  P24  1  0.500000  0.307500  0.617771  1
  P  P25  1  0.500000  0.692500  0.617771  1
  P  P26  1  0.000000  0.187906  0.383555  1
  P  P27  1  0.000000  0.812094  0.383555  1
  P  P28  1  0.500000  0.500000  0.883466  1
  P  P29  1  0.000000  0.000000  0.117327  1
  P  P30  1  0.500000  0.847358  0.893156  1
  P  P31  1  0.500000  0.152642  0.893156  1
  P  P32  1  0.000000  0.653556  0.106524  1
  P  P33  1  0.000000  0.346444  0.106524  1
  P  P34  1  0.500000  0.500000  0.340609  1
  P  P35  1  0.000000  0.000000  0.655403  1
