# generated using pymatgen
data_La2SiI
_symmetry_space_group_name_H-M   'P 1'
_cell_length_a   8.18059158
_cell_length_b   8.18059159
_cell_length_c   8.18059125
_cell_angle_alpha   31.49438795
_cell_angle_beta   31.49438457
_cell_angle_gamma   31.49438128
_symmetry_Int_Tables_number   1
_chemical_formula_structural   La2SiI
_chemical_formula_sum   'La2 Si1 I1'
_cell_volume   132.64676599
_cell_formula_units_Z   1
loop_
 _symmetry_equiv_pos_site_id
 _symmetry_equiv_pos_as_xyz
  1  'x, y, z'
loop_
 _atom_site_type_symbol
 _atom_site_label
 _atom_site_symmetry_multiplicity
 _atom_site_fract_x
 _atom_site_fract_y
 _atom_site_fract_z
 _atom_site_occupancy
  La  La0  1  0.234076  0.234076  0.234076  1
  La  La1  1  0.765924  0.765924  0.765924  1
  Si  Si2  1  0.500000  0.500000  0.500000  1
  I  I3  1  0.000000  0.000000  0.000000  1
