# generated using pymatgen
data_Te2PbS
_symmetry_space_group_name_H-M   'P 1'
_cell_length_a   14.52508385
_cell_length_b   14.52508474
_cell_length_c   3.98909100
_cell_angle_alpha   90.00000000
_cell_angle_beta   90.00000000
_cell_angle_gamma   162.33917717
_symmetry_Int_Tables_number   1
_chemical_formula_structural   Te2PbS
_chemical_formula_sum   'Te4 Pb2 S2'
_cell_volume   255.32920138
_cell_formula_units_Z   2
loop_
 _symmetry_equiv_pos_site_id
 _symmetry_equiv_pos_as_xyz
  1  'x, y, z'
loop_
 _atom_site_type_symbol
 _atom_site_label
 _atom_site_symmetry_multiplicity
 _atom_site_fract_x
 _atom_site_fract_y
 _atom_site_fract_z
 _atom_site_occupancy
  Te  Te0  1  0.572814  0.427186  0.750000  1
  Te  Te1  1  0.427186  0.572814  0.250000  1
  Te  Te2  1  0.077218  0.922782  0.250000  1
  Te  Te3  1  0.922782  0.077218  0.750000  1
  Pb  Pb4  1  0.199965  0.800035  0.750000  1
  Pb  Pb5  1  0.800035  0.199965  0.250000  1
  S  S6  1  0.704710  0.295290  0.250000  1
  S  S7  1  0.295290  0.704710  0.750000  1
