# generated using pymatgen
data_Nd4Ga18(PtRh)3
_symmetry_space_group_name_H-M   'P 1'
_cell_length_a   7.70510298
_cell_length_b   7.70510296
_cell_length_c   9.61537737
_cell_angle_alpha   89.98019784
_cell_angle_beta   89.98019982
_cell_angle_gamma   119.70612551
_symmetry_Int_Tables_number   1
_chemical_formula_structural   Nd4Ga18(PtRh)3
_chemical_formula_sum   'Nd4 Ga18 Pt3 Rh3'
_cell_volume   495.82933678
_cell_formula_units_Z   1
loop_
 _symmetry_equiv_pos_site_id
 _symmetry_equiv_pos_as_xyz
  1  'x, y, z'
loop_
 _atom_site_type_symbol
 _atom_site_label
 _atom_site_symmetry_multiplicity
 _atom_site_fract_x
 _atom_site_fract_y
 _atom_site_fract_z
 _atom_site_occupancy
  Nd  Nd0  1  0.997494  0.668460  0.749721  1
  Nd  Nd1  1  0.004869  0.333442  0.250689  1
  Nd  Nd2  1  0.666558  0.995131  0.749311  1
  Nd  Nd3  1  0.331540  0.002506  0.250279  1
  Ga  Ga4  1  0.125120  0.126481  0.750579  1
  Ga  Ga5  1  0.873519  0.874880  0.249421  1
  Ga  Ga6  1  0.000479  0.330056  0.579013  1
  Ga  Ga7  1  0.998541  0.670030  0.420633  1
  Ga  Ga8  1  0.995652  0.665642  0.077200  1
  Ga  Ga9  1  0.334358  0.004348  0.922800  1
  Ga  Ga10  1  0.995550  0.329772  0.923238  1
  Ga  Ga11  1  0.670228  0.004450  0.076762  1
  Ga  Ga12  1  0.669944  0.999521  0.420987  1
  Ga  Ga13  1  0.329970  0.001459  0.579367  1
  Ga  Ga14  1  0.332119  0.328739  0.057484  1
  Ga  Ga15  1  0.671261  0.667881  0.942516  1
  Ga  Ga16  1  0.670328  0.670171  0.560271  1
  Ga  Ga17  1  0.329829  0.329672  0.439729  1
  Ga  Ga18  1  0.341305  0.541322  0.750428  1
  Ga  Ga19  1  0.658000  0.454015  0.246379  1
  Ga  Ga20  1  0.545985  0.342000  0.753621  1
  Ga  Ga21  1  0.458678  0.658695  0.249572  1
  Pt  Pt22  1  0.670869  0.329131  0.500000  1
  Pt  Pt23  1  0.328452  0.671548  0.500000  1
  Pt  Pt24  1  0.328477  0.671523  0.000000  1
  Rh  Rh25  1  0.670744  0.329256  0.000000  1
  Rh  Rh26  1  0.999980  0.000020  0.500000  1
  Rh  Rh27  1  0.000154  0.999846  0.000000  1
