# generated using pymatgen
data_Gd3Y(SeO3)6
_symmetry_space_group_name_H-M   'P 1'
_cell_length_a   7.18098121
_cell_length_b   8.23556084
_cell_length_c   9.18883817
_cell_angle_alpha   71.20626420
_cell_angle_beta   70.06099129
_cell_angle_gamma   66.12910074
_symmetry_Int_Tables_number   1
_chemical_formula_structural   Gd3Y(SeO3)6
_chemical_formula_sum   'Gd3 Y1 Se6 O18'
_cell_volume   456.30406928
_cell_formula_units_Z   1
loop_
 _symmetry_equiv_pos_site_id
 _symmetry_equiv_pos_as_xyz
  1  'x, y, z'
loop_
 _atom_site_type_symbol
 _atom_site_label
 _atom_site_symmetry_multiplicity
 _atom_site_fract_x
 _atom_site_fract_y
 _atom_site_fract_z
 _atom_site_occupancy
  Gd  Gd0  1  0.333615  0.728893  0.590120  1
  Gd  Gd1  1  0.664713  0.273352  0.409464  1
  Gd  Gd2  1  0.740883  0.734866  0.800058  1
  Y  Y3  1  0.259554  0.263091  0.200114  1
  Se  Se4  1  0.426782  0.777920  0.197923  1
  Se  Se5  1  0.572344  0.225652  0.802120  1
  Se  Se6  1  0.149335  0.746825  0.966445  1
  Se  Se7  1  0.851079  0.248312  0.036518  1
  Se  Se8  1  0.886740  0.760720  0.415004  1
  Se  Se9  1  0.113576  0.240681  0.582037  1
  O  O10  1  0.647559  0.792896  0.053673  1
  O  O11  1  0.354064  0.209099  0.949270  1
  O  O12  1  0.360397  0.945644  0.301203  1
  O  O13  1  0.635947  0.058823  0.698670  1
  O  O14  1  0.514941  0.598041  0.349967  1
  O  O15  1  0.481630  0.405549  0.650899  1
  O  O16  1  0.169199  0.564051  0.120139  1
  O  O17  1  0.833857  0.429345  0.880896  1
  O  O18  1  0.406089  0.709865  0.851316  1
  O  O19  1  0.593470  0.289095  0.150819  1
  O  O20  1  0.342544  0.250924  0.434899  1
  O  O21  1  0.657884  0.748358  0.561448  1
  O  O22  1  0.970282  0.291082  0.442928  1
  O  O23  1  0.031971  0.708076  0.553368  1
  O  O24  1  0.157408  0.015744  0.653899  1
  O  O25  1  0.841892  0.986000  0.346067  1
  O  O26  1  0.935006  0.303781  0.165517  1
  O  O27  1  0.067239  0.693314  0.835218  1
