# generated using pymatgen
data_LaNd5OsBr10
_symmetry_space_group_name_H-M   'P 1'
_cell_length_a   7.72771141
_cell_length_b   9.42598210
_cell_length_c   9.76613415
_cell_angle_alpha   108.47526853
_cell_angle_beta   97.20448031
_cell_angle_gamma   105.24731582
_symmetry_Int_Tables_number   1
_chemical_formula_structural   LaNd5OsBr10
_chemical_formula_sum   'La1 Nd5 Os1 Br10'
_cell_volume   633.79897778
_cell_formula_units_Z   1
loop_
 _symmetry_equiv_pos_site_id
 _symmetry_equiv_pos_as_xyz
  1  'x, y, z'
loop_
 _atom_site_type_symbol
 _atom_site_label
 _atom_site_symmetry_multiplicity
 _atom_site_fract_x
 _atom_site_fract_y
 _atom_site_fract_z
 _atom_site_occupancy
  La  La0  1  0.533163  0.214941  0.414136  1
  Nd  Nd1  1  0.466401  0.785178  0.586040  1
  Nd  Nd2  1  0.129745  0.356932  0.313287  1
  Nd  Nd3  1  0.870656  0.644348  0.687063  1
  Nd  Nd4  1  0.629325  0.550796  0.249436  1
  Nd  Nd5  1  0.371663  0.449434  0.751002  1
  Os  Os6  1  0.501695  0.493154  0.498131  1
  Br  Br7  1  0.146051  0.042795  0.226318  1
  Br  Br8  1  0.844823  0.955559  0.770114  1
  Br  Br9  1  0.251391  0.416605  0.049318  1
  Br  Br10  1  0.749464  0.584645  0.951307  1
  Br  Br11  1  0.707089  0.247434  0.152270  1
  Br  Br12  1  0.296830  0.755428  0.843316  1
  Br  Br13  1  0.048777  0.675817  0.420358  1
  Br  Br14  1  0.956624  0.327299  0.582465  1
  Br  Br15  1  0.412104  0.132125  0.675320  1
  Br  Br16  1  0.584198  0.867508  0.330120  1
