# generated using pymatgen
data_Ta3CrB3Ru2
_symmetry_space_group_name_H-M   'P 1'
_cell_length_a   3.12529900
_cell_length_b   6.36848000
_cell_length_c   10.85310100
_cell_angle_alpha   90.00000000
_cell_angle_beta   90.00000000
_cell_angle_gamma   90.00000000
_symmetry_Int_Tables_number   1
_chemical_formula_structural   Ta3CrB3Ru2
_chemical_formula_sum   'Ta6 Cr2 B6 Ru4'
_cell_volume   216.01365576
_cell_formula_units_Z   2
loop_
 _symmetry_equiv_pos_site_id
 _symmetry_equiv_pos_as_xyz
  1  'x, y, z'
loop_
 _atom_site_type_symbol
 _atom_site_label
 _atom_site_symmetry_multiplicity
 _atom_site_fract_x
 _atom_site_fract_y
 _atom_site_fract_z
 _atom_site_occupancy
  Ta  Ta0  1  0.000000  0.225161  0.950850  1
  Ta  Ta1  1  0.000000  0.774839  0.049150  1
  Ta  Ta2  1  0.000000  0.225161  0.549150  1
  Ta  Ta3  1  0.000000  0.774839  0.450850  1
  Ta  Ta4  1  0.000000  0.138709  0.250000  1
  Ta  Ta5  1  0.000000  0.861291  0.750000  1
  Cr  Cr6  1  0.500000  0.802854  0.250000  1
  Cr  Cr7  1  0.500000  0.197146  0.750000  1
  B  B8  1  0.500000  0.048127  0.086749  1
  B  B9  1  0.500000  0.951873  0.913251  1
  B  B10  1  0.500000  0.048127  0.413251  1
  B  B11  1  0.500000  0.951873  0.586749  1
  B  B12  1  0.000000  0.561222  0.250000  1
  B  B13  1  0.000000  0.438778  0.750000  1
  Ru  Ru14  1  0.500000  0.426820  0.123547  1
  Ru  Ru15  1  0.500000  0.573180  0.876453  1
  Ru  Ru16  1  0.500000  0.426820  0.376453  1
  Ru  Ru17  1  0.500000  0.573180  0.623547  1
