# generated using pymatgen
data_Tb2Y9(Lu3Bi4)3
_symmetry_space_group_name_H-M   'P 1'
_cell_length_a   8.20074999
_cell_length_b   9.45159210
_cell_length_c   12.00710601
_cell_angle_alpha   89.99045930
_cell_angle_beta   90.09567220
_cell_angle_gamma   90.00199285
_symmetry_Int_Tables_number   1
_chemical_formula_structural   Tb2Y9(Lu3Bi4)3
_chemical_formula_sum   'Tb2 Y9 Lu9 Bi12'
_cell_volume   930.67120348
_cell_formula_units_Z   1
loop_
 _symmetry_equiv_pos_site_id
 _symmetry_equiv_pos_as_xyz
  1  'x, y, z'
loop_
 _atom_site_type_symbol
 _atom_site_label
 _atom_site_symmetry_multiplicity
 _atom_site_fract_x
 _atom_site_fract_y
 _atom_site_fract_z
 _atom_site_occupancy
  Tb  Tb0  1  0.185226  0.749501  0.719011  1
  Tb  Tb1  1  0.685480  0.749555  0.781593  1
  Y  Y2  1  0.814714  0.249492  0.281333  1
  Y  Y3  1  0.314047  0.249812  0.218943  1
  Y  Y4  1  0.192605  0.939325  0.439939  1
  Y  Y5  1  0.309302  0.061631  0.941592  1
  Y  Y6  1  0.806896  0.439183  0.559940  1
  Y  Y7  1  0.354591  0.749460  0.215456  1
  Y  Y8  1  0.851832  0.748309  0.282882  1
  Y  Y9  1  0.646016  0.249158  0.784138  1
  Y  Y10  1  0.146860  0.248999  0.716390  1
  Lu  Lu11  1  0.022205  0.749425  0.989567  1
  Lu  Lu12  1  0.523304  0.750001  0.510421  1
  Lu  Lu13  1  0.976642  0.249160  0.010366  1
  Lu  Lu14  1  0.476819  0.249637  0.489392  1
  Lu  Lu15  1  0.308029  0.431042  0.941280  1
  Lu  Lu16  1  0.808841  0.069270  0.559191  1
  Lu  Lu17  1  0.691053  0.931688  0.058299  1
  Lu  Lu18  1  0.191485  0.569264  0.440798  1
  Lu  Lu19  1  0.693085  0.565336  0.059188  1
  Bi  Bi20  1  0.434457  0.003255  0.671732  1
  Bi  Bi21  1  0.934497  0.495417  0.828624  1
  Bi  Bi22  1  0.565828  0.503260  0.328083  1
  Bi  Bi23  1  0.065566  0.995505  0.171575  1
  Bi  Bi24  1  0.567214  0.995842  0.328511  1
  Bi  Bi25  1  0.066175  0.503348  0.170853  1
  Bi  Bi26  1  0.433099  0.495641  0.671372  1
  Bi  Bi27  1  0.933018  0.003481  0.828840  1
  Bi  Bi28  1  0.404163  0.743965  0.957360  1
  Bi  Bi29  1  0.904541  0.755658  0.541928  1
  Bi  Bi30  1  0.597133  0.249846  0.043686  1
  Bi  Bi31  1  0.095276  0.255535  0.457717  1
