# generated using pymatgen
data_CaPa4Ga15
_symmetry_space_group_name_H-M   'P 1'
_cell_length_a   12.64236404
_cell_length_b   12.64236243
_cell_length_c   12.64236311
_cell_angle_alpha   28.12072644
_cell_angle_beta   28.12073931
_cell_angle_gamma   28.12073490
_symmetry_Int_Tables_number   1
_chemical_formula_structural   CaPa4Ga15
_chemical_formula_sum   'Ca1 Pa4 Ga15'
_cell_volume   396.54230822
_cell_formula_units_Z   1
loop_
 _symmetry_equiv_pos_site_id
 _symmetry_equiv_pos_as_xyz
  1  'x, y, z'
loop_
 _atom_site_type_symbol
 _atom_site_label
 _atom_site_symmetry_multiplicity
 _atom_site_fract_x
 _atom_site_fract_y
 _atom_site_fract_z
 _atom_site_occupancy
  Ca  Ca0  1  0.000000  0.000000  0.000000  1
  Pa  Pa1  1  0.130212  0.130212  0.130212  1
  Pa  Pa2  1  0.869788  0.869788  0.869788  1
  Pa  Pa3  1  0.401061  0.401061  0.401061  1
  Pa  Pa4  1  0.598939  0.598939  0.598939  1
  Ga  Ga5  1  0.130194  0.636183  0.636183  1
  Ga  Ga6  1  0.636183  0.636183  0.130194  1
  Ga  Ga7  1  0.636183  0.130194  0.636183  1
  Ga  Ga8  1  0.363817  0.869806  0.363817  1
  Ga  Ga9  1  0.363817  0.363817  0.869806  1
  Ga  Ga10  1  0.869806  0.363817  0.363817  1
  Ga  Ga11  1  0.432754  0.883352  0.883352  1
  Ga  Ga12  1  0.883352  0.883352  0.432754  1
  Ga  Ga13  1  0.883352  0.432754  0.883352  1
  Ga  Ga14  1  0.116648  0.567246  0.116648  1
  Ga  Ga15  1  0.116648  0.116648  0.567246  1
  Ga  Ga16  1  0.567246  0.116648  0.116648  1
  Ga  Ga17  1  0.500000  0.500000  0.000000  1
  Ga  Ga18  1  0.500000  0.000000  0.500000  1
  Ga  Ga19  1  0.000000  0.500000  0.500000  1
