# generated using pymatgen
data_Er8Tm8Cd4Ir3Ru
_symmetry_space_group_name_H-M   'P 1'
_cell_length_a   9.54893885
_cell_length_b   9.54893993
_cell_length_c   9.54918008
_cell_angle_alpha   59.66718316
_cell_angle_beta   59.66717927
_cell_angle_gamma   59.70143625
_symmetry_Int_Tables_number   1
_chemical_formula_structural   Er8Tm8Cd4Ir3Ru
_chemical_formula_sum   'Er8 Tm8 Cd4 Ir3 Ru1'
_cell_volume   611.19332636
_cell_formula_units_Z   1
loop_
 _symmetry_equiv_pos_site_id
 _symmetry_equiv_pos_as_xyz
  1  'x, y, z'
loop_
 _atom_site_type_symbol
 _atom_site_label
 _atom_site_symmetry_multiplicity
 _atom_site_fract_x
 _atom_site_fract_y
 _atom_site_fract_z
 _atom_site_occupancy
  Er  Er0  1  0.438565  0.438565  0.062155  1
  Er  Er1  1  0.060275  0.060275  0.438148  1
  Er  Er2  1  0.188885  0.811679  0.811705  1
  Er  Er3  1  0.810057  0.188243  0.188177  1
  Er  Er4  1  0.811679  0.188885  0.811705  1
  Er  Er5  1  0.188243  0.810057  0.188177  1
  Er  Er6  1  0.811648  0.811648  0.188946  1
  Er  Er7  1  0.188263  0.188263  0.810069  1
  Tm  Tm8  1  0.598928  0.598928  0.598911  1
  Tm  Tm9  1  0.598612  0.598612  0.205801  1
  Tm  Tm10  1  0.598399  0.205656  0.598653  1
  Tm  Tm11  1  0.205656  0.598399  0.598653  1
  Tm  Tm12  1  0.061949  0.438750  0.438684  1
  Tm  Tm13  1  0.438396  0.060118  0.060070  1
  Tm  Tm14  1  0.438750  0.061949  0.438684  1
  Tm  Tm15  1  0.060118  0.438396  0.060070  1
  Cd  Cd16  1  0.829964  0.829964  0.830092  1
  Cd  Cd17  1  0.830725  0.830725  0.506719  1
  Cd  Cd18  1  0.830811  0.506753  0.830672  1
  Cd  Cd19  1  0.506753  0.830811  0.830672  1
  Ir  Ir20  1  0.392797  0.392797  0.825844  1
  Ir  Ir21  1  0.393259  0.825803  0.392890  1
  Ir  Ir22  1  0.825803  0.393259  0.392890  1
  Ru  Ru23  1  0.391461  0.391461  0.391611  1
