# generated using pymatgen
data_NaNd7(GePt)8
_symmetry_space_group_name_H-M   'P 1'
_cell_length_a   4.48631900
_cell_length_b   7.65545300
_cell_length_c   14.63616700
_cell_angle_alpha   90.00000000
_cell_angle_beta   90.00000000
_cell_angle_gamma   90.00000000
_symmetry_Int_Tables_number   1
_chemical_formula_structural   NaNd7(GePt)8
_chemical_formula_sum   'Na1 Nd7 Ge8 Pt8'
_cell_volume   502.67629055
_cell_formula_units_Z   1
loop_
 _symmetry_equiv_pos_site_id
 _symmetry_equiv_pos_as_xyz
  1  'x, y, z'
loop_
 _atom_site_type_symbol
 _atom_site_label
 _atom_site_symmetry_multiplicity
 _atom_site_fract_x
 _atom_site_fract_y
 _atom_site_fract_z
 _atom_site_occupancy
  Na  Na0  1  0.000000  0.292129  0.500000  1
  Nd  Nd1  1  0.500000  0.790439  0.746869  1
  Nd  Nd2  1  0.000000  0.208818  0.748639  1
  Nd  Nd3  1  0.500000  0.790439  0.253131  1
  Nd  Nd4  1  0.000000  0.208818  0.251361  1
  Nd  Nd5  1  0.500000  0.710323  0.000000  1
  Nd  Nd6  1  0.500000  0.699562  0.500000  1
  Nd  Nd7  1  0.000000  0.294078  0.000000  1
  Ge  Ge8  1  0.500000  0.411905  0.650350  1
  Ge  Ge9  1  0.000000  0.586288  0.851486  1
  Ge  Ge10  1  0.500000  0.411905  0.349650  1
  Ge  Ge11  1  0.000000  0.586288  0.148514  1
  Ge  Ge12  1  0.500000  0.088795  0.095163  1
  Ge  Ge13  1  0.000000  0.916053  0.407388  1
  Ge  Ge14  1  0.500000  0.088795  0.904837  1
  Ge  Ge15  1  0.000000  0.916053  0.592612  1
  Pt  Pt16  1  0.500000  0.079737  0.611284  1
  Pt  Pt17  1  0.000000  0.919498  0.891408  1
  Pt  Pt18  1  0.500000  0.079737  0.388716  1
  Pt  Pt19  1  0.000000  0.919498  0.108592  1
  Pt  Pt20  1  0.500000  0.418938  0.150359  1
  Pt  Pt21  1  0.000000  0.581482  0.348109  1
  Pt  Pt22  1  0.500000  0.418938  0.849641  1
  Pt  Pt23  1  0.000000  0.581482  0.651891  1
