# generated using pymatgen
data_Y2ErCoSn3Pt2
_symmetry_space_group_name_H-M   'P 1'
_cell_length_a   7.61125016
_cell_length_b   7.63381276
_cell_length_c   3.77574600
_cell_angle_alpha   90.00000000
_cell_angle_beta   90.00000000
_cell_angle_gamma   120.09811377
_symmetry_Int_Tables_number   1
_chemical_formula_structural   Y2ErCoSn3Pt2
_chemical_formula_sum   'Y2 Er1 Co1 Sn3 Pt2'
_cell_volume   189.80195596
_cell_formula_units_Z   1
loop_
 _symmetry_equiv_pos_site_id
 _symmetry_equiv_pos_as_xyz
  1  'x, y, z'
loop_
 _atom_site_type_symbol
 _atom_site_label
 _atom_site_symmetry_multiplicity
 _atom_site_fract_x
 _atom_site_fract_y
 _atom_site_fract_z
 _atom_site_occupancy
  Y  Y0  1  0.402269  0.402166  0.500000  1
  Y  Y1  1  0.597731  0.999896  0.500000  1
  Er  Er2  1  0.000000  0.597655  0.500000  1
  Co  Co3  1  0.000000  0.999342  0.500000  1
  Sn  Sn4  1  0.750569  0.749363  0.000000  1
  Sn  Sn5  1  0.249431  0.998794  0.000000  1
  Sn  Sn6  1  0.000000  0.250790  0.000000  1
  Pt  Pt7  1  0.669386  0.335690  0.000000  1
  Pt  Pt8  1  0.330614  0.666304  0.000000  1
