# generated using pymatgen
data_Ca2Zn3AgAu8
_symmetry_space_group_name_H-M   'P 1'
_cell_length_a   5.73599243
_cell_length_b   5.73599255
_cell_length_c   9.91842600
_cell_angle_alpha   90.00000000
_cell_angle_beta   90.00000000
_cell_angle_gamma   123.85547956
_symmetry_Int_Tables_number   1
_chemical_formula_structural   Ca2Zn3AgAu8
_chemical_formula_sum   'Ca2 Zn3 Ag1 Au8'
_cell_volume   271.00106580
_cell_formula_units_Z   1
loop_
 _symmetry_equiv_pos_site_id
 _symmetry_equiv_pos_as_xyz
  1  'x, y, z'
loop_
 _atom_site_type_symbol
 _atom_site_label
 _atom_site_symmetry_multiplicity
 _atom_site_fract_x
 _atom_site_fract_y
 _atom_site_fract_z
 _atom_site_occupancy
  Ca  Ca0  1  0.000000  0.500000  0.756003  1
  Ca  Ca1  1  0.500000  0.000000  0.243997  1
  Zn  Zn2  1  0.000000  0.000000  0.500000  1
  Zn  Zn3  1  0.000000  0.000000  0.000000  1
  Zn  Zn4  1  0.500000  0.500000  0.500000  1
  Ag  Ag5  1  0.500000  0.500000  0.000000  1
  Au  Au6  1  0.000000  0.500000  0.057148  1
  Au  Au7  1  0.500000  0.000000  0.544827  1
  Au  Au8  1  0.500000  0.000000  0.942852  1
  Au  Au9  1  0.000000  0.500000  0.455173  1
  Au  Au10  1  0.703371  0.801895  0.741965  1
  Au  Au11  1  0.198105  0.296629  0.258035  1
  Au  Au12  1  0.801895  0.703371  0.258035  1
  Au  Au13  1  0.296629  0.198105  0.741965  1
