# generated using pymatgen
data_Mg4P6Ir6Ru
_symmetry_space_group_name_H-M   'P 1'
_cell_length_a   6.86856810
_cell_length_b   6.86856834
_cell_length_c   6.86856700
_cell_angle_alpha   109.47122257
_cell_angle_beta   109.47122329
_cell_angle_gamma   109.47122559
_symmetry_Int_Tables_number   1
_chemical_formula_structural   Mg4P6Ir6Ru
_chemical_formula_sum   'Mg4 P6 Ir6 Ru1'
_cell_volume   249.44604896
_cell_formula_units_Z   1
loop_
 _symmetry_equiv_pos_site_id
 _symmetry_equiv_pos_as_xyz
  1  'x, y, z'
loop_
 _atom_site_type_symbol
 _atom_site_label
 _atom_site_symmetry_multiplicity
 _atom_site_fract_x
 _atom_site_fract_y
 _atom_site_fract_z
 _atom_site_occupancy
  Mg  Mg0  1  0.000000  0.000000  0.500000  1
  Mg  Mg1  1  0.500000  0.000000  0.000000  1
  Mg  Mg2  1  0.000000  0.500000  0.000000  1
  Mg  Mg3  1  0.500000  0.500000  0.500000  1
  P  P4  1  0.683876  0.683876  0.000000  1
  P  P5  1  0.316124  0.316124  0.000000  1
  P  P6  1  0.000000  0.683876  0.683876  1
  P  P7  1  0.000000  0.316124  0.316124  1
  P  P8  1  0.683876  0.000000  0.683876  1
  P  P9  1  0.316124  0.000000  0.316124  1
  Ir  Ir10  1  0.250000  0.500000  0.750000  1
  Ir  Ir11  1  0.750000  0.250000  0.500000  1
  Ir  Ir12  1  0.500000  0.250000  0.750000  1
  Ir  Ir13  1  0.500000  0.750000  0.250000  1
  Ir  Ir14  1  0.750000  0.500000  0.250000  1
  Ir  Ir15  1  0.250000  0.750000  0.500000  1
  Ru  Ru16  1  0.000000  0.000000  0.000000  1
