# generated using pymatgen
data_Tb5NdDy10Cd3AgPt4
_symmetry_space_group_name_H-M   'P 1'
_cell_length_a   9.72124173
_cell_length_b   9.72124126
_cell_length_c   9.69654000
_cell_angle_alpha   60.08401867
_cell_angle_beta   60.08402025
_cell_angle_gamma   59.92051639
_symmetry_Int_Tables_number   1
_chemical_formula_structural   Tb5NdDy10Cd3AgPt4
_chemical_formula_sum   'Tb5 Nd1 Dy10 Cd3 Ag1 Pt4'
_cell_volume   648.38567264
_cell_formula_units_Z   1
loop_
 _symmetry_equiv_pos_site_id
 _symmetry_equiv_pos_as_xyz
  1  'x, y, z'
loop_
 _atom_site_type_symbol
 _atom_site_label
 _atom_site_symmetry_multiplicity
 _atom_site_fract_x
 _atom_site_fract_y
 _atom_site_fract_z
 _atom_site_occupancy
  Tb  Tb0  1  0.934089  0.560895  0.563955  1
  Tb  Tb1  1  0.560975  0.936453  0.937974  1
  Tb  Tb2  1  0.560895  0.934089  0.563955  1
  Tb  Tb3  1  0.936453  0.560975  0.937974  1
  Tb  Tb4  1  0.564498  0.564498  0.932724  1
  Nd  Nd5  1  0.935060  0.935060  0.564494  1
  Dy  Dy6  1  0.352317  0.352317  0.349157  1
  Dy  Dy7  1  0.352502  0.352502  0.944958  1
  Dy  Dy8  1  0.354758  0.940094  0.352832  1
  Dy  Dy9  1  0.940094  0.354758  0.352832  1
  Dy  Dy10  1  0.810829  0.190759  0.188928  1
  Dy  Dy11  1  0.190583  0.811102  0.809521  1
  Dy  Dy12  1  0.190759  0.810829  0.188928  1
  Dy  Dy13  1  0.811102  0.190583  0.809521  1
  Dy  Dy14  1  0.190653  0.190653  0.809668  1
  Dy  Dy15  1  0.811522  0.811522  0.188618  1
  Cd  Cd16  1  0.581688  0.581688  0.256222  1
  Cd  Cd17  1  0.578799  0.257338  0.582896  1
  Cd  Cd18  1  0.257338  0.578799  0.582896  1
  Ag  Ag19  1  0.583742  0.583742  0.583707  1
  Pt  Pt20  1  0.144359  0.144359  0.143295  1
  Pt  Pt21  1  0.144311  0.144311  0.568214  1
  Pt  Pt22  1  0.142266  0.570404  0.143365  1
  Pt  Pt23  1  0.570404  0.142266  0.143365  1
