# generated using pymatgen
data_Ba3Eu4Ga8Sb5
_symmetry_space_group_name_H-M   'P 1'
_cell_length_a   4.53923200
_cell_length_b   6.84433589
_cell_length_c   20.05907705
_cell_angle_alpha   88.08770856
_cell_angle_beta   90.00000000
_cell_angle_gamma   90.00000000
_symmetry_Int_Tables_number   1
_chemical_formula_structural   Ba3Eu4Ga8Sb5
_chemical_formula_sum   'Ba3 Eu4 Ga8 Sb5'
_cell_volume   622.84890742
_cell_formula_units_Z   1
loop_
 _symmetry_equiv_pos_site_id
 _symmetry_equiv_pos_as_xyz
  1  'x, y, z'
loop_
 _atom_site_type_symbol
 _atom_site_label
 _atom_site_symmetry_multiplicity
 _atom_site_fract_x
 _atom_site_fract_y
 _atom_site_fract_z
 _atom_site_occupancy
  Ba  Ba0  1  0.750000  0.749565  0.196359  1
  Ba  Ba1  1  0.750000  0.638503  0.688599  1
  Ba  Ba2  1  0.250000  0.178302  0.808449  1
  Eu  Eu3  1  0.750000  0.744005  0.404350  1
  Eu  Eu4  1  0.750000  0.759233  0.922984  1
  Eu  Eu5  1  0.250000  0.239575  0.574326  1
  Eu  Eu6  1  0.250000  0.233034  0.117899  1
  Ga  Ga7  1  0.750000  0.235300  0.236384  1
  Ga  Ga8  1  0.750000  0.121412  0.680092  1
  Ga  Ga9  1  0.250000  0.671932  0.818611  1
  Ga  Ga10  1  0.250000  0.026311  0.277990  1
  Ga  Ga11  1  0.750000  0.944803  0.557176  1
  Ga  Ga12  1  0.750000  0.504501  0.068104  1
  Ga  Ga13  1  0.250000  0.112731  0.399238  1
  Ga  Ga14  1  0.250000  0.452687  0.944450  1
  Sb  Sb15  1  0.250000  0.449860  0.294785  1
  Sb  Sb16  1  0.750000  0.253093  0.458095  1
  Sb  Sb17  1  0.750000  0.215978  0.970692  1
  Sb  Sb18  1  0.250000  0.716950  0.532152  1
  Sb  Sb19  1  0.250000  0.752224  0.049265  1
