# generated using pymatgen
data_Ho2FeIr3
_symmetry_space_group_name_H-M   'P 1'
_cell_length_a   5.16033859
_cell_length_b   5.16033737
_cell_length_c   5.16033817
_cell_angle_alpha   63.76953604
_cell_angle_beta   63.76954653
_cell_angle_gamma   63.76953600
_symmetry_Int_Tables_number   1
_chemical_formula_structural   Ho2FeIr3
_chemical_formula_sum   'Ho2 Fe1 Ir3'
_cell_volume   105.24913217
_cell_formula_units_Z   1
loop_
 _symmetry_equiv_pos_site_id
 _symmetry_equiv_pos_as_xyz
  1  'x, y, z'
loop_
 _atom_site_type_symbol
 _atom_site_label
 _atom_site_symmetry_multiplicity
 _atom_site_fract_x
 _atom_site_fract_y
 _atom_site_fract_z
 _atom_site_occupancy
  Ho  Ho0  1  0.626438  0.626438  0.626438  1
  Ho  Ho1  1  0.373562  0.373562  0.373562  1
  Fe  Fe2  1  0.000000  0.000000  0.000000  1
  Ir  Ir3  1  0.000000  0.500000  0.000000  1
  Ir  Ir4  1  0.500000  0.000000  0.000000  1
  Ir  Ir5  1  0.000000  0.000000  0.500000  1
