# generated using pymatgen
data_Cs2YbAs2O7
_symmetry_space_group_name_H-M   'P 1'
_cell_length_a   6.08400665
_cell_length_b   7.59614096
_cell_length_c   9.61382800
_cell_angle_alpha   73.69951972
_cell_angle_beta   89.17895931
_cell_angle_gamma   88.95422459
_symmetry_Int_Tables_number   1
_chemical_formula_structural   Cs2YbAs2O7
_chemical_formula_sum   'Cs4 Yb2 As4 O14'
_cell_volume   426.35247257
_cell_formula_units_Z   2
loop_
 _symmetry_equiv_pos_site_id
 _symmetry_equiv_pos_as_xyz
  1  'x, y, z'
loop_
 _atom_site_type_symbol
 _atom_site_label
 _atom_site_symmetry_multiplicity
 _atom_site_fract_x
 _atom_site_fract_y
 _atom_site_fract_z
 _atom_site_occupancy
  Cs  Cs0  1  0.238114  0.808825  0.539942  1
  Cs  Cs1  1  0.740463  0.287599  0.023779  1
  Cs  Cs2  1  0.761886  0.191175  0.460058  1
  Cs  Cs3  1  0.259537  0.712401  0.976221  1
  Yb  Yb4  1  0.249025  0.227467  0.734858  1
  Yb  Yb5  1  0.750975  0.772533  0.265142  1
  As  As6  1  0.242280  0.094085  0.168414  1
  As  As7  1  0.757720  0.905915  0.831586  1
  As  As8  1  0.262446  0.429807  0.328513  1
  As  As9  1  0.737554  0.570193  0.671487  1
  O  O10  1  0.524162  0.005237  0.748533  1
  O  O11  1  0.755692  0.865214  0.014368  1
  O  O12  1  0.038815  0.570369  0.303888  1
  O  O13  1  0.765875  0.670578  0.822283  1
  O  O14  1  0.992494  0.000177  0.747842  1
  O  O15  1  0.495289  0.458678  0.713532  1
  O  O16  1  0.736227  0.743210  0.515256  1
  O  O17  1  0.504711  0.541322  0.286468  1
  O  O18  1  0.961185  0.429631  0.696112  1
  O  O19  1  0.007506  0.999823  0.252158  1
  O  O20  1  0.234125  0.329422  0.177717  1
  O  O21  1  0.244308  0.134786  0.985632  1
  O  O22  1  0.475838  0.994763  0.251467  1
  O  O23  1  0.263773  0.256790  0.484744  1
