# generated using pymatgen
data_Ti10Ga4Si2O
_symmetry_space_group_name_H-M   'P 1'
_cell_length_a   7.56535260
_cell_length_b   7.55137151
_cell_length_c   5.21586417
_cell_angle_alpha   90.06327088
_cell_angle_beta   89.87369204
_cell_angle_gamma   120.06127363
_symmetry_Int_Tables_number   1
_chemical_formula_structural   Ti10Ga4Si2O
_chemical_formula_sum   'Ti10 Ga4 Si2 O1'
_cell_volume   257.89467845
_cell_formula_units_Z   1
loop_
 _symmetry_equiv_pos_site_id
 _symmetry_equiv_pos_as_xyz
  1  'x, y, z'
loop_
 _atom_site_type_symbol
 _atom_site_label
 _atom_site_symmetry_multiplicity
 _atom_site_fract_x
 _atom_site_fract_y
 _atom_site_fract_z
 _atom_site_occupancy
  Ti  Ti0  1  0.994997  0.759675  0.255169  1
  Ti  Ti1  1  0.235321  0.240325  0.255169  1
  Ti  Ti2  1  0.767961  0.000000  0.254483  1
  Ti  Ti3  1  0.999808  0.235822  0.746129  1
  Ti  Ti4  1  0.763985  0.764178  0.746129  1
  Ti  Ti5  1  0.232327  0.000000  0.746230  1
  Ti  Ti6  1  0.332773  0.662910  0.496122  1
  Ti  Ti7  1  0.669865  0.337090  0.496122  1
  Ti  Ti8  1  0.669437  0.336332  0.003045  1
  Ti  Ti9  1  0.333105  0.663668  0.003045  1
  Ga  Ga10  1  0.395965  0.000000  0.245828  1
  Ga  Ga11  1  0.001800  0.601931  0.754672  1
  Ga  Ga12  1  0.399870  0.398069  0.754672  1
  Ga  Ga13  1  0.599611  0.000000  0.754226  1
  Si  Si14  1  0.999318  0.396254  0.243918  1
  Si  Si15  1  0.603064  0.603746  0.243918  1
  O  O16  1  0.000792  0.000000  0.501122  1
