# generated using pymatgen
data_Rb11NaMn4O16
_symmetry_space_group_name_H-M   'P 1'
_cell_length_a   8.36714186
_cell_length_b   8.36182728
_cell_length_c   11.00587353
_cell_angle_alpha   112.31689462
_cell_angle_beta   112.34005445
_cell_angle_gamma   89.99809117
_symmetry_Int_Tables_number   1
_chemical_formula_structural   Rb11NaMn4O16
_chemical_formula_sum   'Rb11 Na1 Mn4 O16'
_cell_volume   649.44241514
_cell_formula_units_Z   1
loop_
 _symmetry_equiv_pos_site_id
 _symmetry_equiv_pos_as_xyz
  1  'x, y, z'
loop_
 _atom_site_type_symbol
 _atom_site_label
 _atom_site_symmetry_multiplicity
 _atom_site_fract_x
 _atom_site_fract_y
 _atom_site_fract_z
 _atom_site_occupancy
  Rb  Rb0  1  0.285496  0.285538  0.570916  1
  Rb  Rb1  1  0.499970  0.000154  0.999998  1
  Rb  Rb2  1  0.250019  0.750110  0.500001  1
  Rb  Rb3  1  0.925374  0.925390  0.252478  1
  Rb  Rb4  1  0.074731  0.672983  0.747626  1
  Rb  Rb5  1  0.714517  0.714613  0.429115  1
  Rb  Rb6  1  0.000020  0.500202  0.000020  1
  Rb  Rb7  1  0.672862  0.074758  0.747558  1
  Rb  Rb8  1  0.327211  0.327258  0.252527  1
  Rb  Rb9  1  0.750010  0.250137  0.500001  1
  Rb  Rb10  1  0.500029  0.499986  0.000006  1
  Na  Na11  1  0.999956  0.000186  0.000050  1
  Mn  Mn12  1  0.863932  0.388150  0.252284  1
  Mn  Mn13  1  0.135719  0.135498  0.747428  1
  Mn  Mn14  1  0.612201  0.611823  0.748031  1
  Mn  Mn15  1  0.388152  0.864181  0.252172  1
  O  O16  1  0.420868  0.004435  0.425111  1
  O  O17  1  0.781459  0.781269  0.874820  1
  O  O18  1  0.651692  0.342264  0.231304  1
  O  O19  1  0.342016  0.651832  0.231065  1
  O  O20  1  0.004191  0.421025  0.425324  1
  O  O21  1  0.579286  0.889154  0.231107  1
  O  O22  1  0.348044  0.110640  0.768637  1
  O  O23  1  0.218823  0.906756  0.125319  1
  O  O24  1  0.579262  0.579166  0.574998  1
  O  O25  1  0.093211  0.092850  0.874282  1
  O  O26  1  0.658042  0.420429  0.768927  1
  O  O27  1  0.995584  0.995378  0.574483  1
  O  O28  1  0.889039  0.579399  0.231285  1
  O  O29  1  0.906524  0.218780  0.125519  1
  O  O30  1  0.110777  0.347827  0.768694  1
  O  O31  1  0.420982  0.657826  0.768918  1
