# generated using pymatgen
data_Pr3Sm(IO6)2
_symmetry_space_group_name_H-M   'P 1'
_cell_length_a   5.45052885
_cell_length_b   9.39562629
_cell_length_c   10.24080000
_cell_angle_alpha   89.77417335
_cell_angle_beta   89.93187193
_cell_angle_gamma   90.01436089
_symmetry_Int_Tables_number   1
_chemical_formula_structural   Pr3Sm(IO6)2
_chemical_formula_sum   'Pr6 Sm2 I4 O24'
_cell_volume   524.43850087
_cell_formula_units_Z   2
loop_
 _symmetry_equiv_pos_site_id
 _symmetry_equiv_pos_as_xyz
  1  'x, y, z'
loop_
 _atom_site_type_symbol
 _atom_site_label
 _atom_site_symmetry_multiplicity
 _atom_site_fract_x
 _atom_site_fract_y
 _atom_site_fract_z
 _atom_site_occupancy
  Pr  Pr0  1  0.019159  0.401041  0.033884  1
  Pr  Pr1  1  0.028810  0.277907  0.650607  1
  Pr  Pr2  1  0.470836  0.714618  0.131577  1
  Pr  Pr3  1  0.450874  0.620010  0.539286  1
  Pr  Pr4  1  0.548551  0.120827  0.958882  1
  Pr  Pr5  1  0.527170  0.211871  0.366883  1
  Sm  Sm6  1  0.968741  0.782385  0.847648  1
  Sm  Sm7  1  0.980734  0.898284  0.465673  1
  I  I8  1  0.050254  0.997884  0.146634  1
  I  I9  1  0.476586  0.993949  0.647734  1
  I  I10  1  0.527294  0.502022  0.851316  1
  I  I11  1  0.946442  0.499057  0.355024  1
  O  O12  1  0.036702  0.647731  0.466868  1
  O  O13  1  0.143714  0.559830  0.215389  1
  O  O14  1  0.162389  0.818506  0.657115  1
  O  O15  1  0.163179  0.851928  0.257330  1
  O  O16  1  0.215172  0.392859  0.426702  1
  O  O17  1  0.246472  0.089493  0.513165  1
  O  O18  1  0.244578  0.913397  0.008756  1
  O  O19  1  0.274001  0.618574  0.937589  1
  O  O20  1  0.341891  0.149765  0.760078  1
  O  O21  1  0.329586  0.111511  0.186081  1
  O  O22  1  0.274698  0.474012  0.707253  1
  O  O23  1  0.433770  0.358464  0.007641  1
  O  O24  1  0.577277  0.853771  0.493327  1
  O  O25  1  0.734107  0.973868  0.795877  1
  O  O26  1  0.669629  0.612770  0.312539  1
  O  O27  1  0.664547  0.656844  0.736871  1
  O  O28  1  0.726672  0.111255  0.557814  1
  O  O29  1  0.746582  0.414714  0.491294  1
  O  O30  1  0.758368  0.601933  0.985082  1
  O  O31  1  0.778464  0.895125  0.076307  1
  O  O32  1  0.834735  0.352622  0.245727  1
  O  O33  1  0.829552  0.316094  0.841825  1
  O  O34  1  0.858989  0.058120  0.289077  1
  O  O35  1  0.959473  0.146957  0.035148  1
