# generated using pymatgen
data_V20Ga9Co
_symmetry_space_group_name_H-M   'P 1'
_cell_length_a   9.28334894
_cell_length_b   9.28334900
_cell_length_c   4.74378800
_cell_angle_alpha   90.00000000
_cell_angle_beta   90.00000000
_cell_angle_gamma   90.19780937
_symmetry_Int_Tables_number   1
_chemical_formula_structural   V20Ga9Co
_chemical_formula_sum   'V20 Ga9 Co1'
_cell_volume   408.81990865
_cell_formula_units_Z   1
loop_
 _symmetry_equiv_pos_site_id
 _symmetry_equiv_pos_as_xyz
  1  'x, y, z'
loop_
 _atom_site_type_symbol
 _atom_site_label
 _atom_site_symmetry_multiplicity
 _atom_site_fract_x
 _atom_site_fract_y
 _atom_site_fract_z
 _atom_site_occupancy
  V  V0  1  0.396688  0.396688  0.000000  1
  V  V1  1  0.900870  0.099130  0.500000  1
  V  V2  1  0.099130  0.900870  0.500000  1
  V  V3  1  0.603312  0.603312  0.000000  1
  V  V4  1  0.127101  0.467901  0.000000  1
  V  V5  1  0.964131  0.372005  0.500000  1
  V  V6  1  0.035869  0.627995  0.500000  1
  V  V7  1  0.872899  0.532099  0.000000  1
  V  V8  1  0.372005  0.964131  0.500000  1
  V  V9  1  0.627995  0.035869  0.500000  1
  V  V10  1  0.467901  0.127101  0.000000  1
  V  V11  1  0.532099  0.872899  0.000000  1
  V  V12  1  0.178416  0.178416  0.252973  1
  V  V13  1  0.681939  0.318061  0.754642  1
  V  V14  1  0.318061  0.681939  0.754642  1
  V  V15  1  0.821584  0.821584  0.252973  1
  V  V16  1  0.318061  0.681939  0.245358  1
  V  V17  1  0.681939  0.318061  0.245358  1
  V  V18  1  0.178416  0.178416  0.747027  1
  V  V19  1  0.821584  0.821584  0.747027  1
  Ga  Ga20  1  0.500000  0.500000  0.500000  1
  Ga  Ga21  1  0.259089  0.936957  0.000000  1
  Ga  Ga22  1  0.433107  0.232831  0.500000  1
  Ga  Ga23  1  0.566893  0.767169  0.500000  1
  Ga  Ga24  1  0.740911  0.063043  0.000000  1
  Ga  Ga25  1  0.232831  0.433107  0.500000  1
  Ga  Ga26  1  0.767169  0.566893  0.500000  1
  Ga  Ga27  1  0.936957  0.259089  0.000000  1
  Ga  Ga28  1  0.063043  0.740911  0.000000  1
  Co  Co29  1  0.000000  0.000000  0.000000  1
