# generated using pymatgen
data_TbYbGa12Cu
_symmetry_space_group_name_H-M   'P 1'
_cell_length_a   6.13239200
_cell_length_b   6.13239200
_cell_length_c   15.26346700
_cell_angle_alpha   90.00000000
_cell_angle_beta   90.00000000
_cell_angle_gamma   90.00000000
_symmetry_Int_Tables_number   1
_chemical_formula_structural   TbYbGa12Cu
_chemical_formula_sum   'Tb2 Yb2 Ga24 Cu2'
_cell_volume   574.00147566
_cell_formula_units_Z   2
loop_
 _symmetry_equiv_pos_site_id
 _symmetry_equiv_pos_as_xyz
  1  'x, y, z'
loop_
 _atom_site_type_symbol
 _atom_site_label
 _atom_site_symmetry_multiplicity
 _atom_site_fract_x
 _atom_site_fract_y
 _atom_site_fract_z
 _atom_site_occupancy
  Tb  Tb0  1  0.000000  0.500000  0.756688  1
  Tb  Tb1  1  0.500000  0.000000  0.756688  1
  Yb  Yb2  1  0.000000  0.500000  0.243331  1
  Yb  Yb3  1  0.500000  0.000000  0.243331  1
  Ga  Ga4  1  0.670465  0.170465  0.429993  1
  Ga  Ga5  1  0.666932  0.833068  0.570536  1
  Ga  Ga6  1  0.166932  0.666932  0.570536  1
  Ga  Ga7  1  0.833068  0.333068  0.570536  1
  Ga  Ga8  1  0.500000  0.500000  0.181590  1
  Ga  Ga9  1  0.500000  0.500000  0.817221  1
  Ga  Ga10  1  0.000000  0.000000  0.817221  1
  Ga  Ga11  1  0.000000  0.000000  0.181590  1
  Ga  Ga12  1  0.500000  0.500000  0.342784  1
  Ga  Ga13  1  0.500000  0.500000  0.657294  1
  Ga  Ga14  1  0.000000  0.000000  0.657294  1
  Ga  Ga15  1  0.000000  0.000000  0.342784  1
  Ga  Ga16  1  0.250102  0.750102  0.914221  1
  Ga  Ga17  1  0.249898  0.250102  0.914221  1
  Ga  Ga18  1  0.750102  0.749898  0.914221  1
  Ga  Ga19  1  0.250052  0.249948  0.086196  1
  Ga  Ga20  1  0.749948  0.750052  0.086196  1
  Ga  Ga21  1  0.749898  0.249898  0.914221  1
  Ga  Ga22  1  0.750052  0.250052  0.086196  1
  Ga  Ga23  1  0.249948  0.749948  0.086196  1
  Ga  Ga24  1  0.329535  0.829535  0.429993  1
  Ga  Ga25  1  0.170465  0.329535  0.429993  1
  Ga  Ga26  1  0.829535  0.670465  0.429993  1
  Ga  Ga27  1  0.333068  0.166932  0.570536  1
  Cu  Cu28  1  0.500000  0.000000  0.999199  1
  Cu  Cu29  1  0.000000  0.500000  0.999199  1
