# generated using pymatgen
data_Yb3Sn5Pd6
_symmetry_space_group_name_H-M   'P 1'
_cell_length_a   4.72449300
_cell_length_b   8.47508921
_cell_length_c   8.47508888
_cell_angle_alpha   102.05581865
_cell_angle_beta   106.18431811
_cell_angle_gamma   106.18431143
_symmetry_Int_Tables_number   1
_chemical_formula_structural   Yb3Sn5Pd6
_chemical_formula_sum   'Yb3 Sn5 Pd6'
_cell_volume   297.49387025
_cell_formula_units_Z   1
loop_
 _symmetry_equiv_pos_site_id
 _symmetry_equiv_pos_as_xyz
  1  'x, y, z'
loop_
 _atom_site_type_symbol
 _atom_site_label
 _atom_site_symmetry_multiplicity
 _atom_site_fract_x
 _atom_site_fract_y
 _atom_site_fract_z
 _atom_site_occupancy
  Yb  Yb0  1  0.000000  0.000000  0.000000  1
  Yb  Yb1  1  0.999998  0.689735  0.310264  1
  Yb  Yb2  1  0.999998  0.310264  0.689735  1
  Sn  Sn3  1  0.344919  0.674189  0.015648  1
  Sn  Sn4  1  0.655081  0.984352  0.325810  1
  Sn  Sn5  1  0.500000  0.500000  0.500000  1
  Sn  Sn6  1  0.344919  0.015648  0.674189  1
  Sn  Sn7  1  0.655081  0.325810  0.984352  1
  Pd  Pd8  1  0.272523  0.395420  0.149627  1
  Pd  Pd9  1  0.830126  0.330125  0.330125  1
  Pd  Pd10  1  0.272523  0.149627  0.395420  1
  Pd  Pd11  1  0.727476  0.850373  0.604580  1
  Pd  Pd12  1  0.169873  0.669874  0.669874  1
  Pd  Pd13  1  0.727476  0.604580  0.850373  1
