# generated using pymatgen
data_SmTm7Sc11Si16Tc
_symmetry_space_group_name_H-M   'P 1'
_cell_length_a   6.98784201
_cell_length_b   7.31828021
_cell_length_c   13.83140130
_cell_angle_alpha   90.06586690
_cell_angle_beta   90.00609521
_cell_angle_gamma   90.19349879
_symmetry_Int_Tables_number   1
_chemical_formula_structural   SmTm7Sc11Si16Tc
_chemical_formula_sum   'Sm1 Tm7 Sc11 Si16 Tc1'
_cell_volume   707.31933123
_cell_formula_units_Z   1
loop_
 _symmetry_equiv_pos_site_id
 _symmetry_equiv_pos_as_xyz
  1  'x, y, z'
loop_
 _atom_site_type_symbol
 _atom_site_label
 _atom_site_symmetry_multiplicity
 _atom_site_fract_x
 _atom_site_fract_y
 _atom_site_fract_z
 _atom_site_occupancy
  Sm  Sm0  1  0.011719  0.176892  0.092247  1
  Tm  Tm1  1  0.992764  0.817366  0.900243  1
  Tm  Tm2  1  0.488143  0.673523  0.902173  1
  Tm  Tm3  1  0.992627  0.817133  0.599221  1
  Tm  Tm4  1  0.511328  0.323346  0.094802  1
  Tm  Tm5  1  0.012224  0.178915  0.406478  1
  Tm  Tm6  1  0.511709  0.322698  0.405670  1
  Tm  Tm7  1  0.487922  0.673122  0.597240  1
  Sc  Sc8  1  0.841304  0.496447  0.250469  1
  Sc  Sc9  1  0.342390  0.003849  0.250476  1
  Sc  Sc10  1  0.656780  0.994134  0.750050  1
  Sc  Sc11  1  0.325994  0.178532  0.627704  1
  Sc  Sc12  1  0.671854  0.824386  0.374843  1
  Sc  Sc13  1  0.172641  0.674035  0.377183  1
  Sc  Sc14  1  0.672042  0.823660  0.125684  1
  Sc  Sc15  1  0.827286  0.330845  0.628732  1
  Sc  Sc16  1  0.326678  0.178192  0.871951  1
  Sc  Sc17  1  0.826641  0.331593  0.871125  1
  Sc  Sc18  1  0.172735  0.673589  0.123318  1
  Si  Si19  1  0.028290  0.116340  0.749891  1
  Si  Si20  1  0.972748  0.885312  0.250981  1
  Si  Si21  1  0.469408  0.613652  0.250257  1
  Si  Si22  1  0.517581  0.397601  0.749797  1
  Si  Si23  1  0.284491  0.858840  0.749893  1
  Si  Si24  1  0.715541  0.130954  0.251596  1
  Si  Si25  1  0.216781  0.370811  0.251421  1
  Si  Si26  1  0.793489  0.631450  0.749771  1
  Si  Si27  1  0.156931  0.466599  0.547804  1
  Si  Si28  1  0.841436  0.535424  0.463513  1
  Si  Si29  1  0.344446  0.965553  0.463241  1
  Si  Si30  1  0.840583  0.538027  0.035700  1
  Si  Si31  1  0.659078  0.034030  0.540028  1
  Si  Si32  1  0.157143  0.468814  0.951170  1
  Si  Si33  1  0.658255  0.033675  0.959502  1
  Si  Si34  1  0.347994  0.963500  0.036067  1
  Tc  Tc35  1  0.151023  0.497161  0.749759  1
