# generated using pymatgen
data_Ho2Er2FeSi4Rh
_symmetry_space_group_name_H-M   'P 1'
_cell_length_a   5.63091619
_cell_length_b   5.63091541
_cell_length_c   10.00734301
_cell_angle_alpha   63.40889279
_cell_angle_beta   63.40889633
_cell_angle_gamma   43.46644294
_symmetry_Int_Tables_number   1
_chemical_formula_structural   Ho2Er2FeSi4Rh
_chemical_formula_sum   'Ho2 Er2 Fe1 Si4 Rh1'
_cell_volume   191.26897781
_cell_formula_units_Z   1
loop_
 _symmetry_equiv_pos_site_id
 _symmetry_equiv_pos_as_xyz
  1  'x, y, z'
loop_
 _atom_site_type_symbol
 _atom_site_label
 _atom_site_symmetry_multiplicity
 _atom_site_fract_x
 _atom_site_fract_y
 _atom_site_fract_z
 _atom_site_occupancy
  Ho  Ho0  1  0.812620  0.812620  0.108810  1
  Ho  Ho1  1  0.186572  0.186572  0.889943  1
  Er  Er2  1  0.002031  0.002031  0.325192  1
  Er  Er3  1  0.000039  0.000039  0.672094  1
  Fe  Fe4  1  0.272530  0.272530  0.376825  1
  Si  Si5  1  0.650867  0.650867  0.430956  1
  Si  Si6  1  0.360505  0.360505  0.557840  1
  Si  Si7  1  0.501395  0.501395  0.128040  1
  Si  Si8  1  0.486701  0.486701  0.881042  1
  Rh  Rh9  1  0.726739  0.726739  0.629257  1
