# generated using pymatgen
data_Tb4Er2Al24ZnRu7
_symmetry_space_group_name_H-M   'P 1'
_cell_length_a   8.83458424
_cell_length_b   8.83458366
_cell_length_c   9.53863734
_cell_angle_alpha   90.03375237
_cell_angle_beta   89.96624437
_cell_angle_gamma   119.99558952
_symmetry_Int_Tables_number   1
_chemical_formula_structural   Tb4Er2Al24ZnRu7
_chemical_formula_sum   'Tb4 Er2 Al24 Zn1 Ru7'
_cell_volume   644.77526999
_cell_formula_units_Z   1
loop_
 _symmetry_equiv_pos_site_id
 _symmetry_equiv_pos_as_xyz
  1  'x, y, z'
loop_
 _atom_site_type_symbol
 _atom_site_label
 _atom_site_symmetry_multiplicity
 _atom_site_fract_x
 _atom_site_fract_y
 _atom_site_fract_z
 _atom_site_occupancy
  Tb  Tb0  1  0.192678  0.385863  0.247579  1
  Tb  Tb1  1  0.807322  0.614137  0.752421  1
  Tb  Tb2  1  0.614137  0.807322  0.247579  1
  Tb  Tb3  1  0.385863  0.192678  0.752421  1
  Er  Er4  1  0.194620  0.805380  0.252571  1
  Er  Er5  1  0.805380  0.194620  0.747429  1
  Al  Al6  1  0.328834  0.671166  0.020853  1
  Al  Al7  1  0.671166  0.328834  0.979147  1
  Al  Al8  1  0.666573  0.333427  0.516112  1
  Al  Al9  1  0.333427  0.666573  0.483888  1
  Al  Al10  1  0.161892  0.324260  0.576960  1
  Al  Al11  1  0.838108  0.675740  0.423040  1
  Al  Al12  1  0.675740  0.838108  0.576960  1
  Al  Al13  1  0.849674  0.678139  0.081919  1
  Al  Al14  1  0.324260  0.161892  0.423040  1
  Al  Al15  1  0.150326  0.321861  0.918081  1
  Al  Al16  1  0.162514  0.837486  0.577824  1
  Al  Al17  1  0.321861  0.150326  0.081919  1
  Al  Al18  1  0.837486  0.162514  0.422176  1
  Al  Al19  1  0.678139  0.849674  0.918081  1
  Al  Al20  1  0.837212  0.162788  0.078183  1
  Al  Al21  1  0.162788  0.837212  0.921817  1
  Al  Al22  1  0.560721  0.121265  0.248500  1
  Al  Al23  1  0.439279  0.878735  0.751500  1
  Al  Al24  1  0.878735  0.439279  0.248500  1
  Al  Al25  1  0.121265  0.560721  0.751500  1
  Al  Al26  1  0.563658  0.436342  0.254728  1
  Al  Al27  1  0.436342  0.563658  0.745272  1
  Al  Al28  1  0.999504  0.000496  0.250363  1
  Al  Al29  1  0.000496  0.999504  0.749637  1
  Zn  Zn30  1  0.500000  0.500000  0.000000  1
  Ru  Ru31  1  0.500000  0.000000  0.000000  1
  Ru  Ru32  1  0.000000  0.500000  0.000000  1
  Ru  Ru33  1  0.500000  0.000000  0.500000  1
  Ru  Ru34  1  0.000000  0.500000  0.500000  1
  Ru  Ru35  1  0.500000  0.500000  0.500000  1
  Ru  Ru36  1  0.000000  0.000000  0.000000  1
  Ru  Ru37  1  0.000000  0.000000  0.500000  1
