# generated using pymatgen
data_Sr2Cd21Au
_symmetry_space_group_name_H-M   'P 1'
_cell_length_a   9.41255306
_cell_length_b   9.41553150
_cell_length_c   9.41255285
_cell_angle_alpha   100.20612045
_cell_angle_beta   99.78528372
_cell_angle_gamma   130.73725664
_symmetry_Int_Tables_number   1
_chemical_formula_structural   Sr2Cd21Au
_chemical_formula_sum   'Sr2 Cd21 Au1'
_cell_volume   574.63929528
_cell_formula_units_Z   1
loop_
 _symmetry_equiv_pos_site_id
 _symmetry_equiv_pos_as_xyz
  1  'x, y, z'
loop_
 _atom_site_type_symbol
 _atom_site_label
 _atom_site_symmetry_multiplicity
 _atom_site_fract_x
 _atom_site_fract_y
 _atom_site_fract_z
 _atom_site_occupancy
  Sr  Sr0  1  0.749907  0.250312  0.500405  1
  Sr  Sr1  1  0.500093  0.499688  0.999595  1
  Cd  Cd2  1  0.998934  0.321715  0.921390  1
  Cd  Cd3  1  0.125000  0.875000  0.750000  1
  Cd  Cd4  1  0.678419  0.594079  0.674795  1
  Cd  Cd5  1  0.400324  0.321715  0.322781  1
  Cd  Cd6  1  0.683135  0.008648  0.086768  1
  Cd  Cd7  1  0.849676  0.428285  0.177219  1
  Cd  Cd8  1  0.407521  0.081836  0.085863  1
  Cd  Cd9  1  0.001114  0.004587  0.003474  1
  Cd  Cd10  1  0.842479  0.668164  0.414137  1
  Cd  Cd11  1  0.248886  0.745413  0.496526  1
  Cd  Cd12  1  0.328121  0.741352  0.174487  1
  Cd  Cd13  1  0.125000  0.875000  0.250000  1
  Cd  Cd14  1  0.251066  0.428285  0.578610  1
  Cd  Cd15  1  0.566865  0.741352  0.413232  1
  Cd  Cd16  1  0.995972  0.081836  0.674314  1
  Cd  Cd17  1  0.921879  0.008648  0.325513  1
  Cd  Cd18  1  0.330717  0.155921  0.584340  1
  Cd  Cd19  1  0.254028  0.668164  0.825686  1
  Cd  Cd20  1  0.571581  0.155921  0.825205  1
  Cd  Cd21  1  0.919283  0.594079  0.915660  1
  Cd  Cd22  1  0.625000  0.875000  0.750000  1
  Au  Au23  1  0.125000  0.375000  0.250000  1
