# generated using pymatgen
data_Tm5Hg2Bi
_symmetry_space_group_name_H-M   'P 1'
_cell_length_a   8.73006308
_cell_length_b   8.73006293
_cell_length_c   8.73006280
_cell_angle_alpha   124.13883001
_cell_angle_beta   124.13882782
_cell_angle_gamma   82.96936343
_symmetry_Int_Tables_number   1
_chemical_formula_structural   Tm5Hg2Bi
_chemical_formula_sum   'Tm10 Hg4 Bi2'
_cell_volume   437.42897139
_cell_formula_units_Z   2
loop_
 _symmetry_equiv_pos_site_id
 _symmetry_equiv_pos_as_xyz
  1  'x, y, z'
loop_
 _atom_site_type_symbol
 _atom_site_label
 _atom_site_symmetry_multiplicity
 _atom_site_fract_x
 _atom_site_fract_y
 _atom_site_fract_z
 _atom_site_occupancy
  Tm  Tm0  1  0.000000  0.000000  0.000000  1
  Tm  Tm1  1  0.500000  0.500000  0.000000  1
  Tm  Tm2  1  0.798370  0.298370  0.803313  1
  Tm  Tm3  1  0.201630  0.701630  0.196687  1
  Tm  Tm4  1  0.495057  0.995057  0.196687  1
  Tm  Tm5  1  0.298370  0.495057  0.500000  1
  Tm  Tm6  1  0.004943  0.201630  0.500000  1
  Tm  Tm7  1  0.504943  0.004943  0.803313  1
  Tm  Tm8  1  0.701630  0.504943  0.500000  1
  Tm  Tm9  1  0.995057  0.798370  0.500000  1
  Hg  Hg10  1  0.141177  0.641177  0.782354  1
  Hg  Hg11  1  0.858823  0.358823  0.217646  1
  Hg  Hg12  1  0.641177  0.858823  0.500000  1
  Hg  Hg13  1  0.358823  0.141177  0.500000  1
  Bi  Bi14  1  0.250000  0.250000  0.000000  1
  Bi  Bi15  1  0.750000  0.750000  0.000000  1
