# generated using pymatgen
data_Y8Cu3Si12Ru
_symmetry_space_group_name_H-M   'P 1'
_cell_length_a   8.06152200
_cell_length_b   8.06178894
_cell_length_c   8.12181300
_cell_angle_alpha   90.00007090
_cell_angle_beta   89.99971692
_cell_angle_gamma   119.99904088
_symmetry_Int_Tables_number   1
_chemical_formula_structural   Y8Cu3Si12Ru
_chemical_formula_sum   'Y8 Cu3 Si12 Ru1'
_cell_volume   457.12637801
_cell_formula_units_Z   1
loop_
 _symmetry_equiv_pos_site_id
 _symmetry_equiv_pos_as_xyz
  1  'x, y, z'
loop_
 _atom_site_type_symbol
 _atom_site_label
 _atom_site_symmetry_multiplicity
 _atom_site_fract_x
 _atom_site_fract_y
 _atom_site_fract_z
 _atom_site_occupancy
  Y  Y0  1  0.000006  0.000000  0.249333  1
  Y  Y1  1  0.000004  0.999999  0.750647  1
  Y  Y2  1  0.996558  0.498269  0.253937  1
  Y  Y3  1  0.501727  0.498276  0.253945  1
  Y  Y4  1  0.502124  0.004225  0.746089  1
  Y  Y5  1  0.501729  0.003436  0.253939  1
  Y  Y6  1  0.502114  0.497888  0.746073  1
  Y  Y7  1  0.995769  0.497874  0.746091  1
  Cu  Cu8  1  0.333381  0.666651  0.998876  1
  Cu  Cu9  1  0.333370  0.666743  0.500268  1
  Cu  Cu10  1  0.666632  0.333354  0.000992  1
  Si  Si11  1  0.168558  0.337104  0.000081  1
  Si  Si12  1  0.662873  0.831427  0.000080  1
  Si  Si13  1  0.167353  0.334698  0.500323  1
  Si  Si14  1  0.337710  0.168878  0.999965  1
  Si  Si15  1  0.168615  0.831377  0.000091  1
  Si  Si16  1  0.665210  0.832597  0.500323  1
  Si  Si17  1  0.831134  0.662297  0.999965  1
  Si  Si18  1  0.336316  0.168148  0.499588  1
  Si  Si19  1  0.167288  0.832693  0.500338  1
  Si  Si20  1  0.831873  0.663693  0.499589  1
  Si  Si21  1  0.831166  0.168849  0.999971  1
  Si  Si22  1  0.831824  0.168210  0.499597  1
  Ru  Ru23  1  0.666667  0.333314  0.499900  1
