# generated using pymatgen
data_Y4Zn8In3Ag
_symmetry_space_group_name_H-M   'P 1'
_cell_length_a   4.39505800
_cell_length_b   7.20845451
_cell_length_c   10.15114900
_cell_angle_alpha   89.89325274
_cell_angle_beta   90.00000000
_cell_angle_gamma   90.00000000
_symmetry_Int_Tables_number   1
_chemical_formula_structural   Y4Zn8In3Ag
_chemical_formula_sum   'Y4 Zn8 In3 Ag1'
_cell_volume   321.60383697
_cell_formula_units_Z   1
loop_
 _symmetry_equiv_pos_site_id
 _symmetry_equiv_pos_as_xyz
  1  'x, y, z'
loop_
 _atom_site_type_symbol
 _atom_site_label
 _atom_site_symmetry_multiplicity
 _atom_site_fract_x
 _atom_site_fract_y
 _atom_site_fract_z
 _atom_site_occupancy
  Y  Y0  1  0.250000  0.299680  0.672654  1
  Y  Y1  1  0.750000  0.697784  0.331650  1
  Y  Y2  1  0.250000  0.809653  0.821071  1
  Y  Y3  1  0.750000  0.195417  0.174993  1
  Zn  Zn4  1  0.750000  0.307411  0.464662  1
  Zn  Zn5  1  0.250000  0.685636  0.538101  1
  Zn  Zn6  1  0.750000  0.818233  0.035365  1
  Zn  Zn7  1  0.250000  0.181688  0.963816  1
  Zn  Zn8  1  0.750000  0.592075  0.641942  1
  Zn  Zn9  1  0.250000  0.413781  0.358945  1
  Zn  Zn10  1  0.750000  0.086743  0.846824  1
  Zn  Zn11  1  0.250000  0.915181  0.146844  1
  In  In12  1  0.250000  0.531456  0.101949  1
  In  In13  1  0.750000  0.471008  0.898431  1
  In  In14  1  0.250000  0.027854  0.405657  1
  Ag  Ag15  1  0.750000  0.966398  0.597098  1
