# generated using pymatgen
data_Ca7Yb3(Pr5Sn8)2
_symmetry_space_group_name_H-M   'P 1'
_cell_length_a   8.02688338
_cell_length_b   8.57395749
_cell_length_c   16.14308578
_cell_angle_alpha   89.94480748
_cell_angle_beta   90.00833351
_cell_angle_gamma   90.02594038
_symmetry_Int_Tables_number   1
_chemical_formula_structural   Ca7Yb3(Pr5Sn8)2
_chemical_formula_sum   'Ca7 Yb3 Pr10 Sn16'
_cell_volume   1111.00134074
_cell_formula_units_Z   1
loop_
 _symmetry_equiv_pos_site_id
 _symmetry_equiv_pos_as_xyz
  1  'x, y, z'
loop_
 _atom_site_type_symbol
 _atom_site_label
 _atom_site_symmetry_multiplicity
 _atom_site_fract_x
 _atom_site_fract_y
 _atom_site_fract_z
 _atom_site_occupancy
  Ca  Ca0  1  0.330294  0.829342  0.878112  1
  Ca  Ca1  1  0.831624  0.671164  0.621956  1
  Ca  Ca2  1  0.670111  0.171960  0.375899  1
  Ca  Ca3  1  0.161263  0.498722  0.750092  1
  Ca  Ca4  1  0.660550  0.002510  0.749941  1
  Ca  Ca5  1  0.838524  0.496971  0.250043  1
  Ca  Ca6  1  0.338190  0.001041  0.250188  1
  Yb  Yb7  1  0.168468  0.326574  0.124195  1
  Yb  Yb8  1  0.667118  0.171532  0.124684  1
  Yb  Yb9  1  0.167616  0.327550  0.375340  1
  Pr  Pr10  1  0.332260  0.826001  0.624185  1
  Pr  Pr11  1  0.832821  0.675038  0.875878  1
  Pr  Pr12  1  0.492195  0.313210  0.906019  1
  Pr  Pr13  1  0.992873  0.188307  0.594430  1
  Pr  Pr14  1  0.509218  0.685279  0.402743  1
  Pr  Pr15  1  0.009178  0.814241  0.097323  1
  Pr  Pr16  1  0.505914  0.685402  0.097143  1
  Pr  Pr17  1  0.006770  0.813749  0.402958  1
  Pr  Pr18  1  0.492688  0.316299  0.594479  1
  Pr  Pr19  1  0.991551  0.184832  0.904939  1
  Sn  Sn20  1  0.329600  0.037199  0.039856  1
  Sn  Sn21  1  0.830208  0.463785  0.460790  1
  Sn  Sn22  1  0.671163  0.967127  0.539557  1
  Sn  Sn23  1  0.170094  0.532422  0.961636  1
  Sn  Sn24  1  0.669269  0.965976  0.962626  1
  Sn  Sn25  1  0.170865  0.534496  0.536954  1
  Sn  Sn26  1  0.329592  0.036913  0.460798  1
  Sn  Sn27  1  0.829683  0.462220  0.039353  1
  Sn  Sn28  1  0.532791  0.602675  0.750220  1
  Sn  Sn29  1  0.032180  0.899386  0.749387  1
  Sn  Sn30  1  0.466093  0.395170  0.249311  1
  Sn  Sn31  1  0.967807  0.103522  0.249398  1
  Sn  Sn32  1  0.287828  0.142831  0.748909  1
  Sn  Sn33  1  0.787099  0.358819  0.750823  1
  Sn  Sn34  1  0.714088  0.859586  0.249470  1
  Sn  Sn35  1  0.212413  0.638146  0.250366  1
