# generated using pymatgen
data_Dy3Ho2Lu15Pt16
_symmetry_space_group_name_H-M   'P 1'
_cell_length_a   7.40853242
_cell_length_b   7.48581315
_cell_length_c   14.59799000
_cell_angle_alpha   90.00904693
_cell_angle_beta   90.03542834
_cell_angle_gamma   89.99276146
_symmetry_Int_Tables_number   1
_chemical_formula_structural   Dy3Ho2Lu15Pt16
_chemical_formula_sum   'Dy3 Ho2 Lu15 Pt16'
_cell_volume   809.58814165
_cell_formula_units_Z   1
loop_
 _symmetry_equiv_pos_site_id
 _symmetry_equiv_pos_as_xyz
  1  'x, y, z'
loop_
 _atom_site_type_symbol
 _atom_site_label
 _atom_site_symmetry_multiplicity
 _atom_site_fract_x
 _atom_site_fract_y
 _atom_site_fract_z
 _atom_site_occupancy
  Dy  Dy0  1  0.999354  0.178851  0.406894  1
  Dy  Dy1  1  0.499591  0.322247  0.407683  1
  Dy  Dy2  1  0.999402  0.178052  0.092117  1
  Ho  Ho3  1  0.500564  0.678785  0.907712  1
  Ho  Ho4  1  0.000986  0.820309  0.592912  1
  Lu  Lu5  1  0.655735  0.166875  0.623002  1
  Lu  Lu6  1  0.155828  0.333355  0.877238  1
  Lu  Lu7  1  0.344812  0.833102  0.122447  1
  Lu  Lu8  1  0.844719  0.666890  0.377166  1
  Lu  Lu9  1  0.345995  0.831993  0.377622  1
  Lu  Lu10  1  0.844805  0.667408  0.121644  1
  Lu  Lu11  1  0.655266  0.167340  0.877865  1
  Lu  Lu12  1  0.156089  0.332955  0.622560  1
  Lu  Lu13  1  0.501406  0.680602  0.593391  1
  Lu  Lu14  1  0.001508  0.819354  0.906630  1
  Lu  Lu15  1  0.498532  0.319942  0.092992  1
  Lu  Lu16  1  0.818288  0.509490  0.750122  1
  Lu  Lu17  1  0.318222  0.990336  0.750223  1
  Lu  Lu18  1  0.181671  0.490543  0.249388  1
  Lu  Lu19  1  0.681670  0.009548  0.249493  1
  Pt  Pt20  1  0.682985  0.963182  0.459092  1
  Pt  Pt21  1  0.187474  0.534161  0.041572  1
  Pt  Pt22  1  0.313005  0.033011  0.957678  1
  Pt  Pt23  1  0.813188  0.468641  0.542980  1
  Pt  Pt24  1  0.317658  0.031241  0.543382  1
  Pt  Pt25  1  0.817195  0.466961  0.957716  1
  Pt  Pt26  1  0.682149  0.966353  0.041730  1
  Pt  Pt27  1  0.183400  0.537390  0.459624  1
  Pt  Pt28  1  0.452864  0.384364  0.749554  1
  Pt  Pt29  1  0.952773  0.115636  0.750792  1
  Pt  Pt30  1  0.546693  0.616866  0.248921  1
  Pt  Pt31  1  0.047986  0.882603  0.249825  1
  Pt  Pt32  1  0.678872  0.856238  0.749794  1
  Pt  Pt33  1  0.179282  0.643593  0.751368  1
  Pt  Pt34  1  0.321681  0.143599  0.248138  1
  Pt  Pt35  1  0.818350  0.358188  0.248735  1
