# generated using pymatgen
data_SmThMn12P7
_symmetry_space_group_name_H-M   'P 1'
_cell_length_a   9.35527800
_cell_length_b   9.35527901
_cell_length_c   3.64639200
_cell_angle_alpha   90.00000000
_cell_angle_beta   90.00000000
_cell_angle_gamma   120.00000349
_symmetry_Int_Tables_number   1
_chemical_formula_structural   SmThMn12P7
_chemical_formula_sum   'Sm1 Th1 Mn12 P7'
_cell_volume   276.38050968
_cell_formula_units_Z   1
loop_
 _symmetry_equiv_pos_site_id
 _symmetry_equiv_pos_as_xyz
  1  'x, y, z'
loop_
 _atom_site_type_symbol
 _atom_site_label
 _atom_site_symmetry_multiplicity
 _atom_site_fract_x
 _atom_site_fract_y
 _atom_site_fract_z
 _atom_site_occupancy
  Sm  Sm0  1  0.333333  0.666667  0.500000  1
  Th  Th1  1  0.666667  0.333333  0.000000  1
  Mn  Mn2  1  0.426232  0.049985  0.500000  1
  Mn  Mn3  1  0.950015  0.376247  0.500000  1
  Mn  Mn4  1  0.623753  0.573768  0.500000  1
  Mn  Mn5  1  0.153011  0.274500  0.500000  1
  Mn  Mn6  1  0.725500  0.878509  0.500000  1
  Mn  Mn7  1  0.121491  0.846989  0.500000  1
  Mn  Mn8  1  0.392426  0.437900  0.000000  1
  Mn  Mn9  1  0.562100  0.954526  0.000000  1
  Mn  Mn10  1  0.045474  0.607574  0.000000  1
  Mn  Mn11  1  0.226891  0.104782  0.000000  1
  Mn  Mn12  1  0.895218  0.122109  0.000000  1
  Mn  Mn13  1  0.877891  0.773109  0.000000  1
  P  P14  1  0.124119  0.404023  0.000000  1
  P  P15  1  0.595977  0.720095  0.000000  1
  P  P16  1  0.279905  0.875881  0.000000  1
  P  P17  1  0.000000  0.000000  0.500000  1
  P  P18  1  0.403175  0.290794  0.500000  1
  P  P19  1  0.709206  0.112380  0.500000  1
  P  P20  1  0.887620  0.596825  0.500000  1
