# generated using pymatgen
data_Ce12BeAl6Os5
_symmetry_space_group_name_H-M   'P 1'
_cell_length_a   7.82645750
_cell_length_b   7.81963916
_cell_length_c   9.75929800
_cell_angle_alpha   90.12788843
_cell_angle_beta   90.05418111
_cell_angle_gamma   120.17378386
_symmetry_Int_Tables_number   1
_chemical_formula_structural   Ce12BeAl6Os5
_chemical_formula_sum   'Ce12 Be1 Al6 Os5'
_cell_volume   516.33985043
_cell_formula_units_Z   1
loop_
 _symmetry_equiv_pos_site_id
 _symmetry_equiv_pos_as_xyz
  1  'x, y, z'
loop_
 _atom_site_type_symbol
 _atom_site_label
 _atom_site_symmetry_multiplicity
 _atom_site_fract_x
 _atom_site_fract_y
 _atom_site_fract_z
 _atom_site_occupancy
  Ce  Ce0  1  0.001196  0.594986  0.505660  1
  Ce  Ce1  1  0.594534  0.000799  0.505545  1
  Ce  Ce2  1  0.399172  0.399554  0.505959  1
  Ce  Ce3  1  0.999909  0.404946  0.005966  1
  Ce  Ce4  1  0.405401  0.999873  0.006148  1
  Ce  Ce5  1  0.609346  0.609536  0.017603  1
  Ce  Ce6  1  0.000662  0.733971  0.171619  1
  Ce  Ce7  1  0.735286  0.001260  0.172071  1
  Ce  Ce8  1  0.272099  0.271890  0.168846  1
  Ce  Ce9  1  0.997482  0.266611  0.665719  1
  Ce  Ce10  1  0.266703  0.997731  0.665503  1
  Ce  Ce11  1  0.732213  0.732263  0.672002  1
  Be  Be12  1  0.326935  0.327308  0.836250  1
  Al  Al13  1  0.667167  0.332887  0.278807  1
  Al  Al14  1  0.333121  0.667639  0.278279  1
  Al  Al15  1  0.335151  0.668154  0.780234  1
  Al  Al16  1  0.667983  0.335073  0.780301  1
  Al  Al17  1  0.997285  0.997166  0.417329  1
  Al  Al18  1  0.998204  0.997965  0.913498  1
  Os  Os19  1  0.999852  0.333968  0.336299  1
  Os  Os20  1  0.333898  0.999907  0.336043  1
  Os  Os21  1  0.659867  0.660079  0.337431  1
  Os  Os22  1  0.001977  0.664405  0.836065  1
  Os  Os23  1  0.664556  0.002028  0.836078  1
