# generated using pymatgen
data_Li8Tb8SnBi7
_symmetry_space_group_name_H-M   'P 1'
_cell_length_a   9.76250900
_cell_length_b   9.76250942
_cell_length_c   7.05633400
_cell_angle_alpha   90.00000000
_cell_angle_beta   90.00000000
_cell_angle_gamma   120.00000195
_symmetry_Int_Tables_number   1
_chemical_formula_structural   Li8Tb8SnBi7
_chemical_formula_sum   'Li8 Tb8 Sn1 Bi7'
_cell_volume   582.41515309
_cell_formula_units_Z   1
loop_
 _symmetry_equiv_pos_site_id
 _symmetry_equiv_pos_as_xyz
  1  'x, y, z'
loop_
 _atom_site_type_symbol
 _atom_site_label
 _atom_site_symmetry_multiplicity
 _atom_site_fract_x
 _atom_site_fract_y
 _atom_site_fract_z
 _atom_site_occupancy
  Li  Li0  1  0.167517  0.335033  0.273185  1
  Li  Li1  1  0.167517  0.832483  0.273185  1
  Li  Li2  1  0.664967  0.832483  0.273185  1
  Li  Li3  1  0.830951  0.661902  0.771878  1
  Li  Li4  1  0.830951  0.169049  0.771878  1
  Li  Li5  1  0.338098  0.169049  0.771878  1
  Li  Li6  1  0.333333  0.666667  0.691641  1
  Li  Li7  1  0.666667  0.333333  0.193392  1
  Tb  Tb8  1  0.510491  0.020983  0.496777  1
  Tb  Tb9  1  0.510491  0.489509  0.496777  1
  Tb  Tb10  1  0.979017  0.489509  0.496777  1
  Tb  Tb11  1  0.495395  0.990789  0.992122  1
  Tb  Tb12  1  0.495395  0.504605  0.992122  1
  Tb  Tb13  1  0.009211  0.504605  0.992122  1
  Tb  Tb14  1  0.000000  0.000000  0.502849  1
  Tb  Tb15  1  0.000000  0.000000  0.001712  1
  Sn  Sn16  1  0.666667  0.333333  0.756511  1
  Bi  Bi17  1  0.166581  0.333164  0.739996  1
  Bi  Bi18  1  0.166581  0.833419  0.739996  1
  Bi  Bi19  1  0.666836  0.833419  0.739996  1
  Bi  Bi20  1  0.833618  0.667236  0.239953  1
  Bi  Bi21  1  0.833618  0.166382  0.239953  1
  Bi  Bi22  1  0.332764  0.166382  0.239953  1
  Bi  Bi23  1  0.333333  0.666667  0.254135  1
