# generated using pymatgen
data_YSc2U(ReB6)2
_symmetry_space_group_name_H-M   'P 1'
_cell_length_a   3.60351400
_cell_length_b   8.98561696
_cell_length_c   11.35576066
_cell_angle_alpha   89.77098259
_cell_angle_beta   90.00000000
_cell_angle_gamma   90.00000000
_symmetry_Int_Tables_number   1
_chemical_formula_structural   YSc2U(ReB6)2
_chemical_formula_sum   'Y2 Sc4 U2 Re4 B24'
_cell_volume   367.69428211
_cell_formula_units_Z   2
loop_
 _symmetry_equiv_pos_site_id
 _symmetry_equiv_pos_as_xyz
  1  'x, y, z'
loop_
 _atom_site_type_symbol
 _atom_site_label
 _atom_site_symmetry_multiplicity
 _atom_site_fract_x
 _atom_site_fract_y
 _atom_site_fract_z
 _atom_site_occupancy
  Y  Y0  1  0.000000  0.321190  0.414120  1
  Y  Y1  1  0.000000  0.678810  0.585880  1
  Sc  Sc2  1  0.000000  0.944572  0.373550  1
  Sc  Sc3  1  0.000000  0.055428  0.626450  1
  Sc  Sc4  1  0.000000  0.445956  0.126617  1
  Sc  Sc5  1  0.000000  0.554044  0.873383  1
  U  U6  1  0.000000  0.821225  0.085771  1
  U  U7  1  0.000000  0.178775  0.914229  1
  Re  Re8  1  0.000000  0.643427  0.315174  1
  Re  Re9  1  0.000000  0.356573  0.684826  1
  Re  Re10  1  0.000000  0.137543  0.176945  1
  Re  Re11  1  0.000000  0.862457  0.823055  1
  B  B12  1  0.500000  0.554514  0.432151  1
  B  B13  1  0.500000  0.445486  0.567849  1
  B  B14  1  0.500000  0.053757  0.065831  1
  B  B15  1  0.500000  0.946243  0.934169  1
  B  B16  1  0.500000  0.753197  0.418613  1
  B  B17  1  0.500000  0.246803  0.581387  1
  B  B18  1  0.500000  0.253170  0.079979  1
  B  B19  1  0.500000  0.746830  0.920021  1
  B  B20  1  0.500000  0.795437  0.264147  1
  B  B21  1  0.500000  0.204563  0.735853  1
  B  B22  1  0.500000  0.294371  0.234406  1
  B  B23  1  0.500000  0.705629  0.765594  1
  B  B24  1  0.500000  0.631152  0.182025  1
  B  B25  1  0.500000  0.368848  0.817975  1
  B  B26  1  0.500000  0.129086  0.316475  1
  B  B27  1  0.500000  0.870914  0.683525  1
  B  B28  1  0.500000  0.981102  0.213855  1
  B  B29  1  0.500000  0.018898  0.786145  1
  B  B30  1  0.500000  0.481456  0.285518  1
  B  B31  1  0.500000  0.518544  0.714482  1
  B  B32  1  0.500000  0.601376  0.027449  1
  B  B33  1  0.500000  0.398624  0.972551  1
  B  B34  1  0.500000  0.097557  0.473102  1
  B  B35  1  0.500000  0.902443  0.526898  1
