# generated using pymatgen
data_Tb15YCd4(IrPd)2
_symmetry_space_group_name_H-M   'P 1'
_cell_length_a   9.69912577
_cell_length_b   9.69912586
_cell_length_c   9.66589900
_cell_angle_alpha   60.11325522
_cell_angle_beta   60.11325489
_cell_angle_gamma   60.43611145
_symmetry_Int_Tables_number   1
_chemical_formula_structural   Tb15YCd4(IrPd)2
_chemical_formula_sum   'Tb15 Y1 Cd4 Ir2 Pd2'
_cell_volume   646.17428606
_cell_formula_units_Z   1
loop_
 _symmetry_equiv_pos_site_id
 _symmetry_equiv_pos_as_xyz
  1  'x, y, z'
loop_
 _atom_site_type_symbol
 _atom_site_label
 _atom_site_symmetry_multiplicity
 _atom_site_fract_x
 _atom_site_fract_y
 _atom_site_fract_z
 _atom_site_occupancy
  Tb  Tb0  1  0.351394  0.351394  0.345063  1
  Tb  Tb1  1  0.351394  0.351394  0.952151  1
  Tb  Tb2  1  0.358895  0.941007  0.350048  1
  Tb  Tb3  1  0.941007  0.358895  0.350048  1
  Tb  Tb4  1  0.805737  0.190551  0.189896  1
  Tb  Tb5  1  0.190551  0.805737  0.813816  1
  Tb  Tb6  1  0.190551  0.805737  0.189896  1
  Tb  Tb7  1  0.805737  0.190551  0.813816  1
  Tb  Tb8  1  0.191443  0.191443  0.808557  1
  Tb  Tb9  1  0.811237  0.811237  0.188763  1
  Tb  Tb10  1  0.937486  0.566062  0.561584  1
  Tb  Tb11  1  0.566062  0.937486  0.934870  1
  Tb  Tb12  1  0.566062  0.937486  0.561584  1
  Tb  Tb13  1  0.937486  0.566062  0.934870  1
  Tb  Tb14  1  0.564200  0.564200  0.935800  1
  Y  Y15  1  0.936601  0.936601  0.563399  1
  Cd  Cd16  1  0.580977  0.580977  0.582812  1
  Cd  Cd17  1  0.580977  0.580977  0.255234  1
  Cd  Cd18  1  0.580220  0.255509  0.582136  1
  Cd  Cd19  1  0.255509  0.580220  0.582136  1
  Ir  Ir20  1  0.140534  0.571868  0.143800  1
  Ir  Ir21  1  0.571868  0.140534  0.143800  1
  Pd  Pd22  1  0.142035  0.142035  0.146845  1
  Pd  Pd23  1  0.142035  0.142035  0.569083  1
