# generated using pymatgen
data_Ba2Cd2Hg(PdO2)7
_symmetry_space_group_name_H-M   'P 1'
_cell_length_a   6.25937404
_cell_length_b   6.25937402
_cell_length_c   11.05990788
_cell_angle_alpha   90.27037926
_cell_angle_beta   90.27037921
_cell_angle_gamma   61.03497710
_symmetry_Int_Tables_number   1
_chemical_formula_structural   Ba2Cd2Hg(PdO2)7
_chemical_formula_sum   'Ba2 Cd2 Hg1 Pd7 O14'
_cell_volume   379.11669770
_cell_formula_units_Z   1
loop_
 _symmetry_equiv_pos_site_id
 _symmetry_equiv_pos_as_xyz
  1  'x, y, z'
loop_
 _atom_site_type_symbol
 _atom_site_label
 _atom_site_symmetry_multiplicity
 _atom_site_fract_x
 _atom_site_fract_y
 _atom_site_fract_z
 _atom_site_occupancy
  Ba  Ba0  1  0.505518  0.505518  0.297225  1
  Ba  Ba1  1  0.494483  0.494483  0.702775  1
  Cd  Cd2  1  0.173832  0.173832  0.205867  1
  Cd  Cd3  1  0.826168  0.826168  0.794132  1
  Hg  Hg4  1  0.000000  0.000000  0.500000  1
  Pd  Pd5  1  0.000000  0.000000  0.000000  1
  Pd  Pd6  1  0.500000  0.000000  0.000000  1
  Pd  Pd7  1  0.000000  0.500000  0.000000  1
  Pd  Pd8  1  0.831882  0.831882  0.221284  1
  Pd  Pd9  1  0.500000  0.000000  0.500000  1
  Pd  Pd10  1  0.000000  0.500000  0.500000  1
  Pd  Pd11  1  0.168118  0.168118  0.778716  1
  O  O12  1  0.687484  0.687484  0.100098  1
  O  O13  1  0.690678  0.123583  0.103134  1
  O  O14  1  0.123583  0.690678  0.103134  1
  O  O15  1  0.995027  0.995027  0.312047  1
  O  O16  1  0.984160  0.515259  0.314844  1
  O  O17  1  0.515259  0.984160  0.314844  1
  O  O18  1  0.365068  0.365068  0.494378  1
  O  O19  1  0.634931  0.634931  0.505622  1
  O  O20  1  0.484740  0.015840  0.685156  1
  O  O21  1  0.015840  0.484740  0.685156  1
  O  O22  1  0.004974  0.004974  0.687953  1
  O  O23  1  0.876416  0.309322  0.896866  1
  O  O24  1  0.309322  0.876416  0.896866  1
  O  O25  1  0.312516  0.312516  0.899901  1
