# generated using pymatgen
data_Tm6Lu6Ni4SnRu
_symmetry_space_group_name_H-M   'P 1'
_cell_length_a   8.15079316
_cell_length_b   8.15312842
_cell_length_c   8.15197613
_cell_angle_alpha   106.72414133
_cell_angle_beta   110.22444468
_cell_angle_gamma   111.50400678
_symmetry_Int_Tables_number   1
_chemical_formula_structural   Tm6Lu6Ni4SnRu
_chemical_formula_sum   'Tm6 Lu6 Ni4 Sn1 Ru1'
_cell_volume   416.24929709
_cell_formula_units_Z   1
loop_
 _symmetry_equiv_pos_site_id
 _symmetry_equiv_pos_as_xyz
  1  'x, y, z'
loop_
 _atom_site_type_symbol
 _atom_site_label
 _atom_site_symmetry_multiplicity
 _atom_site_fract_x
 _atom_site_fract_y
 _atom_site_fract_z
 _atom_site_occupancy
  Tm  Tm0  1  0.193780  0.873529  0.679740  1
  Tm  Tm1  1  0.193925  0.514241  0.320369  1
  Tm  Tm2  1  0.603952  0.785551  0.818337  1
  Tm  Tm3  1  0.967303  0.785548  0.181742  1
  Tm  Tm4  1  0.032543  0.214434  0.818036  1
  Tm  Tm5  1  0.396445  0.214448  0.181958  1
  Lu  Lu6  1  0.690722  0.280928  0.971526  1
  Lu  Lu7  1  0.309389  0.719001  0.028364  1
  Lu  Lu8  1  0.690536  0.719208  0.409660  1
  Lu  Lu9  1  0.309549  0.280849  0.590313  1
  Lu  Lu10  1  0.806350  0.126983  0.320664  1
  Lu  Lu11  1  0.806291  0.485621  0.679314  1
  Ni  Ni12  1  0.857809  0.500133  0.358213  1
  Ni  Ni13  1  0.141635  0.499955  0.641600  1
  Ni  Ni14  1  0.999628  0.122181  0.121941  1
  Ni  Ni15  1  0.999923  0.877448  0.878184  1
  Sn  Sn16  1  0.500359  0.000162  0.500039  1
  Ru  Ru17  1  0.499858  0.499782  0.999997  1
