# generated using pymatgen
data_Th6Co3Cu3Bi8
_symmetry_space_group_name_H-M   'P 1'
_cell_length_a   8.56625421
_cell_length_b   8.56625435
_cell_length_c   8.56107984
_cell_angle_alpha   109.00402967
_cell_angle_beta   110.13930628
_cell_angle_gamma   109.29708028
_symmetry_Int_Tables_number   1
_chemical_formula_structural   Th6Co3Cu3Bi8
_chemical_formula_sum   'Th6 Co3 Cu3 Bi8'
_cell_volume   483.40436520
_cell_formula_units_Z   1
loop_
 _symmetry_equiv_pos_site_id
 _symmetry_equiv_pos_as_xyz
  1  'x, y, z'
loop_
 _atom_site_type_symbol
 _atom_site_label
 _atom_site_symmetry_multiplicity
 _atom_site_fract_x
 _atom_site_fract_y
 _atom_site_fract_z
 _atom_site_occupancy
  Th  Th0  1  0.379573  0.261146  0.634491  1
  Th  Th1  1  0.734167  0.863754  0.108566  1
  Th  Th2  1  0.255188  0.625601  0.391434  1
  Th  Th3  1  0.618183  0.368183  0.250000  1
  Th  Th4  1  0.882472  0.132472  0.750000  1
  Th  Th5  1  0.126654  0.745082  0.865509  1
  Co  Co6  1  0.251598  0.127715  0.877378  1
  Co  Co7  1  0.750336  0.374218  0.622622  1
  Co  Co8  1  0.377453  0.627453  0.750000  1
  Cu  Cu9  1  0.124752  0.874752  0.250000  1
  Cu  Cu10  1  0.624432  0.748823  0.374588  1
  Cu  Cu11  1  0.874235  0.249845  0.125412  1
  Bi  Bi12  1  0.999223  0.333004  0.503612  1
  Bi  Bi13  1  0.834231  0.499772  0.994814  1
  Bi  Bi14  1  0.495081  0.999408  0.830584  1
  Bi  Bi15  1  0.668825  0.664499  0.669416  1
  Bi  Bi16  1  0.166115  0.164414  0.161282  1
  Bi  Bi17  1  0.329392  0.495611  0.996388  1
  Bi  Bi18  1  0.503131  0.004833  0.338718  1
  Bi  Bi19  1  0.004959  0.839418  0.505186  1
