# generated using pymatgen
data_Pr4Fe9P12Rh11
_symmetry_space_group_name_H-M   'P 1'
_cell_length_a   3.84559300
_cell_length_b   10.64484618
_cell_length_c   12.40327335
_cell_angle_alpha   89.92153885
_cell_angle_beta   90.00000000
_cell_angle_gamma   90.00000000
_symmetry_Int_Tables_number   1
_chemical_formula_structural   Pr4Fe9P12Rh11
_chemical_formula_sum   'Pr4 Fe9 P12 Rh11'
_cell_volume   507.73677062
_cell_formula_units_Z   1
loop_
 _symmetry_equiv_pos_site_id
 _symmetry_equiv_pos_as_xyz
  1  'x, y, z'
loop_
 _atom_site_type_symbol
 _atom_site_label
 _atom_site_symmetry_multiplicity
 _atom_site_fract_x
 _atom_site_fract_y
 _atom_site_fract_z
 _atom_site_occupancy
  Pr  Pr0  1  0.250000  0.580031  0.707256  1
  Pr  Pr1  1  0.250000  0.917139  0.211207  1
  Pr  Pr2  1  0.750000  0.422179  0.292552  1
  Pr  Pr3  1  0.750000  0.079321  0.791251  1
  Fe  Fe4  1  0.750000  0.726819  0.328292  1
  Fe  Fe5  1  0.250000  0.875284  0.696640  1
  Fe  Fe6  1  0.250000  0.624552  0.197444  1
  Fe  Fe7  1  0.750000  0.120875  0.302628  1
  Fe  Fe8  1  0.750000  0.376321  0.802381  1
  Fe  Fe9  1  0.250000  0.460450  0.936027  1
  Fe  Fe10  1  0.250000  0.039104  0.435296  1
  Fe  Fe11  1  0.750000  0.540722  0.065100  1
  Fe  Fe12  1  0.750000  0.960307  0.563692  1
  P  P13  1  0.250000  0.440578  0.110365  1
  P  P14  1  0.250000  0.059363  0.609457  1
  P  P15  1  0.750000  0.559699  0.890355  1
  P  P16  1  0.750000  0.931963  0.389261  1
  P  P17  1  0.250000  0.276741  0.863629  1
  P  P18  1  0.250000  0.222810  0.364514  1
  P  P19  1  0.750000  0.721738  0.145712  1
  P  P20  1  0.750000  0.777149  0.636079  1
  P  P21  1  0.250000  0.614123  0.378116  1
  P  P22  1  0.250000  0.893738  0.884890  1
  P  P23  1  0.750000  0.396103  0.614316  1
  P  P24  1  0.750000  0.103857  0.117183  1
  Rh  Rh25  1  0.250000  0.710315  0.990052  1
  Rh  Rh26  1  0.250000  0.792117  0.485198  1
  Rh  Rh27  1  0.750000  0.288520  0.010481  1
  Rh  Rh28  1  0.750000  0.212260  0.507977  1
  Rh  Rh29  1  0.250000  0.410123  0.481897  1
  Rh  Rh30  1  0.250000  0.092294  0.983244  1
  Rh  Rh31  1  0.750000  0.598068  0.514184  1
  Rh  Rh32  1  0.750000  0.905026  0.019418  1
  Rh  Rh33  1  0.250000  0.230180  0.174087  1
  Rh  Rh34  1  0.250000  0.270165  0.672469  1
  Rh  Rh35  1  0.750000  0.769964  0.827346  1
