# generated using pymatgen
data_Tb3DyIn2Ir3
_symmetry_space_group_name_H-M   'P 1'
_cell_length_a   7.59883892
_cell_length_b   7.48888108
_cell_length_c   4.10803100
_cell_angle_alpha   90.00000000
_cell_angle_beta   90.00000000
_cell_angle_gamma   119.52247079
_symmetry_Int_Tables_number   1
_chemical_formula_structural   Tb3DyIn2Ir3
_chemical_formula_sum   'Tb3 Dy1 In2 Ir3'
_cell_volume   203.42215529
_cell_formula_units_Z   1
loop_
 _symmetry_equiv_pos_site_id
 _symmetry_equiv_pos_as_xyz
  1  'x, y, z'
loop_
 _atom_site_type_symbol
 _atom_site_label
 _atom_site_symmetry_multiplicity
 _atom_site_fract_x
 _atom_site_fract_y
 _atom_site_fract_z
 _atom_site_occupancy
  Tb  Tb0  1  0.433250  0.411916  0.000000  1
  Tb  Tb1  1  0.566750  0.978666  0.000000  1
  Tb  Tb2  1  0.000000  0.616016  0.000000  1
  Dy  Dy3  1  0.000000  0.247299  0.500000  1
  In  In4  1  0.740574  0.747460  0.500000  1
  In  In5  1  0.259426  0.006886  0.500000  1
  Ir  Ir6  1  0.000000  0.995304  0.000000  1
  Ir  Ir7  1  0.328989  0.662722  0.500000  1
  Ir  Ir8  1  0.671011  0.333732  0.500000  1
