# generated using pymatgen
data_Er4Al2(ReOs)3
_symmetry_space_group_name_H-M   'P 1'
_cell_length_a   5.33848355
_cell_length_b   5.33793021
_cell_length_c   8.89587800
_cell_angle_alpha   90.00000000
_cell_angle_beta   90.00000000
_cell_angle_gamma   119.99659027
_symmetry_Int_Tables_number   1
_chemical_formula_structural   Er4Al2(ReOs)3
_chemical_formula_sum   'Er4 Al2 Re3 Os3'
_cell_volume   219.54581905
_cell_formula_units_Z   1
loop_
 _symmetry_equiv_pos_site_id
 _symmetry_equiv_pos_as_xyz
  1  'x, y, z'
loop_
 _atom_site_type_symbol
 _atom_site_label
 _atom_site_symmetry_multiplicity
 _atom_site_fract_x
 _atom_site_fract_y
 _atom_site_fract_z
 _atom_site_occupancy
  Er  Er0  1  0.330807  0.665404  0.436345  1
  Er  Er1  1  0.660280  0.330140  0.557007  1
  Er  Er2  1  0.660280  0.330140  0.942993  1
  Er  Er3  1  0.330807  0.665404  0.063655  1
  Al  Al4  1  0.180802  0.838015  0.750000  1
  Al  Al5  1  0.180802  0.342787  0.750000  1
  Re  Re6  1  0.832420  0.169840  0.250000  1
  Re  Re7  1  0.832420  0.662580  0.250000  1
  Re  Re8  1  0.344757  0.172379  0.250000  1
  Os  Os9  1  0.986459  0.993230  0.505466  1
  Os  Os10  1  0.986459  0.993230  0.994534  1
  Os  Os11  1  0.673704  0.836852  0.750000  1
