# generated using pymatgen
data_Pr5Nd3(Si3Au)4
_symmetry_space_group_name_H-M   'P 1'
_cell_length_a   8.30550700
_cell_length_b   8.30551721
_cell_length_c   8.73956500
_cell_angle_alpha   90.00000000
_cell_angle_beta   90.00000000
_cell_angle_gamma   120.00012277
_symmetry_Int_Tables_number   1
_chemical_formula_structural   Pr5Nd3(Si3Au)4
_chemical_formula_sum   'Pr5 Nd3 Si12 Au4'
_cell_volume   522.09885700
_cell_formula_units_Z   1
loop_
 _symmetry_equiv_pos_site_id
 _symmetry_equiv_pos_as_xyz
  1  'x, y, z'
loop_
 _atom_site_type_symbol
 _atom_site_label
 _atom_site_symmetry_multiplicity
 _atom_site_fract_x
 _atom_site_fract_y
 _atom_site_fract_z
 _atom_site_occupancy
  Pr  Pr0  1  0.000000  0.000001  0.750000  1
  Pr  Pr1  1  0.000002  0.000000  0.250000  1
  Pr  Pr2  1  0.499864  0.500139  0.750000  1
  Pr  Pr3  1  0.499862  0.999726  0.750000  1
  Pr  Pr4  1  0.000273  0.500140  0.750000  1
  Nd  Nd5  1  0.500140  0.499856  0.250000  1
  Nd  Nd6  1  0.999723  0.499862  0.250000  1
  Nd  Nd7  1  0.500142  0.000279  0.250000  1
  Si  Si8  1  0.835972  0.164028  0.001276  1
  Si  Si9  1  0.835972  0.671945  0.001276  1
  Si  Si10  1  0.328057  0.164029  0.001275  1
  Si  Si11  1  0.835972  0.164028  0.498724  1
  Si  Si12  1  0.835972  0.671945  0.498724  1
  Si  Si13  1  0.328057  0.164029  0.498725  1
  Si  Si14  1  0.164022  0.835978  0.498920  1
  Si  Si15  1  0.671952  0.835976  0.498918  1
  Si  Si16  1  0.164022  0.328044  0.498920  1
  Si  Si17  1  0.164022  0.835978  0.001080  1
  Si  Si18  1  0.671952  0.835976  0.001082  1
  Si  Si19  1  0.164022  0.328044  0.001080  1
  Au  Au20  1  0.666668  0.333334  0.002198  1
  Au  Au21  1  0.666668  0.333334  0.497802  1
  Au  Au22  1  0.333331  0.666665  0.496793  1
  Au  Au23  1  0.333331  0.666665  0.003207  1
