# generated using pymatgen
data_Sm3Gd3(OsO7)2
_symmetry_space_group_name_H-M   'P 1'
_cell_length_a   6.53147731
_cell_length_b   6.53131036
_cell_length_c   7.54373400
_cell_angle_alpha   90.00000000
_cell_angle_beta   90.00000000
_cell_angle_gamma   110.45794588
_symmetry_Int_Tables_number   1
_chemical_formula_structural   Sm3Gd3(OsO7)2
_chemical_formula_sum   'Sm3 Gd3 Os2 O14'
_cell_volume   301.51212662
_cell_formula_units_Z   1
loop_
 _symmetry_equiv_pos_site_id
 _symmetry_equiv_pos_as_xyz
  1  'x, y, z'
loop_
 _atom_site_type_symbol
 _atom_site_label
 _atom_site_symmetry_multiplicity
 _atom_site_fract_x
 _atom_site_fract_y
 _atom_site_fract_z
 _atom_site_occupancy
  Sm  Sm0  1  0.072407  0.520995  0.250000  1
  Sm  Sm1  1  0.999628  0.000218  0.999935  1
  Sm  Sm2  1  0.999628  0.000218  0.500065  1
  Gd  Gd3  1  0.932993  0.480513  0.750000  1
  Gd  Gd4  1  0.519586  0.068343  0.250000  1
  Gd  Gd5  1  0.480444  0.932649  0.750000  1
  Os  Os6  1  0.500417  0.499568  0.500564  1
  Os  Os7  1  0.500417  0.499568  0.999436  1
  O  O8  1  0.559935  0.815833  0.036716  1
  O  O9  1  0.438082  0.183041  0.963249  1
  O  O10  1  0.585881  0.586820  0.750000  1
  O  O11  1  0.559935  0.815833  0.463284  1
  O  O12  1  0.182540  0.433894  0.962335  1
  O  O13  1  0.414609  0.414146  0.250000  1
  O  O14  1  0.842210  0.111548  0.750000  1
  O  O15  1  0.817729  0.564934  0.035376  1
  O  O16  1  0.885927  0.154529  0.250000  1
  O  O17  1  0.112014  0.842845  0.750000  1
  O  O18  1  0.438082  0.183041  0.536751  1
  O  O19  1  0.182540  0.433894  0.537665  1
  O  O20  1  0.817729  0.564934  0.464624  1
  O  O21  1  0.157268  0.892634  0.250000  1
