# generated using pymatgen
data_Hf18ZnFeRe5Mo3
_symmetry_space_group_name_H-M   'P 1'
_cell_length_a   8.50039700
_cell_length_b   8.65958568
_cell_length_c   8.65573400
_cell_angle_alpha   120.01538122
_cell_angle_beta   90.00000000
_cell_angle_gamma   90.00000000
_symmetry_Int_Tables_number   1
_chemical_formula_structural   Hf18ZnFeRe5Mo3
_chemical_formula_sum   'Hf18 Zn1 Fe1 Re5 Mo3'
_cell_volume   551.70068545
_cell_formula_units_Z   1
loop_
 _symmetry_equiv_pos_site_id
 _symmetry_equiv_pos_as_xyz
  1  'x, y, z'
loop_
 _atom_site_type_symbol
 _atom_site_label
 _atom_site_symmetry_multiplicity
 _atom_site_fract_x
 _atom_site_fract_y
 _atom_site_fract_z
 _atom_site_occupancy
  Hf  Hf0  1  0.551287  0.806260  0.612522  1
  Hf  Hf1  1  0.549695  0.805115  0.193997  1
  Hf  Hf2  1  0.549683  0.388867  0.193988  1
  Hf  Hf3  1  0.440219  0.201844  0.403683  1
  Hf  Hf4  1  0.440988  0.201596  0.798003  1
  Hf  Hf5  1  0.440996  0.596430  0.798021  1
  Hf  Hf6  1  0.059781  0.201844  0.403683  1
  Hf  Hf7  1  0.059012  0.201596  0.798003  1
  Hf  Hf8  1  0.059004  0.596430  0.798021  1
  Hf  Hf9  1  0.948713  0.806260  0.612522  1
  Hf  Hf10  1  0.950305  0.805115  0.193997  1
  Hf  Hf11  1  0.950317  0.388867  0.193988  1
  Hf  Hf12  1  0.750000  0.459103  0.918223  1
  Hf  Hf13  1  0.750000  0.460527  0.542219  1
  Hf  Hf14  1  0.750000  0.081687  0.542222  1
  Hf  Hf15  1  0.250000  0.540204  0.080409  1
  Hf  Hf16  1  0.250000  0.541104  0.460215  1
  Hf  Hf17  1  0.250000  0.919130  0.460205  1
  Zn  Zn18  1  0.750000  0.666585  0.333200  1
  Fe  Fe19  1  0.250000  0.333806  0.667587  1
  Re  Re20  1  0.750000  0.111168  0.886908  1
  Re  Re21  1  0.750000  0.775741  0.886911  1
  Re  Re22  1  0.250000  0.889425  0.778845  1
  Re  Re23  1  0.250000  0.888767  0.111027  1
  Re  Re24  1  0.250000  0.222254  0.111029  1
  Mo  Mo25  1  0.750000  0.110670  0.221362  1
  Mo  Mo26  1  0.500739  0.999802  0.999606  1
  Mo  Mo27  1  0.999261  0.999802  0.999606  1
