# generated using pymatgen
data_YbPa(Al5Os)4
_symmetry_space_group_name_H-M   'P 1'
_cell_length_a   6.86750185
_cell_length_b   6.86750174
_cell_length_c   9.15017600
_cell_angle_alpha   90.00000000
_cell_angle_beta   90.00000000
_cell_angle_gamma   96.94071502
_symmetry_Int_Tables_number   1
_chemical_formula_structural   YbPa(Al5Os)4
_chemical_formula_sum   'Yb1 Pa1 Al20 Os4'
_cell_volume   428.38342692
_cell_formula_units_Z   1
loop_
 _symmetry_equiv_pos_site_id
 _symmetry_equiv_pos_as_xyz
  1  'x, y, z'
loop_
 _atom_site_type_symbol
 _atom_site_label
 _atom_site_symmetry_multiplicity
 _atom_site_fract_x
 _atom_site_fract_y
 _atom_site_fract_z
 _atom_site_occupancy
  Yb  Yb0  1  0.371450  0.628550  0.250000  1
  Pa  Pa1  1  0.628213  0.371787  0.750000  1
  Al  Al2  1  0.280753  0.017847  0.750000  1
  Al  Al3  1  0.020222  0.282369  0.250000  1
  Al  Al4  1  0.717631  0.979778  0.250000  1
  Al  Al5  1  0.982153  0.719247  0.750000  1
  Al  Al6  1  0.878170  0.121830  0.950036  1
  Al  Al7  1  0.124789  0.875211  0.046651  1
  Al  Al8  1  0.878170  0.121830  0.549964  1
  Al  Al9  1  0.124789  0.875211  0.453349  1
  Al  Al10  1  0.644470  0.911528  0.750000  1
  Al  Al11  1  0.918136  0.647083  0.250000  1
  Al  Al12  1  0.352917  0.081864  0.250000  1
  Al  Al13  1  0.088472  0.355530  0.750000  1
  Al  Al14  1  0.345118  0.654882  0.899145  1
  Al  Al15  1  0.659066  0.340934  0.103261  1
  Al  Al16  1  0.345118  0.654882  0.600855  1
  Al  Al17  1  0.659066  0.340934  0.396739  1
  Al  Al18  1  0.721607  0.725891  0.001249  1
  Al  Al19  1  0.721607  0.725891  0.498751  1
  Al  Al20  1  0.274109  0.278393  0.001249  1
  Al  Al21  1  0.274109  0.278393  0.498751  1
  Os  Os22  1  0.500929  0.005997  0.996640  1
  Os  Os23  1  0.994003  0.499071  0.996640  1
  Os  Os24  1  0.500929  0.005997  0.503360  1
  Os  Os25  1  0.994003  0.499071  0.503360  1
