# generated using pymatgen
data_Er3Mg3SiAgGe
_symmetry_space_group_name_H-M   'P 1'
_cell_length_a   7.23460300
_cell_length_b   7.23460276
_cell_length_c   4.31041600
_cell_angle_alpha   90.00000000
_cell_angle_beta   90.00000000
_cell_angle_gamma   119.99999651
_symmetry_Int_Tables_number   1
_chemical_formula_structural   Er3Mg3SiAgGe
_chemical_formula_sum   'Er3 Mg3 Si1 Ag1 Ge1'
_cell_volume   195.37960496
_cell_formula_units_Z   1
loop_
 _symmetry_equiv_pos_site_id
 _symmetry_equiv_pos_as_xyz
  1  'x, y, z'
loop_
 _atom_site_type_symbol
 _atom_site_label
 _atom_site_symmetry_multiplicity
 _atom_site_fract_x
 _atom_site_fract_y
 _atom_site_fract_z
 _atom_site_occupancy
  Er  Er0  1  0.579076  0.002522  0.000000  1
  Er  Er1  1  0.997478  0.576554  0.000000  1
  Er  Er2  1  0.423446  0.420924  0.000000  1
  Mg  Mg3  1  0.248039  0.001158  0.500000  1
  Mg  Mg4  1  0.998842  0.246880  0.500000  1
  Mg  Mg5  1  0.753120  0.751961  0.500000  1
  Si  Si6  1  0.666667  0.333333  0.500000  1
  Ag  Ag7  1  0.000000  0.000000  0.000000  1
  Ge  Ge8  1  0.333333  0.666667  0.500000  1
