# generated using pymatgen
data_Tb3Ho4Tm(CdIr)2
_symmetry_space_group_name_H-M   'P 1'
_cell_length_a   9.61322875
_cell_length_b   9.61322947
_cell_length_c   9.61017600
_cell_angle_alpha   60.01050663
_cell_angle_beta   60.01050414
_cell_angle_gamma   59.97899128
_symmetry_Int_Tables_number   1
_chemical_formula_structural   Tb3Ho4Tm(CdIr)2
_chemical_formula_sum   'Tb6 Ho8 Tm2 Cd4 Ir4'
_cell_volume   627.99306583
_cell_formula_units_Z   2
loop_
 _symmetry_equiv_pos_site_id
 _symmetry_equiv_pos_as_xyz
  1  'x, y, z'
loop_
 _atom_site_type_symbol
 _atom_site_label
 _atom_site_symmetry_multiplicity
 _atom_site_fract_x
 _atom_site_fract_y
 _atom_site_fract_z
 _atom_site_occupancy
  Tb  Tb0  1  0.188902  0.811098  0.811098  1
  Tb  Tb1  1  0.811098  0.188902  0.188902  1
  Tb  Tb2  1  0.811098  0.188902  0.811098  1
  Tb  Tb3  1  0.188902  0.811098  0.188902  1
  Tb  Tb4  1  0.811128  0.811128  0.188872  1
  Tb  Tb5  1  0.188872  0.188872  0.811128  1
  Ho  Ho6  1  0.598699  0.598699  0.599081  1
  Ho  Ho7  1  0.598699  0.598699  0.203521  1
  Ho  Ho8  1  0.599081  0.203521  0.598699  1
  Ho  Ho9  1  0.203521  0.599081  0.598699  1
  Ho  Ho10  1  0.061565  0.438435  0.438435  1
  Ho  Ho11  1  0.438435  0.061565  0.061565  1
  Ho  Ho12  1  0.438435  0.061565  0.438435  1
  Ho  Ho13  1  0.061565  0.438435  0.061565  1
  Tm  Tm14  1  0.438569  0.438569  0.061431  1
  Tm  Tm15  1  0.061431  0.061431  0.438569  1
  Cd  Cd16  1  0.830724  0.830724  0.830596  1
  Cd  Cd17  1  0.830724  0.830724  0.507956  1
  Cd  Cd18  1  0.830596  0.507956  0.830724  1
  Cd  Cd19  1  0.507956  0.830596  0.830724  1
  Ir  Ir20  1  0.391784  0.391784  0.391256  1
  Ir  Ir21  1  0.391784  0.391784  0.825175  1
  Ir  Ir22  1  0.391256  0.825175  0.391784  1
  Ir  Ir23  1  0.825175  0.391256  0.391784  1
