# generated using pymatgen
data_Nd2DyY(Ir2O7)2
_symmetry_space_group_name_H-M   'P 1'
_cell_length_a   7.32488714
_cell_length_b   7.32488818
_cell_length_c   7.28532711
_cell_angle_alpha   60.16236316
_cell_angle_beta   60.16235677
_cell_angle_gamma   60.33555871
_symmetry_Int_Tables_number   1
_chemical_formula_structural   Nd2DyY(Ir2O7)2
_chemical_formula_sum   'Nd2 Dy1 Y1 Ir4 O14'
_cell_volume   277.77433504
_cell_formula_units_Z   1
loop_
 _symmetry_equiv_pos_site_id
 _symmetry_equiv_pos_as_xyz
  1  'x, y, z'
loop_
 _atom_site_type_symbol
 _atom_site_label
 _atom_site_symmetry_multiplicity
 _atom_site_fract_x
 _atom_site_fract_y
 _atom_site_fract_z
 _atom_site_occupancy
  Nd  Nd0  1  0.625000  0.125000  0.125000  1
  Nd  Nd1  1  0.125000  0.625000  0.125000  1
  Dy  Dy2  1  0.125000  0.125000  0.125000  1
  Y  Y3  1  0.125000  0.125000  0.625000  1
  Ir  Ir4  1  0.125000  0.625000  0.625000  1
  Ir  Ir5  1  0.625000  0.125000  0.625000  1
  Ir  Ir6  1  0.625000  0.625000  0.125000  1
  Ir  Ir7  1  0.625000  0.625000  0.625000  1
  O  O8  1  0.709435  0.709435  0.290565  1
  O  O9  1  0.290190  0.290190  0.710074  1
  O  O10  1  0.716947  0.289832  0.702509  1
  O  O11  1  0.289644  0.717378  0.290507  1
  O  O12  1  0.289832  0.716947  0.702509  1
  O  O13  1  0.717378  0.289644  0.290507  1
  O  O14  1  0.540565  0.540565  0.959435  1
  O  O15  1  0.959810  0.959810  0.539926  1
  O  O16  1  0.533053  0.960168  0.547491  1
  O  O17  1  0.960356  0.532622  0.959493  1
  O  O18  1  0.960168  0.533053  0.547491  1
  O  O19  1  0.532622  0.960356  0.959493  1
  O  O20  1  0.243266  0.243266  0.256528  1
  O  O21  1  0.006734  0.006734  0.993472  1
