# generated using pymatgen
data_TbErSe3
_symmetry_space_group_name_H-M   'P 1'
_cell_length_a   13.51153334
_cell_length_b   12.89203540
_cell_length_c   7.11839046
_cell_angle_alpha   79.22467908
_cell_angle_beta   69.60735243
_cell_angle_gamma   31.16797283
_symmetry_Int_Tables_number   1
_chemical_formula_structural   TbErSe3
_chemical_formula_sum   'Tb4 Er4 Se12'
_cell_volume   585.50499384
_cell_formula_units_Z   4
loop_
 _symmetry_equiv_pos_site_id
 _symmetry_equiv_pos_as_xyz
  1  'x, y, z'
loop_
 _atom_site_type_symbol
 _atom_site_label
 _atom_site_symmetry_multiplicity
 _atom_site_fract_x
 _atom_site_fract_y
 _atom_site_fract_z
 _atom_site_occupancy
  Tb  Tb0  1  0.753169  0.753169  0.246831  1
  Tb  Tb1  1  0.246831  0.246831  0.753169  1
  Tb  Tb2  1  0.496831  0.496831  0.003169  1
  Tb  Tb3  1  0.003169  0.003169  0.496831  1
  Er  Er4  1  0.416273  0.416273  0.583727  1
  Er  Er5  1  0.583727  0.583727  0.416273  1
  Er  Er6  1  0.833727  0.833727  0.666273  1
  Er  Er7  1  0.666273  0.666273  0.833727  1
  Se  Se8  1  0.672212  0.163989  0.818069  1
  Se  Se9  1  0.345730  0.818069  0.163989  1
  Se  Se10  1  0.818069  0.345730  0.672212  1
  Se  Se11  1  0.163989  0.672212  0.345730  1
  Se  Se12  1  0.577788  0.086011  0.431931  1
  Se  Se13  1  0.904270  0.431931  0.086011  1
  Se  Se14  1  0.431931  0.904270  0.577788  1
  Se  Se15  1  0.086011  0.577788  0.904270  1
  Se  Se16  1  0.989402  0.510598  0.510598  1
  Se  Se17  1  0.510598  0.989402  0.989402  1
  Se  Se18  1  0.260598  0.739402  0.739402  1
  Se  Se19  1  0.739402  0.260598  0.260598  1
