# generated using pymatgen
data_HoTm11Tc3Pt
_symmetry_space_group_name_H-M   'P 1'
_cell_length_a   6.21730256
_cell_length_b   7.33252695
_cell_length_c   9.01460200
_cell_angle_alpha   90.00000000
_cell_angle_beta   90.00000000
_cell_angle_gamma   89.93023479
_symmetry_Int_Tables_number   1
_chemical_formula_structural   HoTm11Tc3Pt
_chemical_formula_sum   'Ho1 Tm11 Tc3 Pt1'
_cell_volume   410.96222645
_cell_formula_units_Z   1
loop_
 _symmetry_equiv_pos_site_id
 _symmetry_equiv_pos_as_xyz
  1  'x, y, z'
loop_
 _atom_site_type_symbol
 _atom_site_label
 _atom_site_symmetry_multiplicity
 _atom_site_fract_x
 _atom_site_fract_y
 _atom_site_fract_z
 _atom_site_occupancy
  Ho  Ho0  1  0.126949  0.456145  0.750000  1
  Tm  Tm1  1  0.331236  0.676203  0.066561  1
  Tm  Tm2  1  0.163135  0.176990  0.436439  1
  Tm  Tm3  1  0.664817  0.318098  0.557983  1
  Tm  Tm4  1  0.838819  0.828107  0.941030  1
  Tm  Tm5  1  0.664817  0.318098  0.942017  1
  Tm  Tm6  1  0.838819  0.828107  0.558970  1
  Tm  Tm7  1  0.331236  0.676203  0.433439  1
  Tm  Tm8  1  0.163135  0.176990  0.063561  1
  Tm  Tm9  1  0.874381  0.541991  0.250000  1
  Tm  Tm10  1  0.621530  0.037143  0.250000  1
  Tm  Tm11  1  0.373418  0.965140  0.750000  1
  Tc  Tc12  1  0.037793  0.884673  0.250000  1
  Tc  Tc13  1  0.464385  0.385910  0.250000  1
  Tc  Tc14  1  0.958552  0.115115  0.750000  1
  Pt  Pt15  1  0.546976  0.615087  0.750000  1
