# generated using pymatgen
data_SmLu3(Rh2O7)2
_symmetry_space_group_name_H-M   'P 1'
_cell_length_a   7.16200861
_cell_length_b   7.20000087
_cell_length_c   7.16200800
_cell_angle_alpha   60.17439254
_cell_angle_beta   59.99999359
_cell_angle_gamma   60.17439995
_symmetry_Int_Tables_number   1
_chemical_formula_structural   SmLu3(Rh2O7)2
_chemical_formula_sum   'Sm1 Lu3 Rh4 O14'
_cell_volume   261.83455108
_cell_formula_units_Z   1
loop_
 _symmetry_equiv_pos_site_id
 _symmetry_equiv_pos_as_xyz
  1  'x, y, z'
loop_
 _atom_site_type_symbol
 _atom_site_label
 _atom_site_symmetry_multiplicity
 _atom_site_fract_x
 _atom_site_fract_y
 _atom_site_fract_z
 _atom_site_occupancy
  Sm  Sm0  1  0.125000  0.625000  0.125000  1
  Lu  Lu1  1  0.125000  0.125000  0.125000  1
  Lu  Lu2  1  0.625000  0.125000  0.125000  1
  Lu  Lu3  1  0.125000  0.125000  0.625000  1
  Rh  Rh4  1  0.625000  0.625000  0.625000  1
  Rh  Rh5  1  0.625000  0.625000  0.125000  1
  Rh  Rh6  1  0.125000  0.625000  0.625000  1
  Rh  Rh7  1  0.625000  0.125000  0.625000  1
  O  O8  1  0.254314  0.237058  0.254314  1
  O  O9  1  0.286481  0.721581  0.286481  1
  O  O10  1  0.963100  0.963968  0.536467  1
  O  O11  1  0.536467  0.963968  0.536467  1
  O  O12  1  0.705456  0.721581  0.286481  1
  O  O13  1  0.963519  0.528419  0.544544  1
  O  O14  1  0.713533  0.286032  0.713533  1
  O  O15  1  0.286900  0.286032  0.713533  1
  O  O16  1  0.713533  0.286032  0.286900  1
  O  O17  1  0.286481  0.721581  0.705456  1
  O  O18  1  0.963519  0.528419  0.963519  1
  O  O19  1  0.544544  0.528419  0.963519  1
  O  O20  1  0.995686  0.012942  0.995686  1
  O  O21  1  0.536467  0.963968  0.963100  1
