# generated using pymatgen
data_CeSi(AsRu2)3
_symmetry_space_group_name_H-M   'P 1'
_cell_length_a   7.14653300
_cell_length_b   7.14653314
_cell_length_c   3.85838700
_cell_angle_alpha   90.00000000
_cell_angle_beta   90.00000000
_cell_angle_gamma   120.00000398
_symmetry_Int_Tables_number   1
_chemical_formula_structural   CeSi(AsRu2)3
_chemical_formula_sum   'Ce1 Si1 As3 Ru6'
_cell_volume   170.65822150
_cell_formula_units_Z   1
loop_
 _symmetry_equiv_pos_site_id
 _symmetry_equiv_pos_as_xyz
  1  'x, y, z'
loop_
 _atom_site_type_symbol
 _atom_site_label
 _atom_site_symmetry_multiplicity
 _atom_site_fract_x
 _atom_site_fract_y
 _atom_site_fract_z
 _atom_site_occupancy
  Ce  Ce0  1  0.000000  0.000000  0.000000  1
  Si  Si1  1  0.666667  0.333333  0.000000  1
  As  As2  1  0.192612  0.807388  0.500000  1
  As  As3  1  0.192612  0.385224  0.500000  1
  As  As4  1  0.614776  0.807388  0.500000  1
  Ru  Ru5  1  0.466464  0.533536  0.000000  1
  Ru  Ru6  1  0.466464  0.932927  0.000000  1
  Ru  Ru7  1  0.067073  0.533536  0.000000  1
  Ru  Ru8  1  0.797299  0.202701  0.500000  1
  Ru  Ru9  1  0.797299  0.594599  0.500000  1
  Ru  Ru10  1  0.405401  0.202701  0.500000  1
