# generated using pymatgen
data_Tb2Nd17TmSn16
_symmetry_space_group_name_H-M   'P 1'
_cell_length_a   8.25476500
_cell_length_b   8.40903227
_cell_length_c   15.95243900
_cell_angle_alpha   90.00000000
_cell_angle_beta   90.00000000
_cell_angle_gamma   89.96845985
_symmetry_Int_Tables_number   1
_chemical_formula_structural   Tb2Nd17TmSn16
_chemical_formula_sum   'Tb2 Nd17 Tm1 Sn16'
_cell_volume   1107.33176993
_cell_formula_units_Z   1
loop_
 _symmetry_equiv_pos_site_id
 _symmetry_equiv_pos_as_xyz
  1  'x, y, z'
loop_
 _atom_site_type_symbol
 _atom_site_label
 _atom_site_symmetry_multiplicity
 _atom_site_fract_x
 _atom_site_fract_y
 _atom_site_fract_z
 _atom_site_occupancy
  Tb  Tb0  1  0.198360  0.502299  0.250000  1
  Tb  Tb1  1  0.698648  0.997868  0.250000  1
  Nd  Nd2  1  0.017945  0.181092  0.401400  1
  Nd  Nd3  1  0.367215  0.837818  0.120770  1
  Nd  Nd4  1  0.133396  0.336954  0.620705  1
  Nd  Nd5  1  0.481483  0.681843  0.901958  1
  Nd  Nd6  1  0.867009  0.662257  0.121980  1
  Nd  Nd7  1  0.133396  0.336954  0.879295  1
  Nd  Nd8  1  0.481483  0.681843  0.598042  1
  Nd  Nd9  1  0.631832  0.162233  0.620233  1
  Nd  Nd10  1  0.803189  0.498061  0.750000  1
  Nd  Nd11  1  0.867009  0.662257  0.378020  1
  Nd  Nd12  1  0.017945  0.181092  0.098600  1
  Nd  Nd13  1  0.982386  0.819632  0.901817  1
  Nd  Nd14  1  0.631832  0.162233  0.879767  1
  Nd  Nd15  1  0.518207  0.318970  0.099188  1
  Nd  Nd16  1  0.367215  0.837818  0.379230  1
  Nd  Nd17  1  0.982386  0.819632  0.598183  1
  Nd  Nd18  1  0.518207  0.318970  0.400812  1
  Tm  Tm19  1  0.301264  0.002915  0.750000  1
  Sn  Sn20  1  0.792358  0.463595  0.541527  1
  Sn  Sn21  1  0.708058  0.964794  0.455898  1
  Sn  Sn22  1  0.674216  0.857930  0.750000  1
  Sn  Sn23  1  0.207410  0.534607  0.455968  1
  Sn  Sn24  1  0.292288  0.034572  0.955640  1
  Sn  Sn25  1  0.824612  0.352606  0.250000  1
  Sn  Sn26  1  0.792358  0.463595  0.958473  1
  Sn  Sn27  1  0.563635  0.616947  0.250000  1
  Sn  Sn28  1  0.207410  0.534607  0.044032  1
  Sn  Sn29  1  0.432454  0.382207  0.750000  1
  Sn  Sn30  1  0.178239  0.648694  0.750000  1
  Sn  Sn31  1  0.937532  0.114223  0.750000  1
  Sn  Sn32  1  0.292288  0.034572  0.544360  1
  Sn  Sn33  1  0.708058  0.964794  0.044102  1
  Sn  Sn34  1  0.323909  0.146158  0.250000  1
  Sn  Sn35  1  0.064774  0.883358  0.250000  1
