# generated using pymatgen
data_Cs3LuRhBr9
_symmetry_space_group_name_H-M   'P 1'
_cell_length_a   7.89531100
_cell_length_b   7.89531134
_cell_length_c   19.90187500
_cell_angle_alpha   90.00000000
_cell_angle_beta   90.00000000
_cell_angle_gamma   120.00000277
_symmetry_Int_Tables_number   1
_chemical_formula_structural   Cs3LuRhBr9
_chemical_formula_sum   'Cs6 Lu2 Rh2 Br18'
_cell_volume   1074.39286597
_cell_formula_units_Z   2
loop_
 _symmetry_equiv_pos_site_id
 _symmetry_equiv_pos_as_xyz
  1  'x, y, z'
loop_
 _atom_site_type_symbol
 _atom_site_label
 _atom_site_symmetry_multiplicity
 _atom_site_fract_x
 _atom_site_fract_y
 _atom_site_fract_z
 _atom_site_occupancy
  Cs  Cs0  1  0.333333  0.666667  0.065794  1
  Cs  Cs1  1  0.666667  0.333333  0.934206  1
  Cs  Cs2  1  0.666667  0.333333  0.568195  1
  Cs  Cs3  1  0.333333  0.666667  0.431805  1
  Cs  Cs4  1  0.000000  0.000000  0.255615  1
  Cs  Cs5  1  0.000000  0.000000  0.744385  1
  Lu  Lu6  1  0.666667  0.333333  0.162414  1
  Lu  Lu7  1  0.333333  0.666667  0.837586  1
  Rh  Rh8  1  0.333333  0.666667  0.665938  1
  Rh  Rh9  1  0.666667  0.333333  0.334062  1
  Br  Br10  1  0.183682  0.367366  0.594540  1
  Br  Br11  1  0.816318  0.632634  0.405460  1
  Br  Br12  1  0.632634  0.816318  0.594540  1
  Br  Br13  1  0.832152  0.664302  0.091692  1
  Br  Br14  1  0.367366  0.183682  0.405460  1
  Br  Br15  1  0.167848  0.335698  0.908308  1
  Br  Br16  1  0.183682  0.816318  0.594540  1
  Br  Br17  1  0.335698  0.167848  0.091692  1
  Br  Br18  1  0.816318  0.183682  0.405460  1
  Br  Br19  1  0.664302  0.832152  0.908308  1
  Br  Br20  1  0.832152  0.167848  0.091692  1
  Br  Br21  1  0.167848  0.832152  0.908308  1
  Br  Br22  1  0.513524  0.027050  0.258727  1
  Br  Br23  1  0.486476  0.972950  0.741273  1
  Br  Br24  1  0.972950  0.486476  0.258727  1
  Br  Br25  1  0.027050  0.513524  0.741273  1
  Br  Br26  1  0.513524  0.486476  0.258727  1
  Br  Br27  1  0.486476  0.513524  0.741273  1
