# generated using pymatgen
data_Tb7Er(IrO6)4
_symmetry_space_group_name_H-M   'P 1'
_cell_length_a   5.30246682
_cell_length_b   9.19511133
_cell_length_c   9.90810221
_cell_angle_alpha   90.00625530
_cell_angle_beta   89.94378593
_cell_angle_gamma   89.96982531
_symmetry_Int_Tables_number   1
_chemical_formula_structural   Tb7Er(IrO6)4
_chemical_formula_sum   'Tb7 Er1 Ir4 O24'
_cell_volume   483.08678543
_cell_formula_units_Z   1
loop_
 _symmetry_equiv_pos_site_id
 _symmetry_equiv_pos_as_xyz
  1  'x, y, z'
loop_
 _atom_site_type_symbol
 _atom_site_label
 _atom_site_symmetry_multiplicity
 _atom_site_fract_x
 _atom_site_fract_y
 _atom_site_fract_z
 _atom_site_occupancy
  Tb  Tb0  1  0.018410  0.398993  0.033816  1
  Tb  Tb1  1  0.041327  0.281350  0.629296  1
  Tb  Tb2  1  0.457960  0.718635  0.129982  1
  Tb  Tb3  1  0.480793  0.602428  0.533212  1
  Tb  Tb4  1  0.518430  0.101061  0.966387  1
  Tb  Tb5  1  0.541592  0.217905  0.370537  1
  Tb  Tb6  1  0.958416  0.781651  0.870002  1
  Er  Er7  1  0.982240  0.899736  0.466313  1
  Ir  Ir8  1  0.041855  0.003303  0.149251  1
  Ir  Ir9  1  0.458266  0.995711  0.647353  1
  Ir  Ir10  1  0.542102  0.496372  0.851633  1
  Ir  Ir11  1  0.957382  0.504323  0.352034  1
  O  O12  1  0.080363  0.658101  0.472007  1
  O  O13  1  0.163403  0.555531  0.201317  1
  O  O14  1  0.185372  0.857093  0.266516  1
  O  O15  1  0.171042  0.866157  0.679632  1
  O  O16  1  0.234982  0.386171  0.430154  1
  O  O17  1  0.251274  0.087361  0.501793  1
  O  O18  1  0.247352  0.910346  0.003569  1
  O  O19  1  0.264838  0.614617  0.929605  1
  O  O20  1  0.327924  0.133123  0.182895  1
  O  O21  1  0.313343  0.142575  0.763811  1
  O  O22  1  0.336422  0.444802  0.701144  1
  O  O23  1  0.418733  0.344627  0.972955  1
  O  O24  1  0.588634  0.844713  0.526853  1
  O  O25  1  0.662847  0.944445  0.798524  1
  O  O26  1  0.686418  0.643150  0.735394  1
  O  O27  1  0.671217  0.633055  0.317158  1
  O  O28  1  0.735197  0.114221  0.569944  1
  O  O29  1  0.752145  0.411155  0.497382  1
  O  O30  1  0.747322  0.589633  0.996949  1
  O  O31  1  0.764949  0.885620  0.070527  1
  O  O32  1  0.827909  0.366447  0.817324  1
  O  O33  1  0.813980  0.356825  0.236017  1
  O  O34  1  0.837063  0.053681  0.300833  1
  O  O35  1  0.918498  0.155084  0.027883  1
