# generated using pymatgen
data_Yb2TmSc(Pt2O7)2
_symmetry_space_group_name_H-M   'P 1'
_cell_length_a   7.17780242
_cell_length_b   7.12126148
_cell_length_c   7.17780220
_cell_angle_alpha   60.48392822
_cell_angle_beta   60.43488265
_cell_angle_gamma   60.48392924
_symmetry_Int_Tables_number   1
_chemical_formula_structural   Yb2TmSc(Pt2O7)2
_chemical_formula_sum   'Yb2 Tm1 Sc1 Pt4 O14'
_cell_volume   262.17476962
_cell_formula_units_Z   1
loop_
 _symmetry_equiv_pos_site_id
 _symmetry_equiv_pos_as_xyz
  1  'x, y, z'
loop_
 _atom_site_type_symbol
 _atom_site_label
 _atom_site_symmetry_multiplicity
 _atom_site_fract_x
 _atom_site_fract_y
 _atom_site_fract_z
 _atom_site_occupancy
  Yb  Yb0  1  0.625000  0.625000  0.125000  1
  Yb  Yb1  1  0.125000  0.625000  0.625000  1
  Tm  Tm2  1  0.625000  0.125000  0.625000  1
  Sc  Sc3  1  0.625000  0.625000  0.625000  1
  Pt  Pt4  1  0.125000  0.125000  0.125000  1
  Pt  Pt5  1  0.625000  0.125000  0.125000  1
  Pt  Pt6  1  0.125000  0.625000  0.125000  1
  Pt  Pt7  1  0.125000  0.125000  0.625000  1
  O  O8  1  0.025695  0.461677  0.462306  1
  O  O9  1  0.787694  0.788323  0.224305  1
  O  O10  1  0.786065  0.206152  0.221398  1
  O  O11  1  0.464523  0.031858  0.464523  1
  O  O12  1  0.028602  0.043848  0.463935  1
  O  O13  1  0.037675  0.462258  0.037675  1
  O  O14  1  0.737229  0.751662  0.737229  1
  O  O15  1  0.512771  0.498338  0.512771  1
  O  O16  1  0.785477  0.218142  0.785477  1
  O  O17  1  0.212325  0.787742  0.212325  1
  O  O18  1  0.221398  0.206152  0.786065  1
  O  O19  1  0.463935  0.043848  0.028602  1
  O  O20  1  0.462306  0.461677  0.025695  1
  O  O21  1  0.224305  0.788323  0.787694  1
