# generated using pymatgen
data_Dy7ErTi12Si15As
_symmetry_space_group_name_H-M   'P 1'
_cell_length_a   7.05364887
_cell_length_b   7.04591292
_cell_length_c   12.95514626
_cell_angle_alpha   90.00596046
_cell_angle_beta   89.82605298
_cell_angle_gamma   89.93457821
_symmetry_Int_Tables_number   1
_chemical_formula_structural   Dy7ErTi12Si15As
_chemical_formula_sum   'Dy7 Er1 Ti12 Si15 As1'
_cell_volume   643.85954890
_cell_formula_units_Z   1
loop_
 _symmetry_equiv_pos_site_id
 _symmetry_equiv_pos_as_xyz
  1  'x, y, z'
loop_
 _atom_site_type_symbol
 _atom_site_label
 _atom_site_symmetry_multiplicity
 _atom_site_fract_x
 _atom_site_fract_y
 _atom_site_fract_z
 _atom_site_occupancy
  Dy  Dy0  1  0.341152  0.001639  0.466035  1
  Dy  Dy1  1  0.497462  0.842240  0.717524  1
  Dy  Dy2  1  0.502047  0.159032  0.216448  1
  Dy  Dy3  1  0.840107  0.497039  0.283024  1
  Dy  Dy4  1  0.159087  0.501353  0.783365  1
  Dy  Dy5  1  0.661392  0.995046  0.967674  1
  Dy  Dy6  1  0.999228  0.343179  0.531955  1
  Er  Er7  1  0.999038  0.659009  0.033483  1
  Ti  Ti8  1  0.326444  0.327134  0.999841  1
  Ti  Ti9  1  0.172796  0.826953  0.249738  1
  Ti  Ti10  1  0.824110  0.173819  0.750282  1
  Ti  Ti11  1  0.672265  0.672667  0.500064  1
  Ti  Ti12  1  0.154333  0.009457  0.875293  1
  Ti  Ti13  1  0.491754  0.651568  0.125370  1
  Ti  Ti14  1  0.509060  0.347615  0.626962  1
  Ti  Ti15  1  0.655040  0.494839  0.875458  1
  Ti  Ti16  1  0.346806  0.508009  0.374036  1
  Ti  Ti17  1  0.847015  0.992161  0.375390  1
  Ti  Ti18  1  0.008273  0.151132  0.124347  1
  Ti  Ti19  1  0.989409  0.844327  0.623303  1
  Si  Si20  1  0.368678  0.703482  0.933764  1
  Si  Si21  1  0.628786  0.297380  0.434520  1
  Si  Si22  1  0.704172  0.370213  0.066423  1
  Si  Si23  1  0.296940  0.630200  0.566204  1
  Si  Si24  1  0.797127  0.868879  0.183959  1
  Si  Si25  1  0.130211  0.202992  0.316076  1
  Si  Si26  1  0.870952  0.797456  0.815761  1
  Si  Si27  1  0.290618  0.952434  0.064332  1
  Si  Si28  1  0.546643  0.789947  0.314241  1
  Si  Si29  1  0.462421  0.211984  0.819508  1
  Si  Si30  1  0.790181  0.546619  0.685612  1
  Si  Si31  1  0.208834  0.453325  0.185256  1
  Si  Si32  1  0.708469  0.046502  0.564219  1
  Si  Si33  1  0.954153  0.291272  0.935813  1
  Si  Si34  1  0.046586  0.709964  0.434749  1
  As  As35  1  0.198412  0.129131  0.679975  1
