# generated using pymatgen
data_Li2Ni3P3W
_symmetry_space_group_name_H-M   'P 1'
_cell_length_a   5.96483607
_cell_length_b   5.96483560
_cell_length_c   3.50277600
_cell_angle_alpha   90.00000000
_cell_angle_beta   90.00000000
_cell_angle_gamma   118.59072841
_symmetry_Int_Tables_number   1
_chemical_formula_structural   Li2Ni3P3W
_chemical_formula_sum   'Li2 Ni3 P3 W1'
_cell_volume   109.42933510
_cell_formula_units_Z   1
loop_
 _symmetry_equiv_pos_site_id
 _symmetry_equiv_pos_as_xyz
  1  'x, y, z'
loop_
 _atom_site_type_symbol
 _atom_site_label
 _atom_site_symmetry_multiplicity
 _atom_site_fract_x
 _atom_site_fract_y
 _atom_site_fract_z
 _atom_site_occupancy
  Li  Li0  1  0.417961  0.005997  0.500000  1
  Li  Li1  1  0.005997  0.417961  0.500000  1
  Ni  Ni2  1  0.748268  0.005604  0.000000  1
  Ni  Ni3  1  0.005604  0.748268  0.000000  1
  Ni  Ni4  1  0.237608  0.237608  0.000000  1
  P  P5  1  0.337066  0.666080  0.000000  1
  P  P6  1  0.666080  0.337066  0.000000  1
  P  P7  1  0.992593  0.992593  0.500000  1
  W  W8  1  0.588824  0.588824  0.500000  1
