# generated using pymatgen
data_Dy2Ho3ReRuO12
_symmetry_space_group_name_H-M   'P 1'
_cell_length_a   6.83971243
_cell_length_b   6.83971302
_cell_length_c   7.49653357
_cell_angle_alpha   73.74758450
_cell_angle_beta   73.74758413
_cell_angle_gamma   48.93158952
_symmetry_Int_Tables_number   1
_chemical_formula_structural   Dy2Ho3ReRuO12
_chemical_formula_sum   'Dy2 Ho3 Re1 Ru1 O12'
_cell_volume   251.59308243
_cell_formula_units_Z   1
loop_
 _symmetry_equiv_pos_site_id
 _symmetry_equiv_pos_as_xyz
  1  'x, y, z'
loop_
 _atom_site_type_symbol
 _atom_site_label
 _atom_site_symmetry_multiplicity
 _atom_site_fract_x
 _atom_site_fract_y
 _atom_site_fract_z
 _atom_site_occupancy
  Dy  Dy0  1  0.308568  0.320656  0.825294  1
  Dy  Dy1  1  0.679344  0.691432  0.174706  1
  Ho  Ho2  1  0.987072  0.012928  0.500000  1
  Ho  Ho3  1  0.680453  0.714410  0.641840  1
  Ho  Ho4  1  0.285590  0.319547  0.358160  1
  Re  Re5  1  0.799734  0.200266  0.000000  1
  Ru  Ru6  1  0.234418  0.765582  0.000000  1
  O  O7  1  0.515353  0.482763  0.176542  1
  O  O8  1  0.517237  0.484647  0.823458  1
  O  O9  1  0.004020  0.001625  0.202796  1
  O  O10  1  0.998375  0.995980  0.797204  1
  O  O11  1  0.911582  0.404949  0.914192  1
  O  O12  1  0.595051  0.088418  0.085808  1
  O  O13  1  0.087390  0.564068  0.086822  1
  O  O14  1  0.588891  0.110576  0.566739  1
  O  O15  1  0.889424  0.411109  0.433261  1
  O  O16  1  0.396564  0.914998  0.424114  1
  O  O17  1  0.085002  0.603436  0.575886  1
  O  O18  1  0.435932  0.912610  0.913178  1
