# generated using pymatgen
data_Nb6AlNi6
_symmetry_space_group_name_H-M   'P 1'
_cell_length_a   9.29838090
_cell_length_b   9.29838056
_cell_length_c   9.29837993
_cell_angle_alpha   30.68240436
_cell_angle_beta   30.68240900
_cell_angle_gamma   30.68239832
_symmetry_Int_Tables_number   1
_chemical_formula_structural   Nb6AlNi6
_chemical_formula_sum   'Nb6 Al1 Ni6'
_cell_volume   185.61277842
_cell_formula_units_Z   1
loop_
 _symmetry_equiv_pos_site_id
 _symmetry_equiv_pos_as_xyz
  1  'x, y, z'
loop_
 _atom_site_type_symbol
 _atom_site_label
 _atom_site_symmetry_multiplicity
 _atom_site_fract_x
 _atom_site_fract_y
 _atom_site_fract_z
 _atom_site_occupancy
  Nb  Nb0  1  0.829867  0.829867  0.829867  1
  Nb  Nb1  1  0.170133  0.170133  0.170133  1
  Nb  Nb2  1  0.656748  0.656748  0.656748  1
  Nb  Nb3  1  0.343252  0.343252  0.343252  1
  Nb  Nb4  1  0.550203  0.550203  0.550203  1
  Nb  Nb5  1  0.449797  0.449797  0.449797  1
  Al  Al6  1  0.000000  0.000000  0.000000  1
  Ni  Ni7  1  0.411210  0.909476  0.909476  1
  Ni  Ni8  1  0.909476  0.909476  0.411210  1
  Ni  Ni9  1  0.909476  0.411210  0.909476  1
  Ni  Ni10  1  0.588790  0.090524  0.090524  1
  Ni  Ni11  1  0.090524  0.090524  0.588790  1
  Ni  Ni12  1  0.090524  0.588790  0.090524  1
