# generated using pymatgen
data_Pr5LuIn6O18
_symmetry_space_group_name_H-M   'P 1'
_cell_length_a   6.53414600
_cell_length_b   6.53414686
_cell_length_c   12.55292900
_cell_angle_alpha   90.00000000
_cell_angle_beta   90.00000000
_cell_angle_gamma   119.99998551
_symmetry_Int_Tables_number   1
_chemical_formula_structural   Pr5LuIn6O18
_chemical_formula_sum   'Pr5 Lu1 In6 O18'
_cell_volume   464.14480419
_cell_formula_units_Z   1
loop_
 _symmetry_equiv_pos_site_id
 _symmetry_equiv_pos_as_xyz
  1  'x, y, z'
loop_
 _atom_site_type_symbol
 _atom_site_label
 _atom_site_symmetry_multiplicity
 _atom_site_fract_x
 _atom_site_fract_y
 _atom_site_fract_z
 _atom_site_occupancy
  Pr  Pr0  1  0.333333  0.666667  0.459322  1
  Pr  Pr1  1  0.666667  0.333333  0.460724  1
  Pr  Pr2  1  0.333333  0.666667  0.963727  1
  Pr  Pr3  1  0.000000  0.000000  0.994983  1
  Pr  Pr4  1  0.000000  0.000000  0.500365  1
  Lu  Lu5  1  0.666667  0.333333  0.961698  1
  In  In6  1  0.665038  0.662691  0.729406  1
  In  In7  1  0.997653  0.334962  0.729406  1
  In  In8  1  0.336261  0.332645  0.223767  1
  In  In9  1  0.996385  0.663739  0.223767  1
  In  In10  1  0.337309  0.002347  0.729406  1
  In  In11  1  0.667355  0.003615  0.223767  1
  O  O12  1  0.689134  0.671322  0.898315  1
  O  O13  1  0.982188  0.310866  0.898315  1
  O  O14  1  0.305778  0.307737  0.392831  1
  O  O15  1  0.001959  0.694222  0.392831  1
  O  O16  1  0.328678  0.017812  0.898315  1
  O  O17  1  0.692263  0.998041  0.392831  1
  O  O18  1  0.640819  0.642022  0.561347  1
  O  O19  1  0.001204  0.359181  0.561347  1
  O  O20  1  0.375792  0.356014  0.056500  1
  O  O21  1  0.980224  0.624208  0.056500  1
  O  O22  1  0.357978  0.998796  0.561347  1
  O  O23  1  0.643986  0.019776  0.056500  1
  O  O24  1  0.000000  0.000000  0.706129  1
  O  O25  1  0.000000  0.000000  0.195728  1
  O  O26  1  0.666667  0.333333  0.751169  1
  O  O27  1  0.333333  0.666667  0.242618  1
  O  O28  1  0.666667  0.333333  0.253605  1
  O  O29  1  0.333333  0.666667  0.755209  1
