# generated using pymatgen
data_K2TePS4
_symmetry_space_group_name_H-M   'P 1'
_cell_length_a   6.65015700
_cell_length_b   6.87468442
_cell_length_c   10.11533446
_cell_angle_alpha   89.08375698
_cell_angle_beta   90.00000000
_cell_angle_gamma   90.00000000
_symmetry_Int_Tables_number   1
_chemical_formula_structural   K2TePS4
_chemical_formula_sum   'K4 Te2 P2 S8'
_cell_volume   462.39100801
_cell_formula_units_Z   2
loop_
 _symmetry_equiv_pos_site_id
 _symmetry_equiv_pos_as_xyz
  1  'x, y, z'
loop_
 _atom_site_type_symbol
 _atom_site_label
 _atom_site_symmetry_multiplicity
 _atom_site_fract_x
 _atom_site_fract_y
 _atom_site_fract_z
 _atom_site_occupancy
  K  K0  1  0.250000  0.481862  0.143936  1
  K  K1  1  0.750000  0.518138  0.856064  1
  K  K2  1  0.250000  0.787991  0.544455  1
  K  K3  1  0.750000  0.212009  0.455545  1
  Te  Te4  1  0.000000  0.000000  0.000000  1
  Te  Te5  1  0.500000  0.000000  0.000000  1
  P  P6  1  0.750000  0.727101  0.294098  1
  P  P7  1  0.250000  0.272899  0.705902  1
  S  S8  1  0.250000  0.313554  0.507840  1
  S  S9  1  0.750000  0.686446  0.492160  1
  S  S10  1  0.250000  0.516787  0.815572  1
  S  S11  1  0.750000  0.483213  0.184428  1
  S  S12  1  0.500873  0.097785  0.743763  1
  S  S13  1  0.000873  0.902215  0.256237  1
  S  S14  1  0.999127  0.097785  0.743763  1
  S  S15  1  0.499127  0.902215  0.256237  1
