# generated using pymatgen
data_Tb13Dy6LuSn16
_symmetry_space_group_name_H-M   'P 1'
_cell_length_a   8.04521961
_cell_length_b   8.19257342
_cell_length_c   15.48675700
_cell_angle_alpha   89.99625841
_cell_angle_beta   90.03629227
_cell_angle_gamma   90.01804592
_symmetry_Int_Tables_number   1
_chemical_formula_structural   Tb13Dy6LuSn16
_chemical_formula_sum   'Tb13 Dy6 Lu1 Sn16'
_cell_volume   1020.74819453
_cell_formula_units_Z   1
loop_
 _symmetry_equiv_pos_site_id
 _symmetry_equiv_pos_as_xyz
  1  'x, y, z'
loop_
 _atom_site_type_symbol
 _atom_site_label
 _atom_site_symmetry_multiplicity
 _atom_site_fract_x
 _atom_site_fract_y
 _atom_site_fract_z
 _atom_site_occupancy
  Tb  Tb0  1  0.134416  0.337016  0.122094  1
  Tb  Tb1  1  0.633291  0.162765  0.122636  1
  Tb  Tb2  1  0.133917  0.336868  0.377809  1
  Tb  Tb3  1  0.366434  0.837164  0.622111  1
  Tb  Tb4  1  0.866499  0.662611  0.878004  1
  Tb  Tb5  1  0.519180  0.320603  0.902868  1
  Tb  Tb6  1  0.019101  0.179410  0.597042  1
  Tb  Tb7  1  0.480969  0.679655  0.403061  1
  Tb  Tb8  1  0.980644  0.820817  0.097312  1
  Tb  Tb9  1  0.481131  0.679721  0.097069  1
  Tb  Tb10  1  0.981991  0.820766  0.403236  1
  Tb  Tb11  1  0.518417  0.321035  0.596842  1
  Tb  Tb12  1  0.018743  0.178632  0.902569  1
  Dy  Dy13  1  0.365711  0.837646  0.876879  1
  Dy  Dy14  1  0.865056  0.662462  0.622613  1
  Dy  Dy15  1  0.634323  0.162299  0.377413  1
  Dy  Dy16  1  0.197504  0.503021  0.750235  1
  Dy  Dy17  1  0.697648  0.997169  0.749596  1
  Dy  Dy18  1  0.802637  0.497205  0.250627  1
  Lu  Lu19  1  0.302474  0.003013  0.249812  1
  Sn  Sn20  1  0.294166  0.036436  0.041832  1
  Sn  Sn21  1  0.793578  0.462029  0.458612  1
  Sn  Sn22  1  0.706747  0.962048  0.541049  1
  Sn  Sn23  1  0.207088  0.538144  0.958421  1
  Sn  Sn24  1  0.704061  0.962344  0.958313  1
  Sn  Sn25  1  0.203857  0.537769  0.541810  1
  Sn  Sn26  1  0.295911  0.037558  0.457360  1
  Sn  Sn27  1  0.794060  0.462846  0.042407  1
  Sn  Sn28  1  0.563738  0.617897  0.749922  1
  Sn  Sn29  1  0.063774  0.882009  0.749909  1
  Sn  Sn30  1  0.436067  0.381412  0.250251  1
  Sn  Sn31  1  0.937568  0.117288  0.250198  1
  Sn  Sn32  1  0.327952  0.148103  0.749862  1
  Sn  Sn33  1  0.828076  0.351962  0.749873  1
  Sn  Sn34  1  0.671120  0.852517  0.250204  1
  Sn  Sn35  1  0.172150  0.649761  0.250145  1
