# generated using pymatgen
data_TbNp7VS17
_symmetry_space_group_name_H-M   'P 1'
_cell_length_a   7.79689779
_cell_length_b   7.81201438
_cell_length_c   10.32927000
_cell_angle_alpha   80.57049833
_cell_angle_beta   80.57625941
_cell_angle_gamma   64.85797210
_symmetry_Int_Tables_number   1
_chemical_formula_structural   TbNp7VS17
_chemical_formula_sum   'Tb1 Np7 V1 S17'
_cell_volume   558.71765718
_cell_formula_units_Z   1
loop_
 _symmetry_equiv_pos_site_id
 _symmetry_equiv_pos_as_xyz
  1  'x, y, z'
loop_
 _atom_site_type_symbol
 _atom_site_label
 _atom_site_symmetry_multiplicity
 _atom_site_fract_x
 _atom_site_fract_y
 _atom_site_fract_z
 _atom_site_occupancy
  Tb  Tb0  1  0.812463  0.305941  0.298646  1
  Np  Np1  1  0.297829  0.820456  0.296742  1
  Np  Np2  1  0.180915  0.700784  0.701546  1
  Np  Np3  1  0.698651  0.184699  0.703479  1
  Np  Np4  1  0.205957  0.206796  0.543727  1
  Np  Np5  1  0.793425  0.793949  0.454655  1
  Np  Np6  1  0.682324  0.677492  0.979564  1
  Np  Np7  1  0.318947  0.317037  0.021054  1
  V  V8  1  0.003083  0.996810  0.999039  1
  S  S9  1  0.824500  0.430502  0.538590  1
  S  S10  1  0.431555  0.821301  0.535341  1
  S  S11  1  0.176943  0.568386  0.465511  1
  S  S12  1  0.570707  0.172502  0.470871  1
  S  S13  1  0.942977  0.321164  0.023861  1
  S  S14  1  0.322467  0.944887  0.028311  1
  S  S15  1  0.056273  0.677685  0.970147  1
  S  S16  1  0.679262  0.058391  0.972303  1
  S  S17  1  0.216532  0.206550  0.279529  1
  S  S18  1  0.790965  0.789317  0.721019  1
  S  S19  1  0.060602  0.057910  0.772342  1
  S  S20  1  0.941511  0.938318  0.226546  1
  S  S21  1  0.301677  0.304512  0.756042  1
  S  S22  1  0.691326  0.705758  0.242258  1
  S  S23  1  0.521416  0.521326  0.829656  1
  S  S24  1  0.473188  0.484507  0.165609  1
  S  S25  1  0.004502  0.993025  0.503615  1
