# generated using pymatgen
data_AlZnGa(Ni10B3)2
_symmetry_space_group_name_H-M   'P 1'
_cell_length_a   7.41160507
_cell_length_b   7.41160511
_cell_length_c   7.41160400
_cell_angle_alpha   59.99999604
_cell_angle_beta   59.99999583
_cell_angle_gamma   59.99999743
_symmetry_Int_Tables_number   1
_chemical_formula_structural   AlZnGa(Ni10B3)2
_chemical_formula_sum   'Al1 Zn1 Ga1 Ni20 B6'
_cell_volume   287.88677583
_cell_formula_units_Z   1
loop_
 _symmetry_equiv_pos_site_id
 _symmetry_equiv_pos_as_xyz
  1  'x, y, z'
loop_
 _atom_site_type_symbol
 _atom_site_label
 _atom_site_symmetry_multiplicity
 _atom_site_fract_x
 _atom_site_fract_y
 _atom_site_fract_z
 _atom_site_occupancy
  Al  Al0  1  0.750000  0.750000  0.750000  1
  Zn  Zn1  1  0.000000  0.000000  0.000000  1
  Ga  Ga2  1  0.250000  0.250000  0.250000  1
  Ni  Ni3  1  0.382704  0.382704  0.382704  1
  Ni  Ni4  1  0.617273  0.617273  0.617273  1
  Ni  Ni5  1  0.382704  0.382704  0.851888  1
  Ni  Ni6  1  0.382704  0.851888  0.382704  1
  Ni  Ni7  1  0.617273  0.617273  0.148181  1
  Ni  Ni8  1  0.617273  0.148181  0.617273  1
  Ni  Ni9  1  0.851888  0.382704  0.382704  1
  Ni  Ni10  1  0.148181  0.617273  0.617273  1
  Ni  Ni11  1  0.338927  0.999865  0.999865  1
  Ni  Ni12  1  0.661344  0.999865  0.999865  1
  Ni  Ni13  1  0.999865  0.338927  0.661344  1
  Ni  Ni14  1  0.999865  0.661344  0.338927  1
  Ni  Ni15  1  0.999865  0.338927  0.999865  1
  Ni  Ni16  1  0.661344  0.999865  0.338927  1
  Ni  Ni17  1  0.999865  0.661344  0.999865  1
  Ni  Ni18  1  0.338927  0.999865  0.661344  1
  Ni  Ni19  1  0.999865  0.999865  0.338927  1
  Ni  Ni20  1  0.999865  0.999865  0.661344  1
  Ni  Ni21  1  0.661344  0.338927  0.999865  1
  Ni  Ni22  1  0.338927  0.661344  0.999865  1
  B  B23  1  0.726382  0.273618  0.273618  1
  B  B24  1  0.273618  0.726382  0.726382  1
  B  B25  1  0.273618  0.726382  0.273618  1
  B  B26  1  0.726382  0.273618  0.726382  1
  B  B27  1  0.273618  0.273618  0.726382  1
  B  B28  1  0.726382  0.726382  0.273618  1
