# generated using pymatgen
data_Dy4Ga4IrPd3
_symmetry_space_group_name_H-M   'P 1'
_cell_length_a   4.45940900
_cell_length_b   6.89016737
_cell_length_c   7.67471304
_cell_angle_alpha   89.76582469
_cell_angle_beta   90.00000000
_cell_angle_gamma   90.00000000
_symmetry_Int_Tables_number   1
_chemical_formula_structural   Dy4Ga4IrPd3
_chemical_formula_sum   'Dy4 Ga4 Ir1 Pd3'
_cell_volume   235.81183427
_cell_formula_units_Z   1
loop_
 _symmetry_equiv_pos_site_id
 _symmetry_equiv_pos_as_xyz
  1  'x, y, z'
loop_
 _atom_site_type_symbol
 _atom_site_label
 _atom_site_symmetry_multiplicity
 _atom_site_fract_x
 _atom_site_fract_y
 _atom_site_fract_z
 _atom_site_occupancy
  Dy  Dy0  1  0.750000  0.021349  0.695974  1
  Dy  Dy1  1  0.750000  0.524791  0.808265  1
  Dy  Dy2  1  0.250000  0.977733  0.299123  1
  Dy  Dy3  1  0.250000  0.488558  0.195745  1
  Ga  Ga4  1  0.250000  0.826409  0.926461  1
  Ga  Ga5  1  0.250000  0.326227  0.572762  1
  Ga  Ga6  1  0.750000  0.166659  0.073961  1
  Ga  Ga7  1  0.750000  0.675556  0.425302  1
  Ir  Ir8  1  0.750000  0.773997  0.100971  1
  Pd  Pd9  1  0.250000  0.718415  0.600292  1
  Pd  Pd10  1  0.250000  0.220037  0.900714  1
  Pd  Pd11  1  0.750000  0.280268  0.400430  1
