# generated using pymatgen
data_U3PS2
_symmetry_space_group_name_H-M   'P 1'
_cell_length_a   6.72374823
_cell_length_b   6.72374829
_cell_length_c   6.72374760
_cell_angle_alpha   146.31519841
_cell_angle_beta   131.63582491
_cell_angle_gamma   60.23162849
_symmetry_Int_Tables_number   1
_chemical_formula_structural   U3PS2
_chemical_formula_sum   'U3 P1 S2'
_cell_volume   124.83193168
_cell_formula_units_Z   1
loop_
 _symmetry_equiv_pos_site_id
 _symmetry_equiv_pos_as_xyz
  1  'x, y, z'
loop_
 _atom_site_type_symbol
 _atom_site_label
 _atom_site_symmetry_multiplicity
 _atom_site_fract_x
 _atom_site_fract_y
 _atom_site_fract_z
 _atom_site_occupancy
  U  U0  1  0.000000  0.000000  0.000000  1
  U  U1  1  0.667100  0.667100  0.000000  1
  U  U2  1  0.332900  0.332900  0.000000  1
  P  P3  1  0.500000  0.000000  0.500000  1
  S  S4  1  0.165824  0.665824  0.500000  1
  S  S5  1  0.834176  0.334176  0.500000  1
