# generated using pymatgen
data_Tb8Cu3Si12Ag
_symmetry_space_group_name_H-M   'P 1'
_cell_length_a   8.06928000
_cell_length_b   8.06927873
_cell_length_c   8.16110900
_cell_angle_alpha   90.00000000
_cell_angle_beta   90.00000000
_cell_angle_gamma   120.00000522
_symmetry_Int_Tables_number   1
_chemical_formula_structural   Tb8Cu3Si12Ag
_chemical_formula_sum   'Tb8 Cu3 Si12 Ag1'
_cell_volume   460.20283499
_cell_formula_units_Z   1
loop_
 _symmetry_equiv_pos_site_id
 _symmetry_equiv_pos_as_xyz
  1  'x, y, z'
loop_
 _atom_site_type_symbol
 _atom_site_label
 _atom_site_symmetry_multiplicity
 _atom_site_fract_x
 _atom_site_fract_y
 _atom_site_fract_z
 _atom_site_occupancy
  Tb  Tb0  1  0.501785  0.003569  0.247631  1
  Tb  Tb1  1  0.502103  0.004208  0.752436  1
  Tb  Tb2  1  0.996431  0.498215  0.247631  1
  Tb  Tb3  1  0.995792  0.497897  0.752436  1
  Tb  Tb4  1  0.501785  0.498215  0.247631  1
  Tb  Tb5  1  0.502103  0.497897  0.752436  1
  Tb  Tb6  1  0.000000  0.000000  0.247808  1
  Tb  Tb7  1  0.000000  0.000000  0.751898  1
  Cu  Cu8  1  0.333333  0.666667  0.000582  1
  Cu  Cu9  1  0.666667  0.333333  0.999959  1
  Cu  Cu10  1  0.666667  0.333333  0.499269  1
  Si  Si11  1  0.169559  0.339119  0.999327  1
  Si  Si12  1  0.831159  0.662317  0.000594  1
  Si  Si13  1  0.660881  0.830441  0.999327  1
  Si  Si14  1  0.829550  0.659099  0.500496  1
  Si  Si15  1  0.337683  0.168841  0.000594  1
  Si  Si16  1  0.162351  0.324702  0.499161  1
  Si  Si17  1  0.169559  0.830441  0.999327  1
  Si  Si18  1  0.340901  0.170450  0.500496  1
  Si  Si19  1  0.831159  0.168841  0.000594  1
  Si  Si20  1  0.675298  0.837649  0.499161  1
  Si  Si21  1  0.829550  0.170450  0.500496  1
  Si  Si22  1  0.162351  0.837649  0.499161  1
  Ag  Ag23  1  0.333333  0.666667  0.501548  1
