# generated using pymatgen
data_Dy2Er2Al17Ga7Pt9
_symmetry_space_group_name_H-M   'P 1'
_cell_length_a   7.52340723
_cell_length_b   7.52449235
_cell_length_c   13.22380124
_cell_angle_alpha   84.65259478
_cell_angle_beta   100.80053301
_cell_angle_gamma   119.91075194
_symmetry_Int_Tables_number   1
_chemical_formula_structural   Dy2Er2Al17Ga7Pt9
_chemical_formula_sum   'Dy2 Er2 Al17 Ga7 Pt9'
_cell_volume   637.39155798
_cell_formula_units_Z   1
loop_
 _symmetry_equiv_pos_site_id
 _symmetry_equiv_pos_as_xyz
  1  'x, y, z'
loop_
 _atom_site_type_symbol
 _atom_site_label
 _atom_site_symmetry_multiplicity
 _atom_site_fract_x
 _atom_site_fract_y
 _atom_site_fract_z
 _atom_site_occupancy
  Dy  Dy0  1  0.736179  0.002706  0.191290  1
  Dy  Dy1  1  0.262185  0.995838  0.808069  1
  Er  Er2  1  0.059095  0.665645  0.190390  1
  Er  Er3  1  0.940790  0.335586  0.809212  1
  Al  Al4  1  0.118919  0.335169  0.331708  1
  Al  Al5  1  0.601647  0.456675  0.815457  1
  Al  Al6  1  0.397623  0.542877  0.184525  1
  Al  Al7  1  0.230251  0.339714  0.669217  1
  Al  Al8  1  0.769901  0.660363  0.330962  1
  Al  Al9  1  0.853542  0.332449  0.558324  1
  Al  Al10  1  0.186152  0.999828  0.558269  1
  Al  Al11  1  0.813895  0.000715  0.440966  1
  Al  Al12  1  0.352001  0.000145  0.055604  1
  Al  Al13  1  0.647811  0.000272  0.944413  1
  Al  Al14  1  0.556436  0.994731  0.669615  1
  Al  Al15  1  0.443656  0.005041  0.330616  1
  Al  Al16  1  0.520663  0.668072  0.560289  1
  Al  Al17  1  0.480067  0.331866  0.439462  1
  Al  Al18  1  0.684574  0.666949  0.048750  1
  Al  Al19  1  0.314809  0.332784  0.951332  1
  Al  Al20  1  0.146192  0.666996  0.440596  1
  Ga  Ga21  1  0.802586  0.871461  0.815016  1
  Ga  Ga22  1  0.197375  0.130149  0.185275  1
  Ga  Ga23  1  0.981583  0.665595  0.939906  1
  Ga  Ga24  1  0.018052  0.334385  0.060864  1
  Ga  Ga25  1  0.400828  0.662843  0.816321  1
  Ga  Ga26  1  0.599514  0.337068  0.183659  1
  Ga  Ga27  1  0.883431  0.664415  0.671417  1
  Pt  Pt28  1  0.336098  0.674098  0.003095  1
  Pt  Pt29  1  0.543566  0.322395  0.637540  1
  Pt  Pt30  1  0.453412  0.674228  0.362291  1
  Pt  Pt31  1  0.887834  0.011599  0.636702  1
  Pt  Pt32  1  0.112106  0.991400  0.363062  1
  Pt  Pt33  1  0.663584  0.325887  0.996766  1
  Pt  Pt34  1  0.206910  0.666727  0.636194  1
  Pt  Pt35  1  0.796689  0.333273  0.362688  1
  Pt  Pt36  1  0.000042  0.000053  0.000142  1
