# generated using pymatgen
data_TbCl30
_symmetry_space_group_name_H-M   'P 1'
_cell_length_a   13.54244884
_cell_length_b   13.54244959
_cell_length_c   16.36886636
_cell_angle_alpha   82.07954909
_cell_angle_beta   82.07954683
_cell_angle_gamma   118.49070407
_symmetry_Int_Tables_number   1
_chemical_formula_structural   TbCl30
_chemical_formula_sum   'Tb1 Cl30'
_cell_volume   2540.85422529
_cell_formula_units_Z   1
loop_
 _symmetry_equiv_pos_site_id
 _symmetry_equiv_pos_as_xyz
  1  'x, y, z'
loop_
 _atom_site_type_symbol
 _atom_site_label
 _atom_site_symmetry_multiplicity
 _atom_site_fract_x
 _atom_site_fract_y
 _atom_site_fract_z
 _atom_site_occupancy
  Tb  Tb0  1  0.000000  0.000000  0.000000  1
  Cl  Cl1  1  0.939346  0.939346  0.169476  1
  Cl  Cl2  1  0.060654  0.060654  0.830524  1
  Cl  Cl3  1  0.104581  0.220878  0.006113  1
  Cl  Cl4  1  0.895419  0.779122  0.993887  1
  Cl  Cl5  1  0.220878  0.104581  0.006113  1
  Cl  Cl6  1  0.779122  0.895419  0.993887  1
  Cl  Cl7  1  0.201346  0.743626  0.063417  1
  Cl  Cl8  1  0.798654  0.256374  0.936583  1
  Cl  Cl9  1  0.696985  0.082331  0.258099  1
  Cl  Cl10  1  0.256374  0.798654  0.936583  1
  Cl  Cl11  1  0.303015  0.917669  0.741901  1
  Cl  Cl12  1  0.743626  0.201346  0.063417  1
  Cl  Cl13  1  0.981812  0.198423  0.776533  1
  Cl  Cl14  1  0.917669  0.303015  0.741901  1
  Cl  Cl15  1  0.018188  0.801577  0.223467  1
  Cl  Cl16  1  0.082331  0.696985  0.258099  1
  Cl  Cl17  1  0.801577  0.018188  0.223467  1
  Cl  Cl18  1  0.198423  0.981812  0.776533  1
  Cl  Cl19  1  0.464151  0.549582  0.261282  1
  Cl  Cl20  1  0.535849  0.450418  0.738718  1
  Cl  Cl21  1  0.508495  0.207023  0.450978  1
  Cl  Cl22  1  0.450418  0.535849  0.738718  1
  Cl  Cl23  1  0.491505  0.792977  0.549022  1
  Cl  Cl24  1  0.549582  0.464151  0.261282  1
  Cl  Cl25  1  0.240418  0.429379  0.545851  1
  Cl  Cl26  1  0.792977  0.491505  0.549022  1
  Cl  Cl27  1  0.759582  0.570621  0.454149  1
  Cl  Cl28  1  0.207023  0.508495  0.450978  1
  Cl  Cl29  1  0.570621  0.759582  0.454149  1
  Cl  Cl30  1  0.429379  0.240418  0.545851  1
