# generated using pymatgen
data_Cs12Mn3FeBr20
_symmetry_space_group_name_H-M   'P 1'
_cell_length_a   9.65589387
_cell_length_b   11.15264000
_cell_length_c   14.42045079
_cell_angle_alpha   90.00000000
_cell_angle_beta   89.52562545
_cell_angle_gamma   90.00000000
_symmetry_Int_Tables_number   1
_chemical_formula_structural   Cs12Mn3FeBr20
_chemical_formula_sum   'Cs12 Mn3 Fe1 Br20'
_cell_volume   1552.86649245
_cell_formula_units_Z   1
loop_
 _symmetry_equiv_pos_site_id
 _symmetry_equiv_pos_as_xyz
  1  'x, y, z'
loop_
 _atom_site_type_symbol
 _atom_site_label
 _atom_site_symmetry_multiplicity
 _atom_site_fract_x
 _atom_site_fract_y
 _atom_site_fract_z
 _atom_site_occupancy
  Cs  Cs0  1  0.910234  0.022572  0.670907  1
  Cs  Cs1  1  0.590074  0.978684  0.171590  1
  Cs  Cs2  1  0.590074  0.521316  0.171590  1
  Cs  Cs3  1  0.088528  0.520697  0.328731  1
  Cs  Cs4  1  0.088528  0.979303  0.328731  1
  Cs  Cs5  1  0.409840  0.021972  0.828718  1
  Cs  Cs6  1  0.588755  0.750000  0.454238  1
  Cs  Cs7  1  0.913212  0.250000  0.955510  1
  Cs  Cs8  1  0.086759  0.750000  0.044813  1
  Cs  Cs9  1  0.414408  0.250000  0.543849  1
  Cs  Cs10  1  0.409840  0.478028  0.828718  1
  Cs  Cs11  1  0.910234  0.477428  0.670907  1
  Mn  Mn12  1  0.690571  0.750000  0.890737  1
  Mn  Mn13  1  0.309257  0.250000  0.109085  1
  Mn  Mn14  1  0.190467  0.750000  0.608643  1
  Fe  Fe15  1  0.810750  0.250000  0.392277  1
  Br  Br16  1  0.658469  0.250000  0.735659  1
  Br  Br17  1  0.311219  0.560415  0.565144  1
  Br  Br18  1  0.860527  0.250000  0.226117  1
  Br  Br19  1  0.840175  0.750000  0.236188  1
  Br  Br20  1  0.636318  0.750000  0.722219  1
  Br  Br21  1  0.694118  0.436849  0.432748  1
  Br  Br22  1  0.810726  0.560801  0.933992  1
  Br  Br23  1  0.531201  0.250000  0.016240  1
  Br  Br24  1  0.970074  0.750000  0.516646  1
  Br  Br25  1  0.159305  0.250000  0.763616  1
  Br  Br26  1  0.810726  0.939199  0.933992  1
  Br  Br27  1  0.311219  0.939585  0.565144  1
  Br  Br28  1  0.340986  0.750000  0.265061  1
  Br  Br29  1  0.188812  0.061060  0.065859  1
  Br  Br30  1  0.694118  0.063151  0.432748  1
  Br  Br31  1  0.135937  0.750000  0.777770  1
  Br  Br32  1  0.362607  0.250000  0.277774  1
  Br  Br33  1  0.024382  0.250000  0.484321  1
  Br  Br34  1  0.188812  0.438940  0.065859  1
  Br  Br35  1  0.468735  0.750000  0.983865  1
