# generated using pymatgen
data_Y19Tm(InGa2)4
_symmetry_space_group_name_H-M   'P 1'
_cell_length_a   7.76456900
_cell_length_b   7.76456900
_cell_length_c   14.41254500
_cell_angle_alpha   90.00000000
_cell_angle_beta   90.00000000
_cell_angle_gamma   90.00000000
_symmetry_Int_Tables_number   1
_chemical_formula_structural   Y19Tm(InGa2)4
_chemical_formula_sum   'Y19 Tm1 In4 Ga8'
_cell_volume   868.91117691
_cell_formula_units_Z   1
loop_
 _symmetry_equiv_pos_site_id
 _symmetry_equiv_pos_as_xyz
  1  'x, y, z'
loop_
 _atom_site_type_symbol
 _atom_site_label
 _atom_site_symmetry_multiplicity
 _atom_site_fract_x
 _atom_site_fract_y
 _atom_site_fract_z
 _atom_site_occupancy
  Y  Y0  1  0.834162  0.831570  0.893645  1
  Y  Y1  1  0.168972  0.165296  0.606368  1
  Y  Y2  1  0.834536  0.168619  0.393763  1
  Y  Y3  1  0.165464  0.831381  0.393763  1
  Y  Y4  1  0.331381  0.334536  0.393763  1
  Y  Y5  1  0.831382  0.165468  0.106246  1
  Y  Y6  1  0.331570  0.665838  0.893645  1
  Y  Y7  1  0.168618  0.834532  0.106246  1
  Y  Y8  1  0.000000  0.500000  0.247476  1
  Y  Y9  1  0.334704  0.668972  0.606368  1
  Y  Y10  1  0.665468  0.668618  0.106246  1
  Y  Y11  1  0.665296  0.331028  0.606368  1
  Y  Y12  1  0.000000  0.500000  0.747482  1
  Y  Y13  1  0.831028  0.834704  0.606368  1
  Y  Y14  1  0.668430  0.334162  0.893645  1
  Y  Y15  1  0.165838  0.168430  0.893645  1
  Y  Y16  1  0.500000  0.000000  0.252534  1
  Y  Y17  1  0.668619  0.665464  0.393763  1
  Y  Y18  1  0.334532  0.331382  0.106246  1
  Tm  Tm19  1  0.500000  0.000000  0.752495  1
  In  In20  1  0.000000  0.500000  0.000965  1
  In  In21  1  0.500000  0.000000  0.998781  1
  In  In22  1  0.500000  0.000000  0.499136  1
  In  In23  1  0.000000  0.500000  0.500960  1
  Ga  Ga24  1  0.623578  0.376405  0.250004  1
  Ga  Ga25  1  0.376422  0.623595  0.250004  1
  Ga  Ga26  1  0.123595  0.123578  0.250004  1
  Ga  Ga27  1  0.376532  0.375928  0.750016  1
  Ga  Ga28  1  0.124072  0.876532  0.750016  1
  Ga  Ga29  1  0.876405  0.876422  0.250004  1
  Ga  Ga30  1  0.623468  0.624072  0.750016  1
  Ga  Ga31  1  0.875928  0.123468  0.750016  1
