# generated using pymatgen
data_Na2Hg(SeO4)2
_symmetry_space_group_name_H-M   'P 1'
_cell_length_a   6.86007089
_cell_length_b   6.85949544
_cell_length_c   9.35271513
_cell_angle_alpha   71.58640881
_cell_angle_beta   108.38737037
_cell_angle_gamma   101.27780401
_symmetry_Int_Tables_number   1
_chemical_formula_structural   Na2Hg(SeO4)2
_chemical_formula_sum   'Na4 Hg2 Se4 O16'
_cell_volume   393.99975424
_cell_formula_units_Z   2
loop_
 _symmetry_equiv_pos_site_id
 _symmetry_equiv_pos_as_xyz
  1  'x, y, z'
loop_
 _atom_site_type_symbol
 _atom_site_label
 _atom_site_symmetry_multiplicity
 _atom_site_fract_x
 _atom_site_fract_y
 _atom_site_fract_z
 _atom_site_occupancy
  Na  Na0  1  0.295347  0.567161  0.548850  1
  Na  Na1  1  0.567124  0.295351  0.951188  1
  Na  Na2  1  0.432894  0.704632  0.048819  1
  Na  Na3  1  0.704650  0.432855  0.451147  1
  Hg  Hg4  1  0.056645  0.056641  0.249972  1
  Hg  Hg5  1  0.943357  0.943353  0.750027  1
  Se  Se6  1  0.024612  0.422858  0.807578  1
  Se  Se7  1  0.577180  0.975361  0.307545  1
  Se  Se8  1  0.422866  0.024632  0.692435  1
  Se  Se9  1  0.975374  0.577165  0.192432  1
  O  O10  1  0.307023  0.998569  0.835202  1
  O  O11  1  0.001424  0.692942  0.335155  1
  O  O12  1  0.998558  0.307054  0.664822  1
  O  O13  1  0.692980  0.001434  0.164828  1
  O  O14  1  0.261649  0.927974  0.550330  1
  O  O15  1  0.072068  0.738386  0.050276  1
  O  O16  1  0.927926  0.261609  0.949721  1
  O  O17  1  0.738357  0.072041  0.449671  1
  O  O18  1  0.275558  0.501946  0.865284  1
  O  O19  1  0.498064  0.724378  0.365366  1
  O  O20  1  0.501939  0.275617  0.634644  1
  O  O21  1  0.724431  0.498051  0.134709  1
  O  O22  1  0.619877  0.877250  0.788747  1
  O  O23  1  0.122710  0.380048  0.288760  1
  O  O24  1  0.877274  0.619930  0.711262  1
  O  O25  1  0.380112  0.122763  0.211231  1
