# generated using pymatgen
data_Tm2Pa2Ge6Ir7
_symmetry_space_group_name_H-M   'P 1'
_cell_length_a   7.29870081
_cell_length_b   7.28212319
_cell_length_c   7.29637388
_cell_angle_alpha   109.43936440
_cell_angle_beta   109.61011714
_cell_angle_gamma   109.45117612
_symmetry_Int_Tables_number   1
_chemical_formula_structural   Tm2Pa2Ge6Ir7
_chemical_formula_sum   'Tm2 Pa2 Ge6 Ir7'
_cell_volume   298.20897769
_cell_formula_units_Z   1
loop_
 _symmetry_equiv_pos_site_id
 _symmetry_equiv_pos_as_xyz
  1  'x, y, z'
loop_
 _atom_site_type_symbol
 _atom_site_label
 _atom_site_symmetry_multiplicity
 _atom_site_fract_x
 _atom_site_fract_y
 _atom_site_fract_z
 _atom_site_occupancy
  Tm  Tm0  1  0.000000  0.500000  0.000000  1
  Tm  Tm1  1  0.500000  0.500000  0.500000  1
  Pa  Pa2  1  0.000000  0.000000  0.500000  1
  Pa  Pa3  1  0.500000  0.000000  0.000000  1
  Ge  Ge4  1  0.683199  0.678057  0.994786  1
  Ge  Ge5  1  0.315870  0.000006  0.315814  1
  Ge  Ge6  1  0.005178  0.321953  0.316767  1
  Ge  Ge7  1  0.316801  0.321943  0.005214  1
  Ge  Ge8  1  0.684130  0.999994  0.684186  1
  Ge  Ge9  1  0.994822  0.678047  0.683233  1
  Ir  Ir10  1  0.749451  0.246993  0.497553  1
  Ir  Ir11  1  0.750014  0.499987  0.249972  1
  Ir  Ir12  1  0.497568  0.246994  0.749467  1
  Ir  Ir13  1  0.249986  0.500013  0.750028  1
  Ir  Ir14  1  0.250549  0.753007  0.502447  1
  Ir  Ir15  1  0.502432  0.753006  0.250533  1
  Ir  Ir16  1  0.000000  0.000000  0.000000  1
