# generated using pymatgen
data_Tb7YGaPd24
_symmetry_space_group_name_H-M   'P 1'
_cell_length_a   8.36529400
_cell_length_b   8.36529400
_cell_length_c   8.36529400
_cell_angle_alpha   89.99971233
_cell_angle_beta   89.99971233
_cell_angle_gamma   90.00028767
_symmetry_Int_Tables_number   1
_chemical_formula_structural   Tb7YGaPd24
_chemical_formula_sum   'Tb7 Y1 Ga1 Pd24'
_cell_volume   585.38774567
_cell_formula_units_Z   1
loop_
 _symmetry_equiv_pos_site_id
 _symmetry_equiv_pos_as_xyz
  1  'x, y, z'
loop_
 _atom_site_type_symbol
 _atom_site_label
 _atom_site_symmetry_multiplicity
 _atom_site_fract_x
 _atom_site_fract_y
 _atom_site_fract_z
 _atom_site_occupancy
  Tb  Tb0  1  0.251847  0.748153  0.251847  1
  Tb  Tb1  1  0.748153  0.251847  0.251847  1
  Tb  Tb2  1  0.748153  0.748153  0.748153  1
  Tb  Tb3  1  0.748150  0.748150  0.251850  1
  Tb  Tb4  1  0.748152  0.251847  0.748153  1
  Tb  Tb5  1  0.251847  0.748152  0.748153  1
  Tb  Tb6  1  0.251847  0.251847  0.251848  1
  Y  Y7  1  0.251835  0.251835  0.748165  1
  Ga  Ga8  1  0.000006  0.000006  0.999994  1
  Pd  Pd9  1  0.500004  0.500004  0.746864  1
  Pd  Pd10  1  0.500004  0.253136  0.499996  1
  Pd  Pd11  1  0.253136  0.500004  0.499996  1
  Pd  Pd12  1  0.499999  0.499999  0.253139  1
  Pd  Pd13  1  0.499999  0.746861  0.500001  1
  Pd  Pd14  1  0.746861  0.499999  0.500001  1
  Pd  Pd15  1  0.000003  0.000003  0.708042  1
  Pd  Pd16  1  0.000003  0.291958  0.999997  1
  Pd  Pd17  1  0.291958  0.000003  0.999997  1
  Pd  Pd18  1  0.000003  0.000003  0.291966  1
  Pd  Pd19  1  0.000003  0.708034  0.999997  1
  Pd  Pd20  1  0.708034  0.000003  0.999997  1
  Pd  Pd21  1  0.000000  0.500004  0.739630  1
  Pd  Pd22  1  0.500004  0.260370  0.000000  1
  Pd  Pd23  1  0.260370  0.000000  0.499996  1
  Pd  Pd24  1  0.000000  0.260370  0.499996  1
  Pd  Pd25  1  0.500004  0.000000  0.739630  1
  Pd  Pd26  1  0.260370  0.500004  0.000000  1
  Pd  Pd27  1  0.000002  0.499999  0.260373  1
  Pd  Pd28  1  0.499999  0.739627  0.999998  1
  Pd  Pd29  1  0.000002  0.739627  0.500001  1
  Pd  Pd30  1  0.499999  0.000002  0.260373  1
  Pd  Pd31  1  0.739627  0.000002  0.500001  1
  Pd  Pd32  1  0.739627  0.499999  0.999998  1
