# generated using pymatgen
data_Ac3In4Se
_symmetry_space_group_name_H-M   'P 1'
_cell_length_a   8.89839962
_cell_length_b   8.89990698
_cell_length_c   8.89839762
_cell_angle_alpha   119.12524783
_cell_angle_beta   119.11833673
_cell_angle_gamma   91.52297113
_symmetry_Int_Tables_number   1
_chemical_formula_structural   Ac3In4Se
_chemical_formula_sum   'Ac6 In8 Se2'
_cell_volume   504.74662064
_cell_formula_units_Z   2
loop_
 _symmetry_equiv_pos_site_id
 _symmetry_equiv_pos_as_xyz
  1  'x, y, z'
loop_
 _atom_site_type_symbol
 _atom_site_label
 _atom_site_symmetry_multiplicity
 _atom_site_fract_x
 _atom_site_fract_y
 _atom_site_fract_z
 _atom_site_occupancy
  Ac  Ac0  1  0.750050  0.750000  0.000050  1
  Ac  Ac1  1  0.249950  0.250000  0.999950  1
  Ac  Ac2  1  0.334417  0.834413  0.168860  1
  Ac  Ac3  1  0.665583  0.165587  0.831140  1
  Ac  Ac4  1  0.834449  0.665587  0.500004  1
  Ac  Ac5  1  0.165551  0.334413  0.499996  1
  In  In6  1  0.950589  0.450562  0.784556  1
  In  In7  1  0.666037  0.166018  0.215436  1
  In  In8  1  0.450583  0.666018  0.499981  1
  In  In9  1  0.166007  0.950562  0.499973  1
  In  In10  1  0.049411  0.549438  0.215444  1
  In  In11  1  0.333963  0.833982  0.784564  1
  In  In12  1  0.549417  0.333982  0.500019  1
  In  In13  1  0.833993  0.049438  0.500027  1
  Se  Se14  1  0.000000  0.000000  0.000000  1
  Se  Se15  1  0.500000  0.500000  0.000000  1
