# generated using pymatgen
data_Y2Si5Os2Ru
_symmetry_space_group_name_H-M   'P 1'
_cell_length_a   8.22677559
_cell_length_b   8.28816820
_cell_length_c   8.28793547
_cell_angle_alpha   140.08435471
_cell_angle_beta   108.35674360
_cell_angle_gamma   85.40563889
_symmetry_Int_Tables_number   1
_chemical_formula_structural   Y2Si5Os2Ru
_chemical_formula_sum   'Y4 Si10 Os4 Ru2'
_cell_volume   331.84371125
_cell_formula_units_Z   2
loop_
 _symmetry_equiv_pos_site_id
 _symmetry_equiv_pos_as_xyz
  1  'x, y, z'
loop_
 _atom_site_type_symbol
 _atom_site_label
 _atom_site_symmetry_multiplicity
 _atom_site_fract_x
 _atom_site_fract_y
 _atom_site_fract_z
 _atom_site_occupancy
  Y  Y0  1  0.909218  0.139063  0.771195  1
  Y  Y1  1  0.091148  0.862413  0.229867  1
  Y  Y2  1  0.632379  0.367202  0.263832  1
  Y  Y3  1  0.367631  0.631408  0.734603  1
  Si  Si4  1  0.000301  0.750041  0.750143  1
  Si  Si5  1  0.000311  0.249959  0.250006  1
  Si  Si6  1  0.713589  0.472496  0.770676  1
  Si  Si7  1  0.285606  0.058312  0.760098  1
  Si  Si8  1  0.286144  0.526569  0.228617  1
  Si  Si9  1  0.713165  0.943208  0.241417  1
  Si  Si10  1  0.229411  0.401833  0.829514  1
  Si  Si11  1  0.574860  0.908179  0.664492  1
  Si  Si12  1  0.424243  0.089648  0.332356  1
  Si  Si13  1  0.771335  0.599939  0.172779  1
  Os  Os14  1  0.754833  0.856134  0.898372  1
  Os  Os15  1  0.500249  0.251800  0.751752  1
  Os  Os16  1  0.937898  0.349826  0.588437  1
  Os  Os17  1  0.062742  0.650199  0.413090  1
  Ru  Ru18  1  0.244506  0.143424  0.100376  1
  Ru  Ru19  1  0.500433  0.748348  0.248380  1
