# generated using pymatgen
data_Nd16NiHg4Ir3
_symmetry_space_group_name_H-M   'P 1'
_cell_length_a   9.86540816
_cell_length_b   9.94150869
_cell_length_c   9.94150800
_cell_angle_alpha   59.99999564
_cell_angle_beta   59.74449291
_cell_angle_gamma   59.74449128
_symmetry_Int_Tables_number   1
_chemical_formula_structural   Nd16NiHg4Ir3
_chemical_formula_sum   'Nd16 Ni1 Hg4 Ir3'
_cell_volume   686.77823414
_cell_formula_units_Z   1
loop_
 _symmetry_equiv_pos_site_id
 _symmetry_equiv_pos_as_xyz
  1  'x, y, z'
loop_
 _atom_site_type_symbol
 _atom_site_label
 _atom_site_symmetry_multiplicity
 _atom_site_fract_x
 _atom_site_fract_y
 _atom_site_fract_z
 _atom_site_occupancy
  Nd  Nd0  1  0.602594  0.597486  0.597486  1
  Nd  Nd1  1  0.602594  0.597486  0.202435  1
  Nd  Nd2  1  0.602594  0.202435  0.597486  1
  Nd  Nd3  1  0.203860  0.598714  0.598714  1
  Nd  Nd4  1  0.058133  0.440656  0.440656  1
  Nd  Nd5  1  0.439504  0.059558  0.059558  1
  Nd  Nd6  1  0.439504  0.059558  0.441381  1
  Nd  Nd7  1  0.058133  0.440656  0.060556  1
  Nd  Nd8  1  0.439504  0.441381  0.059558  1
  Nd  Nd9  1  0.058133  0.060556  0.440656  1
  Nd  Nd10  1  0.186812  0.811818  0.811818  1
  Nd  Nd11  1  0.809332  0.187384  0.187384  1
  Nd  Nd12  1  0.809332  0.187384  0.815899  1
  Nd  Nd13  1  0.186812  0.811818  0.189551  1
  Nd  Nd14  1  0.809332  0.815899  0.187384  1
  Nd  Nd15  1  0.186812  0.189551  0.811818  1
  Ni  Ni16  1  0.825314  0.391562  0.391562  1
  Hg  Hg17  1  0.832895  0.833204  0.833204  1
  Hg  Hg18  1  0.832895  0.833204  0.500698  1
  Hg  Hg19  1  0.832895  0.500698  0.833204  1
  Hg  Hg20  1  0.500953  0.833016  0.833016  1
  Ir  Ir21  1  0.394022  0.390955  0.390955  1
  Ir  Ir22  1  0.394022  0.390955  0.824068  1
  Ir  Ir23  1  0.394022  0.824068  0.390955  1
