# generated using pymatgen
data_Pr5NdTl3In3O18
_symmetry_space_group_name_H-M   'P 1'
_cell_length_a   6.67993317
_cell_length_b   6.68273387
_cell_length_c   12.58019515
_cell_angle_alpha   89.77248996
_cell_angle_beta   90.15895071
_cell_angle_gamma   120.02172967
_symmetry_Int_Tables_number   1
_chemical_formula_structural   Pr5NdTl3In3O18
_chemical_formula_sum   'Pr5 Nd1 Tl3 In3 O18'
_cell_volume   486.23425810
_cell_formula_units_Z   1
loop_
 _symmetry_equiv_pos_site_id
 _symmetry_equiv_pos_as_xyz
  1  'x, y, z'
loop_
 _atom_site_type_symbol
 _atom_site_label
 _atom_site_symmetry_multiplicity
 _atom_site_fract_x
 _atom_site_fract_y
 _atom_site_fract_z
 _atom_site_occupancy
  Pr  Pr0  1  0.664314  0.328655  0.961064  1
  Pr  Pr1  1  0.336495  0.675657  0.459390  1
  Pr  Pr2  1  0.671088  0.331691  0.459357  1
  Pr  Pr3  1  0.330183  0.672619  0.961080  1
  Pr  Pr4  1  0.995908  0.994398  0.999537  1
  Nd  Nd5  1  0.002212  0.997314  0.495744  1
  Tl  Tl6  1  0.665486  0.666201  0.725601  1
  Tl  Tl7  1  0.000627  0.332797  0.725283  1
  Tl  Tl8  1  0.333494  0.334487  0.227079  1
  In  In9  1  0.999266  0.665500  0.227586  1
  In  In10  1  0.333028  0.001271  0.725770  1
  In  In11  1  0.667559  0.000428  0.227376  1
  O  O12  1  0.688649  0.689565  0.898317  1
  O  O13  1  0.999885  0.307548  0.897903  1
  O  O14  1  0.309572  0.309734  0.395766  1
  O  O15  1  0.999951  0.694151  0.396755  1
  O  O16  1  0.303114  0.000792  0.897448  1
  O  O17  1  0.697038  0.000193  0.396533  1
  O  O18  1  0.644145  0.642862  0.554817  1
  O  O19  1  0.003569  0.356786  0.554392  1
  O  O20  1  0.356664  0.358158  0.059260  1
  O  O21  1  0.998292  0.637504  0.059562  1
  O  O22  1  0.361562  0.002219  0.556203  1
  O  O23  1  0.638352  0.999835  0.059305  1
  O  O24  1  0.013791  0.999034  0.692905  1
  O  O25  1  0.981879  0.981148  0.197956  1
  O  O26  1  0.653275  0.319096  0.754768  1
  O  O27  1  0.333779  0.685724  0.255147  1
  O  O28  1  0.684023  0.332602  0.255071  1
  O  O29  1  0.332803  0.682032  0.754809  1
