# generated using pymatgen
data_Tb4Tm4Hf9Si16Mo3
_symmetry_space_group_name_H-M   'P 1'
_cell_length_a   7.18380202
_cell_length_b   7.18085370
_cell_length_c   13.12949713
_cell_angle_alpha   90.07274737
_cell_angle_beta   90.06586509
_cell_angle_gamma   90.07373397
_symmetry_Int_Tables_number   1
_chemical_formula_structural   Tb4Tm4Hf9Si16Mo3
_chemical_formula_sum   'Tb4 Tm4 Hf9 Si16 Mo3'
_cell_volume   677.29446842
_cell_formula_units_Z   1
loop_
 _symmetry_equiv_pos_site_id
 _symmetry_equiv_pos_as_xyz
  1  'x, y, z'
loop_
 _atom_site_type_symbol
 _atom_site_label
 _atom_site_symmetry_multiplicity
 _atom_site_fract_x
 _atom_site_fract_y
 _atom_site_fract_z
 _atom_site_occupancy
  Tb  Tb0  1  0.846484  0.502409  0.967950  1
  Tb  Tb1  1  0.497724  0.153916  0.532126  1
  Tb  Tb2  1  0.343432  0.995590  0.785367  1
  Tb  Tb3  1  0.655804  0.001366  0.284394  1
  Tm  Tm4  1  0.000440  0.345062  0.215247  1
  Tm  Tm5  1  0.002727  0.655793  0.714251  1
  Tm  Tm6  1  0.153852  0.501049  0.463760  1
  Tm  Tm7  1  0.498778  0.845858  0.036281  1
  Hf  Hf8  1  0.676337  0.324681  0.749970  1
  Hf  Hf9  1  0.145380  0.992865  0.373390  1
  Hf  Hf10  1  0.855639  0.004259  0.876925  1
  Hf  Hf11  1  0.505761  0.648330  0.621295  1
  Hf  Hf12  1  0.351304  0.494784  0.878674  1
  Hf  Hf13  1  0.492977  0.353680  0.125775  1
  Hf  Hf14  1  0.646637  0.506486  0.374066  1
  Hf  Hf15  1  0.996189  0.144529  0.622987  1
  Hf  Hf16  1  0.006716  0.854455  0.126498  1
  Si  Si17  1  0.358066  0.298254  0.317432  1
  Si  Si18  1  0.639588  0.705065  0.817281  1
  Si  Si19  1  0.202610  0.858650  0.566302  1
  Si  Si20  1  0.139704  0.795524  0.934346  1
  Si  Si21  1  0.796043  0.138704  0.068516  1
  Si  Si22  1  0.863106  0.205901  0.432086  1
  Si  Si23  1  0.293282  0.363097  0.682220  1
  Si  Si24  1  0.703527  0.639244  0.181996  1
  Si  Si25  1  0.295708  0.051864  0.183806  1
  Si  Si26  1  0.705846  0.946335  0.682488  1
  Si  Si27  1  0.446675  0.794094  0.432372  1
  Si  Si28  1  0.204505  0.551763  0.068174  1
  Si  Si29  1  0.548153  0.201700  0.936591  1
  Si  Si30  1  0.799536  0.453372  0.563930  1
  Si  Si31  1  0.052396  0.296617  0.817013  1
  Si  Si32  1  0.949823  0.701712  0.315751  1
  Mo  Mo33  1  0.176982  0.175679  0.002000  1
  Mo  Mo34  1  0.825437  0.821857  0.498749  1
  Mo  Mo35  1  0.322831  0.675453  0.249992  1
