# generated using pymatgen
data_Yb2Y4Si5GeIr12
_symmetry_space_group_name_H-M   'P 1'
_cell_length_a   5.58060000
_cell_length_b   5.58060105
_cell_length_c   15.24646500
_cell_angle_alpha   90.00000000
_cell_angle_beta   90.00000000
_cell_angle_gamma   120.00000565
_symmetry_Int_Tables_number   1
_chemical_formula_structural   Yb2Y4Si5GeIr12
_chemical_formula_sum   'Yb2 Y4 Si5 Ge1 Ir12'
_cell_volume   411.20807943
_cell_formula_units_Z   1
loop_
 _symmetry_equiv_pos_site_id
 _symmetry_equiv_pos_as_xyz
  1  'x, y, z'
loop_
 _atom_site_type_symbol
 _atom_site_label
 _atom_site_symmetry_multiplicity
 _atom_site_fract_x
 _atom_site_fract_y
 _atom_site_fract_z
 _atom_site_occupancy
  Yb  Yb0  1  0.333333  0.666667  0.749666  1
  Yb  Yb1  1  0.666667  0.333333  0.250334  1
  Y  Y2  1  0.333333  0.666667  0.542952  1
  Y  Y3  1  0.666667  0.333333  0.457048  1
  Y  Y4  1  0.666667  0.333333  0.043555  1
  Y  Y5  1  0.333333  0.666667  0.956445  1
  Si  Si6  1  0.000000  0.000000  0.250952  1
  Si  Si7  1  0.000000  0.000000  0.749048  1
  Si  Si8  1  0.333333  0.666667  0.251355  1
  Si  Si9  1  0.666667  0.333333  0.748645  1
  Si  Si10  1  0.000000  0.000000  0.500000  1
  Ge  Ge11  1  0.000000  0.000000  0.000000  1
  Ir  Ir12  1  0.168481  0.336962  0.132505  1
  Ir  Ir13  1  0.831519  0.663038  0.867495  1
  Ir  Ir14  1  0.663038  0.831519  0.132505  1
  Ir  Ir15  1  0.832461  0.664922  0.629217  1
  Ir  Ir16  1  0.336962  0.168481  0.867495  1
  Ir  Ir17  1  0.167539  0.335078  0.370783  1
  Ir  Ir18  1  0.168481  0.831519  0.132505  1
  Ir  Ir19  1  0.335078  0.167539  0.629217  1
  Ir  Ir20  1  0.831519  0.168481  0.867495  1
  Ir  Ir21  1  0.664922  0.832461  0.370783  1
  Ir  Ir22  1  0.832461  0.167539  0.629217  1
  Ir  Ir23  1  0.167539  0.832461  0.370783  1
