# generated using pymatgen
data_Lu5Si6P6Ir10Rh9
_symmetry_space_group_name_H-M   'P 1'
_cell_length_a   12.76044700
_cell_length_b   12.76044615
_cell_length_c   3.90890800
_cell_angle_alpha   90.00000000
_cell_angle_beta   90.00000000
_cell_angle_gamma   120.00000479
_symmetry_Int_Tables_number   1
_chemical_formula_structural   Lu5Si6P6Ir10Rh9
_chemical_formula_sum   'Lu5 Si6 P6 Ir10 Rh9'
_cell_volume   551.21091274
_cell_formula_units_Z   1
loop_
 _symmetry_equiv_pos_site_id
 _symmetry_equiv_pos_as_xyz
  1  'x, y, z'
loop_
 _atom_site_type_symbol
 _atom_site_label
 _atom_site_symmetry_multiplicity
 _atom_site_fract_x
 _atom_site_fract_y
 _atom_site_fract_z
 _atom_site_occupancy
  Lu  Lu0  1  0.666667  0.333333  0.000000  1
  Lu  Lu1  1  0.333333  0.666667  0.000000  1
  Lu  Lu2  1  0.818222  0.815437  0.500000  1
  Lu  Lu3  1  0.184563  0.002786  0.500000  1
  Lu  Lu4  1  0.997214  0.181778  0.500000  1
  Si  Si5  1  0.681790  0.161836  0.500000  1
  Si  Si6  1  0.838164  0.519954  0.500000  1
  Si  Si7  1  0.480046  0.318210  0.500000  1
  Si  Si8  1  0.634177  0.633165  0.000000  1
  Si  Si9  1  0.366835  0.001013  0.000000  1
  Si  Si10  1  0.998987  0.365823  0.000000  1
  P  P11  1  0.175064  0.691542  0.500000  1
  P  P12  1  0.516478  0.824936  0.500000  1
  P  P13  1  0.308458  0.483522  0.500000  1
  P  P14  1  0.176183  0.180789  0.000000  1
  P  P15  1  0.819211  0.995393  0.000000  1
  P  P16  1  0.004607  0.823817  0.000000  1
  Ir  Ir17  1  0.274376  0.281246  0.500000  1
  Ir  Ir18  1  0.718754  0.993130  0.500000  1
  Ir  Ir19  1  0.006870  0.725624  0.500000  1
  Ir  Ir20  1  0.869391  0.352945  0.500000  1
  Ir  Ir21  1  0.647055  0.516447  0.500000  1
  Ir  Ir22  1  0.483553  0.130609  0.500000  1
  Ir  Ir23  1  0.365554  0.871554  0.500000  1
  Ir  Ir24  1  0.506002  0.634446  0.500000  1
  Ir  Ir25  1  0.128446  0.493998  0.500000  1
  Ir  Ir26  1  0.000000  0.000000  0.000000  1
  Rh  Rh27  1  0.810310  0.176015  0.000000  1
  Rh  Rh28  1  0.823985  0.634295  0.000000  1
  Rh  Rh29  1  0.365705  0.189690  0.000000  1
  Rh  Rh30  1  0.183592  0.803195  0.000000  1
  Rh  Rh31  1  0.619605  0.816408  0.000000  1
  Rh  Rh32  1  0.196805  0.380395  0.000000  1
  Rh  Rh33  1  0.455664  0.442776  0.000000  1
  Rh  Rh34  1  0.557224  0.012889  0.000000  1
  Rh  Rh35  1  0.987111  0.544336  0.000000  1
