# generated using pymatgen
data_Li2HfSc3Ir2
_symmetry_space_group_name_H-M   'P 1'
_cell_length_a   4.65330100
_cell_length_b   6.60120184
_cell_length_c   13.70455885
_cell_angle_alpha   90.08563286
_cell_angle_beta   89.99553838
_cell_angle_gamma   89.99995098
_symmetry_Int_Tables_number   1
_chemical_formula_structural   Li2HfSc3Ir2
_chemical_formula_sum   'Li6 Hf3 Sc9 Ir6'
_cell_volume   420.96765859
_cell_formula_units_Z   3
loop_
 _symmetry_equiv_pos_site_id
 _symmetry_equiv_pos_as_xyz
  1  'x, y, z'
loop_
 _atom_site_type_symbol
 _atom_site_label
 _atom_site_symmetry_multiplicity
 _atom_site_fract_x
 _atom_site_fract_y
 _atom_site_fract_z
 _atom_site_occupancy
  Li  Li0  1  0.999999  0.999175  0.999657  1
  Li  Li1  1  0.499406  0.501456  0.167395  1
  Li  Li2  1  0.999385  0.999154  0.333682  1
  Li  Li3  1  0.500003  0.500088  0.499899  1
  Li  Li4  1  0.000615  0.999903  0.666839  1
  Li  Li5  1  0.500608  0.500195  0.832503  1
  Hf  Hf6  1  0.499994  0.248981  0.999010  1
  Hf  Hf7  1  0.500000  0.751702  0.999518  1
  Hf  Hf8  1  0.999600  0.252314  0.168070  1
  Sc  Sc9  1  0.999588  0.748641  0.168252  1
  Sc  Sc10  1  0.499575  0.249134  0.335093  1
  Sc  Sc11  1  0.499575  0.750592  0.334833  1
  Sc  Sc12  1  0.000002  0.250984  0.500605  1
  Sc  Sc13  1  0.999993  0.748655  0.500263  1
  Sc  Sc14  1  0.500430  0.249202  0.665885  1
  Sc  Sc15  1  0.500434  0.751115  0.665853  1
  Sc  Sc16  1  0.000405  0.250788  0.831234  1
  Sc  Sc17  1  0.000409  0.748648  0.831449  1
  Ir  Ir18  1  0.999983  0.495710  0.003662  1
  Ir  Ir19  1  0.499583  0.009582  0.159424  1
  Ir  Ir20  1  0.999546  0.495138  0.329521  1
  Ir  Ir21  1  0.499992  0.999497  0.499829  1
  Ir  Ir22  1  0.000461  0.500230  0.666923  1
  Ir  Ir23  1  0.500413  0.999119  0.840599  1
