# generated using pymatgen
data_K2AlCo5O12
_symmetry_space_group_name_H-M   'P 1'
_cell_length_a   4.92278500
_cell_length_b   6.66709549
_cell_length_c   8.48689800
_cell_angle_alpha   90.00045547
_cell_angle_beta   90.00043064
_cell_angle_gamma   76.02544783
_symmetry_Int_Tables_number   1
_chemical_formula_structural   K2AlCo5O12
_chemical_formula_sum   'K2 Al1 Co5 O12'
_cell_volume   270.30164768
_cell_formula_units_Z   1
loop_
 _symmetry_equiv_pos_site_id
 _symmetry_equiv_pos_as_xyz
  1  'x, y, z'
loop_
 _atom_site_type_symbol
 _atom_site_label
 _atom_site_symmetry_multiplicity
 _atom_site_fract_x
 _atom_site_fract_y
 _atom_site_fract_z
 _atom_site_occupancy
  K  K0  1  0.999988  0.500002  0.173029  1
  K  K1  1  0.500001  0.500003  0.660996  1
  Al  Al2  1  0.499998  0.000001  0.166569  1
  Co  Co3  1  0.500001  0.000000  0.833792  1
  Co  Co4  1  0.500001  0.999999  0.499618  1
  Co  Co5  1  0.000003  0.999999  0.666651  1
  Co  Co6  1  0.000001  0.000000  0.333663  1
  Co  Co7  1  0.000000  0.000000  0.999516  1
  O  O8  1  0.787134  0.149732  0.166742  1
  O  O9  1  0.287811  0.148749  0.666574  1
  O  O10  1  0.212863  0.850269  0.166741  1
  O  O11  1  0.712195  0.851249  0.666574  1
  O  O12  1  0.282170  0.149685  0.998866  1
  O  O13  1  0.782907  0.149648  0.498769  1
  O  O14  1  0.282300  0.149625  0.334490  1
  O  O15  1  0.782963  0.149509  0.834313  1
  O  O16  1  0.717697  0.850376  0.334487  1
  O  O17  1  0.217040  0.850491  0.834313  1
  O  O18  1  0.717830  0.850314  0.998865  1
  O  O19  1  0.217097  0.850350  0.498767  1
