# generated using pymatgen
data_Eu2Zn2IrAu
_symmetry_space_group_name_H-M   'P 1'
_cell_length_a   4.56844900
_cell_length_b   7.38546500
_cell_length_c   7.81045800
_cell_angle_alpha   90.00056538
_cell_angle_beta   90.00000000
_cell_angle_gamma   90.00000000
_symmetry_Int_Tables_number   1
_chemical_formula_structural   Eu2Zn2IrAu
_chemical_formula_sum   'Eu4 Zn4 Ir2 Au2'
_cell_volume   263.52579168
_cell_formula_units_Z   2
loop_
 _symmetry_equiv_pos_site_id
 _symmetry_equiv_pos_as_xyz
  1  'x, y, z'
loop_
 _atom_site_type_symbol
 _atom_site_label
 _atom_site_symmetry_multiplicity
 _atom_site_fract_x
 _atom_site_fract_y
 _atom_site_fract_z
 _atom_site_occupancy
  Eu  Eu0  1  0.250000  0.011315  0.307008  1
  Eu  Eu1  1  0.250000  0.511315  0.192998  1
  Eu  Eu2  1  0.750000  0.994308  0.703222  1
  Eu  Eu3  1  0.750000  0.494327  0.796775  1
  Zn  Zn4  1  0.250000  0.667091  0.594567  1
  Zn  Zn5  1  0.250000  0.167102  0.905448  1
  Zn  Zn6  1  0.750000  0.318689  0.431705  1
  Zn  Zn7  1  0.750000  0.818677  0.068296  1
  Ir  Ir8  1  0.250000  0.298599  0.592503  1
  Ir  Ir9  1  0.250000  0.798655  0.907476  1
  Au  Au10  1  0.750000  0.709965  0.406029  1
  Au  Au11  1  0.750000  0.209956  0.093973  1
