# generated using pymatgen
data_La3Tb2(Sn5Rh2)2
_symmetry_space_group_name_H-M   'P 1'
_cell_length_a   14.25867800
_cell_length_b   14.25867800
_cell_length_c   4.61416700
_cell_angle_alpha   90.00000000
_cell_angle_beta   90.00000000
_cell_angle_gamma   90.00000000
_symmetry_Int_Tables_number   1
_chemical_formula_structural   La3Tb2(Sn5Rh2)2
_chemical_formula_sum   'La6 Tb4 Sn20 Rh8'
_cell_volume   938.10582354
_cell_formula_units_Z   2
loop_
 _symmetry_equiv_pos_site_id
 _symmetry_equiv_pos_as_xyz
  1  'x, y, z'
loop_
 _atom_site_type_symbol
 _atom_site_label
 _atom_site_symmetry_multiplicity
 _atom_site_fract_x
 _atom_site_fract_y
 _atom_site_fract_z
 _atom_site_occupancy
  La  La0  1  0.500000  0.500000  0.000000  1
  La  La1  1  0.000000  0.000000  0.000000  1
  La  La2  1  0.888182  0.388182  0.500000  1
  La  La3  1  0.111818  0.611818  0.500000  1
  La  La4  1  0.388182  0.111818  0.500000  1
  La  La5  1  0.611818  0.888182  0.500000  1
  Tb  Tb6  1  0.676924  0.176924  0.500000  1
  Tb  Tb7  1  0.323076  0.823076  0.500000  1
  Tb  Tb8  1  0.176924  0.323076  0.500000  1
  Tb  Tb9  1  0.823076  0.676924  0.500000  1
  Sn  Sn10  1  0.570293  0.070293  0.000000  1
  Sn  Sn11  1  0.429707  0.929707  0.000000  1
  Sn  Sn12  1  0.070293  0.429707  0.000000  1
  Sn  Sn13  1  0.929707  0.570293  0.000000  1
  Sn  Sn14  1  0.654561  0.697819  0.000000  1
  Sn  Sn15  1  0.345439  0.302181  0.000000  1
  Sn  Sn16  1  0.154561  0.802181  0.000000  1
  Sn  Sn17  1  0.845439  0.197819  0.000000  1
  Sn  Sn18  1  0.302181  0.654561  0.000000  1
  Sn  Sn19  1  0.697819  0.345439  0.000000  1
  Sn  Sn20  1  0.197819  0.154561  0.000000  1
  Sn  Sn21  1  0.802181  0.845439  0.000000  1
  Sn  Sn22  1  0.664270  0.506060  0.500000  1
  Sn  Sn23  1  0.335730  0.493940  0.500000  1
  Sn  Sn24  1  0.164270  0.993940  0.500000  1
  Sn  Sn25  1  0.835730  0.006060  0.500000  1
  Sn  Sn26  1  0.493940  0.664270  0.500000  1
  Sn  Sn27  1  0.506060  0.335730  0.500000  1
  Sn  Sn28  1  0.006060  0.164270  0.500000  1
  Sn  Sn29  1  0.993940  0.835730  0.500000  1
  Rh  Rh30  1  0.747131  0.529182  0.000000  1
  Rh  Rh31  1  0.252869  0.470818  0.000000  1
  Rh  Rh32  1  0.247131  0.970818  0.000000  1
  Rh  Rh33  1  0.752869  0.029182  0.000000  1
  Rh  Rh34  1  0.470818  0.747131  0.000000  1
  Rh  Rh35  1  0.529182  0.252869  0.000000  1
  Rh  Rh36  1  0.029182  0.247131  0.000000  1
  Rh  Rh37  1  0.970818  0.752869  0.000000  1
