# generated using pymatgen
data_Rb8Ce3PtBr24
_symmetry_space_group_name_H-M   'P 1'
_cell_length_a   13.61991585
_cell_length_b   13.61991472
_cell_length_c   13.61991574
_cell_angle_alpha   131.95579820
_cell_angle_beta   131.95579937
_cell_angle_gamma   70.29884848
_symmetry_Int_Tables_number   1
_chemical_formula_structural   Rb8Ce3PtBr24
_chemical_formula_sum   'Rb8 Ce3 Pt1 Br24'
_cell_volume   1369.40274627
_cell_formula_units_Z   1
loop_
 _symmetry_equiv_pos_site_id
 _symmetry_equiv_pos_as_xyz
  1  'x, y, z'
loop_
 _atom_site_type_symbol
 _atom_site_label
 _atom_site_symmetry_multiplicity
 _atom_site_fract_x
 _atom_site_fract_y
 _atom_site_fract_z
 _atom_site_occupancy
  Rb  Rb0  1  0.369101  0.370802  0.492046  1
  Rb  Rb1  1  0.122945  0.630899  0.001700  1
  Rb  Rb2  1  0.878756  0.877055  0.507954  1
  Rb  Rb3  1  0.125014  0.124511  0.493470  1
  Rb  Rb4  1  0.368457  0.874986  0.999495  1
  Rb  Rb5  1  0.631040  0.631543  0.506530  1
  Rb  Rb6  1  0.629198  0.121244  0.998300  1
  Rb  Rb7  1  0.875489  0.368960  0.000505  1
  Ce  Ce8  1  0.250000  0.750000  0.500000  1
  Ce  Ce9  1  0.500000  0.500000  0.000000  1
  Ce  Ce10  1  0.750000  0.250000  0.500000  1
  Pt  Pt11  1  0.000000  0.000000  0.000000  1
  Br  Br12  1  0.002362  0.785566  0.285167  1
  Br  Br13  1  0.021400  0.225157  0.246738  1
  Br  Br14  1  0.282805  0.997638  0.783204  1
  Br  Br15  1  0.998942  0.219566  0.720490  1
  Br  Br16  1  0.124272  0.624272  0.500000  1
  Br  Br17  1  0.248896  0.528699  0.779082  1
  Br  Br18  1  0.500399  0.717195  0.714833  1
  Br  Br19  1  0.499076  0.278451  0.279510  1
  Br  Br20  1  0.471301  0.250383  0.720196  1
  Br  Br21  1  0.624951  0.624951  0.000000  1
  Br  Br22  1  0.530187  0.751104  0.279804  1
  Br  Br23  1  0.112824  0.112824  0.000000  1
  Br  Br24  1  0.887176  0.887176  0.000000  1
  Br  Br25  1  0.978419  0.774662  0.753262  1
  Br  Br26  1  0.774843  0.021581  0.796242  1
  Br  Br27  1  0.225338  0.978600  0.203758  1
  Br  Br28  1  0.749617  0.469813  0.220918  1
  Br  Br29  1  0.214434  0.499601  0.216796  1
  Br  Br30  1  0.375728  0.875728  0.500000  1
  Br  Br31  1  0.875690  0.375690  0.500000  1
  Br  Br32  1  0.375049  0.375049  0.000000  1
  Br  Br33  1  0.624310  0.124310  0.500000  1
  Br  Br34  1  0.780434  0.500924  0.779376  1
  Br  Br35  1  0.721549  0.001058  0.220624  1
