# generated using pymatgen
data_TbCe3LuIr3
_symmetry_space_group_name_H-M   'P 1'
_cell_length_a   6.51649500
_cell_length_b   8.19664378
_cell_length_c   8.19407107
_cell_angle_alpha   120.01039287
_cell_angle_beta   90.00101532
_cell_angle_gamma   89.99797135
_symmetry_Int_Tables_number   1
_chemical_formula_structural   TbCe3LuIr3
_chemical_formula_sum   'Tb2 Ce6 Lu2 Ir6'
_cell_volume   378.99632114
_cell_formula_units_Z   2
loop_
 _symmetry_equiv_pos_site_id
 _symmetry_equiv_pos_as_xyz
  1  'x, y, z'
loop_
 _atom_site_type_symbol
 _atom_site_label
 _atom_site_symmetry_multiplicity
 _atom_site_fract_x
 _atom_site_fract_y
 _atom_site_fract_z
 _atom_site_occupancy
  Tb  Tb0  1  0.500032  0.333318  0.666550  1
  Tb  Tb1  1  0.500032  0.666768  0.333450  1
  Ce  Ce2  1  0.753733  0.254565  0.000000  1
  Ce  Ce3  1  0.753983  0.745205  0.745313  1
  Ce  Ce4  1  0.753983  0.999892  0.254687  1
  Ce  Ce5  1  0.246175  0.745331  0.000000  1
  Ce  Ce6  1  0.246032  0.254827  0.254780  1
  Ce  Ce7  1  0.246032  0.000047  0.745220  1
  Lu  Lu8  1  0.000014  0.666725  0.333392  1
  Lu  Lu9  1  0.000014  0.333333  0.666608  1
  Ir  Ir10  1  0.762285  0.616733  0.000000  1
  Ir  Ir11  1  0.762266  0.383253  0.383283  1
  Ir  Ir12  1  0.762266  0.999970  0.616717  1
  Ir  Ir13  1  0.237711  0.383204  0.000000  1
  Ir  Ir14  1  0.237721  0.616783  0.616737  1
  Ir  Ir15  1  0.237721  0.000046  0.383263  1
