# generated using pymatgen
data_Ho6Al24Fe5Pd3
_symmetry_space_group_name_H-M   'P 1'
_cell_length_a   8.72410327
_cell_length_b   8.74223080
_cell_length_c   9.36920328
_cell_angle_alpha   89.98889889
_cell_angle_beta   89.95435982
_cell_angle_gamma   119.81845466
_symmetry_Int_Tables_number   1
_chemical_formula_structural   Ho6Al24Fe5Pd3
_chemical_formula_sum   'Ho6 Al24 Fe5 Pd3'
_cell_volume   619.96575872
_cell_formula_units_Z   1
loop_
 _symmetry_equiv_pos_site_id
 _symmetry_equiv_pos_as_xyz
  1  'x, y, z'
loop_
 _atom_site_type_symbol
 _atom_site_label
 _atom_site_symmetry_multiplicity
 _atom_site_fract_x
 _atom_site_fract_y
 _atom_site_fract_z
 _atom_site_occupancy
  Ho  Ho0  1  0.189673  0.384829  0.251580  1
  Ho  Ho1  1  0.810327  0.615171  0.748420  1
  Ho  Ho2  1  0.613077  0.811455  0.254136  1
  Ho  Ho3  1  0.386923  0.188545  0.745864  1
  Ho  Ho4  1  0.195445  0.808301  0.251538  1
  Ho  Ho5  1  0.804555  0.191699  0.748462  1
  Al  Al6  1  0.339676  0.678857  0.021263  1
  Al  Al7  1  0.660324  0.321143  0.978737  1
  Al  Al8  1  0.672670  0.328500  0.519743  1
  Al  Al9  1  0.327330  0.671500  0.480257  1
  Al  Al10  1  0.152326  0.319675  0.575812  1
  Al  Al11  1  0.847674  0.680325  0.424188  1
  Al  Al12  1  0.678730  0.846963  0.576431  1
  Al  Al13  1  0.841659  0.684108  0.079753  1
  Al  Al14  1  0.321270  0.153037  0.423569  1
  Al  Al15  1  0.158341  0.315892  0.920247  1
  Al  Al16  1  0.162360  0.838325  0.575366  1
  Al  Al17  1  0.319820  0.152316  0.077001  1
  Al  Al18  1  0.837640  0.161675  0.424634  1
  Al  Al19  1  0.680180  0.847684  0.922999  1
  Al  Al20  1  0.831876  0.153186  0.078322  1
  Al  Al21  1  0.168124  0.846814  0.921678  1
  Al  Al22  1  0.558700  0.118225  0.250126  1
  Al  Al23  1  0.441300  0.881775  0.749874  1
  Al  Al24  1  0.878169  0.439288  0.258320  1
  Al  Al25  1  0.121831  0.560712  0.741680  1
  Al  Al26  1  0.563261  0.436430  0.249990  1
  Al  Al27  1  0.436739  0.563570  0.750010  1
  Al  Al28  1  0.999431  0.001696  0.250491  1
  Al  Al29  1  0.000569  0.998304  0.749509  1
  Fe  Fe30  1  0.500000  0.000000  0.000000  1
  Fe  Fe31  1  0.500000  0.000000  0.500000  1
  Fe  Fe32  1  0.000000  0.500000  0.500000  1
  Fe  Fe33  1  0.000000  0.000000  0.000000  1
  Fe  Fe34  1  0.000000  0.000000  0.500000  1
  Pd  Pd35  1  0.000000  0.500000  0.000000  1
  Pd  Pd36  1  0.500000  0.500000  0.000000  1
  Pd  Pd37  1  0.500000  0.500000  0.500000  1
