# generated using pymatgen
data_Nd6NbCr(Co4P3)4
_symmetry_space_group_name_H-M   'P 1'
_cell_length_a   3.77402500
_cell_length_b   10.74648700
_cell_length_c   12.47885600
_cell_angle_alpha   90.00000000
_cell_angle_beta   90.00000000
_cell_angle_gamma   90.00000000
_symmetry_Int_Tables_number   1
_chemical_formula_structural   Nd6NbCr(Co4P3)4
_chemical_formula_sum   'Nd6 Nb1 Cr1 Co16 P12'
_cell_volume   506.11133450
_cell_formula_units_Z   1
loop_
 _symmetry_equiv_pos_site_id
 _symmetry_equiv_pos_as_xyz
  1  'x, y, z'
loop_
 _atom_site_type_symbol
 _atom_site_label
 _atom_site_symmetry_multiplicity
 _atom_site_fract_x
 _atom_site_fract_y
 _atom_site_fract_z
 _atom_site_occupancy
  Nd  Nd0  1  0.000000  0.500000  0.521778  1
  Nd  Nd1  1  0.500000  0.000000  0.473966  1
  Nd  Nd2  1  0.500000  0.817184  0.204637  1
  Nd  Nd3  1  0.500000  0.182816  0.204637  1
  Nd  Nd4  1  0.000000  0.680345  0.794373  1
  Nd  Nd5  1  0.000000  0.319655  0.794373  1
  Nb  Nb6  1  0.000000  0.000000  0.847505  1
  Cr  Cr7  1  0.500000  0.500000  0.155687  1
  Co  Co8  1  0.500000  0.500000  0.703541  1
  Co  Co9  1  0.000000  0.000000  0.296666  1
  Co  Co10  1  0.000000  0.500000  0.989263  1
  Co  Co11  1  0.500000  0.000000  0.014477  1
  Co  Co12  1  0.500000  0.335874  0.996150  1
  Co  Co13  1  0.500000  0.664126  0.996150  1
  Co  Co14  1  0.000000  0.170177  0.009808  1
  Co  Co15  1  0.000000  0.829823  0.009808  1
  Co  Co16  1  0.500000  0.296700  0.429842  1
  Co  Co17  1  0.500000  0.703300  0.429842  1
  Co  Co18  1  0.000000  0.205307  0.567330  1
  Co  Co19  1  0.000000  0.794693  0.567330  1
  Co  Co20  1  0.500000  0.879486  0.705548  1
  Co  Co21  1  0.500000  0.120514  0.705548  1
  Co  Co22  1  0.000000  0.618006  0.290213  1
  Co  Co23  1  0.000000  0.381994  0.290213  1
  P  P24  1  0.500000  0.500000  0.886850  1
  P  P25  1  0.000000  0.000000  0.115065  1
  P  P26  1  0.500000  0.500000  0.339265  1
  P  P27  1  0.000000  0.000000  0.649556  1
  P  P28  1  0.500000  0.307741  0.612907  1
  P  P29  1  0.500000  0.692259  0.612907  1
  P  P30  1  0.000000  0.194379  0.384632  1
  P  P31  1  0.000000  0.805621  0.384632  1
  P  P32  1  0.500000  0.841600  0.899991  1
  P  P33  1  0.500000  0.158400  0.899991  1
  P  P34  1  0.000000  0.648277  0.107760  1
  P  P35  1  0.000000  0.351723  0.107760  1
