# generated using pymatgen
data_Lu5P12Ir4Ru15
_symmetry_space_group_name_H-M   'P 1'
_cell_length_a   12.51555700
_cell_length_b   12.51555699
_cell_length_c   3.95638400
_cell_angle_alpha   90.00000000
_cell_angle_beta   90.00000000
_cell_angle_gamma   120.00000268
_symmetry_Int_Tables_number   1
_chemical_formula_structural   Lu5P12Ir4Ru15
_chemical_formula_sum   'Lu5 P12 Ir4 Ru15'
_cell_volume   536.69731343
_cell_formula_units_Z   1
loop_
 _symmetry_equiv_pos_site_id
 _symmetry_equiv_pos_as_xyz
  1  'x, y, z'
loop_
 _atom_site_type_symbol
 _atom_site_label
 _atom_site_symmetry_multiplicity
 _atom_site_fract_x
 _atom_site_fract_y
 _atom_site_fract_z
 _atom_site_occupancy
  Lu  Lu0  1  0.333333  0.666667  0.000000  1
  Lu  Lu1  1  0.666667  0.333333  0.000000  1
  Lu  Lu2  1  0.813582  0.999838  0.500000  1
  Lu  Lu3  1  0.000162  0.813743  0.500000  1
  Lu  Lu4  1  0.186257  0.186418  0.500000  1
  P  P5  1  0.181237  0.996697  0.000000  1
  P  P6  1  0.003303  0.184539  0.000000  1
  P  P7  1  0.815461  0.818763  0.000000  1
  P  P8  1  0.171965  0.479055  0.500000  1
  P  P9  1  0.520945  0.692910  0.500000  1
  P  P10  1  0.307090  0.828035  0.500000  1
  P  P11  1  0.687785  0.518651  0.500000  1
  P  P12  1  0.830865  0.312215  0.500000  1
  P  P13  1  0.481349  0.169135  0.500000  1
  P  P14  1  0.626686  0.995838  0.000000  1
  P  P15  1  0.004162  0.630846  0.000000  1
  P  P16  1  0.369154  0.373314  0.000000  1
  Ir  Ir17  1  0.813519  0.628226  0.000000  1
  Ir  Ir18  1  0.814707  0.186481  0.000000  1
  Ir  Ir19  1  0.371774  0.185293  0.000000  1
  Ir  Ir20  1  0.000000  0.000000  0.000000  1
  Ru  Ru21  1  0.449770  0.006275  0.000000  1
  Ru  Ru22  1  0.993725  0.443495  0.000000  1
  Ru  Ru23  1  0.556505  0.550230  0.000000  1
  Ru  Ru24  1  0.365847  0.491345  0.500000  1
  Ru  Ru25  1  0.508655  0.874502  0.500000  1
  Ru  Ru26  1  0.125498  0.634153  0.500000  1
  Ru  Ru27  1  0.869377  0.508844  0.500000  1
  Ru  Ru28  1  0.639465  0.130623  0.500000  1
  Ru  Ru29  1  0.491156  0.360535  0.500000  1
  Ru  Ru30  1  0.182973  0.377610  0.000000  1
  Ru  Ru31  1  0.622390  0.805363  0.000000  1
  Ru  Ru32  1  0.194637  0.817027  0.000000  1
  Ru  Ru33  1  0.283220  0.001812  0.500000  1
  Ru  Ru34  1  0.998188  0.281408  0.500000  1
  Ru  Ru35  1  0.718592  0.716780  0.500000  1
