# generated using pymatgen
data_CeEr5(Al3Os)8
_symmetry_space_group_name_H-M   'P 1'
_cell_length_a   8.83589800
_cell_length_b   8.81418429
_cell_length_c   9.55079000
_cell_angle_alpha   90.00000000
_cell_angle_beta   90.00000000
_cell_angle_gamma   120.08152531
_symmetry_Int_Tables_number   1
_chemical_formula_structural   CeEr5(Al3Os)8
_chemical_formula_sum   'Ce1 Er5 Al24 Os8'
_cell_volume   643.64349964
_cell_formula_units_Z   1
loop_
 _symmetry_equiv_pos_site_id
 _symmetry_equiv_pos_as_xyz
  1  'x, y, z'
loop_
 _atom_site_type_symbol
 _atom_site_label
 _atom_site_symmetry_multiplicity
 _atom_site_fract_x
 _atom_site_fract_y
 _atom_site_fract_z
 _atom_site_occupancy
  Ce  Ce0  1  0.194245  0.388490  0.250000  1
  Er  Er1  1  0.808409  0.616819  0.750000  1
  Er  Er2  1  0.608835  0.801601  0.250000  1
  Er  Er3  1  0.388162  0.193673  0.750000  1
  Er  Er4  1  0.192767  0.801601  0.250000  1
  Er  Er5  1  0.805511  0.193673  0.750000  1
  Al  Al6  1  0.334705  0.669410  0.016271  1
  Al  Al7  1  0.667546  0.335091  0.982488  1
  Al  Al8  1  0.667546  0.335091  0.517512  1
  Al  Al9  1  0.334705  0.669410  0.483729  1
  Al  Al10  1  0.162763  0.325527  0.578226  1
  Al  Al11  1  0.836999  0.673999  0.424831  1
  Al  Al12  1  0.675134  0.837752  0.576354  1
  Al  Al13  1  0.836999  0.673999  0.075169  1
  Al  Al14  1  0.325823  0.161209  0.423979  1
  Al  Al15  1  0.162763  0.325527  0.921774  1
  Al  Al16  1  0.162619  0.837752  0.576354  1
  Al  Al17  1  0.325823  0.161209  0.076021  1
  Al  Al18  1  0.835386  0.161209  0.423979  1
  Al  Al19  1  0.675134  0.837752  0.923646  1
  Al  Al20  1  0.835386  0.161209  0.076021  1
  Al  Al21  1  0.162619  0.837752  0.923646  1
  Al  Al22  1  0.559637  0.119274  0.250000  1
  Al  Al23  1  0.439424  0.878848  0.750000  1
  Al  Al24  1  0.874635  0.437487  0.250000  1
  Al  Al25  1  0.119409  0.560072  0.750000  1
  Al  Al26  1  0.562851  0.437487  0.250000  1
  Al  Al27  1  0.440663  0.560072  0.750000  1
  Al  Al28  1  0.997854  0.995708  0.250000  1
  Al  Al29  1  0.001936  0.003871  0.750000  1
  Os  Os30  1  0.501205  0.002410  0.997637  1
  Os  Os31  1  0.000427  0.500876  0.000713  1
  Os  Os32  1  0.501205  0.002410  0.502363  1
  Os  Os33  1  0.500448  0.500876  0.000713  1
  Os  Os34  1  0.000427  0.500876  0.499287  1
  Os  Os35  1  0.500448  0.500876  0.499287  1
  Os  Os36  1  0.999774  0.999549  0.999417  1
  Os  Os37  1  0.999774  0.999549  0.500583  1
