# generated using pymatgen
data_Er2Ga10Tc2Pd
_symmetry_space_group_name_H-M   'P 1'
_cell_length_a   9.05105400
_cell_length_b   9.05105400
_cell_length_c   6.33979200
_cell_angle_alpha   90.00000000
_cell_angle_beta   90.00000000
_cell_angle_gamma   90.00000000
_symmetry_Int_Tables_number   1
_chemical_formula_structural   Er2Ga10Tc2Pd
_chemical_formula_sum   'Er4 Ga20 Tc4 Pd2'
_cell_volume   519.36576807
_cell_formula_units_Z   2
loop_
 _symmetry_equiv_pos_site_id
 _symmetry_equiv_pos_as_xyz
  1  'x, y, z'
loop_
 _atom_site_type_symbol
 _atom_site_label
 _atom_site_symmetry_multiplicity
 _atom_site_fract_x
 _atom_site_fract_y
 _atom_site_fract_z
 _atom_site_occupancy
  Er  Er0  1  0.682324  0.182324  0.000000  1
  Er  Er1  1  0.317676  0.817676  0.000000  1
  Er  Er2  1  0.817676  0.682324  0.000000  1
  Er  Er3  1  0.182324  0.317676  0.000000  1
  Ga  Ga4  1  0.938552  0.209942  0.293155  1
  Ga  Ga5  1  0.709942  0.438552  0.293155  1
  Ga  Ga6  1  0.500000  0.000000  0.284962  1
  Ga  Ga7  1  0.561448  0.709942  0.706845  1
  Ga  Ga8  1  0.290058  0.561448  0.706845  1
  Ga  Ga9  1  0.790058  0.938552  0.293155  1
  Ga  Ga10  1  0.938552  0.209942  0.706845  1
  Ga  Ga11  1  0.290058  0.561448  0.293155  1
  Ga  Ga12  1  0.061448  0.790058  0.293155  1
  Ga  Ga13  1  0.709942  0.438552  0.706845  1
  Ga  Ga14  1  0.438552  0.290058  0.706845  1
  Ga  Ga15  1  0.061448  0.790058  0.706845  1
  Ga  Ga16  1  0.209942  0.061448  0.706845  1
  Ga  Ga17  1  0.790058  0.938552  0.706845  1
  Ga  Ga18  1  0.209942  0.061448  0.293155  1
  Ga  Ga19  1  0.000000  0.500000  0.715038  1
  Ga  Ga20  1  0.000000  0.500000  0.284962  1
  Ga  Ga21  1  0.561448  0.709942  0.293155  1
  Ga  Ga22  1  0.438552  0.290058  0.293155  1
  Ga  Ga23  1  0.500000  0.000000  0.715038  1
  Tc  Tc24  1  0.679065  0.179065  0.500000  1
  Tc  Tc25  1  0.820935  0.679065  0.500000  1
  Tc  Tc26  1  0.179065  0.320935  0.500000  1
  Tc  Tc27  1  0.320935  0.820935  0.500000  1
  Pd  Pd28  1  0.000000  0.000000  0.000000  1
  Pd  Pd29  1  0.500000  0.500000  0.000000  1
