# generated using pymatgen
data_TmLu2Al12RuRh3
_symmetry_space_group_name_H-M   'P 1'
_cell_length_a   8.76204200
_cell_length_b   8.76100419
_cell_length_c   9.51451500
_cell_angle_alpha   90.00000000
_cell_angle_beta   90.00000000
_cell_angle_gamma   120.00392618
_symmetry_Int_Tables_number   1
_chemical_formula_structural   TmLu2Al12RuRh3
_chemical_formula_sum   'Tm2 Lu4 Al24 Ru2 Rh6'
_cell_volume   632.49824116
_cell_formula_units_Z   2
loop_
 _symmetry_equiv_pos_site_id
 _symmetry_equiv_pos_as_xyz
  1  'x, y, z'
loop_
 _atom_site_type_symbol
 _atom_site_label
 _atom_site_symmetry_multiplicity
 _atom_site_fract_x
 _atom_site_fract_y
 _atom_site_fract_z
 _atom_site_occupancy
  Tm  Tm0  1  0.807073  0.614145  0.750000  1
  Tm  Tm1  1  0.192927  0.385855  0.250000  1
  Lu  Lu2  1  0.806498  0.193303  0.750000  1
  Lu  Lu3  1  0.193502  0.806697  0.250000  1
  Lu  Lu4  1  0.386805  0.193303  0.750000  1
  Lu  Lu5  1  0.613195  0.806697  0.250000  1
  Al  Al6  1  0.666538  0.333074  0.970186  1
  Al  Al7  1  0.333462  0.666926  0.029814  1
  Al  Al8  1  0.333462  0.666926  0.470186  1
  Al  Al9  1  0.666538  0.333074  0.529814  1
  Al  Al10  1  0.836592  0.163176  0.422139  1
  Al  Al11  1  0.163408  0.836824  0.577861  1
  Al  Al12  1  0.326584  0.163176  0.422139  1
  Al  Al13  1  0.163408  0.836824  0.922139  1
  Al  Al14  1  0.673416  0.836824  0.577861  1
  Al  Al15  1  0.836592  0.163176  0.077861  1
  Al  Al16  1  0.836747  0.673493  0.421868  1
  Al  Al17  1  0.673416  0.836824  0.922139  1
  Al  Al18  1  0.163253  0.326507  0.578132  1
  Al  Al19  1  0.326584  0.163176  0.077861  1
  Al  Al20  1  0.163253  0.326507  0.921868  1
  Al  Al21  1  0.836747  0.673493  0.078132  1
  Al  Al22  1  0.437937  0.561643  0.750000  1
  Al  Al23  1  0.562063  0.438357  0.250000  1
  Al  Al24  1  0.123705  0.561643  0.750000  1
  Al  Al25  1  0.876295  0.438357  0.250000  1
  Al  Al26  1  0.438300  0.876601  0.750000  1
  Al  Al27  1  0.561700  0.123399  0.250000  1
  Al  Al28  1  0.000219  0.000437  0.750000  1
  Al  Al29  1  0.999781  0.999563  0.250000  1
  Ru  Ru30  1  0.000000  0.000000  0.000000  1
  Ru  Ru31  1  0.000000  0.000000  0.500000  1
  Rh  Rh32  1  0.500000  0.500000  0.000000  1
  Rh  Rh33  1  0.000000  0.500000  0.000000  1
  Rh  Rh34  1  0.500000  0.500000  0.500000  1
  Rh  Rh35  1  0.500000  0.000000  0.000000  1
  Rh  Rh36  1  0.000000  0.500000  0.500000  1
  Rh  Rh37  1  0.500000  0.000000  0.500000  1
