# generated using pymatgen
data_ErScSiB2Ru5
_symmetry_space_group_name_H-M   'P 1'
_cell_length_a   9.41293900
_cell_length_b   9.39525800
_cell_length_c   3.03346800
_cell_angle_alpha   90.00000000
_cell_angle_beta   90.00000000
_cell_angle_gamma   90.00000000
_symmetry_Int_Tables_number   1
_chemical_formula_structural   ErScSiB2Ru5
_chemical_formula_sum   'Er2 Sc2 Si2 B4 Ru10'
_cell_volume   268.27078053
_cell_formula_units_Z   2
loop_
 _symmetry_equiv_pos_site_id
 _symmetry_equiv_pos_as_xyz
  1  'x, y, z'
loop_
 _atom_site_type_symbol
 _atom_site_label
 _atom_site_symmetry_multiplicity
 _atom_site_fract_x
 _atom_site_fract_y
 _atom_site_fract_z
 _atom_site_occupancy
  Er  Er0  1  0.175805  0.674694  0.000000  1
  Er  Er1  1  0.675805  0.825306  0.000000  1
  Sc  Sc2  1  0.325262  0.175617  0.000000  1
  Sc  Sc3  1  0.825262  0.324383  0.000000  1
  Si  Si4  1  0.997476  0.996158  0.000000  1
  Si  Si5  1  0.497476  0.503842  0.000000  1
  B  B6  1  0.376638  0.881185  0.000000  1
  B  B7  1  0.876638  0.618815  0.000000  1
  B  B8  1  0.124447  0.371860  0.000000  1
  B  B9  1  0.624447  0.128140  0.000000  1
  Ru  Ru10  1  0.997279  0.493227  0.500000  1
  Ru  Ru11  1  0.497279  0.006773  0.500000  1
  Ru  Ru12  1  0.290532  0.424782  0.500000  1
  Ru  Ru13  1  0.711763  0.561595  0.500000  1
  Ru  Ru14  1  0.568712  0.292494  0.500000  1
  Ru  Ru15  1  0.432088  0.713416  0.500000  1
  Ru  Ru16  1  0.932088  0.786584  0.500000  1
  Ru  Ru17  1  0.790531  0.075218  0.500000  1
  Ru  Ru18  1  0.211762  0.938405  0.500000  1
  Ru  Ru19  1  0.068712  0.207506  0.500000  1
