# generated using pymatgen
data_DyYReB8Rh
_symmetry_space_group_name_H-M   'P 1'
_cell_length_a   3.59767500
_cell_length_b   5.97678344
_cell_length_c   11.57755910
_cell_angle_alpha   90.29145993
_cell_angle_beta   90.00000000
_cell_angle_gamma   90.00000000
_symmetry_Int_Tables_number   1
_chemical_formula_structural   DyYReB8Rh
_chemical_formula_sum   'Dy2 Y2 Re2 B16 Rh2'
_cell_volume   248.94352541
_cell_formula_units_Z   2
loop_
 _symmetry_equiv_pos_site_id
 _symmetry_equiv_pos_as_xyz
  1  'x, y, z'
loop_
 _atom_site_type_symbol
 _atom_site_label
 _atom_site_symmetry_multiplicity
 _atom_site_fract_x
 _atom_site_fract_y
 _atom_site_fract_z
 _atom_site_occupancy
  Dy  Dy0  1  0.500000  0.128243  0.650565  1
  Dy  Dy1  1  0.500000  0.871757  0.349435  1
  Y  Y2  1  0.500000  0.371986  0.147719  1
  Y  Y3  1  0.500000  0.628014  0.852281  1
  Re  Re4  1  0.500000  0.366881  0.411881  1
  Re  Re5  1  0.500000  0.633119  0.588119  1
  B  B6  1  0.000000  0.113026  0.047301  1
  B  B7  1  0.000000  0.886974  0.952699  1
  B  B8  1  0.000000  0.386776  0.546747  1
  B  B9  1  0.000000  0.613224  0.453253  1
  B  B10  1  0.000000  0.136108  0.469118  1
  B  B11  1  0.000000  0.863892  0.530882  1
  B  B12  1  0.000000  0.363318  0.968944  1
  B  B13  1  0.000000  0.636682  0.031056  1
  B  B14  1  0.000000  0.023316  0.192934  1
  B  B15  1  0.000000  0.976684  0.807066  1
  B  B16  1  0.000000  0.475551  0.692203  1
  B  B17  1  0.000000  0.524449  0.307797  1
  B  B18  1  0.000000  0.211766  0.314224  1
  B  B19  1  0.000000  0.788234  0.685776  1
  B  B20  1  0.000000  0.288953  0.813996  1
  B  B21  1  0.000000  0.711047  0.186004  1
  Rh  Rh22  1  0.500000  0.140220  0.905510  1
  Rh  Rh23  1  0.500000  0.859780  0.094490  1
