# generated using pymatgen
data_K3BaTa4O12
_symmetry_space_group_name_H-M   'P 1'
_cell_length_a   8.11518700
_cell_length_b   5.73381022
_cell_length_c   5.73562500
_cell_angle_alpha   89.98181415
_cell_angle_beta   90.00000000
_cell_angle_gamma   90.00000000
_symmetry_Int_Tables_number   1
_chemical_formula_structural   K3BaTa4O12
_chemical_formula_sum   'K3 Ba1 Ta4 O12'
_cell_volume   266.88402194
_cell_formula_units_Z   1
loop_
 _symmetry_equiv_pos_site_id
 _symmetry_equiv_pos_as_xyz
  1  'x, y, z'
loop_
 _atom_site_type_symbol
 _atom_site_label
 _atom_site_symmetry_multiplicity
 _atom_site_fract_x
 _atom_site_fract_y
 _atom_site_fract_z
 _atom_site_occupancy
  K  K0  1  0.000000  0.000014  0.002042  1
  K  K1  1  0.500000  0.499822  0.498051  1
  K  K2  1  0.500000  0.000036  0.998186  1
  Ba  Ba3  1  0.000000  0.499961  0.500282  1
  Ta  Ta4  1  0.253103  0.000003  0.500052  1
  Ta  Ta5  1  0.746889  0.499992  0.999914  1
  Ta  Ta6  1  0.746897  0.000003  0.500052  1
  Ta  Ta7  1  0.253111  0.499992  0.999914  1
  O  O8  1  0.249357  0.748152  0.251890  1
  O  O9  1  0.751446  0.748410  0.748580  1
  O  O10  1  0.751384  0.251778  0.748414  1
  O  O11  1  0.249204  0.251731  0.251761  1
  O  O12  1  0.248616  0.251778  0.748414  1
  O  O13  1  0.750796  0.251731  0.251761  1
  O  O14  1  0.750643  0.748152  0.251890  1
  O  O15  1  0.248554  0.748410  0.748580  1
  O  O16  1  0.000000  0.999985  0.499752  1
  O  O17  1  0.000000  0.499920  0.000699  1
  O  O18  1  0.500000  0.999969  0.500643  1
  O  O19  1  0.500000  0.500160  0.999121  1
