# generated using pymatgen
data_Pr3Nd2AgPb3
_symmetry_space_group_name_H-M   'P 1'
_cell_length_a   9.73629813
_cell_length_b   9.73629803
_cell_length_c   6.83014300
_cell_angle_alpha   90.00000000
_cell_angle_beta   90.00000000
_cell_angle_gamma   119.98099007
_symmetry_Int_Tables_number   1
_chemical_formula_structural   Pr3Nd2AgPb3
_chemical_formula_sum   'Pr6 Nd4 Ag2 Pb6'
_cell_volume   560.83009622
_cell_formula_units_Z   2
loop_
 _symmetry_equiv_pos_site_id
 _symmetry_equiv_pos_as_xyz
  1  'x, y, z'
loop_
 _atom_site_type_symbol
 _atom_site_label
 _atom_site_symmetry_multiplicity
 _atom_site_fract_x
 _atom_site_fract_y
 _atom_site_fract_z
 _atom_site_occupancy
  Pr  Pr0  1  0.727679  0.999968  0.250000  1
  Pr  Pr1  1  0.999968  0.727679  0.250000  1
  Pr  Pr2  1  0.666562  0.333309  0.999735  1
  Pr  Pr3  1  0.333309  0.666562  0.999735  1
  Pr  Pr4  1  0.333309  0.666562  0.500265  1
  Pr  Pr5  1  0.666562  0.333309  0.500265  1
  Nd  Nd6  1  0.727746  0.727746  0.750000  1
  Nd  Nd7  1  0.272247  0.000029  0.750000  1
  Nd  Nd8  1  0.000029  0.272247  0.750000  1
  Nd  Nd9  1  0.272161  0.272161  0.250000  1
  Ag  Ag10  1  0.000308  0.000308  0.999473  1
  Ag  Ag11  1  0.000308  0.000308  0.500527  1
  Pb  Pb12  1  0.377125  0.377125  0.750000  1
  Pb  Pb13  1  0.622822  0.000015  0.750000  1
  Pb  Pb14  1  0.000015  0.622822  0.750000  1
  Pb  Pb15  1  0.622356  0.622356  0.250000  1
  Pb  Pb16  1  0.377138  0.000356  0.250000  1
  Pb  Pb17  1  0.000356  0.377138  0.250000  1
