# generated using pymatgen
data_Cs5Th2S4Br9
_symmetry_space_group_name_H-M   'P 1'
_cell_length_a   11.38562734
_cell_length_b   11.38562817
_cell_length_c   11.38562775
_cell_angle_alpha   139.43827239
_cell_angle_beta   121.19653749
_cell_angle_gamma   73.87814376
_symmetry_Int_Tables_number   1
_chemical_formula_structural   Cs5Th2S4Br9
_chemical_formula_sum   'Cs5 Th2 S4 Br9'
_cell_volume   802.97759334
_cell_formula_units_Z   1
loop_
 _symmetry_equiv_pos_site_id
 _symmetry_equiv_pos_as_xyz
  1  'x, y, z'
loop_
 _atom_site_type_symbol
 _atom_site_label
 _atom_site_symmetry_multiplicity
 _atom_site_fract_x
 _atom_site_fract_y
 _atom_site_fract_z
 _atom_site_occupancy
  Cs  Cs0  1  0.429222  0.656033  0.773189  1
  Cs  Cs1  1  0.882844  0.656033  0.226811  1
  Cs  Cs2  1  0.500000  0.000000  0.500000  1
  Cs  Cs3  1  0.570778  0.343967  0.226811  1
  Cs  Cs4  1  0.117156  0.343967  0.773189  1
  Th  Th5  1  0.107404  0.107404  0.000000  1
  Th  Th6  1  0.892596  0.892596  0.000000  1
  S  S7  1  0.093370  0.767875  0.861245  1
  S  S8  1  0.906630  0.767875  0.674505  1
  S  S9  1  0.906630  0.232125  0.138755  1
  S  S10  1  0.093370  0.232125  0.325495  1
  Br  Br11  1  0.221814  0.475968  0.254155  1
  Br  Br12  1  0.122811  0.860707  0.262104  1
  Br  Br13  1  0.401398  0.139293  0.262104  1
  Br  Br14  1  0.221814  0.967659  0.745845  1
  Br  Br15  1  0.778186  0.032341  0.254155  1
  Br  Br16  1  0.598602  0.860707  0.737896  1
  Br  Br17  1  0.778186  0.524032  0.745845  1
  Br  Br18  1  0.500000  0.500000  0.000000  1
  Br  Br19  1  0.877189  0.139293  0.737896  1
