# generated using pymatgen
data_Ba4TlCdOs3O16
_symmetry_space_group_name_H-M   'P 1'
_cell_length_a   6.07756695
_cell_length_b   6.02635992
_cell_length_c   10.69171529
_cell_angle_alpha   93.30656125
_cell_angle_beta   93.49007354
_cell_angle_gamma   90.20890437
_symmetry_Int_Tables_number   1
_chemical_formula_structural   Ba4TlCdOs3O16
_chemical_formula_sum   'Ba4 Tl1 Cd1 Os3 O16'
_cell_volume   390.20352189
_cell_formula_units_Z   1
loop_
 _symmetry_equiv_pos_site_id
 _symmetry_equiv_pos_as_xyz
  1  'x, y, z'
loop_
 _atom_site_type_symbol
 _atom_site_label
 _atom_site_symmetry_multiplicity
 _atom_site_fract_x
 _atom_site_fract_y
 _atom_site_fract_z
 _atom_site_occupancy
  Ba  Ba0  1  0.031485  0.500160  0.199475  1
  Ba  Ba1  1  0.997146  0.000952  0.495585  1
  Ba  Ba2  1  0.969049  0.495139  0.802100  1
  Ba  Ba3  1  0.489471  0.976674  0.808011  1
  Tl  Tl4  1  0.510042  0.035463  0.196029  1
  Cd  Cd5  1  0.503043  0.502617  0.005959  1
  Os  Os6  1  0.002087  0.996875  0.999440  1
  Os  Os7  1  0.560507  0.562400  0.387409  1
  Os  Os8  1  0.438234  0.440609  0.612863  1
  O  O9  1  0.751098  0.196108  0.001822  1
  O  O10  1  0.816023  0.740865  0.015674  1
  O  O11  1  0.044109  0.038328  0.170878  1
  O  O12  1  0.470022  0.458653  0.211268  1
  O  O13  1  0.750949  0.760361  0.322085  1
  O  O14  1  0.319764  0.743381  0.378073  1
  O  O15  1  0.755677  0.329969  0.383669  1
  O  O16  1  0.334516  0.327735  0.445653  1
  O  O17  1  0.666749  0.677762  0.556721  1
  O  O18  1  0.251687  0.678352  0.622100  1
  O  O19  1  0.678178  0.258541  0.623508  1
  O  O20  1  0.239916  0.239889  0.671713  1
  O  O21  1  0.525508  0.529106  0.794516  1
  O  O22  1  0.950996  0.959125  0.824341  1
  O  O23  1  0.191950  0.249395  0.978293  1
  O  O24  1  0.251791  0.801531  0.992828  1
