# generated using pymatgen
data_Y3Ho5MgCdIr2
_symmetry_space_group_name_H-M   'P 1'
_cell_length_a   9.65491008
_cell_length_b   9.65490977
_cell_length_c   9.70140300
_cell_angle_alpha   59.84057280
_cell_angle_beta   59.84057387
_cell_angle_gamma   59.71883596
_symmetry_Int_Tables_number   1
_chemical_formula_structural   Y3Ho5MgCdIr2
_chemical_formula_sum   'Y6 Ho10 Mg2 Cd2 Ir4'
_cell_volume   636.55856780
_cell_formula_units_Z   2
loop_
 _symmetry_equiv_pos_site_id
 _symmetry_equiv_pos_as_xyz
  1  'x, y, z'
loop_
 _atom_site_type_symbol
 _atom_site_label
 _atom_site_symmetry_multiplicity
 _atom_site_fract_x
 _atom_site_fract_y
 _atom_site_fract_z
 _atom_site_occupancy
  Y  Y0  1  0.940670  0.561962  0.561620  1
  Y  Y1  1  0.561962  0.940670  0.935749  1
  Y  Y2  1  0.561962  0.940670  0.561620  1
  Y  Y3  1  0.940670  0.561962  0.935749  1
  Y  Y4  1  0.562326  0.562326  0.937674  1
  Y  Y5  1  0.938333  0.938333  0.561667  1
  Ho  Ho6  1  0.347686  0.347686  0.347789  1
  Ho  Ho7  1  0.347686  0.347686  0.956838  1
  Ho  Ho8  1  0.347083  0.958872  0.347022  1
  Ho  Ho9  1  0.958872  0.347083  0.347022  1
  Ho  Ho10  1  0.810853  0.187567  0.189396  1
  Ho  Ho11  1  0.187567  0.810853  0.812184  1
  Ho  Ho12  1  0.187567  0.810853  0.189396  1
  Ho  Ho13  1  0.810853  0.187567  0.812184  1
  Ho  Ho14  1  0.189850  0.189850  0.810150  1
  Ho  Ho15  1  0.812494  0.812494  0.187506  1
  Mg  Mg16  1  0.576270  0.576270  0.580028  1
  Mg  Mg17  1  0.576270  0.576270  0.267432  1
  Cd  Cd18  1  0.581333  0.256606  0.581031  1
  Cd  Cd19  1  0.256606  0.581333  0.581031  1
  Ir  Ir20  1  0.142282  0.142282  0.139921  1
  Ir  Ir21  1  0.142282  0.142282  0.575514  1
  Ir  Ir22  1  0.143117  0.575406  0.140738  1
  Ir  Ir23  1  0.575406  0.143117  0.140738  1
