# generated using pymatgen
data_TlV(P2O7)2
_symmetry_space_group_name_H-M   'P 1'
_cell_length_a   8.40895047
_cell_length_b   4.94864829
_cell_length_c   7.12210900
_cell_angle_alpha   74.22848152
_cell_angle_beta   90.57772690
_cell_angle_gamma   89.74397407
_symmetry_Int_Tables_number   1
_chemical_formula_structural   TlV(P2O7)2
_chemical_formula_sum   'Tl1 V1 P4 O14'
_cell_volume   285.19193504
_cell_formula_units_Z   1
loop_
 _symmetry_equiv_pos_site_id
 _symmetry_equiv_pos_as_xyz
  1  'x, y, z'
loop_
 _atom_site_type_symbol
 _atom_site_label
 _atom_site_symmetry_multiplicity
 _atom_site_fract_x
 _atom_site_fract_y
 _atom_site_fract_z
 _atom_site_occupancy
  Tl  Tl0  1  0.000187  0.787929  0.739240  1
  V  V1  1  0.501297  0.210155  0.279446  1
  P  P2  1  0.251255  0.244659  0.897078  1
  P  P3  1  0.815747  0.387759  0.482488  1
  P  P4  1  0.717484  0.763444  0.109406  1
  P  P5  1  0.317779  0.613352  0.507860  1
  O  O6  1  0.803882  0.553560  0.630574  1
  O  O7  1  0.798440  0.869132  0.917108  1
  O  O8  1  0.101409  0.395841  0.932053  1
  O  O9  1  0.362231  0.449330  0.730684  1
  O  O10  1  0.223289  0.973486  0.842640  1
  O  O11  1  0.845307  0.595033  0.266203  1
  O  O12  1  0.946497  0.170442  0.504954  1
  O  O13  1  0.346583  0.403403  0.384258  1
  O  O14  1  0.659489  0.015151  0.179218  1
  O  O15  1  0.647143  0.258467  0.463866  1
  O  O16  1  0.362102  0.187065  0.081165  1
  O  O17  1  0.146735  0.706853  0.490884  1
  O  O18  1  0.577803  0.558365  0.110892  1
  O  O19  1  0.437943  0.856572  0.449983  1
