# generated using pymatgen
data_LaEr2(ZnPt)4
_symmetry_space_group_name_H-M   'P 1'
_cell_length_a   8.25368873
_cell_length_b   8.25368817
_cell_length_c   8.25368806
_cell_angle_alpha   151.78063464
_cell_angle_beta   125.17098539
_cell_angle_gamma   62.79586994
_symmetry_Int_Tables_number   1
_chemical_formula_structural   LaEr2(ZnPt)4
_chemical_formula_sum   'La1 Er2 Zn4 Pt4'
_cell_volume   215.47541818
_cell_formula_units_Z   1
loop_
 _symmetry_equiv_pos_site_id
 _symmetry_equiv_pos_as_xyz
  1  'x, y, z'
loop_
 _atom_site_type_symbol
 _atom_site_label
 _atom_site_symmetry_multiplicity
 _atom_site_fract_x
 _atom_site_fract_y
 _atom_site_fract_z
 _atom_site_occupancy
  La  La0  1  0.500000  0.000000  0.500000  1
  Er  Er1  1  0.875014  0.875014  0.000000  1
  Er  Er2  1  0.124986  0.124986  0.000000  1
  Zn  Zn3  1  0.477121  0.674691  0.802430  1
  Zn  Zn4  1  0.872260  0.674691  0.197570  1
  Zn  Zn5  1  0.127740  0.325309  0.802430  1
  Zn  Zn6  1  0.522879  0.325309  0.197570  1
  Pt  Pt7  1  0.274529  0.774529  0.500000  1
  Pt  Pt8  1  0.725471  0.225471  0.500000  1
  Pt  Pt9  1  0.812801  0.500000  0.312801  1
  Pt  Pt10  1  0.187199  0.500000  0.687199  1
