# generated using pymatgen
data_Dy4Ho2P13Rh20
_symmetry_space_group_name_H-M   'P 1'
_cell_length_a   13.32733800
_cell_length_b   13.32730126
_cell_length_c   3.91806800
_cell_angle_alpha   89.99738797
_cell_angle_beta   90.00096406
_cell_angle_gamma   119.99815523
_symmetry_Int_Tables_number   1
_chemical_formula_structural   Dy4Ho2P13Rh20
_chemical_formula_sum   'Dy4 Ho2 P13 Rh20'
_cell_volume   602.69321238
_cell_formula_units_Z   1
loop_
 _symmetry_equiv_pos_site_id
 _symmetry_equiv_pos_as_xyz
  1  'x, y, z'
loop_
 _atom_site_type_symbol
 _atom_site_label
 _atom_site_symmetry_multiplicity
 _atom_site_fract_x
 _atom_site_fract_y
 _atom_site_fract_z
 _atom_site_occupancy
  Dy  Dy0  1  0.529349  0.717496  0.248511  1
  Dy  Dy1  1  0.282498  0.811836  0.248512  1
  Dy  Dy2  1  0.188164  0.470665  0.248523  1
  Dy  Dy3  1  0.470754  0.282517  0.751477  1
  Ho  Ho4  1  0.717479  0.188184  0.751463  1
  Ho  Ho5  1  0.811810  0.529310  0.751463  1
  P  P6  1  0.526431  0.139379  0.250249  1
  P  P7  1  0.860559  0.386931  0.250247  1
  P  P8  1  0.613211  0.473763  0.250245  1
  P  P9  1  0.944771  0.714378  0.254411  1
  P  P10  1  0.285422  0.230334  0.254398  1
  P  P11  1  0.769624  0.055235  0.254416  1
  P  P12  1  0.386938  0.526191  0.749767  1
  P  P13  1  0.473821  0.860733  0.749752  1
  P  P14  1  0.139259  0.613061  0.749769  1
  P  P15  1  0.714590  0.769740  0.745571  1
  P  P16  1  0.230313  0.944901  0.745593  1
  P  P17  1  0.055089  0.285396  0.745577  1
  P  P18  1  0.999983  0.999993  0.999965  1
  Rh  Rh19  1  0.333335  0.666674  0.751858  1
  Rh  Rh20  1  0.920991  0.250309  0.253754  1
  Rh  Rh21  1  0.749747  0.670749  0.253758  1
  Rh  Rh22  1  0.329116  0.078692  0.253734  1
  Rh  Rh23  1  0.438549  0.022441  0.751401  1
  Rh  Rh24  1  0.977462  0.416015  0.751388  1
  Rh  Rh25  1  0.584032  0.561543  0.751389  1
  Rh  Rh26  1  0.666905  0.333388  0.248149  1
  Rh  Rh27  1  0.094353  0.187029  0.247587  1
  Rh  Rh28  1  0.812974  0.907408  0.247588  1
  Rh  Rh29  1  0.092576  0.905537  0.247556  1
  Rh  Rh30  1  0.022199  0.583915  0.248604  1
  Rh  Rh31  1  0.416018  0.438443  0.248608  1
  Rh  Rh32  1  0.561741  0.977802  0.248601  1
  Rh  Rh33  1  0.670961  0.921409  0.746264  1
  Rh  Rh34  1  0.078601  0.749546  0.746260  1
  Rh  Rh35  1  0.250406  0.329073  0.746290  1
  Rh  Rh36  1  0.905660  0.813011  0.752465  1
  Rh  Rh37  1  0.186967  0.092627  0.752374  1
  Rh  Rh38  1  0.907340  0.094346  0.752464  1
