# generated using pymatgen
data_NdDy3(CrB4)4
_symmetry_space_group_name_H-M   'P 1'
_cell_length_a   5.96346486
_cell_length_b   11.52680659
_cell_length_c   3.47320600
_cell_angle_alpha   90.00000000
_cell_angle_beta   90.00000000
_cell_angle_gamma   89.90950005
_symmetry_Int_Tables_number   1
_chemical_formula_structural   NdDy3(CrB4)4
_chemical_formula_sum   'Nd1 Dy3 Cr4 B16'
_cell_volume   238.74686175
_cell_formula_units_Z   1
loop_
 _symmetry_equiv_pos_site_id
 _symmetry_equiv_pos_as_xyz
  1  'x, y, z'
loop_
 _atom_site_type_symbol
 _atom_site_label
 _atom_site_symmetry_multiplicity
 _atom_site_fract_x
 _atom_site_fract_y
 _atom_site_fract_z
 _atom_site_occupancy
  Nd  Nd0  1  0.624007  0.348810  0.000000  1
  Dy  Dy1  1  0.375530  0.651408  0.000000  1
  Dy  Dy2  1  0.124238  0.150082  0.000000  1
  Dy  Dy3  1  0.875764  0.849013  0.000000  1
  Cr  Cr4  1  0.623622  0.079111  0.000000  1
  Cr  Cr5  1  0.376191  0.918753  0.000000  1
  Cr  Cr6  1  0.123165  0.420696  0.000000  1
  Cr  Cr7  1  0.877574  0.581638  0.000000  1
  B  B8  1  0.781724  0.181590  0.500000  1
  B  B9  1  0.218975  0.815914  0.500000  1
  B  B10  1  0.277132  0.315855  0.500000  1
  B  B11  1  0.719206  0.684811  0.500000  1
  B  B12  1  0.862714  0.031403  0.500000  1
  B  B13  1  0.137503  0.967014  0.500000  1
  B  B14  1  0.360415  0.469159  0.500000  1
  B  B15  1  0.638746  0.534787  0.500000  1
  B  B16  1  0.889893  0.455182  0.500000  1
  B  B17  1  0.113719  0.548114  0.500000  1
  B  B18  1  0.386157  0.045647  0.500000  1
  B  B19  1  0.613044  0.952750  0.500000  1
  B  B20  1  0.977743  0.308954  0.500000  1
  B  B21  1  0.024757  0.692019  0.500000  1
  B  B22  1  0.473289  0.188688  0.500000  1
  B  B23  1  0.524891  0.808602  0.500000  1
