# generated using pymatgen
data_La4Y12MgHg3Ir4
_symmetry_space_group_name_H-M   'P 1'
_cell_length_a   9.77447864
_cell_length_b   9.80216596
_cell_length_c   9.80216600
_cell_angle_alpha   59.99999985
_cell_angle_beta   59.90625344
_cell_angle_gamma   59.90625291
_symmetry_Int_Tables_number   1
_chemical_formula_structural   La4Y12MgHg3Ir4
_chemical_formula_sum   'La4 Y12 Mg1 Hg3 Ir4'
_cell_volume   663.14097623
_cell_formula_units_Z   1
loop_
 _symmetry_equiv_pos_site_id
 _symmetry_equiv_pos_as_xyz
  1  'x, y, z'
loop_
 _atom_site_type_symbol
 _atom_site_label
 _atom_site_symmetry_multiplicity
 _atom_site_fract_x
 _atom_site_fract_y
 _atom_site_fract_z
 _atom_site_occupancy
  La  La0  1  0.601735  0.599724  0.599724  1
  La  La1  1  0.601735  0.599724  0.198816  1
  La  La2  1  0.601735  0.198816  0.599724  1
  La  La3  1  0.187309  0.604230  0.604230  1
  Y  Y4  1  0.062101  0.437181  0.437181  1
  Y  Y5  1  0.434477  0.065213  0.065213  1
  Y  Y6  1  0.434477  0.065213  0.435097  1
  Y  Y7  1  0.062101  0.437181  0.063536  1
  Y  Y8  1  0.434477  0.435097  0.065213  1
  Y  Y9  1  0.062101  0.063536  0.437181  1
  Y  Y10  1  0.183804  0.815360  0.815360  1
  Y  Y11  1  0.814468  0.184895  0.184895  1
  Y  Y12  1  0.814468  0.184895  0.815741  1
  Y  Y13  1  0.183804  0.815360  0.185476  1
  Y  Y14  1  0.814468  0.815741  0.184895  1
  Y  Y15  1  0.183804  0.185476  0.815360  1
  Mg  Mg16  1  0.534507  0.821831  0.821831  1
  Hg  Hg17  1  0.832006  0.839562  0.839562  1
  Hg  Hg18  1  0.832006  0.839562  0.488871  1
  Hg  Hg19  1  0.832006  0.488871  0.839562  1
  Ir  Ir20  1  0.388998  0.392121  0.392121  1
  Ir  Ir21  1  0.388998  0.392121  0.826759  1
  Ir  Ir22  1  0.388998  0.826759  0.392121  1
  Ir  Ir23  1  0.825418  0.391527  0.391527  1
