# generated using pymatgen
data_Sc18Mo7OsSe2
_symmetry_space_group_name_H-M   'P 1'
_cell_length_a   8.82404939
_cell_length_b   8.82404871
_cell_length_c   8.60434600
_cell_angle_alpha   90.00000000
_cell_angle_beta   90.00000000
_cell_angle_gamma   120.30563463
_symmetry_Int_Tables_number   1
_chemical_formula_structural   Sc18Mo7OsSe2
_chemical_formula_sum   'Sc18 Mo7 Os1 Se2'
_cell_volume   578.41365751
_cell_formula_units_Z   1
loop_
 _symmetry_equiv_pos_site_id
 _symmetry_equiv_pos_as_xyz
  1  'x, y, z'
loop_
 _atom_site_type_symbol
 _atom_site_label
 _atom_site_symmetry_multiplicity
 _atom_site_fract_x
 _atom_site_fract_y
 _atom_site_fract_z
 _atom_site_occupancy
  Sc  Sc0  1  0.195518  0.804482  0.451498  1
  Sc  Sc1  1  0.193149  0.388141  0.450493  1
  Sc  Sc2  1  0.611859  0.806851  0.450493  1
  Sc  Sc3  1  0.805201  0.194799  0.545084  1
  Sc  Sc4  1  0.804972  0.608403  0.547479  1
  Sc  Sc5  1  0.391597  0.195028  0.547479  1
  Sc  Sc6  1  0.805201  0.194799  0.954916  1
  Sc  Sc7  1  0.804972  0.608403  0.952521  1
  Sc  Sc8  1  0.391597  0.195028  0.952521  1
  Sc  Sc9  1  0.195518  0.804482  0.048502  1
  Sc  Sc10  1  0.193149  0.388141  0.049507  1
  Sc  Sc11  1  0.611859  0.806851  0.049507  1
  Sc  Sc12  1  0.539328  0.460672  0.250000  1
  Sc  Sc13  1  0.549833  0.083372  0.250000  1
  Sc  Sc14  1  0.916628  0.450167  0.250000  1
  Sc  Sc15  1  0.460454  0.539546  0.750000  1
  Sc  Sc16  1  0.460479  0.920956  0.750000  1
  Sc  Sc17  1  0.079044  0.539521  0.750000  1
  Mo  Mo18  1  0.889970  0.788769  0.250000  1
  Mo  Mo19  1  0.211231  0.110030  0.250000  1
  Mo  Mo20  1  0.111171  0.888829  0.750000  1
  Mo  Mo21  1  0.108534  0.217800  0.750000  1
  Mo  Mo22  1  0.782200  0.891466  0.750000  1
  Mo  Mo23  1  0.000240  0.999760  0.501232  1
  Mo  Mo24  1  0.000240  0.999760  0.998768  1
  Os  Os25  1  0.884782  0.115218  0.250000  1
  Se  Se26  1  0.333404  0.666596  0.250000  1
  Se  Se27  1  0.667870  0.332130  0.750000  1
