# generated using pymatgen
data_Er3MgCd2Sn2Au
_symmetry_space_group_name_H-M   'P 1'
_cell_length_a   7.45021397
_cell_length_b   7.45021403
_cell_length_c   4.50630900
_cell_angle_alpha   90.00000000
_cell_angle_beta   90.00000000
_cell_angle_gamma   120.46736689
_symmetry_Int_Tables_number   1
_chemical_formula_structural   Er3MgCd2Sn2Au
_chemical_formula_sum   'Er3 Mg1 Cd2 Sn2 Au1'
_cell_volume   215.58793866
_cell_formula_units_Z   1
loop_
 _symmetry_equiv_pos_site_id
 _symmetry_equiv_pos_as_xyz
  1  'x, y, z'
loop_
 _atom_site_type_symbol
 _atom_site_label
 _atom_site_symmetry_multiplicity
 _atom_site_fract_x
 _atom_site_fract_y
 _atom_site_fract_z
 _atom_site_occupancy
  Er  Er0  1  0.591852  0.002192  0.000000  1
  Er  Er1  1  0.002192  0.591852  0.000000  1
  Er  Er2  1  0.404679  0.404679  0.000000  1
  Mg  Mg3  1  0.769285  0.769285  0.500000  1
  Cd  Cd4  1  0.240430  0.998533  0.500000  1
  Cd  Cd5  1  0.998533  0.240430  0.500000  1
  Sn  Sn6  1  0.338978  0.667241  0.500000  1
  Sn  Sn7  1  0.667241  0.338978  0.500000  1
  Au  Au8  1  0.986809  0.986809  0.000000  1
