# generated using pymatgen
data_La11In9PdAu3
_symmetry_space_group_name_H-M   'P 1'
_cell_length_a   13.84591700
_cell_length_b   13.87578122
_cell_length_c   3.88947500
_cell_angle_alpha   90.00000000
_cell_angle_beta   90.00000000
_cell_angle_gamma   68.18644791
_symmetry_Int_Tables_number   1
_chemical_formula_structural   La11In9PdAu3
_chemical_formula_sum   'La11 In9 Pd1 Au3'
_cell_volume   693.75213102
_cell_formula_units_Z   1
loop_
 _symmetry_equiv_pos_site_id
 _symmetry_equiv_pos_as_xyz
  1  'x, y, z'
loop_
 _atom_site_type_symbol
 _atom_site_label
 _atom_site_symmetry_multiplicity
 _atom_site_fract_x
 _atom_site_fract_y
 _atom_site_fract_z
 _atom_site_occupancy
  La  La0  1  0.311505  0.696678  0.000000  1
  La  La1  1  0.696066  0.304057  0.000000  1
  La  La2  1  0.999751  0.000672  0.000000  1
  La  La3  1  0.417407  0.932218  0.000000  1
  La  La4  1  0.585995  0.060613  0.000000  1
  La  La5  1  0.064671  0.584426  0.000000  1
  La  La6  1  0.936074  0.416249  0.000000  1
  La  La7  1  0.161785  0.160526  0.000000  1
  La  La8  1  0.840171  0.835411  0.000000  1
  La  La9  1  0.369259  0.371243  0.000000  1
  La  La10  1  0.620311  0.633966  0.000000  1
  In  In11  1  0.366807  0.159076  0.500002  1
  In  In12  1  0.634409  0.836242  0.500002  1
  In  In13  1  0.835544  0.633487  0.500002  1
  In  In14  1  0.160111  0.365272  0.500002  1
  In  In15  1  0.218359  0.924148  0.500002  1
  In  In16  1  0.783069  0.071388  0.500002  1
  In  In17  1  0.076600  0.782602  0.500002  1
  In  In18  1  0.927505  0.217770  0.500002  1
  In  In19  1  0.500818  0.500272  0.500002  1
  Pd  Pd20  1  0.445634  0.759753  0.500002  1
  Au  Au21  1  0.549292  0.247213  0.500002  1
  Au  Au22  1  0.248848  0.553815  0.500002  1
  Au  Au23  1  0.750010  0.452903  0.500002  1
