# generated using pymatgen
data_Sm3CdPd8
_symmetry_space_group_name_H-M   'P 1'
_cell_length_a   4.25403623
_cell_length_b   5.93511919
_cell_length_c   17.75690567
_cell_angle_alpha   90.00304310
_cell_angle_beta   90.00171404
_cell_angle_gamma   89.99780809
_symmetry_Int_Tables_number   1
_chemical_formula_structural   Sm3CdPd8
_chemical_formula_sum   'Sm6 Cd2 Pd16'
_cell_volume   448.33011851
_cell_formula_units_Z   2
loop_
 _symmetry_equiv_pos_site_id
 _symmetry_equiv_pos_as_xyz
  1  'x, y, z'
loop_
 _atom_site_type_symbol
 _atom_site_label
 _atom_site_symmetry_multiplicity
 _atom_site_fract_x
 _atom_site_fract_y
 _atom_site_fract_z
 _atom_site_occupancy
  Sm  Sm0  1  0.524552  0.341054  0.047035  1
  Sm  Sm1  1  0.524376  0.840126  0.206098  1
  Sm  Sm2  1  0.525782  0.341251  0.365267  1
  Sm  Sm3  1  0.527423  0.738583  0.547029  1
  Sm  Sm4  1  0.527659  0.238381  0.706213  1
  Sm  Sm5  1  0.526375  0.736687  0.865304  1
  Cd  Cd6  1  0.026715  0.040109  0.456146  1
  Cd  Cd7  1  0.025309  0.039083  0.956076  1
  Pd  Pd8  1  0.524731  0.830935  0.036480  1
  Pd  Pd9  1  0.024228  0.088462  0.123360  1
  Pd  Pd10  1  0.024244  0.592621  0.122853  1
  Pd  Pd11  1  0.524243  0.340867  0.206208  1
  Pd  Pd12  1  0.024960  0.592356  0.289427  1
  Pd  Pd13  1  0.024895  0.088246  0.289037  1
  Pd  Pd14  1  0.525941  0.830965  0.375854  1
  Pd  Pd15  1  0.026782  0.540041  0.456150  1
  Pd  Pd16  1  0.527368  0.249072  0.536428  1
  Pd  Pd17  1  0.027787  0.991217  0.623222  1
  Pd  Pd18  1  0.027689  0.487145  0.622902  1
  Pd  Pd19  1  0.527754  0.737541  0.706123  1
  Pd  Pd20  1  0.027027  0.485121  0.789501  1
  Pd  Pd21  1  0.027130  0.989260  0.788832  1
  Pd  Pd22  1  0.526027  0.246794  0.875794  1
  Pd  Pd23  1  0.025339  0.539045  0.956201  1
