# generated using pymatgen
data_Lu4Al6ReOs
_symmetry_space_group_name_H-M   'P 1'
_cell_length_a   5.40534100
_cell_length_b   5.40534158
_cell_length_c   8.84722000
_cell_angle_alpha   90.00000000
_cell_angle_beta   90.00000000
_cell_angle_gamma   120.00000259
_symmetry_Int_Tables_number   1
_chemical_formula_structural   Lu4Al6ReOs
_chemical_formula_sum   'Lu4 Al6 Re1 Os1'
_cell_volume   223.86370516
_cell_formula_units_Z   1
loop_
 _symmetry_equiv_pos_site_id
 _symmetry_equiv_pos_as_xyz
  1  'x, y, z'
loop_
 _atom_site_type_symbol
 _atom_site_label
 _atom_site_symmetry_multiplicity
 _atom_site_fract_x
 _atom_site_fract_y
 _atom_site_fract_z
 _atom_site_occupancy
  Lu  Lu0  1  0.666667  0.333333  0.052790  1
  Lu  Lu1  1  0.666667  0.333333  0.447031  1
  Lu  Lu2  1  0.333333  0.666666  0.552969  1
  Lu  Lu3  1  0.333333  0.666666  0.947210  1
  Al  Al4  1  0.163329  0.326659  0.251537  1
  Al  Al5  1  0.163329  0.836670  0.251537  1
  Al  Al6  1  0.673341  0.836670  0.251537  1
  Al  Al7  1  0.326659  0.163329  0.748463  1
  Al  Al8  1  0.836671  0.163329  0.748463  1
  Al  Al9  1  0.836671  0.673341  0.748463  1
  Re  Re10  1  0.000000  0.000000  0.000000  1
  Os  Os11  1  0.000000  0.000000  0.500000  1
