# generated using pymatgen
data_Y15ThTl3CdPdPt3
_symmetry_space_group_name_H-M   'P 1'
_cell_length_a   9.73730868
_cell_length_b   9.73730966
_cell_length_c   9.73731000
_cell_angle_alpha   60.24455591
_cell_angle_beta   60.24455939
_cell_angle_gamma   60.24456356
_symmetry_Int_Tables_number   1
_chemical_formula_structural   Y15ThTl3CdPdPt3
_chemical_formula_sum   'Y15 Th1 Tl3 Cd1 Pd1 Pt3'
_cell_volume   656.44691669
_cell_formula_units_Z   1
loop_
 _symmetry_equiv_pos_site_id
 _symmetry_equiv_pos_as_xyz
  1  'x, y, z'
loop_
 _atom_site_type_symbol
 _atom_site_label
 _atom_site_symmetry_multiplicity
 _atom_site_fract_x
 _atom_site_fract_y
 _atom_site_fract_z
 _atom_site_occupancy
  Y  Y0  1  0.354124  0.355389  0.937801  1
  Y  Y1  1  0.354124  0.937801  0.355389  1
  Y  Y2  1  0.937082  0.354355  0.354355  1
  Y  Y3  1  0.809544  0.190095  0.190095  1
  Y  Y4  1  0.192530  0.810117  0.810117  1
  Y  Y5  1  0.189226  0.810787  0.189589  1
  Y  Y6  1  0.810022  0.192555  0.810065  1
  Y  Y7  1  0.189226  0.189589  0.810787  1
  Y  Y8  1  0.810022  0.810065  0.192555  1
  Y  Y9  1  0.938775  0.564519  0.564519  1
  Y  Y10  1  0.564100  0.938493  0.938493  1
  Y  Y11  1  0.564058  0.936014  0.563373  1
  Y  Y12  1  0.939591  0.564554  0.936263  1
  Y  Y13  1  0.564058  0.563373  0.936014  1
  Y  Y14  1  0.939591  0.936263  0.564554  1
  Th  Th15  1  0.347486  0.348620  0.348620  1
  Tl  Tl16  1  0.585683  0.588213  0.588213  1
  Tl  Tl17  1  0.583918  0.587120  0.242298  1
  Tl  Tl18  1  0.583918  0.242298  0.587120  1
  Cd  Cd19  1  0.247812  0.583478  0.583478  1
  Pd  Pd20  1  0.145088  0.144396  0.144396  1
  Pt  Pt21  1  0.140096  0.140628  0.570486  1
  Pt  Pt22  1  0.140096  0.570486  0.140628  1
  Pt  Pt23  1  0.569830  0.140789  0.140789  1
