# generated using pymatgen
data_NdHfCo4As3
_symmetry_space_group_name_H-M   'P 1'
_cell_length_a   3.88118600
_cell_length_b   11.19386000
_cell_length_c   12.72330900
_cell_angle_alpha   90.00000000
_cell_angle_beta   90.00000000
_cell_angle_gamma   90.00000000
_symmetry_Int_Tables_number   1
_chemical_formula_structural   NdHfCo4As3
_chemical_formula_sum   'Nd4 Hf4 Co16 As12'
_cell_volume   552.76991958
_cell_formula_units_Z   4
loop_
 _symmetry_equiv_pos_site_id
 _symmetry_equiv_pos_as_xyz
  1  'x, y, z'
loop_
 _atom_site_type_symbol
 _atom_site_label
 _atom_site_symmetry_multiplicity
 _atom_site_fract_x
 _atom_site_fract_y
 _atom_site_fract_z
 _atom_site_occupancy
  Nd  Nd0  1  0.250000  0.919522  0.205656  1
  Nd  Nd1  1  0.750000  0.080478  0.794344  1
  Nd  Nd2  1  0.750000  0.419522  0.294344  1
  Nd  Nd3  1  0.250000  0.580478  0.705656  1
  Hf  Hf4  1  0.250000  0.800567  0.491428  1
  Hf  Hf5  1  0.750000  0.199433  0.508572  1
  Hf  Hf6  1  0.750000  0.300567  0.008572  1
  Hf  Hf7  1  0.250000  0.699433  0.991428  1
  Co  Co8  1  0.250000  0.096277  0.991486  1
  Co  Co9  1  0.750000  0.903723  0.008514  1
  Co  Co10  1  0.750000  0.596277  0.508514  1
  Co  Co11  1  0.250000  0.403723  0.491486  1
  Co  Co12  1  0.250000  0.279525  0.671998  1
  Co  Co13  1  0.750000  0.720475  0.328002  1
  Co  Co14  1  0.750000  0.779525  0.828002  1
  Co  Co15  1  0.250000  0.220475  0.171998  1
  Co  Co16  1  0.250000  0.615943  0.200400  1
  Co  Co17  1  0.750000  0.384057  0.799600  1
  Co  Co18  1  0.750000  0.115943  0.299600  1
  Co  Co19  1  0.250000  0.884057  0.700400  1
  Co  Co20  1  0.250000  0.036001  0.433211  1
  Co  Co21  1  0.750000  0.963999  0.566789  1
  Co  Co22  1  0.750000  0.536001  0.066789  1
  Co  Co23  1  0.250000  0.463999  0.933211  1
  As  As24  1  0.250000  0.075327  0.616734  1
  As  As25  1  0.750000  0.924673  0.383266  1
  As  As26  1  0.750000  0.575327  0.883266  1
  As  As27  1  0.250000  0.424673  0.116734  1
  As  As28  1  0.250000  0.228416  0.356838  1
  As  As29  1  0.750000  0.771584  0.643162  1
  As  As30  1  0.750000  0.728416  0.143162  1
  As  As31  1  0.250000  0.271584  0.856838  1
  As  As32  1  0.250000  0.910102  0.891198  1
  As  As33  1  0.750000  0.089898  0.108802  1
  As  As34  1  0.750000  0.410102  0.608802  1
  As  As35  1  0.250000  0.589898  0.391198  1
