# generated using pymatgen
data_Tm12Fe3AgHg
_symmetry_space_group_name_H-M   'P 1'
_cell_length_a   8.17027380
_cell_length_b   8.17027295
_cell_length_c   8.17027297
_cell_angle_alpha   109.35890837
_cell_angle_beta   107.68372133
_cell_angle_gamma   111.39237819
_symmetry_Int_Tables_number   1
_chemical_formula_structural   Tm12Fe3AgHg
_chemical_formula_sum   'Tm12 Fe3 Ag1 Hg1'
_cell_volume   419.40203470
_cell_formula_units_Z   1
loop_
 _symmetry_equiv_pos_site_id
 _symmetry_equiv_pos_as_xyz
  1  'x, y, z'
loop_
 _atom_site_type_symbol
 _atom_site_label
 _atom_site_symmetry_multiplicity
 _atom_site_fract_x
 _atom_site_fract_y
 _atom_site_fract_z
 _atom_site_occupancy
  Tm  Tm0  1  0.191460  0.438550  0.247090  1
  Tm  Tm1  1  0.808540  0.561450  0.752910  1
  Tm  Tm2  1  0.191460  0.944371  0.752910  1
  Tm  Tm3  1  0.955195  0.188371  0.766823  1
  Tm  Tm4  1  0.808540  0.055629  0.247090  1
  Tm  Tm5  1  0.044805  0.811629  0.233177  1
  Tm  Tm6  1  0.421548  0.188371  0.233177  1
  Tm  Tm7  1  0.578452  0.811629  0.766823  1
  Tm  Tm8  1  0.309819  0.308227  0.618045  1
  Tm  Tm9  1  0.690181  0.691773  0.381955  1
  Tm  Tm10  1  0.690181  0.308227  0.998409  1
  Tm  Tm11  1  0.309819  0.691773  0.001591  1
  Fe  Fe12  1  0.381844  0.381844  0.000000  1
  Fe  Fe13  1  0.618156  0.618156  0.000000  1
  Fe  Fe14  1  0.000000  0.000000  0.000000  1
  Ag  Ag15  1  0.000000  0.500000  0.500000  1
  Hg  Hg16  1  0.500000  0.000000  0.500000  1
