# generated using pymatgen
data_Y4AgPd4Pb
_symmetry_space_group_name_H-M   'P 1'
_cell_length_a   7.83873000
_cell_length_b   7.83873000
_cell_length_c   3.66336500
_cell_angle_alpha   90.00000000
_cell_angle_beta   90.00000000
_cell_angle_gamma   90.00000000
_symmetry_Int_Tables_number   1
_chemical_formula_structural   Y4AgPd4Pb
_chemical_formula_sum   'Y4 Ag1 Pd4 Pb1'
_cell_volume   225.09798287
_cell_formula_units_Z   1
loop_
 _symmetry_equiv_pos_site_id
 _symmetry_equiv_pos_as_xyz
  1  'x, y, z'
loop_
 _atom_site_type_symbol
 _atom_site_label
 _atom_site_symmetry_multiplicity
 _atom_site_fract_x
 _atom_site_fract_y
 _atom_site_fract_z
 _atom_site_occupancy
  Y  Y0  1  0.671939  0.169742  0.500000  1
  Y  Y1  1  0.169742  0.328061  0.500000  1
  Y  Y2  1  0.830258  0.671939  0.500000  1
  Y  Y3  1  0.328061  0.830258  0.500000  1
  Ag  Ag4  1  0.000000  0.000000  0.000000  1
  Pd  Pd5  1  0.878501  0.366406  0.000000  1
  Pd  Pd6  1  0.366406  0.121499  0.000000  1
  Pd  Pd7  1  0.633594  0.878501  0.000000  1
  Pd  Pd8  1  0.121499  0.633594  0.000000  1
  Pb  Pb9  1  0.500000  0.500000  0.000000  1
