# generated using pymatgen
data_Th2FeSiBr2
_symmetry_space_group_name_H-M   'P 1'
_cell_length_a   4.14032800
_cell_length_b   4.14032817
_cell_length_c   11.42459700
_cell_angle_alpha   90.00000000
_cell_angle_beta   90.00000000
_cell_angle_gamma   119.99998267
_symmetry_Int_Tables_number   1
_chemical_formula_structural   Th2FeSiBr2
_chemical_formula_sum   'Th2 Fe1 Si1 Br2'
_cell_volume   169.60596016
_cell_formula_units_Z   1
loop_
 _symmetry_equiv_pos_site_id
 _symmetry_equiv_pos_as_xyz
  1  'x, y, z'
loop_
 _atom_site_type_symbol
 _atom_site_label
 _atom_site_symmetry_multiplicity
 _atom_site_fract_x
 _atom_site_fract_y
 _atom_site_fract_z
 _atom_site_occupancy
  Th  Th0  1  0.000000  0.000000  0.153712  1
  Th  Th1  1  0.000000  0.000000  0.842234  1
  Fe  Fe2  1  0.333333  0.666667  0.009444  1
  Si  Si3  1  0.666667  0.333333  0.992824  1
  Br  Br4  1  0.333333  0.666667  0.665520  1
  Br  Br5  1  0.666667  0.333333  0.336265  1
