# generated using pymatgen
data_Ho5Hg4PdPt
_symmetry_space_group_name_H-M   'P 1'
_cell_length_a   3.63935000
_cell_length_b   7.92743593
_cell_length_c   18.17335839
_cell_angle_alpha   90.07268447
_cell_angle_beta   90.00000000
_cell_angle_gamma   90.00000000
_symmetry_Int_Tables_number   1
_chemical_formula_structural   Ho5Hg4PdPt
_chemical_formula_sum   'Ho10 Hg8 Pd2 Pt2'
_cell_volume   524.31394246
_cell_formula_units_Z   2
loop_
 _symmetry_equiv_pos_site_id
 _symmetry_equiv_pos_as_xyz
  1  'x, y, z'
loop_
 _atom_site_type_symbol
 _atom_site_label
 _atom_site_symmetry_multiplicity
 _atom_site_fract_x
 _atom_site_fract_y
 _atom_site_fract_z
 _atom_site_occupancy
  Ho  Ho0  1  0.000000  0.112080  0.414610  1
  Ho  Ho1  1  0.000000  0.887920  0.585390  1
  Ho  Ho2  1  0.000000  0.386086  0.914216  1
  Ho  Ho3  1  0.000000  0.613914  0.085784  1
  Ho  Ho4  1  0.000000  0.240979  0.215431  1
  Ho  Ho5  1  0.000000  0.759021  0.784569  1
  Ho  Ho6  1  0.000000  0.268655  0.716253  1
  Ho  Ho7  1  0.000000  0.731345  0.283747  1
  Ho  Ho8  1  0.000000  0.000000  0.000000  1
  Ho  Ho9  1  0.000000  0.500000  0.500000  1
  Hg  Hg10  1  0.500000  0.417507  0.355275  1
  Hg  Hg11  1  0.500000  0.582493  0.644725  1
  Hg  Hg12  1  0.500000  0.075618  0.853166  1
  Hg  Hg13  1  0.500000  0.924382  0.146834  1
  Hg  Hg14  1  0.500000  0.287801  0.062293  1
  Hg  Hg15  1  0.500000  0.712199  0.937707  1
  Hg  Hg16  1  0.500000  0.210283  0.564518  1
  Hg  Hg17  1  0.500000  0.789717  0.435482  1
  Pd  Pd18  1  0.500000  0.024051  0.303073  1
  Pd  Pd19  1  0.500000  0.975949  0.696927  1
  Pt  Pt20  1  0.500000  0.475441  0.803473  1
  Pt  Pt21  1  0.500000  0.524559  0.196527  1
