# generated using pymatgen
data_PrNd2Ho(MoN3)4
_symmetry_space_group_name_H-M   'P 1'
_cell_length_a   7.31870030
_cell_length_b   7.31869807
_cell_length_c   6.25318878
_cell_angle_alpha   76.12507383
_cell_angle_beta   76.12511307
_cell_angle_gamma   83.56494978
_symmetry_Int_Tables_number   1
_chemical_formula_structural   PrNd2Ho(MoN3)4
_chemical_formula_sum   'Pr1 Nd2 Ho1 Mo4 N12'
_cell_volume   315.15121001
_cell_formula_units_Z   1
loop_
 _symmetry_equiv_pos_site_id
 _symmetry_equiv_pos_as_xyz
  1  'x, y, z'
loop_
 _atom_site_type_symbol
 _atom_site_label
 _atom_site_symmetry_multiplicity
 _atom_site_fract_x
 _atom_site_fract_y
 _atom_site_fract_z
 _atom_site_occupancy
  Pr  Pr0  1  0.312342  0.687658  0.750000  1
  Nd  Nd1  1  0.912524  0.087476  0.750000  1
  Nd  Nd2  1  0.686913  0.313087  0.250000  1
  Ho  Ho3  1  0.088257  0.911743  0.250000  1
  Mo  Mo4  1  0.801729  0.619548  0.745773  1
  Mo  Mo5  1  0.198881  0.382207  0.249788  1
  Mo  Mo6  1  0.617794  0.801118  0.250212  1
  Mo  Mo7  1  0.380452  0.198271  0.754228  1
  N  N8  1  0.221678  0.000212  0.861335  1
  N  N9  1  0.335084  0.369973  0.486372  1
  N  N10  1  0.657783  0.623201  0.517472  1
  N  N11  1  0.613475  0.110153  0.649615  1
  N  N12  1  0.999788  0.778322  0.638665  1
  N  N13  1  0.780111  0.996133  0.157791  1
  N  N14  1  0.111943  0.619296  0.159066  1
  N  N15  1  0.889847  0.386526  0.850385  1
  N  N16  1  0.003867  0.219889  0.342208  1
  N  N17  1  0.376799  0.342217  0.982527  1
  N  N18  1  0.630026  0.664915  0.013628  1
  N  N19  1  0.380704  0.888057  0.340933  1
