# generated using pymatgen
data_LaThAlZn5
_symmetry_space_group_name_H-M   'P 1'
_cell_length_a   8.48701970
_cell_length_b   8.48701978
_cell_length_c   8.98570500
_cell_angle_alpha   90.00000000
_cell_angle_beta   90.00000000
_cell_angle_gamma   149.06156347
_symmetry_Int_Tables_number   1
_chemical_formula_structural   LaThAlZn5
_chemical_formula_sum   'La2 Th2 Al2 Zn10'
_cell_volume   332.75481366
_cell_formula_units_Z   2
loop_
 _symmetry_equiv_pos_site_id
 _symmetry_equiv_pos_as_xyz
  1  'x, y, z'
loop_
 _atom_site_type_symbol
 _atom_site_label
 _atom_site_symmetry_multiplicity
 _atom_site_fract_x
 _atom_site_fract_y
 _atom_site_fract_z
 _atom_site_occupancy
  La  La0  1  0.000000  0.000000  0.500000  1
  La  La1  1  0.000000  0.000000  0.000000  1
  Th  Th2  1  0.205538  0.794462  0.250000  1
  Th  Th3  1  0.794462  0.205538  0.750000  1
  Al  Al4  1  0.559982  0.440018  0.250000  1
  Al  Al5  1  0.440018  0.559982  0.750000  1
  Zn  Zn6  1  0.813667  0.186333  0.391244  1
  Zn  Zn7  1  0.186333  0.813667  0.608756  1
  Zn  Zn8  1  0.813667  0.186333  0.108756  1
  Zn  Zn9  1  0.186333  0.813667  0.891244  1
  Zn  Zn10  1  0.654271  0.345729  0.479509  1
  Zn  Zn11  1  0.345729  0.654271  0.520491  1
  Zn  Zn12  1  0.654271  0.345729  0.020491  1
  Zn  Zn13  1  0.345729  0.654271  0.979509  1
  Zn  Zn14  1  0.403046  0.596954  0.250000  1
  Zn  Zn15  1  0.596954  0.403046  0.750000  1
