# generated using pymatgen
data_Nd4Hf3PtF28
_symmetry_space_group_name_H-M   'P 1'
_cell_length_a   5.77830322
_cell_length_b   9.26844129
_cell_length_c   12.44814017
_cell_angle_alpha   62.06473718
_cell_angle_beta   89.95586496
_cell_angle_gamma   89.92482205
_symmetry_Int_Tables_number   1
_chemical_formula_structural   Nd4Hf3PtF28
_chemical_formula_sum   'Nd4 Hf3 Pt1 F28'
_cell_volume   588.98821016
_cell_formula_units_Z   1
loop_
 _symmetry_equiv_pos_site_id
 _symmetry_equiv_pos_as_xyz
  1  'x, y, z'
loop_
 _atom_site_type_symbol
 _atom_site_label
 _atom_site_symmetry_multiplicity
 _atom_site_fract_x
 _atom_site_fract_y
 _atom_site_fract_z
 _atom_site_occupancy
  Nd  Nd0  1  0.758130  0.813880  0.764392  1
  Nd  Nd1  1  0.257631  0.187225  0.732953  1
  Nd  Nd2  1  0.240393  0.186895  0.238670  1
  Nd  Nd3  1  0.742856  0.810596  0.266211  1
  Hf  Hf4  1  0.754515  0.273635  0.957542  1
  Hf  Hf5  1  0.255241  0.725227  0.543309  1
  Hf  Hf6  1  0.245319  0.725524  0.043240  1
  Pt  Pt7  1  0.742039  0.273392  0.456848  1
  F  F8  1  0.453009  0.710790  0.919753  1
  F  F9  1  0.932518  0.292442  0.581007  1
  F  F10  1  0.544117  0.287850  0.080381  1
  F  F11  1  0.049351  0.711997  0.419215  1
  F  F12  1  0.455066  0.282532  0.539823  1
  F  F13  1  0.956953  0.719287  0.953816  1
  F  F14  1  0.544003  0.716849  0.455502  1
  F  F15  1  0.040580  0.280049  0.048305  1
  F  F16  1  0.770001  0.517980  0.861838  1
  F  F17  1  0.266994  0.480622  0.637847  1
  F  F18  1  0.228545  0.481455  0.139616  1
  F  F19  1  0.734299  0.513402  0.360981  1
  F  F20  1  0.760865  0.029895  0.056025  1
  F  F21  1  0.262406  0.968961  0.446140  1
  F  F22  1  0.238730  0.969241  0.942907  1
  F  F23  1  0.741148  0.033119  0.548564  1
  F  F24  1  0.978916  0.731300  0.638957  1
  F  F25  1  0.482099  0.267990  0.859490  1
  F  F26  1  0.023960  0.271428  0.368473  1
  F  F27  1  0.520442  0.731411  0.139156  1
  F  F28  1  0.047194  0.745748  0.168688  1
  F  F29  1  0.555431  0.259763  0.329103  1
  F  F30  1  0.957891  0.255249  0.832325  1
  F  F31  1  0.455194  0.743505  0.669248  1
  F  F32  1  0.412903  0.968443  0.233025  1
  F  F33  1  0.912647  0.031385  0.269659  1
  F  F34  1  0.588405  0.033769  0.767719  1
  F  F35  1  0.090210  0.967159  0.729274  1
