# generated using pymatgen
data_Ho(LuTe2)2
_symmetry_space_group_name_H-M   'P 1'
_cell_length_a   4.27458900
_cell_length_b   7.41173922
_cell_length_c   7.40090038
_cell_angle_alpha   71.80218178
_cell_angle_beta   90.00000000
_cell_angle_gamma   90.00000000
_symmetry_Int_Tables_number   1
_chemical_formula_structural   Ho(LuTe2)2
_chemical_formula_sum   'Ho1 Lu2 Te4'
_cell_volume   222.74877177
_cell_formula_units_Z   1
loop_
 _symmetry_equiv_pos_site_id
 _symmetry_equiv_pos_as_xyz
  1  'x, y, z'
loop_
 _atom_site_type_symbol
 _atom_site_label
 _atom_site_symmetry_multiplicity
 _atom_site_fract_x
 _atom_site_fract_y
 _atom_site_fract_z
 _atom_site_occupancy
  Ho  Ho0  1  0.000000  0.500000  0.500000  1
  Lu  Lu1  1  0.000000  0.000000  0.000000  1
  Lu  Lu2  1  0.500000  0.500000  0.000000  1
  Te  Te3  1  0.500000  0.759018  0.253496  1
  Te  Te4  1  0.000000  0.249477  0.247529  1
  Te  Te5  1  0.500000  0.240982  0.746504  1
  Te  Te6  1  0.000000  0.750523  0.752471  1
