# generated using pymatgen
data_Na2Ga2SiS6
_symmetry_space_group_name_H-M   'P 1'
_cell_length_a   7.04245552
_cell_length_b   7.04245568
_cell_length_c   11.79678684
_cell_angle_alpha   76.31849110
_cell_angle_beta   76.31848859
_cell_angle_gamma   68.91842990
_symmetry_Int_Tables_number   1
_chemical_formula_structural   Na2Ga2SiS6
_chemical_formula_sum   'Na4 Ga4 Si2 S12'
_cell_volume   522.97253459
_cell_formula_units_Z   2
loop_
 _symmetry_equiv_pos_site_id
 _symmetry_equiv_pos_as_xyz
  1  'x, y, z'
loop_
 _atom_site_type_symbol
 _atom_site_label
 _atom_site_symmetry_multiplicity
 _atom_site_fract_x
 _atom_site_fract_y
 _atom_site_fract_z
 _atom_site_occupancy
  Na  Na0  1  0.908900  0.519536  0.340235  1
  Na  Na1  1  0.519536  0.908900  0.840235  1
  Na  Na2  1  0.062342  0.932754  0.502936  1
  Na  Na3  1  0.932754  0.062342  0.002936  1
  Ga  Ga4  1  0.601289  0.459938  0.697266  1
  Ga  Ga5  1  0.459938  0.601289  0.197266  1
  Ga  Ga6  1  0.297144  0.411872  0.997592  1
  Ga  Ga7  1  0.411872  0.297144  0.497592  1
  Si  Si8  1  0.078532  0.504649  0.746009  1
  Si  Si9  1  0.504649  0.078532  0.246009  1
  S  S10  1  0.717400  0.296835  0.535597  1
  S  S11  1  0.296835  0.717400  0.035597  1
  S  S12  1  0.593631  0.246745  0.878153  1
  S  S13  1  0.246745  0.593631  0.378153  1
  S  S14  1  0.270313  0.697931  0.695589  1
  S  S15  1  0.697931  0.270313  0.195589  1
  S  S16  1  0.214558  0.220027  0.680954  1
  S  S17  1  0.220027  0.214558  0.180954  1
  S  S18  1  0.800016  0.680065  0.672388  1
  S  S19  1  0.680065  0.800016  0.172388  1
  S  S20  1  0.995413  0.455828  0.933429  1
  S  S21  1  0.455828  0.995413  0.433429  1
