# generated using pymatgen
data_Tb2Sc3(SiGe)2
_symmetry_space_group_name_H-M   'P 1'
_cell_length_a   7.18327600
_cell_length_b   7.44245200
_cell_length_c   14.12262100
_cell_angle_alpha   90.00000000
_cell_angle_beta   90.00000000
_cell_angle_gamma   90.00000000
_symmetry_Int_Tables_number   1
_chemical_formula_structural   Tb2Sc3(SiGe)2
_chemical_formula_sum   'Tb8 Sc12 Si8 Ge8'
_cell_volume   755.01207985
_cell_formula_units_Z   4
loop_
 _symmetry_equiv_pos_site_id
 _symmetry_equiv_pos_as_xyz
  1  'x, y, z'
loop_
 _atom_site_type_symbol
 _atom_site_label
 _atom_site_symmetry_multiplicity
 _atom_site_fract_x
 _atom_site_fract_y
 _atom_site_fract_z
 _atom_site_occupancy
  Tb  Tb0  1  0.008826  0.176366  0.099030  1
  Tb  Tb1  1  0.991174  0.823634  0.900970  1
  Tb  Tb2  1  0.491174  0.676366  0.900970  1
  Tb  Tb3  1  0.991174  0.823634  0.599030  1
  Tb  Tb4  1  0.508826  0.323634  0.099030  1
  Tb  Tb5  1  0.008826  0.176366  0.400970  1
  Tb  Tb6  1  0.508826  0.323634  0.400970  1
  Tb  Tb7  1  0.491174  0.676366  0.599030  1
  Sc  Sc8  1  0.162865  0.501141  0.750000  1
  Sc  Sc9  1  0.837135  0.498859  0.250000  1
  Sc  Sc10  1  0.337135  0.001141  0.250000  1
  Sc  Sc11  1  0.662865  0.998859  0.750000  1
  Sc  Sc12  1  0.334068  0.173154  0.626613  1
  Sc  Sc13  1  0.665932  0.826846  0.373387  1
  Sc  Sc14  1  0.165932  0.673154  0.373387  1
  Sc  Sc15  1  0.665932  0.826846  0.126613  1
  Sc  Sc16  1  0.834068  0.326846  0.626613  1
  Sc  Sc17  1  0.334068  0.173154  0.873387  1
  Sc  Sc18  1  0.834068  0.326846  0.873387  1
  Sc  Sc19  1  0.165932  0.673154  0.126613  1
  Si  Si20  1  0.035354  0.118655  0.750000  1
  Si  Si21  1  0.964646  0.881345  0.250000  1
  Si  Si22  1  0.464646  0.618655  0.250000  1
  Si  Si23  1  0.535354  0.381345  0.750000  1
  Si  Si24  1  0.288378  0.873356  0.750000  1
  Si  Si25  1  0.711622  0.126644  0.250000  1
  Si  Si26  1  0.211622  0.373356  0.250000  1
  Si  Si27  1  0.788378  0.626644  0.750000  1
  Ge  Ge28  1  0.168313  0.461160  0.540954  1
  Ge  Ge29  1  0.831687  0.538840  0.459046  1
  Ge  Ge30  1  0.331687  0.961160  0.459046  1
  Ge  Ge31  1  0.831687  0.538840  0.040954  1
  Ge  Ge32  1  0.668313  0.038840  0.540954  1
  Ge  Ge33  1  0.168313  0.461160  0.959046  1
  Ge  Ge34  1  0.668313  0.038840  0.959046  1
  Ge  Ge35  1  0.331687  0.961160  0.040954  1
