# generated using pymatgen
data_SmEr15(HgRh)4
_symmetry_space_group_name_H-M   'P 1'
_cell_length_a   9.50378876
_cell_length_b   9.50648512
_cell_length_c   9.50378800
_cell_angle_alpha   59.99060826
_cell_angle_beta   59.95181126
_cell_angle_gamma   59.99061255
_symmetry_Int_Tables_number   1
_chemical_formula_structural   SmEr15(HgRh)4
_chemical_formula_sum   'Sm1 Er15 Hg4 Rh4'
_cell_volume   606.84596656
_cell_formula_units_Z   1
loop_
 _symmetry_equiv_pos_site_id
 _symmetry_equiv_pos_as_xyz
  1  'x, y, z'
loop_
 _atom_site_type_symbol
 _atom_site_label
 _atom_site_symmetry_multiplicity
 _atom_site_fract_x
 _atom_site_fract_y
 _atom_site_fract_z
 _atom_site_occupancy
  Sm  Sm0  1  0.563952  0.936048  0.563952  1
  Er  Er1  1  0.563028  0.562136  0.938311  1
  Er  Er2  1  0.148069  0.553923  0.148069  1
  Er  Er3  1  0.689413  0.311688  0.310837  1
  Er  Er4  1  0.938311  0.562136  0.563028  1
  Er  Er5  1  0.936444  0.563556  0.936444  1
  Er  Er6  1  0.689413  0.688061  0.310837  1
  Er  Er7  1  0.563028  0.936525  0.938311  1
  Er  Er8  1  0.148069  0.149938  0.148069  1
  Er  Er9  1  0.311015  0.688985  0.311015  1
  Er  Er10  1  0.554426  0.149235  0.147104  1
  Er  Er11  1  0.310837  0.311688  0.689413  1
  Er  Er12  1  0.310837  0.688061  0.689413  1
  Er  Er13  1  0.147104  0.149235  0.554426  1
  Er  Er14  1  0.688989  0.311011  0.688989  1
  Er  Er15  1  0.938311  0.936525  0.563028  1
  Hg  Hg16  1  0.914892  0.914934  0.914892  1
  Hg  Hg17  1  0.253373  0.914634  0.917358  1
  Hg  Hg18  1  0.917358  0.914634  0.253373  1
  Hg  Hg19  1  0.914892  0.255280  0.914892  1
  Rh  Rh20  1  0.356769  0.357230  0.928770  1
  Rh  Rh21  1  0.356347  0.358270  0.356347  1
  Rh  Rh22  1  0.928770  0.357230  0.356769  1
  Rh  Rh23  1  0.356347  0.929033  0.356347  1
