# generated using pymatgen
data_LiDy6Y3Cd3Ru
_symmetry_space_group_name_H-M   'P 1'
_cell_length_a   9.47097200
_cell_length_b   9.47097256
_cell_length_c   9.72828100
_cell_angle_alpha   90.00000000
_cell_angle_beta   90.00000000
_cell_angle_gamma   119.99999804
_symmetry_Int_Tables_number   1
_chemical_formula_structural   LiDy6Y3Cd3Ru
_chemical_formula_sum   'Li2 Dy12 Y6 Cd6 Ru2'
_cell_volume   755.71123366
_cell_formula_units_Z   2
loop_
 _symmetry_equiv_pos_site_id
 _symmetry_equiv_pos_as_xyz
  1  'x, y, z'
loop_
 _atom_site_type_symbol
 _atom_site_label
 _atom_site_symmetry_multiplicity
 _atom_site_fract_x
 _atom_site_fract_y
 _atom_site_fract_z
 _atom_site_occupancy
  Li  Li0  1  0.000000  0.000000  0.500000  1
  Li  Li1  1  0.000000  0.000000  0.000000  1
  Dy  Dy2  1  0.208131  0.791869  0.441255  1
  Dy  Dy3  1  0.208131  0.416262  0.441255  1
  Dy  Dy4  1  0.583738  0.791869  0.441255  1
  Dy  Dy5  1  0.791869  0.208131  0.558745  1
  Dy  Dy6  1  0.791869  0.583738  0.558745  1
  Dy  Dy7  1  0.416262  0.208131  0.558745  1
  Dy  Dy8  1  0.791869  0.208131  0.941255  1
  Dy  Dy9  1  0.791869  0.583738  0.941255  1
  Dy  Dy10  1  0.416262  0.208131  0.941255  1
  Dy  Dy11  1  0.208131  0.791869  0.058745  1
  Dy  Dy12  1  0.208131  0.416262  0.058745  1
  Dy  Dy13  1  0.583738  0.791869  0.058745  1
  Y  Y14  1  0.542369  0.457631  0.250000  1
  Y  Y15  1  0.542369  0.084738  0.250000  1
  Y  Y16  1  0.915262  0.457631  0.250000  1
  Y  Y17  1  0.457631  0.542369  0.750000  1
  Y  Y18  1  0.457631  0.915262  0.750000  1
  Y  Y19  1  0.084738  0.542369  0.750000  1
  Cd  Cd20  1  0.891641  0.108359  0.250000  1
  Cd  Cd21  1  0.891641  0.783283  0.250000  1
  Cd  Cd22  1  0.216717  0.108359  0.250000  1
  Cd  Cd23  1  0.108359  0.891641  0.750000  1
  Cd  Cd24  1  0.108359  0.216717  0.750000  1
  Cd  Cd25  1  0.783283  0.891641  0.750000  1
  Ru  Ru26  1  0.333333  0.666667  0.250000  1
  Ru  Ru27  1  0.666667  0.333333  0.750000  1
