# generated using pymatgen
data_Ce5Th2UH24
_symmetry_space_group_name_H-M   'P 1'
_cell_length_a   6.83416900
_cell_length_b   6.83456900
_cell_length_c   6.84059600
_cell_angle_alpha   90.00000000
_cell_angle_beta   90.00000000
_cell_angle_gamma   90.00000000
_symmetry_Int_Tables_number   1
_chemical_formula_structural   Ce5Th2UH24
_chemical_formula_sum   'Ce5 Th2 U1 H24'
_cell_volume   319.51465951
_cell_formula_units_Z   1
loop_
 _symmetry_equiv_pos_site_id
 _symmetry_equiv_pos_as_xyz
  1  'x, y, z'
loop_
 _atom_site_type_symbol
 _atom_site_label
 _atom_site_symmetry_multiplicity
 _atom_site_fract_x
 _atom_site_fract_y
 _atom_site_fract_z
 _atom_site_occupancy
  Ce  Ce0  1  0.747595  0.000000  0.500000  1
  Ce  Ce1  1  0.999373  0.500000  0.252136  1
  Ce  Ce2  1  0.999373  0.500000  0.747864  1
  Ce  Ce3  1  0.500089  0.744957  0.000000  1
  Ce  Ce4  1  0.500089  0.255043  0.000000  1
  Th  Th5  1  0.999149  0.000000  0.000000  1
  Th  Th6  1  0.252922  0.000000  0.500000  1
  U  U7  1  0.501062  0.500000  0.500000  1
  H  H8  1  0.003304  0.153857  0.306932  1
  H  H9  1  0.497279  0.200512  0.651213  1
  H  H10  1  0.497279  0.799488  0.348787  1
  H  H11  1  0.796414  0.653645  0.500000  1
  H  H12  1  0.205007  0.654745  0.500000  1
  H  H13  1  0.346776  0.500000  0.795168  1
  H  H14  1  0.653179  0.500000  0.795798  1
  H  H15  1  0.302552  0.000000  0.156675  1
  H  H16  1  0.153986  0.304216  0.000000  1
  H  H17  1  0.845664  0.694992  0.000000  1
  H  H18  1  0.302552  0.000000  0.843325  1
  H  H19  1  0.845664  0.305008  0.000000  1
  H  H20  1  0.695430  0.000000  0.154741  1
  H  H21  1  0.695430  0.000000  0.845259  1
  H  H22  1  0.153986  0.695784  0.000000  1
  H  H23  1  0.003304  0.846143  0.693068  1
  H  H24  1  0.003304  0.153857  0.693068  1
  H  H25  1  0.003304  0.846143  0.306932  1
  H  H26  1  0.653179  0.500000  0.204202  1
  H  H27  1  0.346776  0.500000  0.204832  1
  H  H28  1  0.796414  0.346355  0.500000  1
  H  H29  1  0.205007  0.345255  0.500000  1
  H  H30  1  0.497279  0.799488  0.651213  1
  H  H31  1  0.497279  0.200512  0.348787  1
