# generated using pymatgen
data_K3Rb(Ga2Au3)4
_symmetry_space_group_name_H-M   'P 1'
_cell_length_a   5.63823400
_cell_length_b   7.15709297
_cell_length_c   13.60419647
_cell_angle_alpha   89.87964679
_cell_angle_beta   90.00000000
_cell_angle_gamma   90.00000000
_symmetry_Int_Tables_number   1
_chemical_formula_structural   K3Rb(Ga2Au3)4
_chemical_formula_sum   'K3 Rb1 Ga8 Au12'
_cell_volume   548.97389314
_cell_formula_units_Z   1
loop_
 _symmetry_equiv_pos_site_id
 _symmetry_equiv_pos_as_xyz
  1  'x, y, z'
loop_
 _atom_site_type_symbol
 _atom_site_label
 _atom_site_symmetry_multiplicity
 _atom_site_fract_x
 _atom_site_fract_y
 _atom_site_fract_z
 _atom_site_occupancy
  K  K0  1  0.250000  0.111458  0.079133  1
  K  K1  1  0.250000  0.387794  0.581562  1
  K  K2  1  0.750000  0.888754  0.920352  1
  Rb  Rb3  1  0.750000  0.603534  0.426320  1
  Ga  Ga4  1  0.999257  0.897235  0.656163  1
  Ga  Ga5  1  0.501636  0.604119  0.154641  1
  Ga  Ga6  1  0.498246  0.102997  0.344071  1
  Ga  Ga7  1  0.002146  0.395391  0.845014  1
  Ga  Ga8  1  0.001754  0.102997  0.344071  1
  Ga  Ga9  1  0.497854  0.395391  0.845014  1
  Ga  Ga10  1  0.500743  0.897235  0.656163  1
  Ga  Ga11  1  0.998364  0.604119  0.154641  1
  Au  Au12  1  0.250000  0.105152  0.791936  1
  Au  Au13  1  0.250000  0.393530  0.289078  1
  Au  Au14  1  0.750000  0.895110  0.205926  1
  Au  Au15  1  0.750000  0.606658  0.709571  1
  Au  Au16  1  0.250000  0.702676  0.793823  1
  Au  Au17  1  0.250000  0.799052  0.291337  1
  Au  Au18  1  0.750000  0.294286  0.204494  1
  Au  Au19  1  0.750000  0.203932  0.706851  1
  Au  Au20  1  0.250000  0.591829  0.994292  1
  Au  Au21  1  0.250000  0.914969  0.494885  1
  Au  Au22  1  0.750000  0.407096  0.004894  1
  Au  Au23  1  0.750000  0.094685  0.505771  1
