# generated using pymatgen
data_Rb2Si2Hg3S8
_symmetry_space_group_name_H-M   'P 1'
_cell_length_a   6.48668100
_cell_length_b   10.05148296
_cell_length_c   13.49899717
_cell_angle_alpha   84.37019174
_cell_angle_beta   90.00000000
_cell_angle_gamma   90.00000000
_symmetry_Int_Tables_number   1
_chemical_formula_structural   Rb2Si2Hg3S8
_chemical_formula_sum   'Rb4 Si4 Hg6 S16'
_cell_volume   875.89954095
_cell_formula_units_Z   2
loop_
 _symmetry_equiv_pos_site_id
 _symmetry_equiv_pos_as_xyz
  1  'x, y, z'
loop_
 _atom_site_type_symbol
 _atom_site_label
 _atom_site_symmetry_multiplicity
 _atom_site_fract_x
 _atom_site_fract_y
 _atom_site_fract_z
 _atom_site_occupancy
  Rb  Rb0  1  0.154501  0.228779  0.680916  1
  Rb  Rb1  1  0.845499  0.771221  0.319084  1
  Rb  Rb2  1  0.654501  0.771221  0.819084  1
  Rb  Rb3  1  0.345499  0.228779  0.180916  1
  Si  Si4  1  0.203384  0.716230  0.581331  1
  Si  Si5  1  0.796616  0.283770  0.418669  1
  Si  Si6  1  0.703384  0.283770  0.918669  1
  Si  Si7  1  0.296616  0.716230  0.081331  1
  Hg  Hg8  1  0.216859  0.489526  0.893575  1
  Hg  Hg9  1  0.783141  0.510474  0.106425  1
  Hg  Hg10  1  0.716859  0.510474  0.606425  1
  Hg  Hg11  1  0.283141  0.489526  0.393575  1
  Hg  Hg12  1  0.500000  0.000000  0.500000  1
  Hg  Hg13  1  0.000000  0.000000  0.000000  1
  S  S14  1  0.872458  0.734203  0.587681  1
  S  S15  1  0.127542  0.265797  0.412319  1
  S  S16  1  0.372458  0.265797  0.912319  1
  S  S17  1  0.627542  0.734203  0.087681  1
  S  S18  1  0.321866  0.551373  0.671541  1
  S  S19  1  0.678134  0.448627  0.328459  1
  S  S20  1  0.821866  0.448627  0.828459  1
  S  S21  1  0.178134  0.551373  0.171541  1
  S  S22  1  0.297867  0.905833  0.635491  1
  S  S23  1  0.702133  0.094167  0.364509  1
  S  S24  1  0.797867  0.094167  0.864509  1
  S  S25  1  0.202133  0.905833  0.135491  1
  S  S26  1  0.186917  0.725063  0.930233  1
  S  S27  1  0.813083  0.274937  0.069767  1
  S  S28  1  0.686917  0.274937  0.569767  1
  S  S29  1  0.313083  0.725063  0.430233  1
