# generated using pymatgen
data_Cs4Zr6CBr18
_symmetry_space_group_name_H-M   'P 1'
_cell_length_a   10.84286331
_cell_length_b   11.15777778
_cell_length_c   11.27374287
_cell_angle_alpha   118.28349134
_cell_angle_beta   100.37428385
_cell_angle_gamma   104.29426052
_symmetry_Int_Tables_number   1
_chemical_formula_structural   Cs4Zr6CBr18
_chemical_formula_sum   'Cs4 Zr6 C1 Br18'
_cell_volume   1091.10209695
_cell_formula_units_Z   1
loop_
 _symmetry_equiv_pos_site_id
 _symmetry_equiv_pos_as_xyz
  1  'x, y, z'
loop_
 _atom_site_type_symbol
 _atom_site_label
 _atom_site_symmetry_multiplicity
 _atom_site_fract_x
 _atom_site_fract_y
 _atom_site_fract_z
 _atom_site_occupancy
  Cs  Cs0  1  0.194443  0.726508  0.563304  1
  Cs  Cs1  1  0.839237  0.962987  0.769965  1
  Cs  Cs2  1  0.160763  0.037013  0.230035  1
  Cs  Cs3  1  0.805557  0.273492  0.436696  1
  Zr  Zr4  1  0.358102  0.446653  0.784826  1
  Zr  Zr5  1  0.368489  0.615220  0.121472  1
  Zr  Zr6  1  0.637513  0.723643  0.042875  1
  Zr  Zr7  1  0.641898  0.553347  0.215174  1
  Zr  Zr8  1  0.362487  0.276357  0.957125  1
  Zr  Zr9  1  0.631511  0.384780  0.878528  1
  C  C10  1  0.500000  0.500000  0.000000  1
  Br  Br11  1  0.811322  0.430024  0.108177  1
  Br  Br12  1  0.513524  0.694196  0.387533  1
  Br  Br13  1  0.193073  0.001150  0.903638  1
  Br  Br14  1  0.188678  0.569976  0.891823  1
  Br  Br15  1  0.819352  0.819846  0.298047  1
  Br  Br16  1  0.503408  0.305387  0.199193  1
  Br  Br17  1  0.788290  0.245141  0.731852  1
  Br  Br18  1  0.180648  0.180154  0.701953  1
  Br  Br19  1  0.506653  0.888616  0.186089  1
  Br  Br20  1  0.807763  0.625572  0.910923  1
  Br  Br21  1  0.211710  0.754859  0.268148  1
  Br  Br22  1  0.181094  0.381982  0.521274  1
  Br  Br23  1  0.496592  0.694613  0.800807  1
  Br  Br24  1  0.806927  0.998850  0.096362  1
  Br  Br25  1  0.486476  0.305804  0.612467  1
  Br  Br26  1  0.192237  0.374428  0.089077  1
  Br  Br27  1  0.818906  0.618018  0.478726  1
  Br  Br28  1  0.493347  0.111384  0.813911  1
