# generated using pymatgen
data_Na2Cd5Ga3Au4
_symmetry_space_group_name_H-M   'P 1'
_cell_length_a   4.57392400
_cell_length_b   7.34119435
_cell_length_c   18.38707700
_cell_angle_alpha   90.04586039
_cell_angle_beta   90.00000000
_cell_angle_gamma   90.00000000
_symmetry_Int_Tables_number   1
_chemical_formula_structural   Na2Cd5Ga3Au4
_chemical_formula_sum   'Na4 Cd10 Ga6 Au8'
_cell_volume   617.40226951
_cell_formula_units_Z   2
loop_
 _symmetry_equiv_pos_site_id
 _symmetry_equiv_pos_as_xyz
  1  'x, y, z'
loop_
 _atom_site_type_symbol
 _atom_site_label
 _atom_site_symmetry_multiplicity
 _atom_site_fract_x
 _atom_site_fract_y
 _atom_site_fract_z
 _atom_site_occupancy
  Na  Na0  1  0.750000  0.957257  0.856530  1
  Na  Na1  1  0.750000  0.542774  0.356567  1
  Na  Na2  1  0.250000  0.034211  0.145738  1
  Na  Na3  1  0.250000  0.465750  0.645567  1
  Cd  Cd4  1  0.250000  0.996752  0.566034  1
  Cd  Cd5  1  0.250000  0.503822  0.066101  1
  Cd  Cd6  1  0.750000  0.011575  0.430563  1
  Cd  Cd7  1  0.750000  0.486918  0.930375  1
  Cd  Cd8  1  0.250000  0.150060  0.965541  1
  Cd  Cd9  1  0.250000  0.349392  0.465299  1
  Cd  Cd10  1  0.750000  0.842841  0.038556  1
  Cd  Cd11  1  0.750000  0.656989  0.538754  1
  Cd  Cd12  1  0.250000  0.265201  0.813665  1
  Cd  Cd13  1  0.250000  0.235454  0.313403  1
  Ga  Ga14  1  0.750000  0.721543  0.186245  1
  Ga  Ga15  1  0.750000  0.778757  0.686327  1
  Ga  Ga16  1  0.250000  0.667831  0.807350  1
  Ga  Ga17  1  0.250000  0.832670  0.307817  1
  Ga  Ga18  1  0.750000  0.332089  0.195840  1
  Ga  Ga19  1  0.750000  0.168102  0.695585  1
  Au  Au20  1  0.250000  0.955766  0.719624  1
  Au  Au21  1  0.250000  0.544884  0.219748  1
  Au  Au22  1  0.750000  0.014427  0.272084  1
  Au  Au23  1  0.750000  0.485688  0.771819  1
  Au  Au24  1  0.250000  0.752313  0.945676  1
  Au  Au25  1  0.250000  0.746712  0.445956  1
  Au  Au26  1  0.750000  0.247370  0.056749  1
  Au  Au27  1  0.750000  0.252846  0.556492  1
