# generated using pymatgen
data_TmZr(Ni2As)4
_symmetry_space_group_name_H-M   'P 1'
_cell_length_a   7.15714647
_cell_length_b   7.15714647
_cell_length_c   3.76413500
_cell_angle_alpha   90.00000000
_cell_angle_beta   90.00000000
_cell_angle_gamma   90.59803769
_symmetry_Int_Tables_number   1
_chemical_formula_structural   TmZr(Ni2As)4
_chemical_formula_sum   'Tm1 Zr1 Ni8 As4'
_cell_volume   192.80635440
_cell_formula_units_Z   1
loop_
 _symmetry_equiv_pos_site_id
 _symmetry_equiv_pos_as_xyz
  1  'x, y, z'
loop_
 _atom_site_type_symbol
 _atom_site_label
 _atom_site_symmetry_multiplicity
 _atom_site_fract_x
 _atom_site_fract_y
 _atom_site_fract_z
 _atom_site_occupancy
  Tm  Tm0  1  0.000000  0.000000  0.500000  1
  Zr  Zr1  1  0.500000  0.500000  0.000000  1
  Ni  Ni2  1  0.588605  0.154868  0.500000  1
  Ni  Ni3  1  0.411395  0.845132  0.500000  1
  Ni  Ni4  1  0.089893  0.344572  0.000000  1
  Ni  Ni5  1  0.910107  0.655428  0.000000  1
  Ni  Ni6  1  0.154868  0.588605  0.500000  1
  Ni  Ni7  1  0.845132  0.411395  0.500000  1
  Ni  Ni8  1  0.344572  0.089893  0.000000  1
  Ni  Ni9  1  0.655428  0.910107  0.000000  1
  As  As10  1  0.712091  0.712091  0.500000  1
  As  As11  1  0.287909  0.287909  0.500000  1
  As  As12  1  0.222445  0.777555  0.000000  1
  As  As13  1  0.777555  0.222445  0.000000  1
