# generated using pymatgen
data_TbYbTc2F14
_symmetry_space_group_name_H-M   'P 1'
_cell_length_a   5.59426630
_cell_length_b   8.91483124
_cell_length_c   12.04637647
_cell_angle_alpha   62.85794149
_cell_angle_beta   90.05507536
_cell_angle_gamma   89.88107777
_symmetry_Int_Tables_number   1
_chemical_formula_structural   TbYbTc2F14
_chemical_formula_sum   'Tb2 Yb2 Tc4 F28'
_cell_volume   534.61521219
_cell_formula_units_Z   2
loop_
 _symmetry_equiv_pos_site_id
 _symmetry_equiv_pos_as_xyz
  1  'x, y, z'
loop_
 _atom_site_type_symbol
 _atom_site_label
 _atom_site_symmetry_multiplicity
 _atom_site_fract_x
 _atom_site_fract_y
 _atom_site_fract_z
 _atom_site_occupancy
  Tb  Tb0  1  0.762342  0.180022  0.234321  1
  Tb  Tb1  1  0.237658  0.819978  0.765679  1
  Yb  Yb2  1  0.260259  0.816919  0.265104  1
  Yb  Yb3  1  0.739741  0.183081  0.734896  1
  Tc  Tc4  1  0.756925  0.726217  0.046492  1
  Tc  Tc5  1  0.243075  0.273783  0.953508  1
  Tc  Tc6  1  0.258509  0.277306  0.455641  1
  Tc  Tc7  1  0.741491  0.722694  0.544359  1
  F  F8  1  0.943478  0.706220  0.422209  1
  F  F9  1  0.056522  0.293780  0.577791  1
  F  F10  1  0.444976  0.295146  0.077167  1
  F  F11  1  0.555024  0.704854  0.922833  1
  F  F12  1  0.477882  0.729625  0.138010  1
  F  F13  1  0.522118  0.270375  0.861990  1
  F  F14  1  0.976508  0.270850  0.362182  1
  F  F15  1  0.023492  0.729150  0.637818  1
  F  F16  1  0.957079  0.743970  0.169915  1
  F  F17  1  0.042921  0.256030  0.830085  1
  F  F18  1  0.458990  0.255589  0.330037  1
  F  F19  1  0.541010  0.744411  0.669963  1
  F  F20  1  0.768807  0.482205  0.140450  1
  F  F21  1  0.231193  0.517795  0.859550  1
  F  F22  1  0.267264  0.516894  0.359866  1
  F  F23  1  0.732736  0.483106  0.640134  1
  F  F24  1  0.952567  0.283326  0.042487  1
  F  F25  1  0.047433  0.716674  0.957513  1
  F  F26  1  0.456292  0.717129  0.456401  1
  F  F27  1  0.543708  0.282871  0.543599  1
  F  F28  1  0.741008  0.965948  0.451558  1
  F  F29  1  0.258992  0.034052  0.548442  1
  F  F30  1  0.242360  0.034712  0.048373  1
  F  F31  1  0.757640  0.965288  0.951627  1
  F  F32  1  0.584561  0.972596  0.230438  1
  F  F33  1  0.415439  0.027404  0.769562  1
  F  F34  1  0.083020  0.034027  0.268606  1
  F  F35  1  0.916980  0.965973  0.731394  1
