# generated using pymatgen
data_K2BeBr4
_symmetry_space_group_name_H-M   'P 1'
_cell_length_a   7.37792100
_cell_length_b   9.40232600
_cell_length_c   13.05077500
_cell_angle_alpha   90.00000000
_cell_angle_beta   90.00000000
_cell_angle_gamma   90.00000000
_symmetry_Int_Tables_number   1
_chemical_formula_structural   K2BeBr4
_chemical_formula_sum   'K8 Be4 Br16'
_cell_volume   905.32728215
_cell_formula_units_Z   4
loop_
 _symmetry_equiv_pos_site_id
 _symmetry_equiv_pos_as_xyz
  1  'x, y, z'
loop_
 _atom_site_type_symbol
 _atom_site_label
 _atom_site_symmetry_multiplicity
 _atom_site_fract_x
 _atom_site_fract_y
 _atom_site_fract_z
 _atom_site_occupancy
  K  K0  1  0.750000  0.516911  0.328702  1
  K  K1  1  0.250000  0.483089  0.671298  1
  K  K2  1  0.250000  0.983089  0.828702  1
  K  K3  1  0.750000  0.016911  0.171298  1
  K  K4  1  0.750000  0.864444  0.582356  1
  K  K5  1  0.250000  0.135556  0.417644  1
  K  K6  1  0.250000  0.635556  0.082356  1
  K  K7  1  0.750000  0.364444  0.917644  1
  Be  Be8  1  0.750000  0.768387  0.923412  1
  Be  Be9  1  0.250000  0.231613  0.076588  1
  Be  Be10  1  0.250000  0.731613  0.423412  1
  Be  Be11  1  0.750000  0.268387  0.576588  1
  Br  Br12  1  0.992242  0.682725  0.847476  1
  Br  Br13  1  0.007758  0.317275  0.152524  1
  Br  Br14  1  0.007758  0.817275  0.347476  1
  Br  Br15  1  0.492242  0.317275  0.152524  1
  Br  Br16  1  0.992242  0.182725  0.652524  1
  Br  Br17  1  0.507758  0.682725  0.847476  1
  Br  Br18  1  0.507758  0.182725  0.652524  1
  Br  Br19  1  0.492242  0.817275  0.347476  1
  Br  Br20  1  0.750000  0.001165  0.915399  1
  Br  Br21  1  0.250000  0.998835  0.084601  1
  Br  Br22  1  0.250000  0.498835  0.415399  1
  Br  Br23  1  0.750000  0.501165  0.584601  1
  Br  Br24  1  0.750000  0.187380  0.417714  1
  Br  Br25  1  0.250000  0.812620  0.582286  1
  Br  Br26  1  0.250000  0.312620  0.917714  1
  Br  Br27  1  0.750000  0.687380  0.082286  1
