# generated using pymatgen
data_Ca5P12Ir9Rh10
_symmetry_space_group_name_H-M   'P 1'
_cell_length_a   12.80329400
_cell_length_b   12.80329412
_cell_length_c   4.00514500
_cell_angle_alpha   90.00000000
_cell_angle_beta   90.00000000
_cell_angle_gamma   119.99999968
_symmetry_Int_Tables_number   1
_chemical_formula_structural   Ca5P12Ir9Rh10
_chemical_formula_sum   'Ca5 P12 Ir9 Rh10'
_cell_volume   568.58096659
_cell_formula_units_Z   1
loop_
 _symmetry_equiv_pos_site_id
 _symmetry_equiv_pos_as_xyz
  1  'x, y, z'
loop_
 _atom_site_type_symbol
 _atom_site_label
 _atom_site_symmetry_multiplicity
 _atom_site_fract_x
 _atom_site_fract_y
 _atom_site_fract_z
 _atom_site_occupancy
  Ca  Ca0  1  0.183665  0.183665  0.500000  1
  Ca  Ca1  1  0.816335  0.000000  0.500000  1
  Ca  Ca2  1  0.000000  0.816335  0.500000  1
  Ca  Ca3  1  0.333333  0.666667  0.000000  1
  Ca  Ca4  1  0.666667  0.333333  0.000000  1
  P  P5  1  0.818401  0.818401  0.000000  1
  P  P6  1  0.181599  0.000000  0.000000  1
  P  P7  1  0.000000  0.181599  0.000000  1
  P  P8  1  0.171519  0.482934  0.500000  1
  P  P9  1  0.517066  0.688584  0.500000  1
  P  P10  1  0.311416  0.828481  0.500000  1
  P  P11  1  0.688584  0.517066  0.500000  1
  P  P12  1  0.828481  0.311416  0.500000  1
  P  P13  1  0.482934  0.171519  0.500000  1
  P  P14  1  0.365655  0.365655  0.000000  1
  P  P15  1  0.634345  0.000000  0.000000  1
  P  P16  1  0.000000  0.634345  0.000000  1
  Ir  Ir17  1  0.714534  0.714534  0.500000  1
  Ir  Ir18  1  0.285466  0.000000  0.500000  1
  Ir  Ir19  1  0.000000  0.285466  0.500000  1
  Ir  Ir20  1  0.361076  0.491208  0.500000  1
  Ir  Ir21  1  0.508792  0.869869  0.500000  1
  Ir  Ir22  1  0.130131  0.638924  0.500000  1
  Ir  Ir23  1  0.869869  0.508792  0.500000  1
  Ir  Ir24  1  0.638924  0.130131  0.500000  1
  Ir  Ir25  1  0.491208  0.361076  0.500000  1
  Rh  Rh26  1  0.543479  0.543479  0.000000  1
  Rh  Rh27  1  0.456521  0.000000  0.000000  1
  Rh  Rh28  1  0.000000  0.456521  0.000000  1
  Rh  Rh29  1  0.181810  0.377614  0.000000  1
  Rh  Rh30  1  0.622386  0.804196  0.000000  1
  Rh  Rh31  1  0.195804  0.818190  0.000000  1
  Rh  Rh32  1  0.804196  0.622386  0.000000  1
  Rh  Rh33  1  0.818190  0.195804  0.000000  1
  Rh  Rh34  1  0.377614  0.181810  0.000000  1
  Rh  Rh35  1  0.000000  0.000000  0.000000  1
