# generated using pymatgen
data_Tb2DyEr5Al4
_symmetry_space_group_name_H-M   'P 1'
_cell_length_a   5.07478400
_cell_length_b   6.54814640
_cell_length_c   9.38563652
_cell_angle_alpha   90.24596522
_cell_angle_beta   90.00000000
_cell_angle_gamma   90.00000000
_symmetry_Int_Tables_number   1
_chemical_formula_structural   Tb2DyEr5Al4
_chemical_formula_sum   'Tb2 Dy1 Er5 Al4'
_cell_volume   311.88585039
_cell_formula_units_Z   1
loop_
 _symmetry_equiv_pos_site_id
 _symmetry_equiv_pos_as_xyz
  1  'x, y, z'
loop_
 _atom_site_type_symbol
 _atom_site_label
 _atom_site_symmetry_multiplicity
 _atom_site_fract_x
 _atom_site_fract_y
 _atom_site_fract_z
 _atom_site_occupancy
  Tb  Tb0  1  0.250000  0.810167  0.927940  1
  Tb  Tb1  1  0.750000  0.189033  0.071477  1
  Dy  Dy2  1  0.250000  0.313267  0.571866  1
  Er  Er3  1  0.750000  0.687656  0.428624  1
  Er  Er4  1  0.250000  0.968958  0.289643  1
  Er  Er5  1  0.250000  0.470220  0.211853  1
  Er  Er6  1  0.750000  0.029459  0.710065  1
  Er  Er7  1  0.750000  0.530135  0.788508  1
  Al  Al8  1  0.250000  0.291883  0.895568  1
  Al  Al9  1  0.250000  0.791231  0.601442  1
  Al  Al10  1  0.750000  0.708413  0.105999  1
  Al  Al11  1  0.750000  0.209580  0.397014  1
