# generated using pymatgen
data_Ti4Si5GeMo6
_symmetry_space_group_name_H-M   'P 1'
_cell_length_a   7.32757210
_cell_length_b   7.32757164
_cell_length_c   7.34432302
_cell_angle_alpha   96.64074772
_cell_angle_beta   96.61848343
_cell_angle_gamma   140.22573161
_symmetry_Int_Tables_number   1
_chemical_formula_structural   Ti4Si5GeMo6
_chemical_formula_sum   'Ti4 Si5 Ge1 Mo6'
_cell_volume   237.31097403
_cell_formula_units_Z   1
loop_
 _symmetry_equiv_pos_site_id
 _symmetry_equiv_pos_as_xyz
  1  'x, y, z'
loop_
 _atom_site_type_symbol
 _atom_site_label
 _atom_site_symmetry_multiplicity
 _atom_site_fract_x
 _atom_site_fract_y
 _atom_site_fract_z
 _atom_site_occupancy
  Ti  Ti0  1  0.724946  0.577407  0.302350  1
  Ti  Ti1  1  0.275605  0.421415  0.697023  1
  Ti  Ti2  1  0.575816  0.275502  0.851318  1
  Ti  Ti3  1  0.425965  0.725621  0.151586  1
  Si  Si4  1  0.333463  0.165963  0.499426  1
  Si  Si5  1  0.666771  0.835087  0.501858  1
  Si  Si6  1  0.834299  0.332695  0.166996  1
  Si  Si7  1  0.753034  0.752990  0.999840  1
  Si  Si8  1  0.246850  0.246806  0.999840  1
  Ge  Ge9  1  0.167252  0.667101  0.834352  1
  Mo  Mo10  1  0.075419  0.220683  0.296100  1
  Mo  Mo11  1  0.779778  0.073834  0.853612  1
  Mo  Mo12  1  0.222158  0.928639  0.150798  1
  Mo  Mo13  1  0.922348  0.779639  0.701989  1
  Mo  Mo14  1  0.747656  0.247816  0.496457  1
  Mo  Mo15  1  0.248641  0.748801  0.496457  1
