# generated using pymatgen
data_K3Mn2TlS2(O4F3)2
_symmetry_space_group_name_H-M   'P 1'
_cell_length_a   7.45957000
_cell_length_b   8.53063300
_cell_length_c   10.98786500
_cell_angle_alpha   90.00000000
_cell_angle_beta   90.00000000
_cell_angle_gamma   90.00000000
_symmetry_Int_Tables_number   1
_chemical_formula_structural   K3Mn2TlS2(O4F3)2
_chemical_formula_sum   'K6 Mn4 Tl2 S4 O16 F12'
_cell_volume   699.21118513
_cell_formula_units_Z   2
loop_
 _symmetry_equiv_pos_site_id
 _symmetry_equiv_pos_as_xyz
  1  'x, y, z'
loop_
 _atom_site_type_symbol
 _atom_site_label
 _atom_site_symmetry_multiplicity
 _atom_site_fract_x
 _atom_site_fract_y
 _atom_site_fract_z
 _atom_site_occupancy
  K  K0  1  0.312205  0.828788  0.307863  1
  K  K1  1  0.688280  0.669984  0.809821  1
  K  K2  1  0.688280  0.169984  0.690179  1
  K  K3  1  0.312205  0.328788  0.192137  1
  K  K4  1  0.188259  0.330897  0.808930  1
  K  K5  1  0.188259  0.830897  0.691070  1
  Mn  Mn6  1  0.498235  0.499537  0.502547  1
  Mn  Mn7  1  0.498235  0.999537  0.997453  1
  Mn  Mn8  1  0.002647  0.501314  0.502915  1
  Mn  Mn9  1  0.002647  0.001314  0.997085  1
  Tl  Tl10  1  0.807954  0.668908  0.188679  1
  Tl  Tl11  1  0.807954  0.168908  0.311321  1
  S  S12  1  0.251262  0.191269  0.501642  1
  S  S13  1  0.748108  0.306659  0.996623  1
  S  S14  1  0.748108  0.806659  0.503377  1
  S  S15  1  0.251262  0.691269  0.998358  1
  O  O16  1  0.335006  0.098617  0.598673  1
  O  O17  1  0.830700  0.403318  0.901598  1
  O  O18  1  0.170588  0.095530  0.404981  1
  O  O19  1  0.660276  0.397513  0.093445  1
  O  O20  1  0.660276  0.897513  0.406555  1
  O  O21  1  0.170588  0.595530  0.095019  1
  O  O22  1  0.830700  0.903318  0.598402  1
  O  O23  1  0.335006  0.598617  0.901327  1
  O  O24  1  0.389031  0.297179  0.440958  1
  O  O25  1  0.889560  0.203989  0.056623  1
  O  O26  1  0.110602  0.295348  0.561097  1
  O  O27  1  0.611694  0.200795  0.935087  1
  O  O28  1  0.110602  0.795348  0.938903  1
  O  O29  1  0.889560  0.703989  0.443377  1
  O  O30  1  0.611694  0.700795  0.564913  1
  O  O31  1  0.389031  0.797179  0.059042  1
  F  F32  1  0.472476  0.940704  0.835207  1
  F  F33  1  0.978150  0.557856  0.665418  1
  F  F34  1  0.032485  0.947224  0.160221  1
  F  F35  1  0.520730  0.556880  0.339707  1
  F  F36  1  0.751326  0.888303  0.994843  1
  F  F37  1  0.250428  0.619390  0.503092  1
  F  F38  1  0.250428  0.119390  0.996908  1
  F  F39  1  0.751326  0.388303  0.505157  1
  F  F40  1  0.978150  0.057856  0.834582  1
  F  F41  1  0.520730  0.056880  0.160293  1
  F  F42  1  0.032485  0.447224  0.339779  1
  F  F43  1  0.472476  0.440704  0.664793  1
