# generated using pymatgen
data_Yb3SiAsRh2
_symmetry_space_group_name_H-M   'P 1'
_cell_length_a   5.55831100
_cell_length_b   7.48422700
_cell_length_c   13.30101100
_cell_angle_alpha   90.00000000
_cell_angle_beta   90.00000000
_cell_angle_gamma   90.00000000
_symmetry_Int_Tables_number   1
_chemical_formula_structural   Yb3SiAsRh2
_chemical_formula_sum   'Yb12 Si4 As4 Rh8'
_cell_volume   553.31755202
_cell_formula_units_Z   4
loop_
 _symmetry_equiv_pos_site_id
 _symmetry_equiv_pos_as_xyz
  1  'x, y, z'
loop_
 _atom_site_type_symbol
 _atom_site_label
 _atom_site_symmetry_multiplicity
 _atom_site_fract_x
 _atom_site_fract_y
 _atom_site_fract_z
 _atom_site_occupancy
  Yb  Yb0  1  0.138675  0.604522  0.099116  1
  Yb  Yb1  1  0.138675  0.895478  0.900884  1
  Yb  Yb2  1  0.861325  0.104522  0.400884  1
  Yb  Yb3  1  0.861325  0.395478  0.599116  1
  Yb  Yb4  1  0.861325  0.395478  0.900884  1
  Yb  Yb5  1  0.861325  0.104522  0.099116  1
  Yb  Yb6  1  0.138675  0.895478  0.599116  1
  Yb  Yb7  1  0.138675  0.604522  0.400884  1
  Yb  Yb8  1  0.367714  0.249096  0.250000  1
  Yb  Yb9  1  0.367714  0.250904  0.750000  1
  Yb  Yb10  1  0.632286  0.749096  0.250000  1
  Yb  Yb11  1  0.632286  0.750904  0.750000  1
  Si  Si12  1  0.388851  0.250000  0.000000  1
  Si  Si13  1  0.611149  0.750000  0.500000  1
  Si  Si14  1  0.611149  0.750000  0.000000  1
  Si  Si15  1  0.388851  0.250000  0.500000  1
  As  As16  1  0.864091  0.393041  0.250000  1
  As  As17  1  0.864091  0.106959  0.750000  1
  As  As18  1  0.135909  0.893041  0.250000  1
  As  As19  1  0.135909  0.606959  0.750000  1
  Rh  Rh20  1  0.630790  0.471926  0.088515  1
  Rh  Rh21  1  0.630790  0.028074  0.911485  1
  Rh  Rh22  1  0.369210  0.971926  0.411485  1
  Rh  Rh23  1  0.369210  0.528074  0.588515  1
  Rh  Rh24  1  0.369210  0.528074  0.911485  1
  Rh  Rh25  1  0.369210  0.971926  0.088515  1
  Rh  Rh26  1  0.630790  0.028074  0.588515  1
  Rh  Rh27  1  0.630790  0.471926  0.411485  1
