# generated using pymatgen
data_ZrTiFe12P7
_symmetry_space_group_name_H-M   'P 1'
_cell_length_a   8.83302200
_cell_length_b   8.83302198
_cell_length_c   3.56775100
_cell_angle_alpha   90.00000000
_cell_angle_beta   90.00000000
_cell_angle_gamma   119.99999258
_symmetry_Int_Tables_number   1
_chemical_formula_structural   ZrTiFe12P7
_chemical_formula_sum   'Zr1 Ti1 Fe12 P7'
_cell_volume   241.07036421
_cell_formula_units_Z   1
loop_
 _symmetry_equiv_pos_site_id
 _symmetry_equiv_pos_as_xyz
  1  'x, y, z'
loop_
 _atom_site_type_symbol
 _atom_site_label
 _atom_site_symmetry_multiplicity
 _atom_site_fract_x
 _atom_site_fract_y
 _atom_site_fract_z
 _atom_site_occupancy
  Zr  Zr0  1  0.000000  0.000000  0.000000  1
  Ti  Ti1  1  0.333333  0.666667  0.500000  1
  Fe  Fe2  1  0.097622  0.397272  0.000000  1
  Fe  Fe3  1  0.299650  0.902378  0.000000  1
  Fe  Fe4  1  0.602728  0.700350  0.000000  1
  Fe  Fe5  1  0.824280  0.610221  0.000000  1
  Fe  Fe6  1  0.785942  0.175720  0.000000  1
  Fe  Fe7  1  0.389779  0.214058  0.000000  1
  Fe  Fe8  1  0.054828  0.771064  0.500000  1
  Fe  Fe9  1  0.716236  0.945172  0.500000  1
  Fe  Fe10  1  0.228936  0.283764  0.500000  1
  Fe  Fe11  1  0.886607  0.432158  0.500000  1
  Fe  Fe12  1  0.545551  0.113393  0.500000  1
  Fe  Fe13  1  0.567842  0.454449  0.500000  1
  P  P14  1  0.084940  0.633317  0.000000  1
  P  P15  1  0.548376  0.915060  0.000000  1
  P  P16  1  0.366683  0.451624  0.000000  1
  P  P17  1  0.782693  0.736881  0.500000  1
  P  P18  1  0.954189  0.217307  0.500000  1
  P  P19  1  0.263119  0.045811  0.500000  1
  P  P20  1  0.666667  0.333333  0.000000  1
