# generated using pymatgen
data_Y12Co4HgPt
_symmetry_space_group_name_H-M   'P 1'
_cell_length_a   8.32495855
_cell_length_b   8.32495884
_cell_length_c   8.32495881
_cell_angle_alpha   107.15384745
_cell_angle_beta   110.39766348
_cell_angle_gamma   110.88710664
_symmetry_Int_Tables_number   1
_chemical_formula_structural   Y12Co4HgPt
_chemical_formula_sum   'Y12 Co4 Hg1 Pt1'
_cell_volume   443.59395529
_cell_formula_units_Z   1
loop_
 _symmetry_equiv_pos_site_id
 _symmetry_equiv_pos_as_xyz
  1  'x, y, z'
loop_
 _atom_site_type_symbol
 _atom_site_label
 _atom_site_symmetry_multiplicity
 _atom_site_fract_x
 _atom_site_fract_y
 _atom_site_fract_z
 _atom_site_occupancy
  Y  Y0  1  0.697326  0.281036  0.978361  1
  Y  Y1  1  0.302674  0.718964  0.021639  1
  Y  Y2  1  0.697326  0.718964  0.416290  1
  Y  Y3  1  0.302674  0.281036  0.583710  1
  Y  Y4  1  0.802888  0.119777  0.316889  1
  Y  Y5  1  0.802888  0.485999  0.683111  1
  Y  Y6  1  0.197112  0.880223  0.683111  1
  Y  Y7  1  0.197112  0.514001  0.316889  1
  Y  Y8  1  0.604249  0.789349  0.814900  1
  Y  Y9  1  0.974449  0.789349  0.185100  1
  Y  Y10  1  0.025551  0.210651  0.814900  1
  Y  Y11  1  0.395751  0.210651  0.185100  1
  Co  Co12  1  0.879922  0.500000  0.379922  1
  Co  Co13  1  0.120078  0.500000  0.620078  1
  Co  Co14  1  0.000000  0.111424  0.111424  1
  Co  Co15  1  0.000000  0.888576  0.888576  1
  Hg  Hg16  1  0.500000  0.000000  0.500000  1
  Pt  Pt17  1  0.500000  0.500000  0.000000  1
