# generated using pymatgen
data_Er8Lu4Co4SnOs
_symmetry_space_group_name_H-M   'P 1'
_cell_length_a   8.17495299
_cell_length_b   8.17495211
_cell_length_c   8.17495154
_cell_angle_alpha   111.75346738
_cell_angle_beta   110.52524254
_cell_angle_gamma   106.18658755
_symmetry_Int_Tables_number   1
_chemical_formula_structural   Er8Lu4Co4SnOs
_chemical_formula_sum   'Er8 Lu4 Co4 Sn1 Os1'
_cell_volume   419.48533442
_cell_formula_units_Z   1
loop_
 _symmetry_equiv_pos_site_id
 _symmetry_equiv_pos_as_xyz
  1  'x, y, z'
loop_
 _atom_site_type_symbol
 _atom_site_label
 _atom_site_symmetry_multiplicity
 _atom_site_fract_x
 _atom_site_fract_y
 _atom_site_fract_z
 _atom_site_occupancy
  Er  Er0  1  0.418434  0.222942  0.195491  1
  Er  Er1  1  0.581566  0.777058  0.804509  1
  Er  Er2  1  0.027451  0.222942  0.804509  1
  Er  Er3  1  0.972549  0.777058  0.195491  1
  Er  Er4  1  0.181609  0.277400  0.459010  1
  Er  Er5  1  0.818391  0.722600  0.540990  1
  Er  Er6  1  0.181609  0.722600  0.904209  1
  Er  Er7  1  0.818391  0.277400  0.095791  1
  Lu  Lu8  1  0.314974  0.622635  0.307661  1
  Lu  Lu9  1  0.685026  0.377365  0.692339  1
  Lu  Lu10  1  0.314974  0.007313  0.692339  1
  Lu  Lu11  1  0.685026  0.992687  0.307661  1
  Co  Co12  1  0.374209  0.000000  0.374209  1
  Co  Co13  1  0.625791  0.000000  0.625791  1
  Co  Co14  1  0.112637  0.612637  0.500000  1
  Co  Co15  1  0.887363  0.387363  0.500000  1
  Sn  Sn16  1  0.500000  0.500000  0.000000  1
  Os  Os17  1  0.000000  0.000000  0.000000  1
