# generated using pymatgen
data_Pm2MoOs3
_symmetry_space_group_name_H-M   'P 1'
_cell_length_a   5.63969190
_cell_length_b   5.31426289
_cell_length_c   5.63969300
_cell_angle_alpha   57.95276136
_cell_angle_beta   60.00001113
_cell_angle_gamma   57.95275734
_symmetry_Int_Tables_number   1
_chemical_formula_structural   Pm2MoOs3
_chemical_formula_sum   'Pm2 Mo1 Os3'
_cell_volume   115.68654496
_cell_formula_units_Z   1
loop_
 _symmetry_equiv_pos_site_id
 _symmetry_equiv_pos_as_xyz
  1  'x, y, z'
loop_
 _atom_site_type_symbol
 _atom_site_label
 _atom_site_symmetry_multiplicity
 _atom_site_fract_x
 _atom_site_fract_y
 _atom_site_fract_z
 _atom_site_occupancy
  Pm  Pm0  1  0.749259  0.752225  0.749259  1
  Pm  Pm1  1  0.500741  0.497775  0.500741  1
  Mo  Mo2  1  0.125000  0.625000  0.125000  1
  Os  Os3  1  0.125000  0.125000  0.125000  1
  Os  Os4  1  0.625000  0.125000  0.125000  1
  Os  Os5  1  0.125000  0.125000  0.625000  1
