# generated using pymatgen
data_Lu2Si2IrPt2
_symmetry_space_group_name_H-M   'P 1'
_cell_length_a   4.21061800
_cell_length_b   6.63889300
_cell_length_c   8.75550200
_cell_angle_alpha   90.00000000
_cell_angle_beta   90.00000000
_cell_angle_gamma   90.00000000
_symmetry_Int_Tables_number   1
_chemical_formula_structural   Lu2Si2IrPt2
_chemical_formula_sum   'Lu4 Si4 Ir2 Pt4'
_cell_volume   244.74992274
_cell_formula_units_Z   2
loop_
 _symmetry_equiv_pos_site_id
 _symmetry_equiv_pos_as_xyz
  1  'x, y, z'
loop_
 _atom_site_type_symbol
 _atom_site_label
 _atom_site_symmetry_multiplicity
 _atom_site_fract_x
 _atom_site_fract_y
 _atom_site_fract_z
 _atom_site_occupancy
  Lu  Lu0  1  0.000000  0.884117  0.330800  1
  Lu  Lu1  1  0.000000  0.115883  0.669200  1
  Lu  Lu2  1  0.000000  0.384117  0.169200  1
  Lu  Lu3  1  0.000000  0.615883  0.830800  1
  Si  Si4  1  0.500000  0.569812  0.356463  1
  Si  Si5  1  0.500000  0.430188  0.643537  1
  Si  Si6  1  0.500000  0.069812  0.143537  1
  Si  Si7  1  0.500000  0.930188  0.856463  1
  Ir  Ir8  1  0.000000  0.500000  0.500000  1
  Ir  Ir9  1  0.000000  0.000000  0.000000  1
  Pt  Pt10  1  0.500000  0.692450  0.088974  1
  Pt  Pt11  1  0.500000  0.307550  0.911026  1
  Pt  Pt12  1  0.500000  0.192450  0.411026  1
  Pt  Pt13  1  0.500000  0.807550  0.588974  1
