# generated using pymatgen
data_Er3LuBeOs7
_symmetry_space_group_name_H-M   'P 1'
_cell_length_a   5.22956700
_cell_length_b   5.23606031
_cell_length_c   8.71523600
_cell_angle_alpha   89.67298053
_cell_angle_beta   90.00000000
_cell_angle_gamma   119.95897954
_symmetry_Int_Tables_number   1
_chemical_formula_structural   Er3LuBeOs7
_chemical_formula_sum   'Er3 Lu1 Be1 Os7'
_cell_volume   206.75218025
_cell_formula_units_Z   1
loop_
 _symmetry_equiv_pos_site_id
 _symmetry_equiv_pos_as_xyz
  1  'x, y, z'
loop_
 _atom_site_type_symbol
 _atom_site_label
 _atom_site_symmetry_multiplicity
 _atom_site_fract_x
 _atom_site_fract_y
 _atom_site_fract_z
 _atom_site_occupancy
  Er  Er0  1  0.330714  0.661428  0.436486  1
  Er  Er1  1  0.664851  0.329700  0.564580  1
  Er  Er2  1  0.666501  0.333003  0.934742  1
  Lu  Lu3  1  0.331938  0.663876  0.064101  1
  Be  Be4  1  0.172298  0.344595  0.752559  1
  Os  Os5  1  0.178009  0.832986  0.750645  1
  Os  Os6  1  0.346989  0.174930  0.248787  1
  Os  Os7  1  0.834373  0.668748  0.249055  1
  Os  Os8  1  0.654977  0.832986  0.750645  1
  Os  Os9  1  0.996478  0.992956  0.995807  1
  Os  Os10  1  0.827942  0.174930  0.248787  1
  Os  Os11  1  0.994930  0.989861  0.503810  1
