# generated using pymatgen
data_Zr6Zn23Se
_symmetry_space_group_name_H-M   'P 1'
_cell_length_a   8.80727261
_cell_length_b   8.80727178
_cell_length_c   8.80727200
_cell_angle_alpha   59.99999916
_cell_angle_beta   60.00000231
_cell_angle_gamma   59.99999622
_symmetry_Int_Tables_number   1
_chemical_formula_structural   Zr6Zn23Se
_chemical_formula_sum   'Zr6 Zn23 Se1'
_cell_volume   483.06908102
_cell_formula_units_Z   1
loop_
 _symmetry_equiv_pos_site_id
 _symmetry_equiv_pos_as_xyz
  1  'x, y, z'
loop_
 _atom_site_type_symbol
 _atom_site_label
 _atom_site_symmetry_multiplicity
 _atom_site_fract_x
 _atom_site_fract_y
 _atom_site_fract_z
 _atom_site_occupancy
  Zr  Zr0  1  0.712423  0.287577  0.287577  1
  Zr  Zr1  1  0.287577  0.712423  0.712423  1
  Zr  Zr2  1  0.287577  0.712423  0.287577  1
  Zr  Zr3  1  0.712423  0.287577  0.712423  1
  Zr  Zr4  1  0.287577  0.287577  0.712423  1
  Zr  Zr5  1  0.712423  0.712423  0.287577  1
  Zn  Zn6  1  0.123011  0.123011  0.123011  1
  Zn  Zn7  1  0.876989  0.876989  0.876989  1
  Zn  Zn8  1  0.123011  0.123011  0.630968  1
  Zn  Zn9  1  0.123011  0.630968  0.123011  1
  Zn  Zn10  1  0.876989  0.876989  0.369032  1
  Zn  Zn11  1  0.876989  0.369032  0.876989  1
  Zn  Zn12  1  0.630968  0.123011  0.123011  1
  Zn  Zn13  1  0.369032  0.876989  0.876989  1
  Zn  Zn14  1  0.500000  0.000000  0.000000  1
  Zn  Zn15  1  0.000000  0.500000  0.500000  1
  Zn  Zn16  1  0.000000  0.500000  0.000000  1
  Zn  Zn17  1  0.500000  0.000000  0.500000  1
  Zn  Zn18  1  0.000000  0.000000  0.500000  1
  Zn  Zn19  1  0.500000  0.500000  0.000000  1
  Zn  Zn20  1  0.334589  0.334589  0.334589  1
  Zn  Zn21  1  0.665411  0.665411  0.665411  1
  Zn  Zn22  1  0.334589  0.334589  0.996233  1
  Zn  Zn23  1  0.334589  0.996233  0.334589  1
  Zn  Zn24  1  0.665411  0.665411  0.003767  1
  Zn  Zn25  1  0.665411  0.003767  0.665411  1
  Zn  Zn26  1  0.996233  0.334589  0.334589  1
  Zn  Zn27  1  0.003767  0.665411  0.665411  1
  Zn  Zn28  1  0.000000  0.000000  0.000000  1
  Se  Se29  1  0.500000  0.500000  0.500000  1
