# generated using pymatgen
data_DyTa6MnS12
_symmetry_space_group_name_H-M   'P 1'
_cell_length_a   5.79919600
_cell_length_b   5.79919558
_cell_length_c   13.34406700
_cell_angle_alpha   90.00000000
_cell_angle_beta   90.00000000
_cell_angle_gamma   120.00001378
_symmetry_Int_Tables_number   1
_chemical_formula_structural   DyTa6MnS12
_chemical_formula_sum   'Dy1 Ta6 Mn1 S12'
_cell_volume   388.64611298
_cell_formula_units_Z   1
loop_
 _symmetry_equiv_pos_site_id
 _symmetry_equiv_pos_as_xyz
  1  'x, y, z'
loop_
 _atom_site_type_symbol
 _atom_site_label
 _atom_site_symmetry_multiplicity
 _atom_site_fract_x
 _atom_site_fract_y
 _atom_site_fract_z
 _atom_site_occupancy
  Dy  Dy0  1  0.000000  0.000000  0.000000  1
  Ta  Ta1  1  0.333333  0.666667  0.259921  1
  Ta  Ta2  1  0.666667  0.333333  0.740079  1
  Ta  Ta3  1  0.666667  0.333333  0.259921  1
  Ta  Ta4  1  0.333333  0.666667  0.740079  1
  Ta  Ta5  1  0.000000  0.000000  0.258544  1
  Ta  Ta6  1  0.000000  0.000000  0.741456  1
  Mn  Mn7  1  0.000000  0.000000  0.500000  1
  S  S8  1  0.338624  0.000000  0.140768  1
  S  S9  1  0.000000  0.338624  0.140768  1
  S  S10  1  0.661376  0.661376  0.140768  1
  S  S11  1  0.335154  0.335154  0.622690  1
  S  S12  1  0.664846  0.664846  0.377310  1
  S  S13  1  0.664846  0.000000  0.622690  1
  S  S14  1  0.000000  0.664846  0.622690  1
  S  S15  1  0.000000  0.661376  0.859232  1
  S  S16  1  0.338624  0.338624  0.859232  1
  S  S17  1  0.000000  0.335154  0.377310  1
  S  S18  1  0.335154  0.000000  0.377310  1
  S  S19  1  0.661376  0.000000  0.859232  1
