# generated using pymatgen
data_HoLu7(Ge4Mo3)4
_symmetry_space_group_name_H-M   'P 1'
_cell_length_a   6.86805104
_cell_length_b   7.03143815
_cell_length_c   13.06481819
_cell_angle_alpha   89.98060303
_cell_angle_beta   89.99764733
_cell_angle_gamma   89.98714700
_symmetry_Int_Tables_number   1
_chemical_formula_structural   HoLu7(Ge4Mo3)4
_chemical_formula_sum   'Ho1 Lu7 Ge16 Mo12'
_cell_volume   630.92975462
_cell_formula_units_Z   1
loop_
 _symmetry_equiv_pos_site_id
 _symmetry_equiv_pos_as_xyz
  1  'x, y, z'
loop_
 _atom_site_type_symbol
 _atom_site_label
 _atom_site_symmetry_multiplicity
 _atom_site_fract_x
 _atom_site_fract_y
 _atom_site_fract_z
 _atom_site_occupancy
  Ho  Ho0  1  0.490942  0.329498  0.091581  1
  Lu  Lu1  1  0.990484  0.170941  0.408297  1
  Lu  Lu2  1  0.509548  0.670983  0.591815  1
  Lu  Lu3  1  0.009566  0.829116  0.908101  1
  Lu  Lu4  1  0.509613  0.671134  0.907978  1
  Lu  Lu5  1  0.009547  0.829038  0.591830  1
  Lu  Lu6  1  0.490441  0.329063  0.408110  1
  Lu  Lu7  1  0.990413  0.170839  0.091795  1
  Ge  Ge8  1  0.671024  0.042745  0.547579  1
  Ge  Ge9  1  0.170431  0.457426  0.952127  1
  Ge  Ge10  1  0.328571  0.956276  0.047464  1
  Ge  Ge11  1  0.828968  0.542750  0.452468  1
  Ge  Ge12  1  0.328988  0.957254  0.452457  1
  Ge  Ge13  1  0.830315  0.543461  0.047396  1
  Ge  Ge14  1  0.671271  0.042298  0.952164  1
  Ge  Ge15  1  0.171002  0.457300  0.547575  1
  Ge  Ge16  1  0.529264  0.370954  0.750021  1
  Ge  Ge17  1  0.029215  0.129015  0.749952  1
  Ge  Ge18  1  0.470671  0.629695  0.250302  1
  Ge  Ge19  1  0.970684  0.870998  0.250062  1
  Ge  Ge20  1  0.808164  0.645538  0.749986  1
  Ge  Ge21  1  0.308097  0.854396  0.749946  1
  Ge  Ge22  1  0.190970  0.354443  0.250377  1
  Ge  Ge23  1  0.692487  0.144852  0.250578  1
  Mo  Mo24  1  0.829389  0.341846  0.626176  1
  Mo  Mo25  1  0.329200  0.157825  0.873454  1
  Mo  Mo26  1  0.169886  0.658629  0.126473  1
  Mo  Mo27  1  0.670524  0.841773  0.373866  1
  Mo  Mo28  1  0.170438  0.658249  0.373900  1
  Mo  Mo29  1  0.670565  0.841771  0.126226  1
  Mo  Mo30  1  0.829701  0.341803  0.873610  1
  Mo  Mo31  1  0.329495  0.158156  0.626163  1
  Mo  Mo32  1  0.664957  0.002110  0.749944  1
  Mo  Mo33  1  0.165019  0.497812  0.749924  1
  Mo  Mo34  1  0.334871  0.997560  0.250134  1
  Mo  Mo35  1  0.835278  0.502453  0.250171  1
