# generated using pymatgen
data_Ce2Dy5Y(ReB6)4
_symmetry_space_group_name_H-M   'P 1'
_cell_length_a   3.70910700
_cell_length_b   9.19888530
_cell_length_c   11.57985701
_cell_angle_alpha   90.12805712
_cell_angle_beta   90.00000000
_cell_angle_gamma   90.00000000
_symmetry_Int_Tables_number   1
_chemical_formula_structural   Ce2Dy5Y(ReB6)4
_chemical_formula_sum   'Ce2 Dy5 Y1 Re4 B24'
_cell_volume   395.09967982
_cell_formula_units_Z   1
loop_
 _symmetry_equiv_pos_site_id
 _symmetry_equiv_pos_as_xyz
  1  'x, y, z'
loop_
 _atom_site_type_symbol
 _atom_site_label
 _atom_site_symmetry_multiplicity
 _atom_site_fract_x
 _atom_site_fract_y
 _atom_site_fract_z
 _atom_site_occupancy
  Ce  Ce0  1  0.000000  0.322359  0.413587  1
  Ce  Ce1  1  0.000000  0.677628  0.586393  1
  Dy  Dy2  1  0.000000  0.175627  0.914465  1
  Dy  Dy3  1  0.000000  0.943599  0.370382  1
  Dy  Dy4  1  0.000000  0.056420  0.629623  1
  Dy  Dy5  1  0.000000  0.443038  0.128687  1
  Dy  Dy6  1  0.000000  0.556888  0.871279  1
  Y  Y7  1  0.000000  0.824246  0.085528  1
  Re  Re8  1  0.000000  0.637417  0.321957  1
  Re  Re9  1  0.000000  0.362547  0.678137  1
  Re  Re10  1  0.000000  0.139062  0.179722  1
  Re  Re11  1  0.000000  0.861123  0.820187  1
  B  B12  1  0.500000  0.554224  0.431495  1
  B  B13  1  0.500000  0.445767  0.568540  1
  B  B14  1  0.500000  0.053670  0.066800  1
  B  B15  1  0.500000  0.946631  0.933066  1
  B  B16  1  0.500000  0.748940  0.417404  1
  B  B17  1  0.500000  0.251070  0.582652  1
  B  B18  1  0.500000  0.248323  0.080764  1
  B  B19  1  0.500000  0.751662  0.919077  1
  B  B20  1  0.500000  0.791816  0.265240  1
  B  B21  1  0.500000  0.208157  0.734892  1
  B  B22  1  0.500000  0.291011  0.233333  1
  B  B23  1  0.500000  0.708979  0.766638  1
  B  B24  1  0.500000  0.631318  0.185346  1
  B  B25  1  0.500000  0.368525  0.814752  1
  B  B26  1  0.500000  0.131248  0.313188  1
  B  B27  1  0.500000  0.868781  0.686824  1
  B  B28  1  0.500000  0.983077  0.211515  1
  B  B29  1  0.500000  0.017097  0.788546  1
  B  B30  1  0.500000  0.483853  0.286847  1
  B  B31  1  0.500000  0.516086  0.713165  1
  B  B32  1  0.500000  0.602197  0.028543  1
  B  B33  1  0.500000  0.397612  0.971414  1
  B  B34  1  0.500000  0.103369  0.471205  1
  B  B35  1  0.500000  0.896634  0.528804  1
