# generated using pymatgen
data_ScU3Bi5
_symmetry_space_group_name_H-M   'P 1'
_cell_length_a   9.52410148
_cell_length_b   9.52318214
_cell_length_c   6.42813247
_cell_angle_alpha   90.00622725
_cell_angle_beta   90.06377669
_cell_angle_gamma   120.00052405
_symmetry_Int_Tables_number   1
_chemical_formula_structural   ScU3Bi5
_chemical_formula_sum   'Sc2 U6 Bi10'
_cell_volume   504.91568690
_cell_formula_units_Z   2
loop_
 _symmetry_equiv_pos_site_id
 _symmetry_equiv_pos_as_xyz
  1  'x, y, z'
loop_
 _atom_site_type_symbol
 _atom_site_label
 _atom_site_symmetry_multiplicity
 _atom_site_fract_x
 _atom_site_fract_y
 _atom_site_fract_z
 _atom_site_occupancy
  Sc  Sc0  1  0.000003  0.000032  0.999990  1
  Sc  Sc1  1  0.000048  0.000040  0.500028  1
  U  U2  1  0.612738  0.000060  0.250107  1
  U  U3  1  0.000000  0.612750  0.250024  1
  U  U4  1  0.387331  0.387297  0.249856  1
  U  U5  1  0.387265  0.999952  0.749855  1
  U  U6  1  0.999961  0.387236  0.750002  1
  U  U7  1  0.612668  0.612637  0.750114  1
  Bi  Bi8  1  0.666638  0.333357  0.000034  1
  Bi  Bi9  1  0.333350  0.666625  0.999984  1
  Bi  Bi10  1  0.731373  0.731395  0.250066  1
  Bi  Bi11  1  0.268565  0.000009  0.249925  1
  Bi  Bi12  1  0.000012  0.268555  0.250007  1
  Bi  Bi13  1  0.666674  0.333306  0.499988  1
  Bi  Bi14  1  0.333325  0.666697  0.500004  1
  Bi  Bi15  1  0.268603  0.268616  0.749927  1
  Bi  Bi16  1  0.731434  0.000007  0.750080  1
  Bi  Bi17  1  0.000015  0.731430  0.750005  1
