# generated using pymatgen
data_Gd4In2Hg3Ru
_symmetry_space_group_name_H-M   'P 1'
_cell_length_a   8.32305700
_cell_length_b   8.32305640
_cell_length_c   7.30190300
_cell_angle_alpha   90.00000000
_cell_angle_beta   90.00000000
_cell_angle_gamma   91.20099191
_symmetry_Int_Tables_number   1
_chemical_formula_structural   Gd4In2Hg3Ru
_chemical_formula_sum   'Gd8 In4 Hg6 Ru2'
_cell_volume   505.71559924
_cell_formula_units_Z   2
loop_
 _symmetry_equiv_pos_site_id
 _symmetry_equiv_pos_as_xyz
  1  'x, y, z'
loop_
 _atom_site_type_symbol
 _atom_site_label
 _atom_site_symmetry_multiplicity
 _atom_site_fract_x
 _atom_site_fract_y
 _atom_site_fract_z
 _atom_site_occupancy
  Gd  Gd0  1  0.180082  0.127259  0.000000  1
  Gd  Gd1  1  0.872741  0.819918  0.000000  1
  Gd  Gd2  1  0.658570  0.341430  0.500000  1
  Gd  Gd3  1  0.308372  0.691628  0.500000  1
  Gd  Gd4  1  0.673535  0.326465  0.000000  1
  Gd  Gd5  1  0.299155  0.700845  0.000000  1
  Gd  Gd6  1  0.864352  0.808354  0.500000  1
  Gd  Gd7  1  0.191646  0.135648  0.500000  1
  In  In8  1  0.497201  0.997529  0.251531  1
  In  In9  1  0.497201  0.997529  0.748469  1
  In  In10  1  0.002471  0.502799  0.251531  1
  In  In11  1  0.002471  0.502799  0.748469  1
  Hg  Hg12  1  0.358448  0.382010  0.235308  1
  Hg  Hg13  1  0.617990  0.641552  0.764692  1
  Hg  Hg14  1  0.617990  0.641552  0.235308  1
  Hg  Hg15  1  0.874143  0.125857  0.734349  1
  Hg  Hg16  1  0.874143  0.125857  0.265651  1
  Hg  Hg17  1  0.358448  0.382010  0.764692  1
  Ru  Ru18  1  0.125519  0.874481  0.256600  1
  Ru  Ru19  1  0.125519  0.874481  0.743400  1
