# generated using pymatgen
data_Sm(TmTe2)2
_symmetry_space_group_name_H-M   'P 1'
_cell_length_a   4.33359200
_cell_length_b   7.49316175
_cell_length_c   7.56209640
_cell_angle_alpha   71.72613054
_cell_angle_beta   90.00000000
_cell_angle_gamma   90.00000000
_symmetry_Int_Tables_number   1
_chemical_formula_structural   Sm(TmTe2)2
_chemical_formula_sum   'Sm1 Tm2 Te4'
_cell_volume   233.17483259
_cell_formula_units_Z   1
loop_
 _symmetry_equiv_pos_site_id
 _symmetry_equiv_pos_as_xyz
  1  'x, y, z'
loop_
 _atom_site_type_symbol
 _atom_site_label
 _atom_site_symmetry_multiplicity
 _atom_site_fract_x
 _atom_site_fract_y
 _atom_site_fract_z
 _atom_site_occupancy
  Sm  Sm0  1  0.000000  0.500000  0.500000  1
  Tm  Tm1  1  0.000000  0.000000  0.000000  1
  Tm  Tm2  1  0.500000  0.500000  0.000000  1
  Te  Te3  1  0.500000  0.761764  0.248043  1
  Te  Te4  1  0.000000  0.249872  0.243128  1
  Te  Te5  1  0.500000  0.238236  0.751957  1
  Te  Te6  1  0.000000  0.750128  0.756872  1
