# generated using pymatgen
data_Tb11HoEr8(CoSb2)4
_symmetry_space_group_name_H-M   'P 1'
_cell_length_a   7.87235911
_cell_length_b   8.79168200
_cell_length_c   12.23042230
_cell_angle_alpha   90.00000000
_cell_angle_beta   89.97076440
_cell_angle_gamma   90.00000000
_symmetry_Int_Tables_number   1
_chemical_formula_structural   Tb11HoEr8(CoSb2)4
_chemical_formula_sum   'Tb11 Ho1 Er8 Co4 Sb8'
_cell_volume   846.48304687
_cell_formula_units_Z   1
loop_
 _symmetry_equiv_pos_site_id
 _symmetry_equiv_pos_as_xyz
  1  'x, y, z'
loop_
 _atom_site_type_symbol
 _atom_site_label
 _atom_site_symmetry_multiplicity
 _atom_site_fract_x
 _atom_site_fract_y
 _atom_site_fract_z
 _atom_site_occupancy
  Tb  Tb0  1  0.653361  0.250000  0.296651  1
  Tb  Tb1  1  0.847145  0.250000  0.797140  1
  Tb  Tb2  1  0.346914  0.750000  0.703095  1
  Tb  Tb3  1  0.453147  0.750000  0.997907  1
  Tb  Tb4  1  0.954032  0.250000  0.501787  1
  Tb  Tb5  1  0.545960  0.250000  0.002600  1
  Tb  Tb6  1  0.046369  0.750000  0.497511  1
  Tb  Tb7  1  0.622530  0.750000  0.307592  1
  Tb  Tb8  1  0.122815  0.250000  0.192382  1
  Tb  Tb9  1  0.377132  0.250000  0.692402  1
  Tb  Tb10  1  0.876977  0.750000  0.807528  1
  Ho  Ho11  1  0.152944  0.750000  0.202582  1
  Er  Er12  1  0.822980  0.963892  0.065377  1
  Er  Er13  1  0.322944  0.035108  0.434678  1
  Er  Er14  1  0.177085  0.465246  0.935165  1
  Er  Er15  1  0.677214  0.535194  0.565300  1
  Er  Er16  1  0.177085  0.034754  0.935165  1
  Er  Er17  1  0.677214  0.964806  0.565300  1
  Er  Er18  1  0.822980  0.536108  0.065377  1
  Er  Er19  1  0.322944  0.464892  0.434678  1
  Co  Co20  1  0.436949  0.750000  0.491563  1
  Co  Co21  1  0.936381  0.250000  0.008773  1
  Co  Co22  1  0.563698  0.250000  0.508367  1
  Co  Co23  1  0.063497  0.750000  0.991590  1
  Sb  Sb24  1  0.929867  0.991665  0.326377  1
  Sb  Sb25  1  0.428197  0.007327  0.173357  1
  Sb  Sb26  1  0.070866  0.492240  0.672974  1
  Sb  Sb27  1  0.570922  0.507673  0.827037  1
  Sb  Sb28  1  0.070866  0.007760  0.672974  1
  Sb  Sb29  1  0.570922  0.992327  0.827037  1
  Sb  Sb30  1  0.929867  0.508335  0.326377  1
  Sb  Sb31  1  0.428197  0.492673  0.173357  1
