# generated using pymatgen
data_Nd8Er9Tm3Si16
_symmetry_space_group_name_H-M   'P 1'
_cell_length_a   7.71887201
_cell_length_b   7.71887201
_cell_length_c   14.20305705
_cell_angle_alpha   89.99327312
_cell_angle_beta   90.00672688
_cell_angle_gamma   89.99814449
_symmetry_Int_Tables_number   1
_chemical_formula_structural   Nd8Er9Tm3Si16
_chemical_formula_sum   'Nd8 Er9 Tm3 Si16'
_cell_volume   846.23211934
_cell_formula_units_Z   1
loop_
 _symmetry_equiv_pos_site_id
 _symmetry_equiv_pos_as_xyz
  1  'x, y, z'
loop_
 _atom_site_type_symbol
 _atom_site_label
 _atom_site_symmetry_multiplicity
 _atom_site_fract_x
 _atom_site_fract_y
 _atom_site_fract_z
 _atom_site_occupancy
  Nd  Nd0  1  0.642381  0.992807  0.459006  1
  Nd  Nd1  1  0.357632  0.007147  0.959003  1
  Nd  Nd2  1  0.992807  0.642381  0.540994  1
  Nd  Nd3  1  0.492835  0.857684  0.208989  1
  Nd  Nd4  1  0.507261  0.142311  0.709065  1
  Nd  Nd5  1  0.857684  0.492835  0.791011  1
  Nd  Nd6  1  0.142311  0.507261  0.290935  1
  Nd  Nd7  1  0.007147  0.357632  0.040997  1
  Er  Er8  1  0.493233  0.359896  0.124244  1
  Er  Er9  1  0.993137  0.140082  0.625794  1
  Er  Er10  1  0.859906  0.006819  0.874225  1
  Er  Er11  1  0.140082  0.993137  0.374206  1
  Er  Er12  1  0.506867  0.640186  0.624289  1
  Er  Er13  1  0.359896  0.493233  0.875756  1
  Er  Er14  1  0.640186  0.506867  0.375711  1
  Er  Er15  1  0.006819  0.859906  0.125775  1
  Er  Er16  1  0.318142  0.318142  0.500000  1
  Tm  Tm17  1  0.181842  0.818076  0.750012  1
  Tm  Tm18  1  0.818076  0.181842  0.249988  1
  Tm  Tm19  1  0.681853  0.681853  0.000000  1
  Si  Si20  1  0.289435  0.937364  0.561782  1
  Si  Si21  1  0.710528  0.062398  0.061776  1
  Si  Si22  1  0.937364  0.289435  0.438218  1
  Si  Si23  1  0.437679  0.210396  0.311549  1
  Si  Si24  1  0.562398  0.789488  0.811798  1
  Si  Si25  1  0.210396  0.437679  0.688451  1
  Si  Si26  1  0.789488  0.562398  0.188202  1
  Si  Si27  1  0.062398  0.710528  0.938224  1
  Si  Si28  1  0.795652  0.848754  0.687785  1
  Si  Si29  1  0.204404  0.151194  0.187745  1
  Si  Si30  1  0.848754  0.795652  0.312215  1
  Si  Si31  1  0.348789  0.704483  0.437751  1
  Si  Si32  1  0.651244  0.295695  0.937774  1
  Si  Si33  1  0.704483  0.348789  0.562249  1
  Si  Si34  1  0.295695  0.651244  0.062226  1
  Si  Si35  1  0.151194  0.204404  0.812255  1
