# generated using pymatgen
data_Ce7Ho3(Ir2Os)2
_symmetry_space_group_name_H-M   'P 1'
_cell_length_a   11.01854457
_cell_length_b   11.05983900
_cell_length_c   6.29432843
_cell_angle_alpha   90.00000000
_cell_angle_beta   89.70287607
_cell_angle_gamma   90.00000000
_symmetry_Int_Tables_number   1
_chemical_formula_structural   Ce7Ho3(Ir2Os)2
_chemical_formula_sum   'Ce14 Ho6 Ir8 Os4'
_cell_volume   767.03750200
_cell_formula_units_Z   2
loop_
 _symmetry_equiv_pos_site_id
 _symmetry_equiv_pos_as_xyz
  1  'x, y, z'
loop_
 _atom_site_type_symbol
 _atom_site_label
 _atom_site_symmetry_multiplicity
 _atom_site_fract_x
 _atom_site_fract_y
 _atom_site_fract_z
 _atom_site_occupancy
  Ce  Ce0  1  0.292225  0.089883  0.376996  1
  Ce  Ce1  1  0.292225  0.910117  0.876996  1
  Ce  Ce2  1  0.708606  0.090275  0.879418  1
  Ce  Ce3  1  0.708606  0.909725  0.379418  1
  Ce  Ce4  1  0.589268  0.789936  0.879860  1
  Ce  Ce5  1  0.589268  0.210064  0.379860  1
  Ce  Ce6  1  0.408617  0.789709  0.379695  1
  Ce  Ce7  1  0.408617  0.210291  0.879695  1
  Ce  Ce8  1  0.205868  0.412593  0.620458  1
  Ce  Ce9  1  0.205868  0.587407  0.120458  1
  Ce  Ce10  1  0.793645  0.409440  0.120867  1
  Ce  Ce11  1  0.793645  0.590560  0.620867  1
  Ce  Ce12  1  0.912876  0.708777  0.119261  1
  Ce  Ce13  1  0.912876  0.291223  0.619261  1
  Ho  Ho14  1  0.087955  0.710835  0.621884  1
  Ho  Ho15  1  0.087955  0.289165  0.121884  1
  Ho  Ho16  1  0.000262  0.998483  0.498356  1
  Ho  Ho17  1  0.000262  0.001517  0.998356  1
  Ho  Ho18  1  0.500262  0.499018  0.004045  1
  Ho  Ho19  1  0.500262  0.500982  0.504045  1
  Ir  Ir20  1  0.845080  0.154225  0.251437  1
  Ir  Ir21  1  0.845080  0.845775  0.751437  1
  Ir  Ir22  1  0.155805  0.152378  0.742507  1
  Ir  Ir23  1  0.155805  0.847622  0.242507  1
  Ir  Ir24  1  0.655059  0.344416  0.750813  1
  Ir  Ir25  1  0.655059  0.655584  0.250813  1
  Ir  Ir26  1  0.345436  0.344540  0.253932  1
  Ir  Ir27  1  0.345436  0.655460  0.753932  1
  Os  Os28  1  0.499946  0.000168  0.124753  1
  Os  Os29  1  0.499946  0.999832  0.624753  1
  Os  Os30  1  0.999089  0.497944  0.875718  1
  Os  Os31  1  0.999089  0.502056  0.375718  1
