# generated using pymatgen
data_Pr7Nd3PdRu3
_symmetry_space_group_name_H-M   'P 1'
_cell_length_a   9.05890963
_cell_length_b   9.10389041
_cell_length_c   7.42437404
_cell_angle_alpha   83.51246865
_cell_angle_beta   83.42253221
_cell_angle_gamma   42.97605172
_symmetry_Int_Tables_number   1
_chemical_formula_structural   Pr7Nd3PdRu3
_chemical_formula_sum   'Pr7 Nd3 Pd1 Ru3'
_cell_volume   414.26649022
_cell_formula_units_Z   1
loop_
 _symmetry_equiv_pos_site_id
 _symmetry_equiv_pos_as_xyz
  1  'x, y, z'
loop_
 _atom_site_type_symbol
 _atom_site_label
 _atom_site_symmetry_multiplicity
 _atom_site_fract_x
 _atom_site_fract_y
 _atom_site_fract_z
 _atom_site_occupancy
  Pr  Pr0  1  0.011846  0.803561  0.926385  1
  Pr  Pr1  1  0.201188  0.987473  0.585181  1
  Pr  Pr2  1  0.985930  0.198691  0.086222  1
  Pr  Pr3  1  0.786878  0.028430  0.411147  1
  Pr  Pr4  1  0.365781  0.197573  0.816932  1
  Pr  Pr5  1  0.785946  0.640064  0.686332  1
  Pr  Pr6  1  0.646098  0.787397  0.188819  1
  Nd  Nd7  1  0.210044  0.351151  0.308769  1
  Nd  Nd8  1  0.574939  0.425940  0.751580  1
  Nd  Nd9  1  0.428000  0.578436  0.242300  1
  Pd  Pd10  1  0.185832  0.594514  0.570865  1
  Ru  Ru11  1  0.403752  0.821555  0.923256  1
  Ru  Ru12  1  0.820718  0.400976  0.427878  1
  Ru  Ru13  1  0.593047  0.184241  0.074333  1
