# generated using pymatgen
data_Na5P12Ir19
_symmetry_space_group_name_H-M   'P 1'
_cell_length_a   12.61169300
_cell_length_b   12.61169416
_cell_length_c   3.96925500
_cell_angle_alpha   90.00000000
_cell_angle_beta   90.00000000
_cell_angle_gamma   120.00000482
_symmetry_Int_Tables_number   1
_chemical_formula_structural   Na5P12Ir19
_chemical_formula_sum   'Na5 P12 Ir19'
_cell_volume   546.74702927
_cell_formula_units_Z   1
loop_
 _symmetry_equiv_pos_site_id
 _symmetry_equiv_pos_as_xyz
  1  'x, y, z'
loop_
 _atom_site_type_symbol
 _atom_site_label
 _atom_site_symmetry_multiplicity
 _atom_site_fract_x
 _atom_site_fract_y
 _atom_site_fract_z
 _atom_site_occupancy
  Na  Na0  1  0.000000  0.820862  0.500000  1
  Na  Na1  1  0.179138  0.179138  0.500000  1
  Na  Na2  1  0.820862  0.000000  0.500000  1
  Na  Na3  1  0.333333  0.666667  0.000000  1
  Na  Na4  1  0.666667  0.333333  0.000000  1
  P  P5  1  0.000000  0.179664  0.000000  1
  P  P6  1  0.820336  0.820336  0.000000  1
  P  P7  1  0.179664  0.000000  0.000000  1
  P  P8  1  0.513739  0.689421  0.500000  1
  P  P9  1  0.310579  0.824318  0.500000  1
  P  P10  1  0.175682  0.486261  0.500000  1
  P  P11  1  0.486261  0.175682  0.500000  1
  P  P12  1  0.689421  0.513739  0.500000  1
  P  P13  1  0.824318  0.310579  0.500000  1
  P  P14  1  0.000000  0.639504  0.000000  1
  P  P15  1  0.360496  0.360496  0.000000  1
  P  P16  1  0.639504  0.000000  0.000000  1
  Ir  Ir17  1  0.000000  0.292207  0.500000  1
  Ir  Ir18  1  0.707793  0.707793  0.500000  1
  Ir  Ir19  1  0.292207  0.000000  0.500000  1
  Ir  Ir20  1  0.621648  0.803804  0.000000  1
  Ir  Ir21  1  0.196196  0.817844  0.000000  1
  Ir  Ir22  1  0.182156  0.378352  0.000000  1
  Ir  Ir23  1  0.378352  0.182156  0.000000  1
  Ir  Ir24  1  0.803804  0.621648  0.000000  1
  Ir  Ir25  1  0.817844  0.196196  0.000000  1
  Ir  Ir26  1  0.509697  0.870966  0.500000  1
  Ir  Ir27  1  0.129034  0.638731  0.500000  1
  Ir  Ir28  1  0.361269  0.490303  0.500000  1
  Ir  Ir29  1  0.490303  0.361269  0.500000  1
  Ir  Ir30  1  0.870966  0.509697  0.500000  1
  Ir  Ir31  1  0.638731  0.129034  0.500000  1
  Ir  Ir32  1  0.000000  0.000000  0.000000  1
  Ir  Ir33  1  0.000000  0.457720  0.000000  1
  Ir  Ir34  1  0.542280  0.542280  0.000000  1
  Ir  Ir35  1  0.457720  0.000000  0.000000  1
