# generated using pymatgen
data_PaFe3(PO4)4
_symmetry_space_group_name_H-M   'P 1'
_cell_length_a   5.13978017
_cell_length_b   10.24341927
_cell_length_c   6.12047000
_cell_angle_alpha   90.00000000
_cell_angle_beta   90.00000000
_cell_angle_gamma   90.20444821
_symmetry_Int_Tables_number   1
_chemical_formula_structural   PaFe3(PO4)4
_chemical_formula_sum   'Pa1 Fe3 P4 O16'
_cell_volume   322.23410368
_cell_formula_units_Z   1
loop_
 _symmetry_equiv_pos_site_id
 _symmetry_equiv_pos_as_xyz
  1  'x, y, z'
loop_
 _atom_site_type_symbol
 _atom_site_label
 _atom_site_symmetry_multiplicity
 _atom_site_fract_x
 _atom_site_fract_y
 _atom_site_fract_z
 _atom_site_occupancy
  Pa  Pa0  1  0.038358  0.720378  0.750000  1
  Fe  Fe1  1  0.438443  0.228521  0.750000  1
  Fe  Fe2  1  0.550718  0.790121  0.250000  1
  Fe  Fe3  1  0.960505  0.263187  0.250000  1
  P  P4  1  0.094654  0.591225  0.250000  1
  P  P5  1  0.418171  0.099053  0.250000  1
  P  P6  1  0.609824  0.919151  0.750000  1
  P  P7  1  0.879510  0.384136  0.750000  1
  O  O8  1  0.131720  0.446932  0.250000  1
  O  O9  1  0.244950  0.659455  0.048656  1
  O  O10  1  0.244950  0.659455  0.451344  1
  O  O11  1  0.174400  0.367153  0.750000  1
  O  O12  1  0.318163  0.876024  0.750000  1
  O  O13  1  0.284717  0.168660  0.047010  1
  O  O14  1  0.284717  0.168660  0.452990  1
  O  O15  1  0.345232  0.951825  0.250000  1
  O  O16  1  0.647968  0.063275  0.750000  1
  O  O17  1  0.749296  0.845568  0.555753  1
  O  O18  1  0.749296  0.845568  0.944247  1
  O  O19  1  0.712715  0.114041  0.250000  1
  O  O20  1  0.814934  0.640923  0.250000  1
  O  O21  1  0.731969  0.327731  0.552085  1
  O  O22  1  0.731969  0.327731  0.947915  1
  O  O23  1  0.842816  0.541230  0.750000  1
