# generated using pymatgen
data_MgSb12(RuPt)2
_symmetry_space_group_name_H-M   'P 1'
_cell_length_a   8.18932580
_cell_length_b   8.18687908
_cell_length_c   8.18932692
_cell_angle_alpha   109.49521799
_cell_angle_beta   109.44894862
_cell_angle_gamma   109.48162644
_symmetry_Int_Tables_number   1
_chemical_formula_structural   MgSb12(RuPt)2
_chemical_formula_sum   'Mg1 Sb12 Ru2 Pt2'
_cell_volume   422.59830381
_cell_formula_units_Z   1
loop_
 _symmetry_equiv_pos_site_id
 _symmetry_equiv_pos_as_xyz
  1  'x, y, z'
loop_
 _atom_site_type_symbol
 _atom_site_label
 _atom_site_symmetry_multiplicity
 _atom_site_fract_x
 _atom_site_fract_y
 _atom_site_fract_z
 _atom_site_occupancy
  Mg  Mg0  1  0.000000  0.000000  0.000000  1
  Sb  Sb1  1  0.157007  0.490660  0.333653  1
  Sb  Sb2  1  0.507432  0.656595  0.841489  1
  Sb  Sb3  1  0.334078  0.841789  0.184918  1
  Sb  Sb4  1  0.815105  0.656595  0.149163  1
  Sb  Sb5  1  0.656872  0.841789  0.507711  1
  Sb  Sb6  1  0.184895  0.343405  0.850837  1
  Sb  Sb7  1  0.665922  0.158211  0.815082  1
  Sb  Sb8  1  0.343128  0.158211  0.492289  1
  Sb  Sb9  1  0.492568  0.343405  0.158511  1
  Sb  Sb10  1  0.842993  0.509340  0.666347  1
  Sb  Sb11  1  0.849302  0.191902  0.342598  1
  Sb  Sb12  1  0.150698  0.808098  0.657402  1
  Ru  Ru13  1  0.500000  0.500000  0.500000  1
  Ru  Ru14  1  0.000000  0.500000  0.000000  1
  Pt  Pt15  1  0.500000  0.000000  0.000000  1
  Pt  Pt16  1  0.000000  0.000000  0.500000  1
