# generated using pymatgen
data_Rb8Tb3Ho3BBr20
_symmetry_space_group_name_H-M   'P 1'
_cell_length_a   12.28577475
_cell_length_b   12.29603079
_cell_length_c   12.28301429
_cell_angle_alpha   59.97979519
_cell_angle_beta   60.06266987
_cell_angle_gamma   59.95753367
_symmetry_Int_Tables_number   1
_chemical_formula_structural   Rb8Tb3Ho3BBr20
_chemical_formula_sum   'Rb8 Tb3 Ho3 B1 Br20'
_cell_volume   1312.06887459
_cell_formula_units_Z   1
loop_
 _symmetry_equiv_pos_site_id
 _symmetry_equiv_pos_as_xyz
  1  'x, y, z'
loop_
 _atom_site_type_symbol
 _atom_site_label
 _atom_site_symmetry_multiplicity
 _atom_site_fract_x
 _atom_site_fract_y
 _atom_site_fract_z
 _atom_site_occupancy
  Rb  Rb0  1  0.360020  0.359409  0.359175  1
  Rb  Rb1  1  0.639951  0.640639  0.640812  1
  Rb  Rb2  1  0.359361  0.360049  0.921403  1
  Rb  Rb3  1  0.359175  0.921397  0.360020  1
  Rb  Rb4  1  0.640591  0.639980  0.078603  1
  Rb  Rb5  1  0.640812  0.078597  0.639951  1
  Rb  Rb6  1  0.921403  0.359188  0.359361  1
  Rb  Rb7  1  0.078603  0.640825  0.640591  1
  Tb  Tb8  1  0.848352  0.151648  0.151279  1
  Tb  Tb9  1  0.151279  0.848721  0.848352  1
  Tb  Tb10  1  0.151672  0.848328  0.151672  1
  Ho  Ho11  1  0.848985  0.151015  0.848985  1
  Ho  Ho12  1  0.150326  0.150787  0.849213  1
  Ho  Ho13  1  0.849213  0.849674  0.150326  1
  B  B14  1  0.999466  0.000534  0.999466  1
  Br  Br15  1  0.329034  0.001706  0.998294  1
  Br  Br16  1  0.672611  0.000473  0.999527  1
  Br  Br17  1  0.999527  0.327389  0.672611  1
  Br  Br18  1  0.998294  0.670966  0.329034  1
  Br  Br19  1  0.002039  0.329198  0.997848  1
  Br  Br20  1  0.670802  0.997961  0.329085  1
  Br  Br21  1  0.997848  0.670915  0.002039  1
  Br  Br22  1  0.329085  0.002152  0.670802  1
  Br  Br23  1  0.000390  0.999610  0.331564  1
  Br  Br24  1  0.997346  0.002654  0.670211  1
  Br  Br25  1  0.670211  0.329789  0.997346  1
  Br  Br26  1  0.331564  0.668436  0.000390  1
  Br  Br27  1  0.679540  0.320460  0.320041  1
  Br  Br28  1  0.320041  0.679959  0.679540  1
  Br  Br29  1  0.320158  0.679842  0.320158  1
  Br  Br30  1  0.682617  0.317383  0.682617  1
  Br  Br31  1  0.316819  0.317135  0.682865  1
  Br  Br32  1  0.682865  0.683181  0.316819  1
  Br  Br33  1  0.250000  0.250000  0.250000  1
  Br  Br34  1  0.750000  0.750000  0.750000  1
