# generated using pymatgen
data_Tb4Er12In4PdRh3
_symmetry_space_group_name_H-M   'P 1'
_cell_length_a   9.61490765
_cell_length_b   9.62538164
_cell_length_c   9.62179237
_cell_angle_alpha   60.03042445
_cell_angle_beta   60.00696429
_cell_angle_gamma   60.06546647
_symmetry_Int_Tables_number   1
_chemical_formula_structural   Tb4Er12In4PdRh3
_chemical_formula_sum   'Tb4 Er12 In4 Pd1 Rh3'
_cell_volume   630.14604504
_cell_formula_units_Z   1
loop_
 _symmetry_equiv_pos_site_id
 _symmetry_equiv_pos_as_xyz
  1  'x, y, z'
loop_
 _atom_site_type_symbol
 _atom_site_label
 _atom_site_symmetry_multiplicity
 _atom_site_fract_x
 _atom_site_fract_y
 _atom_site_fract_z
 _atom_site_occupancy
  Tb  Tb0  1  0.193480  0.184143  0.810880  1
  Tb  Tb1  1  0.437911  0.062555  0.062282  1
  Tb  Tb2  1  0.436981  0.063737  0.436711  1
  Tb  Tb3  1  0.061191  0.441046  0.062439  1
  Er  Er4  1  0.651663  0.046216  0.650378  1
  Er  Er5  1  0.188772  0.810813  0.811535  1
  Er  Er6  1  0.060901  0.062592  0.438246  1
  Er  Er7  1  0.810643  0.183906  0.194199  1
  Er  Er8  1  0.812037  0.811248  0.188767  1
  Er  Er9  1  0.645747  0.653363  0.054046  1
  Er  Er10  1  0.646888  0.653905  0.646522  1
  Er  Er11  1  0.061221  0.441477  0.435725  1
  Er  Er12  1  0.053610  0.654086  0.645414  1
  Er  Er13  1  0.810850  0.184592  0.810827  1
  Er  Er14  1  0.436460  0.441883  0.061246  1
  Er  Er15  1  0.188364  0.810411  0.189349  1
  In  In16  1  0.416634  0.749483  0.416910  1
  In  In17  1  0.418228  0.416527  0.748432  1
  In  In18  1  0.749504  0.415394  0.418008  1
  In  In19  1  0.417193  0.416486  0.416658  1
  Pd  Pd20  1  0.854911  0.431762  0.856588  1
  Rh  Rh21  1  0.858885  0.855101  0.428840  1
  Rh  Rh22  1  0.429501  0.853534  0.858730  1
  Rh  Rh23  1  0.858426  0.855739  0.857268  1
