# generated using pymatgen
data_Li3Ac3SiHgGe
_symmetry_space_group_name_H-M   'P 1'
_cell_length_a   7.87209500
_cell_length_b   7.87209540
_cell_length_c   4.55062700
_cell_angle_alpha   90.00000000
_cell_angle_beta   90.00000000
_cell_angle_gamma   119.99999412
_symmetry_Int_Tables_number   1
_chemical_formula_structural   Li3Ac3SiHgGe
_chemical_formula_sum   'Li3 Ac3 Si1 Hg1 Ge1'
_cell_volume   244.22075621
_cell_formula_units_Z   1
loop_
 _symmetry_equiv_pos_site_id
 _symmetry_equiv_pos_as_xyz
  1  'x, y, z'
loop_
 _atom_site_type_symbol
 _atom_site_label
 _atom_site_symmetry_multiplicity
 _atom_site_fract_x
 _atom_site_fract_y
 _atom_site_fract_z
 _atom_site_occupancy
  Li  Li0  1  0.754370  0.753146  0.500000  1
  Li  Li1  1  0.246854  0.001225  0.500000  1
  Li  Li2  1  0.998775  0.245630  0.500000  1
  Ac  Ac3  1  0.427749  0.425726  0.000000  1
  Ac  Ac4  1  0.574274  0.002023  0.000000  1
  Ac  Ac5  1  0.997977  0.572251  0.000000  1
  Si  Si6  1  0.666667  0.333333  0.500000  1
  Hg  Hg7  1  0.000000  0.000000  0.000000  1
  Ge  Ge8  1  0.333333  0.666667  0.500000  1
