# generated using pymatgen
data_Y17Tm3(Ir3Rh)3
_symmetry_space_group_name_H-M   'P 1'
_cell_length_a   10.90658600
_cell_length_b   10.90700700
_cell_length_c   6.40414300
_cell_angle_alpha   90.00000000
_cell_angle_beta   90.00000000
_cell_angle_gamma   89.99912797
_symmetry_Int_Tables_number   1
_chemical_formula_structural   Y17Tm3(Ir3Rh)3
_chemical_formula_sum   'Y17 Tm3 Ir9 Rh3'
_cell_volume   761.82538685
_cell_formula_units_Z   1
loop_
 _symmetry_equiv_pos_site_id
 _symmetry_equiv_pos_as_xyz
  1  'x, y, z'
loop_
 _atom_site_type_symbol
 _atom_site_label
 _atom_site_symmetry_multiplicity
 _atom_site_fract_x
 _atom_site_fract_y
 _atom_site_fract_z
 _atom_site_occupancy
  Y  Y0  1  0.289331  0.088632  0.381666  1
  Y  Y1  1  0.289217  0.911310  0.882027  1
  Y  Y2  1  0.710783  0.088690  0.882027  1
  Y  Y3  1  0.710669  0.911368  0.381666  1
  Y  Y4  1  0.588832  0.790096  0.880808  1
  Y  Y5  1  0.589045  0.209350  0.382004  1
  Y  Y6  1  0.410955  0.790650  0.382004  1
  Y  Y7  1  0.411168  0.209904  0.880808  1
  Y  Y8  1  0.208516  0.410598  0.616261  1
  Y  Y9  1  0.209470  0.588658  0.119781  1
  Y  Y10  1  0.790530  0.411342  0.119781  1
  Y  Y11  1  0.791484  0.589402  0.616261  1
  Y  Y12  1  0.911497  0.710250  0.118474  1
  Y  Y13  1  0.911158  0.290328  0.616497  1
  Y  Y14  1  0.088842  0.709672  0.616497  1
  Y  Y15  1  0.088503  0.289750  0.118474  1
  Y  Y16  1  0.500000  0.500000  0.500782  1
  Tm  Tm17  1  0.000000  0.000000  0.500900  1
  Tm  Tm18  1  0.000000  0.000000  0.000618  1
  Tm  Tm19  1  0.500000  0.500000  0.000494  1
  Ir  Ir20  1  0.847782  0.149706  0.250788  1
  Ir  Ir21  1  0.849035  0.848770  0.749486  1
  Ir  Ir22  1  0.150965  0.151230  0.749486  1
  Ir  Ir23  1  0.152218  0.850294  0.250788  1
  Ir  Ir24  1  0.651986  0.346097  0.753323  1
  Ir  Ir25  1  0.652568  0.652973  0.246800  1
  Ir  Ir26  1  0.347432  0.347027  0.246800  1
  Ir  Ir27  1  0.348014  0.653903  0.753323  1
  Ir  Ir28  1  0.000000  0.500000  0.370699  1
  Rh  Rh29  1  0.500000  0.000000  0.129781  1
  Rh  Rh30  1  0.500000  0.000000  0.629786  1
  Rh  Rh31  1  0.000000  0.500000  0.871107  1
