# generated using pymatgen
data_RuI35
_symmetry_space_group_name_H-M   'P 1'
_cell_length_a   17.58017498
_cell_length_b   12.54030950
_cell_length_c   11.87107100
_cell_angle_alpha   88.81408644
_cell_angle_beta   66.02770740
_cell_angle_gamma   92.31545562
_symmetry_Int_Tables_number   1
_chemical_formula_structural   RuI35
_chemical_formula_sum   'Ru1 I35'
_cell_volume   2387.43274716
_cell_formula_units_Z   1
loop_
 _symmetry_equiv_pos_site_id
 _symmetry_equiv_pos_as_xyz
  1  'x, y, z'
loop_
 _atom_site_type_symbol
 _atom_site_label
 _atom_site_symmetry_multiplicity
 _atom_site_fract_x
 _atom_site_fract_y
 _atom_site_fract_z
 _atom_site_occupancy
  Ru  Ru0  1  0.222727  0.446474  0.475873  1
  I  I1  1  0.519844  0.251379  0.527270  1
  I  I2  1  0.756034  0.584414  0.573694  1
  I  I3  1  0.466058  0.674419  0.726913  1
  I  I4  1  0.068408  0.884156  0.850793  1
  I  I5  1  0.900201  0.159400  0.008380  1
  I  I6  1  0.661876  0.305137  0.285790  1
  I  I7  1  0.595322  0.341205  0.840560  1
  I  I8  1  0.326579  0.740666  0.672665  1
  I  I9  1  0.322271  0.577625  0.253554  1
  I  I10  1  0.641379  0.131161  0.811753  1
  I  I11  1  0.917991  0.553108  0.380687  1
  I  I12  1  0.074780  0.959124  0.614131  1
  I  I13  1  0.905886  0.106967  0.250327  1
  I  I14  1  0.886465  0.214645  0.780847  1
  I  I15  1  0.658617  0.043624  0.229886  1
  I  I16  1  0.037867  0.807648  0.102593  1
  I  I17  1  0.349166  0.966507  0.713725  1
  I  I18  1  0.910294  0.326957  0.320220  1
  I  I19  1  0.884716  0.934437  0.712396  1
  I  I20  1  0.887388  0.676025  0.786298  1
  I  I21  1  0.318023  0.054182  0.268571  1
  I  I22  1  0.327155  0.322641  0.288642  1
  I  I23  1  0.601334  0.614228  0.795729  1
  I  I24  1  0.115655  0.412204  0.373696  1
  I  I25  1  0.709175  0.895616  0.805761  1
  I  I26  1  0.921997  0.459397  0.761144  1
  I  I27  1  0.491316  0.045575  0.248261  1
  I  I28  1  0.145087  0.309325  0.657273  1
  I  I29  1  0.674705  0.775662  0.267236  1
  I  I30  1  0.856572  0.796228  0.186723  1
  I  I31  1  0.380261  0.193684  0.756262  1
  I  I32  1  0.350713  0.476995  0.537539  1
  I  I33  1  0.660411  0.537848  0.263905  1
  I  I34  1  0.150647  0.616542  0.585573  1
  I  I35  1  0.303080  0.804800  0.285332  1
