# generated using pymatgen
data_ErHf3(SbRh5)2
_symmetry_space_group_name_H-M   'P 1'
_cell_length_a   4.16472300
_cell_length_b   5.68530709
_cell_length_c   11.12925214
_cell_angle_alpha   89.92892194
_cell_angle_beta   90.00000000
_cell_angle_gamma   90.00000000
_symmetry_Int_Tables_number   1
_chemical_formula_structural   ErHf3(SbRh5)2
_chemical_formula_sum   'Er1 Hf3 Sb2 Rh10'
_cell_volume   263.51521579
_cell_formula_units_Z   1
loop_
 _symmetry_equiv_pos_site_id
 _symmetry_equiv_pos_as_xyz
  1  'x, y, z'
loop_
 _atom_site_type_symbol
 _atom_site_label
 _atom_site_symmetry_multiplicity
 _atom_site_fract_x
 _atom_site_fract_y
 _atom_site_fract_z
 _atom_site_occupancy
  Er  Er0  1  0.500000  0.177122  0.642356  1
  Hf  Hf1  1  0.500000  0.827069  0.355414  1
  Hf  Hf2  1  0.500000  0.674459  0.855390  1
  Hf  Hf3  1  0.500000  0.327734  0.142637  1
  Sb  Sb4  1  0.000000  0.498802  0.498797  1
  Sb  Sb5  1  0.000000  0.998641  0.001041  1
  Rh  Rh6  1  0.500000  0.200813  0.896689  1
  Rh  Rh7  1  0.500000  0.801107  0.111185  1
  Rh  Rh8  1  0.500000  0.692528  0.610667  1
  Rh  Rh9  1  0.500000  0.304496  0.382795  1
  Rh  Rh10  1  0.000000  0.439572  0.751488  1
  Rh  Rh11  1  0.000000  0.568822  0.253973  1
  Rh  Rh12  1  0.000000  0.989666  0.492872  1
  Rh  Rh13  1  0.000000  0.501430  0.002121  1
  Rh  Rh14  1  0.000000  0.068386  0.242859  1
  Rh  Rh15  1  0.000000  0.929353  0.759717  1
