# generated using pymatgen
data_La20TcBi8Ru3
_symmetry_space_group_name_H-M   'P 1'
_cell_length_a   8.55816773
_cell_length_b   9.28417100
_cell_length_c   13.04959000
_cell_angle_alpha   90.00000000
_cell_angle_beta   89.82324189
_cell_angle_gamma   90.00000000
_symmetry_Int_Tables_number   1
_chemical_formula_structural   La20TcBi8Ru3
_chemical_formula_sum   'La20 Tc1 Bi8 Ru3'
_cell_volume   1036.85666773
_cell_formula_units_Z   1
loop_
 _symmetry_equiv_pos_site_id
 _symmetry_equiv_pos_as_xyz
  1  'x, y, z'
loop_
 _atom_site_type_symbol
 _atom_site_label
 _atom_site_symmetry_multiplicity
 _atom_site_fract_x
 _atom_site_fract_y
 _atom_site_fract_z
 _atom_site_occupancy
  La  La0  1  0.352073  0.750000  0.699035  1
  La  La1  1  0.646302  0.250000  0.299772  1
  La  La2  1  0.854696  0.250000  0.800213  1
  La  La3  1  0.148096  0.750000  0.201963  1
  La  La4  1  0.878034  0.750000  0.805673  1
  La  La5  1  0.119946  0.250000  0.193757  1
  La  La6  1  0.383050  0.250000  0.691220  1
  La  La7  1  0.621762  0.750000  0.304615  1
  La  La8  1  0.682063  0.537331  0.564455  1
  La  La9  1  0.321905  0.474299  0.437739  1
  La  La10  1  0.180574  0.467205  0.935450  1
  La  La11  1  0.321905  0.025701  0.437739  1
  La  La12  1  0.819969  0.535487  0.065645  1
  La  La13  1  0.682063  0.962669  0.564455  1
  La  La14  1  0.819969  0.964513  0.065645  1
  La  La15  1  0.180574  0.032795  0.935450  1
  La  La16  1  0.047284  0.750000  0.497125  1
  La  La17  1  0.941113  0.250000  0.504334  1
  La  La18  1  0.556176  0.250000  0.004054  1
  La  La19  1  0.445032  0.750000  0.994552  1
  Tc  Tc20  1  0.416518  0.750000  0.485949  1
  Bi  Bi21  1  0.575006  0.505192  0.826811  1
  Bi  Bi22  1  0.423952  0.493830  0.172012  1
  Bi  Bi23  1  0.076806  0.492707  0.672326  1
  Bi  Bi24  1  0.423952  0.006170  0.172012  1
  Bi  Bi25  1  0.924772  0.505722  0.327704  1
  Bi  Bi26  1  0.575006  0.994808  0.826811  1
  Bi  Bi27  1  0.924772  0.994278  0.327704  1
  Bi  Bi28  1  0.076806  0.007293  0.672326  1
  Ru  Ru29  1  0.076483  0.750000  0.987564  1
  Ru  Ru30  1  0.921617  0.250000  0.012921  1
  Ru  Ru31  1  0.581721  0.250000  0.512968  1
