# generated using pymatgen
data_Hg3S2ClF
_symmetry_space_group_name_H-M   'P 1'
_cell_length_a   9.81132223
_cell_length_b   9.81132166
_cell_length_c   8.82458958
_cell_angle_alpha   89.00558117
_cell_angle_beta   89.00557975
_cell_angle_gamma   55.14319629
_symmetry_Int_Tables_number   1
_chemical_formula_structural   Hg3S2ClF
_chemical_formula_sum   'Hg12 S8 Cl4 F4'
_cell_volume   696.92946986
_cell_formula_units_Z   4
loop_
 _symmetry_equiv_pos_site_id
 _symmetry_equiv_pos_as_xyz
  1  'x, y, z'
loop_
 _atom_site_type_symbol
 _atom_site_label
 _atom_site_symmetry_multiplicity
 _atom_site_fract_x
 _atom_site_fract_y
 _atom_site_fract_z
 _atom_site_occupancy
  Hg  Hg0  1  0.349010  0.897672  0.319915  1
  Hg  Hg1  1  0.650990  0.102328  0.680085  1
  Hg  Hg2  1  0.102328  0.650990  0.680085  1
  Hg  Hg3  1  0.897672  0.349010  0.319915  1
  Hg  Hg4  1  0.473929  0.473929  0.307605  1
  Hg  Hg5  1  0.526071  0.526071  0.692395  1
  Hg  Hg6  1  0.500000  0.000000  0.000000  1
  Hg  Hg7  1  0.000000  0.500000  0.000000  1
  Hg  Hg8  1  0.773988  0.773988  0.313924  1
  Hg  Hg9  1  0.226012  0.226012  0.686076  1
  Hg  Hg10  1  0.761646  0.238354  0.000000  1
  Hg  Hg11  1  0.238354  0.761646  0.000000  1
  S  S12  1  0.499776  0.024869  0.276992  1
  S  S13  1  0.500224  0.975131  0.723008  1
  S  S14  1  0.975131  0.500224  0.723008  1
  S  S15  1  0.024869  0.499776  0.276992  1
  S  S16  1  0.751616  0.219767  0.276248  1
  S  S17  1  0.248384  0.780233  0.723752  1
  S  S18  1  0.780233  0.248384  0.723752  1
  S  S19  1  0.219767  0.751616  0.276248  1
  Cl  Cl20  1  0.127517  0.127517  0.020208  1
  Cl  Cl21  1  0.872483  0.872483  0.979792  1
  Cl  Cl22  1  0.624795  0.624795  0.009020  1
  Cl  Cl23  1  0.375205  0.375205  0.990980  1
  F  F24  1  0.605295  0.605295  0.456274  1
  F  F25  1  0.394705  0.394705  0.543726  1
  F  F26  1  0.861091  0.861091  0.525920  1
  F  F27  1  0.138909  0.138909  0.474080  1
