# generated using pymatgen
data_CeNd2Se5
_symmetry_space_group_name_H-M   'P 1'
_cell_length_a   7.89531300
_cell_length_b   8.48428700
_cell_length_c   12.55312900
_cell_angle_alpha   90.00000000
_cell_angle_beta   90.00000000
_cell_angle_gamma   90.00000000
_symmetry_Int_Tables_number   1
_chemical_formula_structural   CeNd2Se5
_chemical_formula_sum   'Ce4 Nd8 Se20'
_cell_volume   840.88517267
_cell_formula_units_Z   4
loop_
 _symmetry_equiv_pos_site_id
 _symmetry_equiv_pos_as_xyz
  1  'x, y, z'
loop_
 _atom_site_type_symbol
 _atom_site_label
 _atom_site_symmetry_multiplicity
 _atom_site_fract_x
 _atom_site_fract_y
 _atom_site_fract_z
 _atom_site_occupancy
  Ce  Ce0  1  0.074205  0.750000  0.490725  1
  Ce  Ce1  1  0.425795  0.750000  0.990725  1
  Ce  Ce2  1  0.925795  0.250000  0.509275  1
  Ce  Ce3  1  0.574205  0.250000  0.009275  1
  Nd  Nd4  1  0.521214  0.499355  0.321723  1
  Nd  Nd5  1  0.978786  0.000645  0.821723  1
  Nd  Nd6  1  0.478786  0.999355  0.678277  1
  Nd  Nd7  1  0.021214  0.500645  0.178277  1
  Nd  Nd8  1  0.478786  0.500645  0.678277  1
  Nd  Nd9  1  0.021214  0.999355  0.178277  1
  Nd  Nd10  1  0.521214  0.000645  0.321723  1
  Nd  Nd11  1  0.978786  0.499355  0.821723  1
  Se  Se12  1  0.837141  0.956090  0.598051  1
  Se  Se13  1  0.662859  0.543910  0.098051  1
  Se  Se14  1  0.162859  0.456090  0.401949  1
  Se  Se15  1  0.337141  0.043910  0.901949  1
  Se  Se16  1  0.162859  0.043910  0.401949  1
  Se  Se17  1  0.337141  0.456090  0.901949  1
  Se  Se18  1  0.837141  0.543910  0.598051  1
  Se  Se19  1  0.662859  0.956090  0.098051  1
  Se  Se20  1  0.827150  0.750000  0.313282  1
  Se  Se21  1  0.672850  0.750000  0.813282  1
  Se  Se22  1  0.172850  0.250000  0.686718  1
  Se  Se23  1  0.327150  0.250000  0.186718  1
  Se  Se24  1  0.458937  0.750000  0.499297  1
  Se  Se25  1  0.041063  0.750000  0.999297  1
  Se  Se26  1  0.541063  0.250000  0.500703  1
  Se  Se27  1  0.958937  0.250000  0.000703  1
  Se  Se28  1  0.198507  0.750000  0.715701  1
  Se  Se29  1  0.301493  0.750000  0.215701  1
  Se  Se30  1  0.801493  0.250000  0.284299  1
  Se  Se31  1  0.698507  0.250000  0.784299  1
