# generated using pymatgen
data_Y6Mn(CrC4)3
_symmetry_space_group_name_H-M   'P 1'
_cell_length_a   8.12965900
_cell_length_b   8.12965943
_cell_length_c   5.01227500
_cell_angle_alpha   90.00000000
_cell_angle_beta   90.00000000
_cell_angle_gamma   119.99999419
_symmetry_Int_Tables_number   1
_chemical_formula_structural   Y6Mn(CrC4)3
_chemical_formula_sum   'Y6 Mn1 Cr3 C12'
_cell_volume   286.88657747
_cell_formula_units_Z   1
loop_
 _symmetry_equiv_pos_site_id
 _symmetry_equiv_pos_as_xyz
  1  'x, y, z'
loop_
 _atom_site_type_symbol
 _atom_site_label
 _atom_site_symmetry_multiplicity
 _atom_site_fract_x
 _atom_site_fract_y
 _atom_site_fract_z
 _atom_site_occupancy
  Y  Y0  1  0.621453  0.685639  0.750000  1
  Y  Y1  1  0.934654  0.619275  0.250000  1
  Y  Y2  1  0.684621  0.065346  0.250000  1
  Y  Y3  1  0.314361  0.935814  0.750000  1
  Y  Y4  1  0.064186  0.378547  0.750000  1
  Y  Y5  1  0.380725  0.315379  0.250000  1
  Mn  Mn6  1  0.333333  0.666667  0.250000  1
  Cr  Cr7  1  0.000000  0.000000  0.501568  1
  Cr  Cr8  1  0.000000  0.000000  0.998432  1
  Cr  Cr9  1  0.666667  0.333333  0.750000  1
  C  C10  1  0.963490  0.775448  0.750000  1
  C  C11  1  0.191835  0.962391  0.250000  1
  C  C12  1  0.770557  0.808165  0.250000  1
  C  C13  1  0.224552  0.188043  0.750000  1
  C  C14  1  0.811957  0.036510  0.750000  1
  C  C15  1  0.037609  0.229443  0.250000  1
  C  C16  1  0.865411  0.579827  0.750000  1
  C  C17  1  0.287015  0.863509  0.250000  1
  C  C18  1  0.576493  0.712985  0.250000  1
  C  C19  1  0.420173  0.285583  0.750000  1
  C  C20  1  0.136491  0.423507  0.250000  1
  C  C21  1  0.714417  0.134589  0.750000  1
