# generated using pymatgen
data_Dy2Y4Te3
_symmetry_space_group_name_H-M   'P 1'
_cell_length_a   4.07995400
_cell_length_b   11.55490900
_cell_length_c   22.23949000
_cell_angle_alpha   90.00000000
_cell_angle_beta   90.00000000
_cell_angle_gamma   90.00000000
_symmetry_Int_Tables_number   1
_chemical_formula_structural   Dy2Y4Te3
_chemical_formula_sum   'Dy8 Y16 Te12'
_cell_volume   1048.44733442
_cell_formula_units_Z   4
loop_
 _symmetry_equiv_pos_site_id
 _symmetry_equiv_pos_as_xyz
  1  'x, y, z'
loop_
 _atom_site_type_symbol
 _atom_site_label
 _atom_site_symmetry_multiplicity
 _atom_site_fract_x
 _atom_site_fract_y
 _atom_site_fract_z
 _atom_site_occupancy
  Dy  Dy0  1  0.250000  0.414777  0.146715  1
  Dy  Dy1  1  0.750000  0.585223  0.853285  1
  Dy  Dy2  1  0.750000  0.914777  0.353285  1
  Dy  Dy3  1  0.250000  0.085223  0.646715  1
  Dy  Dy4  1  0.250000  0.612794  0.982936  1
  Dy  Dy5  1  0.750000  0.387206  0.017064  1
  Dy  Dy6  1  0.750000  0.112794  0.517064  1
  Dy  Dy7  1  0.250000  0.887206  0.482936  1
  Y  Y8  1  0.250000  0.151609  0.391417  1
  Y  Y9  1  0.750000  0.848391  0.608583  1
  Y  Y10  1  0.750000  0.651609  0.108583  1
  Y  Y11  1  0.250000  0.348391  0.891417  1
  Y  Y12  1  0.250000  0.456241  0.339977  1
  Y  Y13  1  0.750000  0.543759  0.660023  1
  Y  Y14  1  0.750000  0.956241  0.160023  1
  Y  Y15  1  0.250000  0.043759  0.839977  1
  Y  Y16  1  0.250000  0.734356  0.233501  1
  Y  Y17  1  0.750000  0.265644  0.766499  1
  Y  Y18  1  0.750000  0.234356  0.266499  1
  Y  Y19  1  0.250000  0.765644  0.733501  1
  Y  Y20  1  0.250000  0.115762  0.034316  1
  Y  Y21  1  0.750000  0.884238  0.965684  1
  Y  Y22  1  0.750000  0.615762  0.465684  1
  Y  Y23  1  0.250000  0.384238  0.534316  1
  Te  Te24  1  0.250000  0.850504  0.068974  1
  Te  Te25  1  0.750000  0.149496  0.931026  1
  Te  Te26  1  0.750000  0.350504  0.431026  1
  Te  Te27  1  0.250000  0.649496  0.568974  1
  Te  Te28  1  0.250000  0.712145  0.372754  1
  Te  Te29  1  0.750000  0.287855  0.627246  1
  Te  Te30  1  0.750000  0.212145  0.127246  1
  Te  Te31  1  0.250000  0.787855  0.872754  1
  Te  Te32  1  0.250000  0.020503  0.261028  1
  Te  Te33  1  0.750000  0.979497  0.738972  1
  Te  Te34  1  0.750000  0.520503  0.238972  1
  Te  Te35  1  0.250000  0.479497  0.761028  1
