# generated using pymatgen
data_TbTm2(Al3Os)4
_symmetry_space_group_name_H-M   'P 1'
_cell_length_a   8.80327900
_cell_length_b   8.79786989
_cell_length_c   9.57025400
_cell_angle_alpha   90.00000000
_cell_angle_beta   90.00000000
_cell_angle_gamma   120.02033641
_symmetry_Int_Tables_number   1
_chemical_formula_structural   TbTm2(Al3Os)4
_chemical_formula_sum   'Tb2 Tm4 Al24 Os8'
_cell_volume   641.78130756
_cell_formula_units_Z   2
loop_
 _symmetry_equiv_pos_site_id
 _symmetry_equiv_pos_as_xyz
  1  'x, y, z'
loop_
 _atom_site_type_symbol
 _atom_site_label
 _atom_site_symmetry_multiplicity
 _atom_site_fract_x
 _atom_site_fract_y
 _atom_site_fract_z
 _atom_site_occupancy
  Tb  Tb0  1  0.192780  0.385561  0.250000  1
  Tb  Tb1  1  0.807220  0.614439  0.750000  1
  Tm  Tm2  1  0.610441  0.805390  0.250000  1
  Tm  Tm3  1  0.389559  0.194610  0.750000  1
  Tm  Tm4  1  0.194949  0.805390  0.250000  1
  Tm  Tm5  1  0.805051  0.194610  0.750000  1
  Al  Al6  1  0.333483  0.666966  0.018231  1
  Al  Al7  1  0.666517  0.333034  0.981769  1
  Al  Al8  1  0.666517  0.333034  0.518231  1
  Al  Al9  1  0.333483  0.666966  0.481769  1
  Al  Al10  1  0.163522  0.327043  0.575902  1
  Al  Al11  1  0.836478  0.672957  0.424098  1
  Al  Al12  1  0.672649  0.836400  0.574441  1
  Al  Al13  1  0.836478  0.672957  0.075902  1
  Al  Al14  1  0.327351  0.163600  0.425559  1
  Al  Al15  1  0.163522  0.327043  0.924098  1
  Al  Al16  1  0.163751  0.836400  0.574441  1
  Al  Al17  1  0.327351  0.163600  0.074441  1
  Al  Al18  1  0.836249  0.163600  0.425559  1
  Al  Al19  1  0.672649  0.836400  0.925559  1
  Al  Al20  1  0.836249  0.163600  0.074441  1
  Al  Al21  1  0.163751  0.836400  0.925559  1
  Al  Al22  1  0.561074  0.122147  0.250000  1
  Al  Al23  1  0.438926  0.877853  0.750000  1
  Al  Al24  1  0.877178  0.439277  0.250000  1
  Al  Al25  1  0.122822  0.560723  0.750000  1
  Al  Al26  1  0.562099  0.439277  0.250000  1
  Al  Al27  1  0.437901  0.560723  0.750000  1
  Al  Al28  1  0.998960  0.997920  0.250000  1
  Al  Al29  1  0.001040  0.002080  0.750000  1
  Os  Os30  1  0.500000  0.000000  0.000000  1
  Os  Os31  1  0.000000  0.500000  0.000000  1
  Os  Os32  1  0.500000  0.000000  0.500000  1
  Os  Os33  1  0.500000  0.500000  0.000000  1
  Os  Os34  1  0.000000  0.500000  0.500000  1
  Os  Os35  1  0.500000  0.500000  0.500000  1
  Os  Os36  1  0.000000  0.000000  0.000000  1
  Os  Os37  1  0.000000  0.000000  0.500000  1
