# generated using pymatgen
data_TbY7Re2(B12Ir)2
_symmetry_space_group_name_H-M   'P 1'
_cell_length_a   3.67645400
_cell_length_b   9.18406787
_cell_length_c   11.57409019
_cell_angle_alpha   89.66887112
_cell_angle_beta   90.00000000
_cell_angle_gamma   90.00000000
_symmetry_Int_Tables_number   1
_chemical_formula_structural   TbY7Re2(B12Ir)2
_chemical_formula_sum   'Tb1 Y7 Re2 B24 Ir2'
_cell_volume   390.79034950
_cell_formula_units_Z   1
loop_
 _symmetry_equiv_pos_site_id
 _symmetry_equiv_pos_as_xyz
  1  'x, y, z'
loop_
 _atom_site_type_symbol
 _atom_site_label
 _atom_site_symmetry_multiplicity
 _atom_site_fract_x
 _atom_site_fract_y
 _atom_site_fract_z
 _atom_site_occupancy
  Tb  Tb0  1  0.000000  0.817866  0.090209  1
  Y  Y1  1  0.000000  0.182659  0.909712  1
  Y  Y2  1  0.000000  0.326650  0.417626  1
  Y  Y3  1  0.000000  0.673300  0.582409  1
  Y  Y4  1  0.000000  0.446012  0.127553  1
  Y  Y5  1  0.000000  0.553935  0.872442  1
  Y  Y6  1  0.000000  0.941596  0.374370  1
  Y  Y7  1  0.000000  0.058373  0.625660  1
  Re  Re8  1  0.000000  0.638013  0.320530  1
  Re  Re9  1  0.000000  0.361958  0.679483  1
  B  B10  1  0.500000  0.053989  0.066352  1
  B  B11  1  0.500000  0.945992  0.933641  1
  B  B12  1  0.500000  0.553144  0.432554  1
  B  B13  1  0.500000  0.446807  0.567478  1
  B  B14  1  0.500000  0.248688  0.078810  1
  B  B15  1  0.500000  0.751289  0.921090  1
  B  B16  1  0.500000  0.747003  0.419270  1
  B  B17  1  0.500000  0.252957  0.580764  1
  B  B18  1  0.500000  0.290291  0.233581  1
  B  B19  1  0.500000  0.709704  0.766389  1
  B  B20  1  0.500000  0.791660  0.266150  1
  B  B21  1  0.500000  0.208235  0.733921  1
  B  B22  1  0.500000  0.131875  0.315525  1
  B  B23  1  0.500000  0.868135  0.684478  1
  B  B24  1  0.500000  0.631727  0.185718  1
  B  B25  1  0.500000  0.368239  0.814292  1
  B  B26  1  0.500000  0.483057  0.287016  1
  B  B27  1  0.500000  0.516889  0.713005  1
  B  B28  1  0.500000  0.982790  0.212733  1
  B  B29  1  0.500000  0.017321  0.787265  1
  B  B30  1  0.500000  0.108563  0.469513  1
  B  B31  1  0.500000  0.891426  0.530509  1
  B  B32  1  0.500000  0.608918  0.029597  1
  B  B33  1  0.500000  0.390869  0.970353  1
  Ir  Ir34  1  0.000000  0.136436  0.177644  1
  Ir  Ir35  1  0.000000  0.863633  0.822359  1
