# generated using pymatgen
data_Ho10Si6C
_symmetry_space_group_name_H-M   'P 1'
_cell_length_a   8.41758600
_cell_length_b   8.41755929
_cell_length_c   6.34191000
_cell_angle_alpha   90.00060327
_cell_angle_beta   89.99922354
_cell_angle_gamma   119.99908359
_symmetry_Int_Tables_number   1
_chemical_formula_structural   Ho10Si6C
_chemical_formula_sum   'Ho10 Si6 C1'
_cell_volume   389.16024022
_cell_formula_units_Z   1
loop_
 _symmetry_equiv_pos_site_id
 _symmetry_equiv_pos_as_xyz
  1  'x, y, z'
loop_
 _atom_site_type_symbol
 _atom_site_label
 _atom_site_symmetry_multiplicity
 _atom_site_fract_x
 _atom_site_fract_y
 _atom_site_fract_z
 _atom_site_occupancy
  Ho  Ho0  1  0.000002  0.765320  0.269851  1
  Ho  Ho1  1  0.234686  0.234681  0.269845  1
  Ho  Ho2  1  0.765316  0.999998  0.269848  1
  Ho  Ho3  1  0.999998  0.234680  0.730149  1
  Ho  Ho4  1  0.765314  0.765319  0.730155  1
  Ho  Ho5  1  0.234684  0.000002  0.730152  1
  Ho  Ho6  1  0.333334  0.666668  0.000001  1
  Ho  Ho7  1  0.666666  0.333332  0.999999  1
  Ho  Ho8  1  0.666664  0.333331  0.500002  1
  Ho  Ho9  1  0.333336  0.666669  0.499998  1
  Si  Si10  1  0.000000  0.399307  0.252070  1
  Si  Si11  1  0.600693  0.600692  0.252069  1
  Si  Si12  1  0.399308  0.999999  0.252070  1
  Si  Si13  1  0.000000  0.600693  0.747930  1
  Si  Si14  1  0.399307  0.399308  0.747931  1
  Si  Si15  1  0.600692  0.000001  0.747930  1
  C  C16  1  0.000000  0.000000  0.500000  1
