# generated using pymatgen
data_Hf4ZnIr3
_symmetry_space_group_name_H-M   'P 1'
_cell_length_a   7.89068300
_cell_length_b   7.89068144
_cell_length_c   5.39277300
_cell_angle_alpha   90.00000000
_cell_angle_beta   90.00000000
_cell_angle_gamma   119.99999395
_symmetry_Int_Tables_number   1
_chemical_formula_structural   Hf4ZnIr3
_chemical_formula_sum   'Hf8 Zn2 Ir6'
_cell_volume   290.78493651
_cell_formula_units_Z   2
loop_
 _symmetry_equiv_pos_site_id
 _symmetry_equiv_pos_as_xyz
  1  'x, y, z'
loop_
 _atom_site_type_symbol
 _atom_site_label
 _atom_site_symmetry_multiplicity
 _atom_site_fract_x
 _atom_site_fract_y
 _atom_site_fract_z
 _atom_site_occupancy
  Hf  Hf0  1  0.333333  0.666667  0.500000  1
  Hf  Hf1  1  0.666667  0.333333  0.500000  1
  Hf  Hf2  1  0.752805  0.752805  0.750522  1
  Hf  Hf3  1  0.247195  0.000000  0.750522  1
  Hf  Hf4  1  0.000000  0.247195  0.750522  1
  Hf  Hf5  1  0.247195  0.247195  0.249478  1
  Hf  Hf6  1  0.752805  0.000000  0.249478  1
  Hf  Hf7  1  0.000000  0.752805  0.249478  1
  Zn  Zn8  1  0.666667  0.333333  0.000000  1
  Zn  Zn9  1  0.333333  0.666667  0.000000  1
  Ir  Ir10  1  0.395213  0.395213  0.759984  1
  Ir  Ir11  1  0.604787  0.000000  0.759984  1
  Ir  Ir12  1  0.000000  0.604787  0.759984  1
  Ir  Ir13  1  0.604787  0.604787  0.240016  1
  Ir  Ir14  1  0.395213  0.000000  0.240016  1
  Ir  Ir15  1  0.000000  0.395213  0.240016  1
