# generated using pymatgen
data_DyLu2(Co3P2)3
_symmetry_space_group_name_H-M   'P 1'
_cell_length_a   3.66955500
_cell_length_b   10.45720200
_cell_length_c   12.11039300
_cell_angle_alpha   90.00000000
_cell_angle_beta   90.00000000
_cell_angle_gamma   90.00000000
_symmetry_Int_Tables_number   1
_chemical_formula_structural   DyLu2(Co3P2)3
_chemical_formula_sum   'Dy2 Lu4 Co18 P12'
_cell_volume   464.71547589
_cell_formula_units_Z   2
loop_
 _symmetry_equiv_pos_site_id
 _symmetry_equiv_pos_as_xyz
  1  'x, y, z'
loop_
 _atom_site_type_symbol
 _atom_site_label
 _atom_site_symmetry_multiplicity
 _atom_site_fract_x
 _atom_site_fract_y
 _atom_site_fract_z
 _atom_site_occupancy
  Dy  Dy0  1  0.000000  0.500000  0.523044  1
  Dy  Dy1  1  0.500000  0.000000  0.476956  1
  Lu  Lu2  1  0.500000  0.818645  0.206010  1
  Lu  Lu3  1  0.500000  0.181355  0.206010  1
  Lu  Lu4  1  0.000000  0.681355  0.793990  1
  Lu  Lu5  1  0.000000  0.318645  0.793990  1
  Co  Co6  1  0.500000  0.500000  0.159814  1
  Co  Co7  1  0.000000  0.000000  0.840186  1
  Co  Co8  1  0.500000  0.500000  0.705005  1
  Co  Co9  1  0.000000  0.000000  0.294995  1
  Co  Co10  1  0.000000  0.500000  0.987176  1
  Co  Co11  1  0.500000  0.000000  0.012824  1
  Co  Co12  1  0.500000  0.333058  0.994785  1
  Co  Co13  1  0.500000  0.666942  0.994785  1
  Co  Co14  1  0.000000  0.166942  0.005215  1
  Co  Co15  1  0.000000  0.833058  0.005215  1
  Co  Co16  1  0.500000  0.296977  0.430334  1
  Co  Co17  1  0.500000  0.703023  0.430334  1
  Co  Co18  1  0.000000  0.203023  0.569666  1
  Co  Co19  1  0.000000  0.796977  0.569666  1
  Co  Co20  1  0.500000  0.877938  0.709564  1
  Co  Co21  1  0.500000  0.122062  0.709564  1
  Co  Co22  1  0.000000  0.622062  0.290436  1
  Co  Co23  1  0.000000  0.377938  0.290436  1
  P  P24  1  0.500000  0.500000  0.882647  1
  P  P25  1  0.000000  0.000000  0.117353  1
  P  P26  1  0.500000  0.500000  0.344294  1
  P  P27  1  0.000000  0.000000  0.655706  1
  P  P28  1  0.500000  0.310748  0.617319  1
  P  P29  1  0.500000  0.689252  0.617319  1
  P  P30  1  0.000000  0.189252  0.382681  1
  P  P31  1  0.000000  0.810748  0.382681  1
  P  P32  1  0.500000  0.846173  0.891546  1
  P  P33  1  0.500000  0.153827  0.891546  1
  P  P34  1  0.000000  0.653827  0.108454  1
  P  P35  1  0.000000  0.346173  0.108454  1
