# generated using pymatgen
data_Ho8Er12Si13Ir3
_symmetry_space_group_name_H-M   'P 1'
_cell_length_a   7.21727800
_cell_length_b   7.79811741
_cell_length_c   14.54133900
_cell_angle_alpha   90.00000000
_cell_angle_beta   90.00000000
_cell_angle_gamma   90.18444910
_symmetry_Int_Tables_number   1
_chemical_formula_structural   Ho8Er12Si13Ir3
_chemical_formula_sum   'Ho8 Er12 Si13 Ir3'
_cell_volume   818.39949452
_cell_formula_units_Z   1
loop_
 _symmetry_equiv_pos_site_id
 _symmetry_equiv_pos_as_xyz
  1  'x, y, z'
loop_
 _atom_site_type_symbol
 _atom_site_label
 _atom_site_symmetry_multiplicity
 _atom_site_fract_x
 _atom_site_fract_y
 _atom_site_fract_z
 _atom_site_occupancy
  Ho  Ho0  1  0.008126  0.180111  0.095780  1
  Ho  Ho1  1  0.990301  0.821787  0.908918  1
  Ho  Ho2  1  0.488315  0.682114  0.907095  1
  Ho  Ho3  1  0.990301  0.821787  0.591082  1
  Ho  Ho4  1  0.508950  0.322252  0.096206  1
  Ho  Ho5  1  0.008126  0.180111  0.404220  1
  Ho  Ho6  1  0.508950  0.322252  0.403794  1
  Ho  Ho7  1  0.488315  0.682114  0.592905  1
  Er  Er8  1  0.157369  0.517344  0.750000  1
  Er  Er9  1  0.829413  0.491558  0.250000  1
  Er  Er10  1  0.327364  0.011320  0.250000  1
  Er  Er11  1  0.673150  0.985220  0.750000  1
  Er  Er12  1  0.317965  0.175993  0.626525  1
  Er  Er13  1  0.681255  0.827698  0.372066  1
  Er  Er14  1  0.182443  0.672915  0.371469  1
  Er  Er15  1  0.681255  0.827698  0.127934  1
  Er  Er16  1  0.832084  0.316586  0.625332  1
  Er  Er17  1  0.317965  0.175993  0.873475  1
  Er  Er18  1  0.832084  0.316586  0.874668  1
  Er  Er19  1  0.182443  0.672915  0.128531  1
  Si  Si20  1  0.531173  0.399298  0.750000  1
  Si  Si21  1  0.277207  0.864472  0.750000  1
  Si  Si22  1  0.723732  0.135847  0.250000  1
  Si  Si23  1  0.220822  0.366870  0.250000  1
  Si  Si24  1  0.770195  0.623528  0.750000  1
  Si  Si25  1  0.158774  0.472560  0.538367  1
  Si  Si26  1  0.843716  0.530821  0.464116  1
  Si  Si27  1  0.342973  0.971694  0.462774  1
  Si  Si28  1  0.843716  0.530821  0.035884  1
  Si  Si29  1  0.651134  0.030238  0.538618  1
  Si  Si30  1  0.158774  0.472560  0.961633  1
  Si  Si31  1  0.651134  0.030238  0.961382  1
  Si  Si32  1  0.342973  0.971694  0.037226  1
  Ir  Ir33  1  0.028331  0.095476  0.750000  1
  Ir  Ir34  1  0.973318  0.905086  0.250000  1
  Ir  Ir35  1  0.475857  0.594442  0.250000  1
