# generated using pymatgen
data_YbDy3Y6Cd3Tc
_symmetry_space_group_name_H-M   'P 1'
_cell_length_a   9.61726700
_cell_length_b   9.61726715
_cell_length_c   9.90990800
_cell_angle_alpha   90.00000000
_cell_angle_beta   90.00000000
_cell_angle_gamma   119.99999604
_symmetry_Int_Tables_number   1
_chemical_formula_structural   YbDy3Y6Cd3Tc
_chemical_formula_sum   'Yb2 Dy6 Y12 Cd6 Tc2'
_cell_volume   793.78634765
_cell_formula_units_Z   2
loop_
 _symmetry_equiv_pos_site_id
 _symmetry_equiv_pos_as_xyz
  1  'x, y, z'
loop_
 _atom_site_type_symbol
 _atom_site_label
 _atom_site_symmetry_multiplicity
 _atom_site_fract_x
 _atom_site_fract_y
 _atom_site_fract_z
 _atom_site_occupancy
  Yb  Yb0  1  0.000000  0.000000  0.500000  1
  Yb  Yb1  1  0.000000  0.000000  0.000000  1
  Dy  Dy2  1  0.210710  0.789290  0.439637  1
  Dy  Dy3  1  0.210710  0.421424  0.439637  1
  Dy  Dy4  1  0.578576  0.789290  0.439637  1
  Dy  Dy5  1  0.789290  0.210710  0.560363  1
  Dy  Dy6  1  0.789290  0.578576  0.560363  1
  Dy  Dy7  1  0.421424  0.210710  0.560363  1
  Y  Y8  1  0.789379  0.210621  0.939649  1
  Y  Y9  1  0.789379  0.578755  0.939649  1
  Y  Y10  1  0.421245  0.210621  0.939649  1
  Y  Y11  1  0.210621  0.789379  0.060351  1
  Y  Y12  1  0.210621  0.421245  0.060351  1
  Y  Y13  1  0.578755  0.789379  0.060351  1
  Y  Y14  1  0.540648  0.459352  0.250763  1
  Y  Y15  1  0.540648  0.081296  0.250763  1
  Y  Y16  1  0.918704  0.459352  0.250763  1
  Y  Y17  1  0.459352  0.540648  0.749237  1
  Y  Y18  1  0.459352  0.918704  0.749237  1
  Y  Y19  1  0.081296  0.540648  0.749237  1
  Cd  Cd20  1  0.884523  0.115477  0.249539  1
  Cd  Cd21  1  0.884523  0.769048  0.249539  1
  Cd  Cd22  1  0.230952  0.115477  0.249539  1
  Cd  Cd23  1  0.115477  0.884523  0.750461  1
  Cd  Cd24  1  0.115477  0.230952  0.750461  1
  Cd  Cd25  1  0.769048  0.884523  0.750461  1
  Tc  Tc26  1  0.333333  0.666667  0.253079  1
  Tc  Tc27  1  0.666667  0.333333  0.746921  1
