# generated using pymatgen
data_Ta12Al8Co3IrN4
_symmetry_space_group_name_H-M   'P 1'
_cell_length_a   8.18648837
_cell_length_b   8.19931095
_cell_length_c   8.18649000
_cell_angle_alpha   60.05172011
_cell_angle_beta   60.00000148
_cell_angle_gamma   60.05171729
_symmetry_Int_Tables_number   1
_chemical_formula_structural   Ta12Al8Co3IrN4
_chemical_formula_sum   'Ta12 Al8 Co3 Ir1 N4'
_cell_volume   388.86316510
_cell_formula_units_Z   1
loop_
 _symmetry_equiv_pos_site_id
 _symmetry_equiv_pos_as_xyz
  1  'x, y, z'
loop_
 _atom_site_type_symbol
 _atom_site_label
 _atom_site_symmetry_multiplicity
 _atom_site_fract_x
 _atom_site_fract_y
 _atom_site_fract_z
 _atom_site_occupancy
  Ta  Ta0  1  0.561417  0.938386  0.561417  1
  Ta  Ta1  1  0.312043  0.688590  0.687324  1
  Ta  Ta2  1  0.688583  0.311614  0.311220  1
  Ta  Ta3  1  0.312043  0.688590  0.312043  1
  Ta  Ta4  1  0.687324  0.688590  0.312043  1
  Ta  Ta5  1  0.311220  0.311614  0.688583  1
  Ta  Ta6  1  0.562676  0.561410  0.937957  1
  Ta  Ta7  1  0.937957  0.561410  0.562676  1
  Ta  Ta8  1  0.561417  0.938386  0.938780  1
  Ta  Ta9  1  0.938780  0.938386  0.561417  1
  Ta  Ta10  1  0.688583  0.311614  0.688583  1
  Ta  Ta11  1  0.937957  0.561410  0.937957  1
  Al  Al12  1  0.914023  0.924748  0.914023  1
  Al  Al13  1  0.002791  0.325252  0.335977  1
  Al  Al14  1  0.332351  0.002943  0.332351  1
  Al  Al15  1  0.335977  0.325252  0.002791  1
  Al  Al16  1  0.917649  0.247057  0.917649  1
  Al  Al17  1  0.914023  0.924748  0.247209  1
  Al  Al18  1  0.247209  0.924748  0.914023  1
  Al  Al19  1  0.335977  0.325252  0.335977  1
  Co  Co20  1  0.125000  0.125000  0.125000  1
  Co  Co21  1  0.625000  0.125000  0.125000  1
  Co  Co22  1  0.125000  0.125000  0.625000  1
  Ir  Ir23  1  0.125000  0.625000  0.125000  1
  N  N24  1  0.625000  0.625000  0.625000  1
  N  N25  1  0.125000  0.625000  0.625000  1
  N  N26  1  0.625000  0.125000  0.625000  1
  N  N27  1  0.625000  0.625000  0.125000  1
