# generated using pymatgen
data_Sm2Dy3YCoI10
_symmetry_space_group_name_H-M   'P 1'
_cell_length_a   7.74906367
_cell_length_b   9.74985594
_cell_length_c   9.71599460
_cell_angle_alpha   106.94639388
_cell_angle_beta   96.56834550
_cell_angle_gamma   104.91378187
_symmetry_Int_Tables_number   1
_chemical_formula_structural   Sm2Dy3YCoI10
_chemical_formula_sum   'Sm2 Dy3 Y1 Co1 I10'
_cell_volume   664.13958000
_cell_formula_units_Z   1
loop_
 _symmetry_equiv_pos_site_id
 _symmetry_equiv_pos_as_xyz
  1  'x, y, z'
loop_
 _atom_site_type_symbol
 _atom_site_label
 _atom_site_symmetry_multiplicity
 _atom_site_fract_x
 _atom_site_fract_y
 _atom_site_fract_z
 _atom_site_occupancy
  Sm  Sm0  1  0.888816  0.959078  0.229460  1
  Sm  Sm1  1  0.111002  0.040748  0.770432  1
  Dy  Dy2  1  0.030256  0.717960  0.915490  1
  Dy  Dy3  1  0.969714  0.282055  0.084403  1
  Dy  Dy4  1  0.657110  0.877655  0.836800  1
  Y  Y5  1  0.343753  0.122554  0.163447  1
  Co  Co6  1  0.999501  0.999794  0.999749  1
  I  I7  1  0.649170  0.550456  0.728569  1
  I  I8  1  0.350723  0.449774  0.271486  1
  I  I9  1  0.738359  0.911471  0.540233  1
  I  I10  1  0.261532  0.088496  0.459942  1
  I  I11  1  0.085176  0.374394  0.820726  1
  I  I12  1  0.914875  0.625603  0.179295  1
  I  I13  1  0.452015  0.815903  0.091990  1
  I  I14  1  0.547976  0.183983  0.907856  1
  I  I15  1  0.223076  0.741262  0.655358  1
  I  I16  1  0.776946  0.258813  0.344764  1
