# generated using pymatgen
data_Ba3Sn7Pb2
_symmetry_space_group_name_H-M   'P 1'
_cell_length_a   9.31436726
_cell_length_b   9.31436733
_cell_length_c   9.30739647
_cell_angle_alpha   46.74408624
_cell_angle_beta   46.74408460
_cell_angle_gamma   46.72105855
_symmetry_Int_Tables_number   1
_chemical_formula_structural   Ba3Sn7Pb2
_chemical_formula_sum   'Ba3 Sn7 Pb2'
_cell_volume   391.19566027
_cell_formula_units_Z   1
loop_
 _symmetry_equiv_pos_site_id
 _symmetry_equiv_pos_as_xyz
  1  'x, y, z'
loop_
 _atom_site_type_symbol
 _atom_site_label
 _atom_site_symmetry_multiplicity
 _atom_site_fract_x
 _atom_site_fract_y
 _atom_site_fract_z
 _atom_site_occupancy
  Ba  Ba0  1  0.785950  0.785950  0.786786  1
  Ba  Ba1  1  0.214050  0.214050  0.213214  1
  Ba  Ba2  1  0.000000  0.000000  0.000000  1
  Sn  Sn3  1  0.305743  0.724795  0.302425  1
  Sn  Sn4  1  0.724795  0.305743  0.302425  1
  Sn  Sn5  1  0.305058  0.305058  0.724849  1
  Sn  Sn6  1  0.500000  0.500000  0.000000  1
  Sn  Sn7  1  0.694257  0.275205  0.697575  1
  Sn  Sn8  1  0.694942  0.694942  0.275151  1
  Sn  Sn9  1  0.275205  0.694257  0.697575  1
  Pb  Pb10  1  0.500000  0.000000  0.500000  1
  Pb  Pb11  1  0.000000  0.500000  0.500000  1
