# generated using pymatgen
data_Y6ScFe(Co4P3)4
_symmetry_space_group_name_H-M   'P 1'
_cell_length_a   3.71733000
_cell_length_b   10.59915700
_cell_length_c   12.29259900
_cell_angle_alpha   90.00000000
_cell_angle_beta   90.00000000
_cell_angle_gamma   90.00000000
_symmetry_Int_Tables_number   1
_chemical_formula_structural   Y6ScFe(Co4P3)4
_chemical_formula_sum   'Y6 Sc1 Fe1 Co16 P12'
_cell_volume   484.33533720
_cell_formula_units_Z   1
loop_
 _symmetry_equiv_pos_site_id
 _symmetry_equiv_pos_as_xyz
  1  'x, y, z'
loop_
 _atom_site_type_symbol
 _atom_site_label
 _atom_site_symmetry_multiplicity
 _atom_site_fract_x
 _atom_site_fract_y
 _atom_site_fract_z
 _atom_site_occupancy
  Y  Y0  1  0.000000  0.500000  0.527468  1
  Y  Y1  1  0.500000  0.000000  0.477967  1
  Y  Y2  1  0.500000  0.821376  0.206800  1
  Y  Y3  1  0.500000  0.178624  0.206800  1
  Y  Y4  1  0.000000  0.682405  0.795667  1
  Y  Y5  1  0.000000  0.317595  0.795667  1
  Sc  Sc6  1  0.500000  0.500000  0.152573  1
  Fe  Fe7  1  0.000000  0.000000  0.839880  1
  Co  Co8  1  0.500000  0.500000  0.703137  1
  Co  Co9  1  0.000000  0.000000  0.296445  1
  Co  Co10  1  0.000000  0.500000  0.984496  1
  Co  Co11  1  0.500000  0.000000  0.012065  1
  Co  Co12  1  0.500000  0.326840  0.989736  1
  Co  Co13  1  0.500000  0.673160  0.989736  1
  Co  Co14  1  0.000000  0.162616  0.001636  1
  Co  Co15  1  0.000000  0.837384  0.001636  1
  Co  Co16  1  0.500000  0.294667  0.434178  1
  Co  Co17  1  0.500000  0.705333  0.434178  1
  Co  Co18  1  0.000000  0.202209  0.570309  1
  Co  Co19  1  0.000000  0.797791  0.570309  1
  Co  Co20  1  0.500000  0.880172  0.707584  1
  Co  Co21  1  0.500000  0.119828  0.707584  1
  Co  Co22  1  0.000000  0.622448  0.296637  1
  Co  Co23  1  0.000000  0.377552  0.296637  1
  P  P24  1  0.500000  0.500000  0.883108  1
  P  P25  1  0.000000  0.000000  0.116045  1
  P  P26  1  0.500000  0.500000  0.357569  1
  P  P27  1  0.000000  0.000000  0.655880  1
  P  P28  1  0.500000  0.308737  0.617740  1
  P  P29  1  0.500000  0.691263  0.617740  1
  P  P30  1  0.000000  0.189191  0.386278  1
  P  P31  1  0.000000  0.810809  0.386278  1
  P  P32  1  0.500000  0.851344  0.888644  1
  P  P33  1  0.500000  0.148656  0.888644  1
  P  P34  1  0.000000  0.663000  0.101472  1
  P  P35  1  0.000000  0.337000  0.101472  1
