# generated using pymatgen
data_TaNi6IO12
_symmetry_space_group_name_H-M   'P 1'
_cell_length_a   5.17472795
_cell_length_b   5.55421299
_cell_length_c   8.96038800
_cell_angle_alpha   105.52262257
_cell_angle_beta   90.03477788
_cell_angle_gamma   117.79134215
_symmetry_Int_Tables_number   1
_chemical_formula_structural   TaNi6IO12
_chemical_formula_sum   'Ta1 Ni6 I1 O12'
_cell_volume   217.13094535
_cell_formula_units_Z   1
loop_
 _symmetry_equiv_pos_site_id
 _symmetry_equiv_pos_as_xyz
  1  'x, y, z'
loop_
 _atom_site_type_symbol
 _atom_site_label
 _atom_site_symmetry_multiplicity
 _atom_site_fract_x
 _atom_site_fract_y
 _atom_site_fract_z
 _atom_site_occupancy
  Ta  Ta0  1  0.569791  0.143067  0.856620  1
  Ni  Ni1  1  0.268847  0.544984  0.758390  1
  Ni  Ni2  1  0.758726  0.508597  0.251989  1
  Ni  Ni3  1  0.840397  0.659477  0.618359  1
  Ni  Ni4  1  0.306985  0.641779  0.099068  1
  Ni  Ni5  1  0.016341  0.033440  0.997793  1
  Ni  Ni6  1  0.522104  0.041795  0.513563  1
  I  I7  1  0.056915  0.111056  0.351662  1
  O  O8  1  0.721289  0.851065  0.801599  1
  O  O9  1  0.217972  0.849502  0.309335  1
  O  O10  1  0.273419  0.854446  0.660649  1
  O  O11  1  0.776925  0.846136  0.164050  1
  O  O12  1  0.282216  0.855708  0.959846  1
  O  O13  1  0.781077  0.846813  0.454404  1
  O  O14  1  0.346487  0.351084  0.909223  1
  O  O15  1  0.842125  0.317372  0.398638  1
  O  O16  1  0.339943  0.325373  0.536547  1
  O  O17  1  0.859120  0.338672  0.049901  1
  O  O18  1  0.812315  0.346202  0.716078  1
  O  O19  1  0.301686  0.322796  0.223849  1
