# generated using pymatgen
data_Np8B24Ir3W
_symmetry_space_group_name_H-M   'P 1'
_cell_length_a   3.54831700
_cell_length_b   9.42108185
_cell_length_c   11.43976953
_cell_angle_alpha   90.17507681
_cell_angle_beta   90.00000000
_cell_angle_gamma   90.00000000
_symmetry_Int_Tables_number   1
_chemical_formula_structural   Np8B24Ir3W
_chemical_formula_sum   'Np8 B24 Ir3 W1'
_cell_volume   382.41809738
_cell_formula_units_Z   1
loop_
 _symmetry_equiv_pos_site_id
 _symmetry_equiv_pos_as_xyz
  1  'x, y, z'
loop_
 _atom_site_type_symbol
 _atom_site_label
 _atom_site_symmetry_multiplicity
 _atom_site_fract_x
 _atom_site_fract_y
 _atom_site_fract_z
 _atom_site_occupancy
  Np  Np0  1  0.000000  0.339193  0.407242  1
  Np  Np1  1  0.000000  0.662923  0.594014  1
  Np  Np2  1  0.000000  0.838020  0.092014  1
  Np  Np3  1  0.000000  0.160186  0.905847  1
  Np  Np4  1  0.000000  0.960224  0.400130  1
  Np  Np5  1  0.000000  0.037939  0.598737  1
  Np  Np6  1  0.000000  0.457925  0.099673  1
  Np  Np7  1  0.000000  0.541467  0.903085  1
  B  B8  1  0.500000  0.551136  0.432992  1
  B  B9  1  0.500000  0.449501  0.567109  1
  B  B10  1  0.500000  0.051411  0.067713  1
  B  B11  1  0.500000  0.949033  0.934260  1
  B  B12  1  0.500000  0.744034  0.423012  1
  B  B13  1  0.500000  0.256976  0.575858  1
  B  B14  1  0.500000  0.244117  0.076341  1
  B  B15  1  0.500000  0.754752  0.926171  1
  B  B16  1  0.500000  0.809585  0.272515  1
  B  B17  1  0.500000  0.193104  0.725692  1
  B  B18  1  0.500000  0.309610  0.227081  1
  B  B19  1  0.500000  0.691723  0.774382  1
  B  B20  1  0.500000  0.646998  0.188684  1
  B  B21  1  0.500000  0.352322  0.811944  1
  B  B22  1  0.500000  0.147362  0.311899  1
  B  B23  1  0.500000  0.851968  0.685868  1
  B  B24  1  0.500000  0.987281  0.220557  1
  B  B25  1  0.500000  0.013217  0.777432  1
  B  B26  1  0.500000  0.486765  0.279512  1
  B  B27  1  0.500000  0.511239  0.720775  1
  B  B28  1  0.500000  0.643899  0.042295  1
  B  B29  1  0.500000  0.353437  0.959831  1
  B  B30  1  0.500000  0.145986  0.459180  1
  B  B31  1  0.500000  0.854351  0.538188  1
  Ir  Ir32  1  0.000000  0.648311  0.319661  1
  Ir  Ir33  1  0.000000  0.352274  0.680992  1
  Ir  Ir34  1  0.000000  0.148202  0.179432  1
  W  W35  1  0.000000  0.853530  0.819881  1
