# generated using pymatgen
data_Ac5Os2
_symmetry_space_group_name_H-M   'P 1'
_cell_length_a   9.44610617
_cell_length_b   9.44610638
_cell_length_c   7.81159816
_cell_angle_alpha   83.81735996
_cell_angle_beta   83.81735996
_cell_angle_gamma   43.57565302
_symmetry_Int_Tables_number   1
_chemical_formula_structural   Ac5Os2
_chemical_formula_sum   'Ac10 Os4'
_cell_volume   477.22183784
_cell_formula_units_Z   2
loop_
 _symmetry_equiv_pos_site_id
 _symmetry_equiv_pos_as_xyz
  1  'x, y, z'
loop_
 _atom_site_type_symbol
 _atom_site_label
 _atom_site_symmetry_multiplicity
 _atom_site_fract_x
 _atom_site_fract_y
 _atom_site_fract_z
 _atom_site_occupancy
  Ac  Ac0  1  0.005186  0.808473  0.909388  1
  Ac  Ac1  1  0.191527  0.994814  0.590612  1
  Ac  Ac2  1  0.994814  0.191527  0.090612  1
  Ac  Ac3  1  0.808473  0.005186  0.409388  1
  Ac  Ac4  1  0.360153  0.212538  0.818234  1
  Ac  Ac5  1  0.787462  0.639847  0.681766  1
  Ac  Ac6  1  0.639847  0.787462  0.181766  1
  Ac  Ac7  1  0.212538  0.360153  0.318234  1
  Ac  Ac8  1  0.570738  0.429262  0.750000  1
  Ac  Ac9  1  0.429262  0.570738  0.250000  1
  Os  Os10  1  0.177327  0.601562  0.578102  1
  Os  Os11  1  0.398438  0.822673  0.921898  1
  Os  Os12  1  0.822673  0.398438  0.421898  1
  Os  Os13  1  0.601562  0.177327  0.078102  1
