# generated using pymatgen
data_La13Yb4(PrIr4)3
_symmetry_space_group_name_H-M   'P 1'
_cell_length_a   11.34842307
_cell_length_b   11.37045333
_cell_length_c   6.49172182
_cell_angle_alpha   89.94415638
_cell_angle_beta   90.01419057
_cell_angle_gamma   89.95231340
_symmetry_Int_Tables_number   1
_chemical_formula_structural   La13Yb4(PrIr4)3
_chemical_formula_sum   'La13 Yb4 Pr3 Ir12'
_cell_volume   837.66974422
_cell_formula_units_Z   1
loop_
 _symmetry_equiv_pos_site_id
 _symmetry_equiv_pos_as_xyz
  1  'x, y, z'
loop_
 _atom_site_type_symbol
 _atom_site_label
 _atom_site_symmetry_multiplicity
 _atom_site_fract_x
 _atom_site_fract_y
 _atom_site_fract_z
 _atom_site_occupancy
  La  La0  1  0.286735  0.089228  0.386217  1
  La  La1  1  0.286790  0.910857  0.886045  1
  La  La2  1  0.713143  0.089353  0.886463  1
  La  La3  1  0.713021  0.911104  0.386347  1
  La  La4  1  0.589349  0.787341  0.886328  1
  La  La5  1  0.589720  0.212806  0.386667  1
  La  La6  1  0.410362  0.787224  0.386622  1
  La  La7  1  0.410309  0.212777  0.886594  1
  La  La8  1  0.211463  0.410791  0.613458  1
  La  La9  1  0.212053  0.589129  0.113617  1
  La  La10  1  0.788164  0.410201  0.113663  1
  La  La11  1  0.788163  0.588795  0.613624  1
  La  La12  1  0.911547  0.712626  0.113884  1
  Yb  Yb13  1  0.000017  0.000081  0.500132  1
  Yb  Yb14  1  0.000169  0.000388  0.999638  1
  Yb  Yb15  1  0.500033  0.499909  0.999946  1
  Yb  Yb16  1  0.499974  0.499992  0.500047  1
  Pr  Pr17  1  0.911999  0.287438  0.615257  1
  Pr  Pr18  1  0.088543  0.712468  0.615192  1
  Pr  Pr19  1  0.088037  0.287320  0.115350  1
  Ir  Ir20  1  0.844123  0.154492  0.247879  1
  Ir  Ir21  1  0.844721  0.844565  0.749853  1
  Ir  Ir22  1  0.155770  0.154543  0.747771  1
  Ir  Ir23  1  0.156052  0.845627  0.247909  1
  Ir  Ir24  1  0.654989  0.344743  0.750090  1
  Ir  Ir25  1  0.655096  0.655362  0.249937  1
  Ir  Ir26  1  0.344962  0.344798  0.250337  1
  Ir  Ir27  1  0.345008  0.655240  0.750008  1
  Ir  Ir28  1  0.499904  0.000015  0.113426  1
  Ir  Ir29  1  0.500078  0.999943  0.613458  1
  Ir  Ir30  1  0.999961  0.500173  0.887496  1
  Ir  Ir31  1  0.999744  0.500667  0.386747  1
