# generated using pymatgen
data_Tb9Dy(SiB4)4
_symmetry_space_group_name_H-M   'P 1'
_cell_length_a   7.25448700
_cell_length_b   7.25448700
_cell_length_c   8.13907200
_cell_angle_alpha   90.00000000
_cell_angle_beta   90.00000000
_cell_angle_gamma   90.00000000
_symmetry_Int_Tables_number   1
_chemical_formula_structural   Tb9Dy(SiB4)4
_chemical_formula_sum   'Tb9 Dy1 Si4 B16'
_cell_volume   428.33967610
_cell_formula_units_Z   1
loop_
 _symmetry_equiv_pos_site_id
 _symmetry_equiv_pos_as_xyz
  1  'x, y, z'
loop_
 _atom_site_type_symbol
 _atom_site_label
 _atom_site_symmetry_multiplicity
 _atom_site_fract_x
 _atom_site_fract_y
 _atom_site_fract_z
 _atom_site_occupancy
  Tb  Tb0  1  0.680352  0.180227  0.224324  1
  Tb  Tb1  1  0.319648  0.819773  0.775676  1
  Tb  Tb2  1  0.319648  0.819773  0.224324  1
  Tb  Tb3  1  0.819773  0.680352  0.224324  1
  Tb  Tb4  1  0.819773  0.680352  0.775676  1
  Tb  Tb5  1  0.680352  0.180227  0.775676  1
  Tb  Tb6  1  0.180227  0.319648  0.775676  1
  Tb  Tb7  1  0.180227  0.319648  0.224324  1
  Tb  Tb8  1  0.500000  0.500000  0.500000  1
  Dy  Dy9  1  0.000000  0.000000  0.500000  1
  Si  Si10  1  0.114209  0.614888  0.500000  1
  Si  Si11  1  0.885791  0.385112  0.500000  1
  Si  Si12  1  0.385112  0.114209  0.500000  1
  Si  Si13  1  0.614888  0.885791  0.500000  1
  B  B14  1  0.172490  0.039066  0.000000  1
  B  B15  1  0.827510  0.960934  0.000000  1
  B  B16  1  0.960934  0.172490  0.000000  1
  B  B17  1  0.327506  0.539100  0.000000  1
  B  B18  1  0.039066  0.827510  0.000000  1
  B  B19  1  0.672494  0.460900  0.000000  1
  B  B20  1  0.539100  0.672494  0.000000  1
  B  B21  1  0.460900  0.327506  0.000000  1
  B  B22  1  0.090009  0.589982  0.000000  1
  B  B23  1  0.909991  0.410018  0.000000  1
  B  B24  1  0.410018  0.090009  0.000000  1
  B  B25  1  0.589982  0.909991  0.000000  1
  B  B26  1  0.000000  0.000000  0.161375  1
  B  B27  1  0.000000  0.000000  0.838625  1
  B  B28  1  0.500000  0.500000  0.838838  1
  B  B29  1  0.500000  0.500000  0.161162  1
