# generated using pymatgen
data_Er3Sc2(GaSb)2
_symmetry_space_group_name_H-M   'P 1'
_cell_length_a   8.19235607
_cell_length_b   8.56056530
_cell_length_c   7.70451364
_cell_angle_alpha   90.46715162
_cell_angle_beta   90.78683363
_cell_angle_gamma   125.40128585
_symmetry_Int_Tables_number   1
_chemical_formula_structural   Er3Sc2(GaSb)2
_chemical_formula_sum   'Er6 Sc4 Ga4 Sb4'
_cell_volume   440.30080355
_cell_formula_units_Z   2
loop_
 _symmetry_equiv_pos_site_id
 _symmetry_equiv_pos_as_xyz
  1  'x, y, z'
loop_
 _atom_site_type_symbol
 _atom_site_label
 _atom_site_symmetry_multiplicity
 _atom_site_fract_x
 _atom_site_fract_y
 _atom_site_fract_z
 _atom_site_occupancy
  Er  Er0  1  0.469180  0.216207  0.836459  1
  Er  Er1  1  0.823495  0.550396  0.180803  1
  Er  Er2  1  0.530820  0.783793  0.163541  1
  Er  Er3  1  0.176505  0.449604  0.819197  1
  Er  Er4  1  0.682951  0.951187  0.670562  1
  Er  Er5  1  0.317049  0.048813  0.329438  1
  Sc  Sc6  1  0.033780  0.277309  0.337888  1
  Sc  Sc7  1  0.966220  0.722691  0.662112  1
  Sc  Sc8  1  0.000000  0.000000  0.000000  1
  Sc  Sc9  1  0.500000  0.500000  0.500000  1
  Ga  Ga10  1  0.369548  0.368038  0.133177  1
  Ga  Ga11  1  0.630452  0.631962  0.866823  1
  Ga  Ga12  1  0.124009  0.126218  0.624071  1
  Ga  Ga13  1  0.875991  0.873782  0.375929  1
  Sb  Sb14  1  0.789343  0.194553  0.022921  1
  Sb  Sb15  1  0.210657  0.805447  0.977079  1
  Sb  Sb16  1  0.731894  0.314009  0.521758  1
  Sb  Sb17  1  0.268106  0.685991  0.478242  1
