# generated using pymatgen
data_Dy4SiB4Ir9
_symmetry_space_group_name_H-M   'P 1'
_cell_length_a   10.69991030
_cell_length_b   10.69990994
_cell_length_c   10.69991034
_cell_angle_alpha   29.85441182
_cell_angle_beta   29.85441427
_cell_angle_gamma   29.85441994
_symmetry_Int_Tables_number   1
_chemical_formula_structural   Dy4SiB4Ir9
_chemical_formula_sum   'Dy4 Si1 B4 Ir9'
_cell_volume   268.83127769
_cell_formula_units_Z   1
loop_
 _symmetry_equiv_pos_site_id
 _symmetry_equiv_pos_as_xyz
  1  'x, y, z'
loop_
 _atom_site_type_symbol
 _atom_site_label
 _atom_site_symmetry_multiplicity
 _atom_site_fract_x
 _atom_site_fract_y
 _atom_site_fract_z
 _atom_site_occupancy
  Dy  Dy0  1  0.150123  0.150123  0.150123  1
  Dy  Dy1  1  0.950010  0.950010  0.950010  1
  Dy  Dy2  1  0.849877  0.849877  0.849877  1
  Dy  Dy3  1  0.049990  0.049990  0.049990  1
  Si  Si4  1  0.500000  0.500000  0.500000  1
  B  B5  1  0.615591  0.615591  0.615591  1
  B  B6  1  0.718369  0.718369  0.718369  1
  B  B7  1  0.384409  0.384409  0.384409  1
  B  B8  1  0.281631  0.281631  0.281631  1
  Ir  Ir9  1  0.401708  0.898982  0.401708  1
  Ir  Ir10  1  0.898982  0.401708  0.401708  1
  Ir  Ir11  1  0.500000  0.500000  0.000000  1
  Ir  Ir12  1  0.500000  0.000000  0.500000  1
  Ir  Ir13  1  0.000000  0.500000  0.500000  1
  Ir  Ir14  1  0.598292  0.101018  0.598292  1
  Ir  Ir15  1  0.598292  0.598292  0.101018  1
  Ir  Ir16  1  0.101018  0.598292  0.598292  1
  Ir  Ir17  1  0.401708  0.401708  0.898982  1
