# generated using pymatgen
data_NdAl2GaAg
_symmetry_space_group_name_H-M   'P 1'
_cell_length_a   6.41113080
_cell_length_b   6.41113130
_cell_length_c   6.41113152
_cell_angle_alpha   141.31421402
_cell_angle_beta   141.31422641
_cell_angle_gamma   55.86317198
_symmetry_Int_Tables_number   1
_chemical_formula_structural   NdAl2GaAg
_chemical_formula_sum   'Nd1 Al2 Ga1 Ag1'
_cell_volume   102.16671985
_cell_formula_units_Z   1
loop_
 _symmetry_equiv_pos_site_id
 _symmetry_equiv_pos_as_xyz
  1  'x, y, z'
loop_
 _atom_site_type_symbol
 _atom_site_label
 _atom_site_symmetry_multiplicity
 _atom_site_fract_x
 _atom_site_fract_y
 _atom_site_fract_z
 _atom_site_occupancy
  Nd  Nd0  1  0.984928  0.984928  0.000000  1
  Al  Al1  1  0.750501  0.250501  0.500000  1
  Al  Al2  1  0.250501  0.750501  0.500000  1
  Ga  Ga3  1  0.394468  0.394468  0.000000  1
  Ag  Ag4  1  0.619603  0.619603  0.000000  1
