# generated using pymatgen
data_Er8CoCu2Si12Pd
_symmetry_space_group_name_H-M   'P 1'
_cell_length_a   8.00649300
_cell_length_b   8.00649246
_cell_length_c   8.00464800
_cell_angle_alpha   90.00000000
_cell_angle_beta   90.00000000
_cell_angle_gamma   119.99999809
_symmetry_Int_Tables_number   1
_chemical_formula_structural   Er8CoCu2Si12Pd
_chemical_formula_sum   'Er8 Co1 Cu2 Si12 Pd1'
_cell_volume   444.38307130
_cell_formula_units_Z   1
loop_
 _symmetry_equiv_pos_site_id
 _symmetry_equiv_pos_as_xyz
  1  'x, y, z'
loop_
 _atom_site_type_symbol
 _atom_site_label
 _atom_site_symmetry_multiplicity
 _atom_site_fract_x
 _atom_site_fract_y
 _atom_site_fract_z
 _atom_site_occupancy
  Er  Er0  1  0.497592  0.995184  0.246361  1
  Er  Er1  1  0.497531  0.995060  0.753666  1
  Er  Er2  1  0.004816  0.502408  0.246361  1
  Er  Er3  1  0.004940  0.502469  0.753666  1
  Er  Er4  1  0.497592  0.502408  0.246361  1
  Er  Er5  1  0.497531  0.502469  0.753666  1
  Er  Er6  1  0.000000  0.000000  0.249676  1
  Er  Er7  1  0.000000  0.000000  0.750417  1
  Co  Co8  1  0.333333  0.666667  0.000141  1
  Cu  Cu9  1  0.666667  0.333333  0.999238  1
  Cu  Cu10  1  0.666667  0.333333  0.498988  1
  Si  Si11  1  0.173516  0.347033  0.000087  1
  Si  Si12  1  0.832866  0.665732  0.000007  1
  Si  Si13  1  0.652967  0.826484  0.000087  1
  Si  Si14  1  0.831035  0.662071  0.500069  1
  Si  Si15  1  0.334268  0.167134  0.000007  1
  Si  Si16  1  0.165150  0.330300  0.500022  1
  Si  Si17  1  0.173516  0.826484  0.000087  1
  Si  Si18  1  0.337929  0.168965  0.500069  1
  Si  Si19  1  0.832866  0.167134  0.000007  1
  Si  Si20  1  0.669700  0.834850  0.500022  1
  Si  Si21  1  0.831035  0.168965  0.500069  1
  Si  Si22  1  0.165150  0.834850  0.500022  1
  Pd  Pd23  1  0.333333  0.666667  0.500906  1
