# generated using pymatgen
data_Cs3Sm2I9
_symmetry_space_group_name_H-M   'P 1'
_cell_length_a   8.67961114
_cell_length_b   8.67961083
_cell_length_c   22.65628876
_cell_angle_alpha   87.92551474
_cell_angle_beta   87.92552275
_cell_angle_gamma   119.48754010
_symmetry_Int_Tables_number   1
_chemical_formula_structural   Cs3Sm2I9
_chemical_formula_sum   'Cs6 Sm4 I18'
_cell_volume   1481.88958909
_cell_formula_units_Z   2
loop_
 _symmetry_equiv_pos_site_id
 _symmetry_equiv_pos_as_xyz
  1  'x, y, z'
loop_
 _atom_site_type_symbol
 _atom_site_label
 _atom_site_symmetry_multiplicity
 _atom_site_fract_x
 _atom_site_fract_y
 _atom_site_fract_z
 _atom_site_occupancy
  Cs  Cs0  1  0.990394  0.009606  0.750000  1
  Cs  Cs1  1  0.681522  0.339015  0.058343  1
  Cs  Cs2  1  0.009606  0.990394  0.250000  1
  Cs  Cs3  1  0.339015  0.681522  0.558343  1
  Cs  Cs4  1  0.318478  0.660985  0.941657  1
  Cs  Cs5  1  0.660985  0.318478  0.441657  1
  Sm  Sm6  1  0.645468  0.314544  0.657651  1
  Sm  Sm7  1  0.354532  0.685456  0.342349  1
  Sm  Sm8  1  0.314544  0.645468  0.157651  1
  Sm  Sm9  1  0.685456  0.354532  0.842349  1
  I  I10  1  0.636221  0.800050  0.073197  1
  I  I11  1  0.363779  0.199950  0.926803  1
  I  I12  1  0.507461  0.014075  0.765100  1
  I  I13  1  0.205273  0.874873  0.412122  1
  I  I14  1  0.874873  0.205273  0.912122  1
  I  I15  1  0.800050  0.636221  0.573197  1
  I  I16  1  0.794727  0.125127  0.587878  1
  I  I17  1  0.294762  0.130592  0.602139  1
  I  I18  1  0.492539  0.985925  0.234900  1
  I  I19  1  0.985925  0.492539  0.734900  1
  I  I20  1  0.125127  0.794727  0.087878  1
  I  I21  1  0.014075  0.507461  0.265100  1
  I  I22  1  0.505190  0.494810  0.750000  1
  I  I23  1  0.869408  0.705238  0.897861  1
  I  I24  1  0.130592  0.294762  0.102139  1
  I  I25  1  0.705238  0.869408  0.397861  1
  I  I26  1  0.494810  0.505190  0.250000  1
  I  I27  1  0.199950  0.363779  0.426803  1
