# generated using pymatgen
data_TcAg2RuF12
_symmetry_space_group_name_H-M   'P 1'
_cell_length_a   5.45030233
_cell_length_b   5.49067883
_cell_length_c   10.55072491
_cell_angle_alpha   75.16742856
_cell_angle_beta   75.33619171
_cell_angle_gamma   59.76951845
_symmetry_Int_Tables_number   1
_chemical_formula_structural   TcAg2RuF12
_chemical_formula_sum   'Tc1 Ag2 Ru1 F12'
_cell_volume   260.77611896
_cell_formula_units_Z   1
loop_
 _symmetry_equiv_pos_site_id
 _symmetry_equiv_pos_as_xyz
  1  'x, y, z'
loop_
 _atom_site_type_symbol
 _atom_site_label
 _atom_site_symmetry_multiplicity
 _atom_site_fract_x
 _atom_site_fract_y
 _atom_site_fract_z
 _atom_site_occupancy
  Tc  Tc0  1  0.259305  0.243636  0.249975  1
  Ag  Ag1  1  0.500640  0.500443  0.498842  1
  Ag  Ag2  1  0.000208  0.998748  0.001393  1
  Ru  Ru3  1  0.740870  0.756277  0.750060  1
  F  F4  1  0.492554  0.790213  0.639620  1
  F  F5  1  0.512152  0.206733  0.359375  1
  F  F6  1  0.771648  0.079444  0.640876  1
  F  F7  1  0.223312  0.920992  0.358117  1
  F  F8  1  0.710281  0.433677  0.859323  1
  F  F9  1  0.293651  0.566673  0.141858  1
  F  F10  1  0.987862  0.724057  0.860444  1
  F  F11  1  0.007668  0.280263  0.140023  1
  F  F12  1  0.583702  0.992171  0.140730  1
  F  F13  1  0.416042  0.002511  0.859974  1
  F  F14  1  0.934306  0.492085  0.359352  1
  F  F15  1  0.065797  0.512076  0.640039  1
