# generated using pymatgen
data_CaHoEr(SiRh2)3
_symmetry_space_group_name_H-M   'P 1'
_cell_length_a   5.58274600
_cell_length_b   5.58274476
_cell_length_c   14.95602100
_cell_angle_alpha   90.00000000
_cell_angle_beta   90.00000000
_cell_angle_gamma   119.99999552
_symmetry_Int_Tables_number   1
_chemical_formula_structural   CaHoEr(SiRh2)3
_chemical_formula_sum   'Ca2 Ho2 Er2 Si6 Rh12'
_cell_volume   403.68476448
_cell_formula_units_Z   2
loop_
 _symmetry_equiv_pos_site_id
 _symmetry_equiv_pos_as_xyz
  1  'x, y, z'
loop_
 _atom_site_type_symbol
 _atom_site_label
 _atom_site_symmetry_multiplicity
 _atom_site_fract_x
 _atom_site_fract_y
 _atom_site_fract_z
 _atom_site_occupancy
  Ca  Ca0  1  0.333333  0.666667  0.749999  1
  Ca  Ca1  1  0.666667  0.333333  0.250001  1
  Ho  Ho2  1  0.333333  0.666667  0.539973  1
  Ho  Ho3  1  0.666667  0.333333  0.460027  1
  Er  Er4  1  0.666667  0.333333  0.039809  1
  Er  Er5  1  0.333333  0.666667  0.960191  1
  Si  Si6  1  0.000000  0.000000  0.249943  1
  Si  Si7  1  0.000000  0.000000  0.750057  1
  Si  Si8  1  0.333333  0.666667  0.249991  1
  Si  Si9  1  0.666667  0.333333  0.750009  1
  Si  Si10  1  0.000000  0.000000  0.000000  1
  Si  Si11  1  0.000000  0.000000  0.500000  1
  Rh  Rh12  1  0.167074  0.334150  0.128804  1
  Rh  Rh13  1  0.832926  0.665850  0.871196  1
  Rh  Rh14  1  0.665850  0.832926  0.128804  1
  Rh  Rh15  1  0.832951  0.665901  0.628942  1
  Rh  Rh16  1  0.334150  0.167074  0.871196  1
  Rh  Rh17  1  0.167049  0.334099  0.371058  1
  Rh  Rh18  1  0.167074  0.832926  0.128804  1
  Rh  Rh19  1  0.334099  0.167049  0.628942  1
  Rh  Rh20  1  0.832926  0.167074  0.871196  1
  Rh  Rh21  1  0.665901  0.832951  0.371058  1
  Rh  Rh22  1  0.832951  0.167049  0.628942  1
  Rh  Rh23  1  0.167049  0.832951  0.371058  1
