# generated using pymatgen
data_Al7V12CuN4
_symmetry_space_group_name_H-M   'P 1'
_cell_length_a   6.61177871
_cell_length_b   6.61177854
_cell_length_c   6.61177786
_cell_angle_alpha   89.94830910
_cell_angle_beta   90.05168978
_cell_angle_gamma   90.05168708
_symmetry_Int_Tables_number   1
_chemical_formula_structural   Al7V12CuN4
_chemical_formula_sum   'Al7 V12 Cu1 N4'
_cell_volume   289.03759294
_cell_formula_units_Z   1
loop_
 _symmetry_equiv_pos_site_id
 _symmetry_equiv_pos_as_xyz
  1  'x, y, z'
loop_
 _atom_site_type_symbol
 _atom_site_label
 _atom_site_symmetry_multiplicity
 _atom_site_fract_x
 _atom_site_fract_y
 _atom_site_fract_z
 _atom_site_occupancy
  Al  Al0  1  0.319616  0.176104  0.820449  1
  Al  Al1  1  0.823896  0.320449  0.180384  1
  Al  Al2  1  0.679551  0.680384  0.676104  1
  Al  Al3  1  0.570144  0.429856  0.929856  1
  Al  Al4  1  0.419061  0.925039  0.559544  1
  Al  Al5  1  0.940456  0.580939  0.425039  1
  Al  Al6  1  0.074961  0.059544  0.080939  1
  V  V7  1  0.789336  0.959131  0.374406  1
  V  V8  1  0.710248  0.041925  0.877181  1
  V  V9  1  0.207528  0.457726  0.122202  1
  V  V10  1  0.293465  0.539832  0.630279  1
  V  V11  1  0.958075  0.377181  0.789752  1
  V  V12  1  0.040869  0.874406  0.710664  1
  V  V13  1  0.460168  0.130279  0.206535  1
  V  V14  1  0.542274  0.622202  0.292472  1
  V  V15  1  0.377798  0.792472  0.957726  1
  V  V16  1  0.869721  0.706535  0.039832  1
  V  V17  1  0.125594  0.210664  0.459131  1
  V  V18  1  0.622819  0.289752  0.541925  1
  Cu  Cu19  1  0.181783  0.818217  0.318217  1
  N  N20  1  0.874956  0.125044  0.625044  1
  N  N21  1  0.621564  0.875952  0.127928  1
  N  N22  1  0.124048  0.627928  0.878436  1
  N  N23  1  0.372072  0.378436  0.375952  1
