# generated using pymatgen
data_Nb2CoNi4Ir
_symmetry_space_group_name_H-M   'P 1'
_cell_length_a   5.29706382
_cell_length_b   5.24247360
_cell_length_c   4.25191400
_cell_angle_alpha   90.00000000
_cell_angle_beta   90.00000000
_cell_angle_gamma   119.37054622
_symmetry_Int_Tables_number   1
_chemical_formula_structural   Nb2CoNi4Ir
_chemical_formula_sum   'Nb2 Co1 Ni4 Ir1'
_cell_volume   102.89787444
_cell_formula_units_Z   1
loop_
 _symmetry_equiv_pos_site_id
 _symmetry_equiv_pos_as_xyz
  1  'x, y, z'
loop_
 _atom_site_type_symbol
 _atom_site_label
 _atom_site_symmetry_multiplicity
 _atom_site_fract_x
 _atom_site_fract_y
 _atom_site_fract_z
 _atom_site_occupancy
  Nb  Nb0  1  0.337000  0.659726  0.000000  1
  Nb  Nb1  1  0.655516  0.327290  0.500000  1
  Co  Co2  1  0.321171  0.159145  0.000000  1
  Ni  Ni3  1  0.841057  0.164573  0.000000  1
  Ni  Ni4  1  0.157041  0.319426  0.500000  1
  Ni  Ni5  1  0.675626  0.845799  0.500000  1
  Ni  Ni6  1  0.167580  0.842441  0.500000  1
  Ir  Ir7  1  0.844770  0.681841  0.000000  1
