# generated using pymatgen
data_Y4ErMg3(Ni4P3)4
_symmetry_space_group_name_H-M   'P 1'
_cell_length_a   12.25903600
_cell_length_b   12.25903583
_cell_length_c   3.80118700
_cell_angle_alpha   90.00000000
_cell_angle_beta   90.00000000
_cell_angle_gamma   120.00228499
_symmetry_Int_Tables_number   1
_chemical_formula_structural   Y4ErMg3(Ni4P3)4
_chemical_formula_sum   'Y4 Er1 Mg3 Ni16 P12'
_cell_volume   494.71206450
_cell_formula_units_Z   1
loop_
 _symmetry_equiv_pos_site_id
 _symmetry_equiv_pos_as_xyz
  1  'x, y, z'
loop_
 _atom_site_type_symbol
 _atom_site_label
 _atom_site_symmetry_multiplicity
 _atom_site_fract_x
 _atom_site_fract_y
 _atom_site_fract_z
 _atom_site_occupancy
  Y  Y0  1  0.813953  0.000010  0.500000  1
  Y  Y1  1  0.000010  0.813953  0.500000  1
  Y  Y2  1  0.333376  0.666681  0.000000  1
  Y  Y3  1  0.666681  0.333376  0.000000  1
  Er  Er4  1  0.186094  0.186094  0.500000  1
  Mg  Mg5  1  0.563079  0.563079  0.000000  1
  Mg  Mg6  1  0.436792  0.999947  0.000000  1
  Mg  Mg7  1  0.999947  0.436792  0.000000  1
  Ni  Ni8  1  0.719314  0.719314  0.500000  1
  Ni  Ni9  1  0.280522  0.000384  0.500000  1
  Ni  Ni10  1  0.000384  0.280522  0.500000  1
  Ni  Ni11  1  0.183510  0.378246  0.000000  1
  Ni  Ni12  1  0.621034  0.804642  0.000000  1
  Ni  Ni13  1  0.195430  0.816578  0.000000  1
  Ni  Ni14  1  0.804642  0.621034  0.000000  1
  Ni  Ni15  1  0.816578  0.195430  0.000000  1
  Ni  Ni16  1  0.378246  0.183510  0.000000  1
  Ni  Ni17  1  0.363790  0.485023  0.500000  1
  Ni  Ni18  1  0.514681  0.878722  0.500000  1
  Ni  Ni19  1  0.121279  0.635945  0.500000  1
  Ni  Ni20  1  0.878722  0.514681  0.500000  1
  Ni  Ni21  1  0.635945  0.121279  0.500000  1
  Ni  Ni22  1  0.485023  0.363790  0.500000  1
  Ni  Ni23  1  0.000554  0.000554  0.000000  1
  P  P24  1  0.822778  0.822778  0.000000  1
  P  P25  1  0.177706  0.000795  0.000000  1
  P  P26  1  0.000795  0.177706  0.000000  1
  P  P27  1  0.172876  0.477000  0.500000  1
  P  P28  1  0.522957  0.695826  0.500000  1
  P  P29  1  0.304052  0.827157  0.500000  1
  P  P30  1  0.695826  0.522957  0.500000  1
  P  P31  1  0.827157  0.304052  0.500000  1
  P  P32  1  0.477000  0.172876  0.500000  1
  P  P33  1  0.357617  0.357617  0.000000  1
  P  P34  1  0.641564  0.000086  0.000000  1
  P  P35  1  0.000086  0.641564  0.000000  1
