# generated using pymatgen
data_YNb(NiP)3
_symmetry_space_group_name_H-M   'P 1'
_cell_length_a   3.69707600
_cell_length_b   10.14072600
_cell_length_c   12.21080100
_cell_angle_alpha   90.00000000
_cell_angle_beta   90.00000000
_cell_angle_gamma   90.00000000
_symmetry_Int_Tables_number   1
_chemical_formula_structural   YNb(NiP)3
_chemical_formula_sum   'Y4 Nb4 Ni12 P12'
_cell_volume   457.79556422
_cell_formula_units_Z   4
loop_
 _symmetry_equiv_pos_site_id
 _symmetry_equiv_pos_as_xyz
  1  'x, y, z'
loop_
 _atom_site_type_symbol
 _atom_site_label
 _atom_site_symmetry_multiplicity
 _atom_site_fract_x
 _atom_site_fract_y
 _atom_site_fract_z
 _atom_site_occupancy
  Y  Y0  1  0.250000  0.072751  0.206119  1
  Y  Y1  1  0.750000  0.927249  0.793881  1
  Y  Y2  1  0.750000  0.572751  0.293881  1
  Y  Y3  1  0.250000  0.427249  0.706119  1
  Nb  Nb4  1  0.250000  0.162618  0.494768  1
  Nb  Nb5  1  0.750000  0.837382  0.505232  1
  Nb  Nb6  1  0.750000  0.662618  0.005232  1
  Nb  Nb7  1  0.250000  0.337382  0.994768  1
  Ni  Ni8  1  0.250000  0.730577  0.665007  1
  Ni  Ni9  1  0.750000  0.269423  0.334993  1
  Ni  Ni10  1  0.750000  0.230577  0.834993  1
  Ni  Ni11  1  0.250000  0.769423  0.165007  1
  Ni  Ni12  1  0.250000  0.368579  0.215424  1
  Ni  Ni13  1  0.750000  0.631421  0.784576  1
  Ni  Ni14  1  0.750000  0.868579  0.284576  1
  Ni  Ni15  1  0.250000  0.131421  0.715424  1
  Ni  Ni16  1  0.250000  0.600436  0.483042  1
  Ni  Ni17  1  0.750000  0.399564  0.516958  1
  Ni  Ni18  1  0.750000  0.100436  0.016958  1
  Ni  Ni19  1  0.250000  0.899564  0.983042  1
  P  P20  1  0.250000  0.945389  0.618371  1
  P  P21  1  0.750000  0.054611  0.381629  1
  P  P22  1  0.750000  0.445389  0.881629  1
  P  P23  1  0.250000  0.554611  0.118371  1
  P  P24  1  0.250000  0.390290  0.402524  1
  P  P25  1  0.750000  0.609710  0.597476  1
  P  P26  1  0.750000  0.890290  0.097476  1
  P  P27  1  0.250000  0.109710  0.902524  1
  P  P28  1  0.250000  0.772249  0.357556  1
  P  P29  1  0.750000  0.227751  0.642444  1
  P  P30  1  0.750000  0.272249  0.142444  1
  P  P31  1  0.250000  0.727751  0.857556  1
