# generated using pymatgen
data_ScMnZnB2Rh5
_symmetry_space_group_name_H-M   'P 1'
_cell_length_a   9.36148700
_cell_length_b   9.36830400
_cell_length_c   2.99772600
_cell_angle_alpha   90.00000000
_cell_angle_beta   90.00000000
_cell_angle_gamma   90.00000000
_symmetry_Int_Tables_number   1
_chemical_formula_structural   ScMnZnB2Rh5
_chemical_formula_sum   'Sc2 Mn2 Zn2 B4 Rh10'
_cell_volume   262.90433567
_cell_formula_units_Z   2
loop_
 _symmetry_equiv_pos_site_id
 _symmetry_equiv_pos_as_xyz
  1  'x, y, z'
loop_
 _atom_site_type_symbol
 _atom_site_label
 _atom_site_symmetry_multiplicity
 _atom_site_fract_x
 _atom_site_fract_y
 _atom_site_fract_z
 _atom_site_occupancy
  Sc  Sc0  1  0.823505  0.327373  0.000000  1
  Sc  Sc1  1  0.323505  0.172627  0.000000  1
  Mn  Mn2  1  0.679009  0.821960  0.000000  1
  Mn  Mn3  1  0.179009  0.678040  0.000000  1
  Zn  Zn4  1  0.001177  0.003359  0.000000  1
  Zn  Zn5  1  0.501177  0.496641  0.000000  1
  B  B6  1  0.625629  0.122298  0.000000  1
  B  B7  1  0.125629  0.377702  0.000000  1
  B  B8  1  0.870428  0.633018  0.000000  1
  B  B9  1  0.370428  0.866982  0.000000  1
  Rh  Rh10  1  0.069698  0.219913  0.500000  1
  Rh  Rh11  1  0.215567  0.926413  0.500000  1
  Rh  Rh12  1  0.782874  0.068517  0.500000  1
  Rh  Rh13  1  0.930030  0.786792  0.500000  1
  Rh  Rh14  1  0.430030  0.713208  0.500000  1
  Rh  Rh15  1  0.569698  0.280087  0.500000  1
  Rh  Rh16  1  0.715567  0.573587  0.500000  1
  Rh  Rh17  1  0.282874  0.431483  0.500000  1
  Rh  Rh18  1  0.502084  0.994123  0.500000  1
  Rh  Rh19  1  0.002084  0.505877  0.500000  1
