# generated using pymatgen
data_LiTb5Si24Os5Ru3
_symmetry_space_group_name_H-M   'P 1'
_cell_length_a   10.13020949
_cell_length_b   10.13021259
_cell_length_c   8.14025429
_cell_angle_alpha   89.96532768
_cell_angle_beta   89.96536736
_cell_angle_gamma   132.51459680
_symmetry_Int_Tables_number   1
_chemical_formula_structural   LiTb5Si24Os5Ru3
_chemical_formula_sum   'Li1 Tb5 Si24 Os5 Ru3'
_cell_volume   615.74932074
_cell_formula_units_Z   1
loop_
 _symmetry_equiv_pos_site_id
 _symmetry_equiv_pos_as_xyz
  1  'x, y, z'
loop_
 _atom_site_type_symbol
 _atom_site_label
 _atom_site_symmetry_multiplicity
 _atom_site_fract_x
 _atom_site_fract_y
 _atom_site_fract_z
 _atom_site_occupancy
  Li  Li0  1  0.499544  0.499544  0.499997  1
  Tb  Tb1  1  0.000029  0.000029  0.999352  1
  Tb  Tb2  1  0.501089  0.000980  0.749648  1
  Tb  Tb3  1  0.998845  0.499145  0.250328  1
  Tb  Tb4  1  0.499145  0.998845  0.250328  1
  Tb  Tb5  1  0.000980  0.501088  0.749647  1
  Si  Si6  1  0.797318  0.202863  0.500066  1
  Si  Si7  1  0.297153  0.702778  0.000129  1
  Si  Si8  1  0.202863  0.797318  0.500067  1
  Si  Si9  1  0.702778  0.297153  0.000129  1
  Si  Si10  1  0.337068  0.337068  0.827482  1
  Si  Si11  1  0.663395  0.663395  0.172820  1
  Si  Si12  1  0.171091  0.171091  0.334524  1
  Si  Si13  1  0.825997  0.825997  0.662920  1
  Si  Si14  1  0.123180  0.889534  0.728231  1
  Si  Si15  1  0.110653  0.877854  0.271965  1
  Si  Si16  1  0.607717  0.379654  0.233824  1
  Si  Si17  1  0.621153  0.392475  0.766429  1
  Si  Si18  1  0.877854  0.110653  0.271965  1
  Si  Si19  1  0.889534  0.123181  0.728231  1
  Si  Si20  1  0.392475  0.621154  0.766429  1
  Si  Si21  1  0.379654  0.607717  0.233824  1
  Si  Si22  1  0.349408  0.120923  0.507210  1
  Si  Si23  1  0.879131  0.651081  0.493559  1
  Si  Si24  1  0.388538  0.155550  0.006125  1
  Si  Si25  1  0.844570  0.611912  0.994126  1
  Si  Si26  1  0.651081  0.879131  0.493559  1
  Si  Si27  1  0.120923  0.349408  0.507210  1
  Si  Si28  1  0.611912  0.844570  0.994126  1
  Si  Si29  1  0.155550  0.388538  0.006125  1
  Os  Os30  1  0.671511  0.328580  0.499825  1
  Os  Os31  1  0.170858  0.829207  0.000073  1
  Os  Os32  1  0.328580  0.671511  0.499825  1
  Os  Os33  1  0.829207  0.170859  0.000072  1
  Os  Os34  1  0.123709  0.123708  0.628333  1
  Ru  Ru35  1  0.875608  0.875608  0.371582  1
  Ru  Ru36  1  0.371440  0.371440  0.123940  1
  Ru  Ru37  1  0.628463  0.628462  0.875976  1
