# generated using pymatgen
data_Y3In3SnIr2
_symmetry_space_group_name_H-M   'P 1'
_cell_length_a   7.79898900
_cell_length_b   7.79898923
_cell_length_c   3.94450900
_cell_angle_alpha   90.00000000
_cell_angle_beta   90.00000000
_cell_angle_gamma   120.00001174
_symmetry_Int_Tables_number   1
_chemical_formula_structural   Y3In3SnIr2
_chemical_formula_sum   'Y3 In3 Sn1 Ir2'
_cell_volume   207.77828637
_cell_formula_units_Z   1
loop_
 _symmetry_equiv_pos_site_id
 _symmetry_equiv_pos_as_xyz
  1  'x, y, z'
loop_
 _atom_site_type_symbol
 _atom_site_label
 _atom_site_symmetry_multiplicity
 _atom_site_fract_x
 _atom_site_fract_y
 _atom_site_fract_z
 _atom_site_occupancy
  Y  Y0  1  0.969855  0.585293  0.500000  1
  Y  Y1  1  0.615439  0.030145  0.500000  1
  Y  Y2  1  0.414707  0.384561  0.500000  1
  In  In3  1  0.991846  0.248376  0.000000  1
  In  In4  1  0.256531  0.008154  0.000000  1
  In  In5  1  0.751624  0.743469  0.000000  1
  Sn  Sn6  1  0.333333  0.666667  0.000000  1
  Ir  Ir7  1  0.000000  0.000000  0.500000  1
  Ir  Ir8  1  0.666667  0.333333  0.000000  1
