# generated using pymatgen
data_Nd3Sm(Co2Ag)2
_symmetry_space_group_name_H-M   'P 1'
_cell_length_a   3.94279100
_cell_length_b   3.94279010
_cell_length_c   16.64522200
_cell_angle_alpha   90.00000000
_cell_angle_beta   90.00000000
_cell_angle_gamma   119.99998234
_symmetry_Int_Tables_number   1
_chemical_formula_structural   Nd3Sm(Co2Ag)2
_chemical_formula_sum   'Nd3 Sm1 Co4 Ag2'
_cell_volume   224.09270307
_cell_formula_units_Z   1
loop_
 _symmetry_equiv_pos_site_id
 _symmetry_equiv_pos_as_xyz
  1  'x, y, z'
loop_
 _atom_site_type_symbol
 _atom_site_label
 _atom_site_symmetry_multiplicity
 _atom_site_fract_x
 _atom_site_fract_y
 _atom_site_fract_z
 _atom_site_occupancy
  Nd  Nd0  1  0.000000  0.000000  0.885274  1
  Nd  Nd1  1  0.000000  0.000000  0.615411  1
  Nd  Nd2  1  0.000000  0.000000  0.383987  1
  Sm  Sm3  1  0.000000  0.000000  0.114693  1
  Co  Co4  1  0.333333  0.666667  0.500146  1
  Co  Co5  1  0.666667  0.333333  0.499497  1
  Co  Co6  1  0.666667  0.333333  0.001712  1
  Co  Co7  1  0.333333  0.666667  0.001233  1
  Ag  Ag8  1  0.333333  0.666667  0.247900  1
  Ag  Ag9  1  0.666667  0.333333  0.750147  1
