# generated using pymatgen
data_Tm2Lu3Pt4
_symmetry_space_group_name_H-M   'P 1'
_cell_length_a   7.36728800
_cell_length_b   7.45879900
_cell_length_c   14.47084800
_cell_angle_alpha   90.00000000
_cell_angle_beta   90.00000000
_cell_angle_gamma   90.00000000
_symmetry_Int_Tables_number   1
_chemical_formula_structural   Tm2Lu3Pt4
_chemical_formula_sum   'Tm8 Lu12 Pt16'
_cell_volume   795.18931026
_cell_formula_units_Z   4
loop_
 _symmetry_equiv_pos_site_id
 _symmetry_equiv_pos_as_xyz
  1  'x, y, z'
loop_
 _atom_site_type_symbol
 _atom_site_label
 _atom_site_symmetry_multiplicity
 _atom_site_fract_x
 _atom_site_fract_y
 _atom_site_fract_z
 _atom_site_occupancy
  Tm  Tm0  1  0.500561  0.679610  0.592283  1
  Tm  Tm1  1  0.000561  0.820390  0.907717  1
  Tm  Tm2  1  0.499439  0.320390  0.092283  1
  Tm  Tm3  1  0.999439  0.179610  0.407717  1
  Tm  Tm4  1  0.499439  0.320390  0.407717  1
  Tm  Tm5  1  0.999439  0.179610  0.092283  1
  Tm  Tm6  1  0.500561  0.679610  0.907717  1
  Tm  Tm7  1  0.000561  0.820390  0.592283  1
  Lu  Lu8  1  0.656951  0.167576  0.622747  1
  Lu  Lu9  1  0.156951  0.332424  0.877253  1
  Lu  Lu10  1  0.343049  0.832424  0.122747  1
  Lu  Lu11  1  0.843049  0.667576  0.377253  1
  Lu  Lu12  1  0.343049  0.832424  0.377253  1
  Lu  Lu13  1  0.843049  0.667576  0.122747  1
  Lu  Lu14  1  0.656951  0.167576  0.877253  1
  Lu  Lu15  1  0.156951  0.332424  0.622747  1
  Lu  Lu16  1  0.819224  0.510483  0.750000  1
  Lu  Lu17  1  0.319224  0.989517  0.750000  1
  Lu  Lu18  1  0.180776  0.489517  0.250000  1
  Lu  Lu19  1  0.680776  0.010483  0.250000  1
  Pt  Pt20  1  0.683495  0.966127  0.458407  1
  Pt  Pt21  1  0.183495  0.533873  0.041593  1
  Pt  Pt22  1  0.316505  0.033873  0.958407  1
  Pt  Pt23  1  0.816505  0.466127  0.541593  1
  Pt  Pt24  1  0.316505  0.033873  0.541593  1
  Pt  Pt25  1  0.816505  0.466127  0.958407  1
  Pt  Pt26  1  0.683495  0.966127  0.041593  1
  Pt  Pt27  1  0.183495  0.533873  0.458407  1
  Pt  Pt28  1  0.455313  0.386030  0.750000  1
  Pt  Pt29  1  0.955313  0.113970  0.750000  1
  Pt  Pt30  1  0.544687  0.613970  0.250000  1
  Pt  Pt31  1  0.044687  0.886030  0.250000  1
  Pt  Pt32  1  0.682230  0.855974  0.750000  1
  Pt  Pt33  1  0.182230  0.644026  0.750000  1
  Pt  Pt34  1  0.317770  0.144026  0.250000  1
  Pt  Pt35  1  0.817770  0.355974  0.250000  1
