# generated using pymatgen
data_Ac9Tb10HoPb16
_symmetry_space_group_name_H-M   'P 1'
_cell_length_a   8.56488285
_cell_length_b   16.36465000
_cell_length_c   8.61154041
_cell_angle_alpha   90.00000000
_cell_angle_beta   89.89723698
_cell_angle_gamma   90.00000000
_symmetry_Int_Tables_number   1
_chemical_formula_structural   Ac9Tb10HoPb16
_chemical_formula_sum   'Ac9 Tb10 Ho1 Pb16'
_cell_volume   1207.00284526
_cell_formula_units_Z   1
loop_
 _symmetry_equiv_pos_site_id
 _symmetry_equiv_pos_as_xyz
  1  'x, y, z'
loop_
 _atom_site_type_symbol
 _atom_site_label
 _atom_site_symmetry_multiplicity
 _atom_site_fract_x
 _atom_site_fract_y
 _atom_site_fract_z
 _atom_site_occupancy
  Ac  Ac0  1  0.476615  0.598797  0.676121  1
  Ac  Ac1  1  0.976270  0.902231  0.823119  1
  Ac  Ac2  1  0.521147  0.094315  0.320502  1
  Ac  Ac3  1  0.021245  0.404532  0.176506  1
  Ac  Ac4  1  0.521147  0.405685  0.320502  1
  Ac  Ac5  1  0.021245  0.095468  0.176506  1
  Ac  Ac6  1  0.476615  0.901203  0.676121  1
  Ac  Ac7  1  0.976270  0.597769  0.823119  1
  Ac  Ac8  1  0.205036  0.250000  0.502716  1
  Tb  Tb9  1  0.634132  0.622736  0.156568  1
  Tb  Tb10  1  0.133944  0.875717  0.342640  1
  Tb  Tb11  1  0.368712  0.119097  0.842568  1
  Tb  Tb12  1  0.865561  0.380101  0.657530  1
  Tb  Tb13  1  0.368712  0.380903  0.842568  1
  Tb  Tb14  1  0.865561  0.119899  0.657530  1
  Tb  Tb15  1  0.634132  0.877264  0.156568  1
  Tb  Tb16  1  0.133944  0.624283  0.342640  1
  Tb  Tb17  1  0.798164  0.750000  0.495392  1
  Tb  Tb18  1  0.297530  0.750000  0.004145  1
  Ho  Ho19  1  0.703433  0.250000  0.996943  1
  Pb  Pb20  1  0.701782  0.454150  0.956287  1
  Pb  Pb21  1  0.198580  0.039872  0.547840  1
  Pb  Pb22  1  0.299062  0.953451  0.045307  1
  Pb  Pb23  1  0.799252  0.546359  0.454016  1
  Pb  Pb24  1  0.299062  0.546549  0.045307  1
  Pb  Pb25  1  0.799252  0.953641  0.454016  1
  Pb  Pb26  1  0.701782  0.045850  0.956287  1
  Pb  Pb27  1  0.198580  0.460128  0.547840  1
  Pb  Pb28  1  0.438702  0.750000  0.362810  1
  Pb  Pb29  1  0.937304  0.750000  0.136093  1
  Pb  Pb30  1  0.575936  0.250000  0.643783  1
  Pb  Pb31  1  0.059424  0.250000  0.875433  1
  Pb  Pb32  1  0.663653  0.750000  0.857963  1
  Pb  Pb33  1  0.163889  0.750000  0.644512  1
  Pb  Pb34  1  0.341143  0.250000  0.128494  1
  Pb  Pb35  1  0.823179  0.250000  0.353712  1
