# generated using pymatgen
data_Sc8ReSi16Ru11
_symmetry_space_group_name_H-M   'P 1'
_cell_length_a   9.93046055
_cell_length_b   9.93295081
_cell_length_c   13.42787506
_cell_angle_alpha   53.91815313
_cell_angle_beta   53.92524292
_cell_angle_gamma   31.05702353
_symmetry_Int_Tables_number   1
_chemical_formula_structural   Sc8ReSi16Ru11
_chemical_formula_sum   'Sc8 Re1 Si16 Ru11'
_cell_volume   540.81703162
_cell_formula_units_Z   1
loop_
 _symmetry_equiv_pos_site_id
 _symmetry_equiv_pos_as_xyz
  1  'x, y, z'
loop_
 _atom_site_type_symbol
 _atom_site_label
 _atom_site_symmetry_multiplicity
 _atom_site_fract_x
 _atom_site_fract_y
 _atom_site_fract_z
 _atom_site_occupancy
  Sc  Sc0  1  0.037567  0.289759  0.638486  1
  Sc  Sc1  1  0.710687  0.962149  0.859275  1
  Sc  Sc2  1  0.963096  0.708597  0.361038  1
  Sc  Sc3  1  0.290852  0.038323  0.139072  1
  Sc  Sc4  1  0.298477  0.556860  0.644562  1
  Sc  Sc5  1  0.440407  0.704312  0.855863  1
  Sc  Sc6  1  0.703240  0.440481  0.357328  1
  Sc  Sc7  1  0.560065  0.295685  0.144271  1
  Re  Re8  1  0.894011  0.144543  0.586169  1
  Si  Si9  1  0.975609  0.251903  0.894172  1
  Si  Si10  1  0.745709  0.025801  0.605852  1
  Si  Si11  1  0.025203  0.748069  0.106949  1
  Si  Si12  1  0.251714  0.977791  0.391442  1
  Si  Si13  1  0.140667  0.386163  0.900015  1
  Si  Si14  1  0.613475  0.858608  0.599794  1
  Si  Si15  1  0.858448  0.613353  0.101039  1
  Si  Si16  1  0.387937  0.139828  0.399138  1
  Si  Si17  1  0.080883  0.573090  0.568101  1
  Si  Si18  1  0.426789  0.917906  0.932660  1
  Si  Si19  1  0.918735  0.428147  0.430510  1
  Si  Si20  1  0.575012  0.081331  0.066572  1
  Si  Si21  1  0.614889  0.383984  0.752133  1
  Si  Si22  1  0.383638  0.616770  0.250083  1
  Si  Si23  1  0.127009  0.872431  0.750884  1
  Si  Si24  1  0.871737  0.128126  0.250610  1
  Ru  Ru25  1  0.857238  0.104865  0.915239  1
  Ru  Ru26  1  0.104589  0.856356  0.413837  1
  Ru  Ru27  1  0.142618  0.896292  0.086793  1
  Ru  Ru28  1  0.832068  0.646239  0.782471  1
  Ru  Ru29  1  0.352067  0.165918  0.718397  1
  Ru  Ru30  1  0.169568  0.353729  0.216631  1
  Ru  Ru31  1  0.647547  0.832908  0.280655  1
  Ru  Ru32  1  0.247964  0.506392  0.933262  1
  Ru  Ru33  1  0.492470  0.752209  0.567156  1
  Ru  Ru34  1  0.751758  0.491812  0.067669  1
  Ru  Ru35  1  0.506260  0.249266  0.431872  1
