# generated using pymatgen
data_DyHoMn2Br
_symmetry_space_group_name_H-M   'P 1'
_cell_length_a   3.82087300
_cell_length_b   3.82087354
_cell_length_c   16.98687800
_cell_angle_alpha   90.00000000
_cell_angle_beta   90.00000000
_cell_angle_gamma   119.99998663
_symmetry_Int_Tables_number   1
_chemical_formula_structural   DyHoMn2Br
_chemical_formula_sum   'Dy2 Ho2 Mn4 Br2'
_cell_volume   214.76797637
_cell_formula_units_Z   2
loop_
 _symmetry_equiv_pos_site_id
 _symmetry_equiv_pos_as_xyz
  1  'x, y, z'
loop_
 _atom_site_type_symbol
 _atom_site_label
 _atom_site_symmetry_multiplicity
 _atom_site_fract_x
 _atom_site_fract_y
 _atom_site_fract_z
 _atom_site_occupancy
  Dy  Dy0  1  0.000000  0.000000  0.114767  1
  Dy  Dy1  1  0.000000  0.000000  0.885233  1
  Ho  Ho2  1  0.000000  0.000000  0.614605  1
  Ho  Ho3  1  0.000000  0.000000  0.385395  1
  Mn  Mn4  1  0.333333  0.666667  0.510287  1
  Mn  Mn5  1  0.666667  0.333333  0.489713  1
  Mn  Mn6  1  0.666667  0.333333  0.010320  1
  Mn  Mn7  1  0.333333  0.666667  0.989680  1
  Br  Br8  1  0.333333  0.666667  0.250047  1
  Br  Br9  1  0.666667  0.333333  0.749953  1
