# generated using pymatgen
data_SrNd8(BiO)5
_symmetry_space_group_name_H-M   'P 1'
_cell_length_a   10.40325600
_cell_length_b   10.40325600
_cell_length_c   9.39560100
_cell_angle_alpha   90.00000000
_cell_angle_beta   90.00000000
_cell_angle_gamma   90.00000000
_symmetry_Int_Tables_number   1
_chemical_formula_structural   SrNd8(BiO)5
_chemical_formula_sum   'Sr2 Nd16 Bi10 O10'
_cell_volume   1016.86461897
_cell_formula_units_Z   2
loop_
 _symmetry_equiv_pos_site_id
 _symmetry_equiv_pos_as_xyz
  1  'x, y, z'
loop_
 _atom_site_type_symbol
 _atom_site_label
 _atom_site_symmetry_multiplicity
 _atom_site_fract_x
 _atom_site_fract_y
 _atom_site_fract_z
 _atom_site_occupancy
  Sr  Sr0  1  0.500000  0.000000  0.670175  1
  Sr  Sr1  1  0.000000  0.500000  0.329825  1
  Nd  Nd2  1  0.104406  0.205070  0.663062  1
  Nd  Nd3  1  0.895594  0.794930  0.663062  1
  Nd  Nd4  1  0.294930  0.604406  0.663062  1
  Nd  Nd5  1  0.705070  0.395594  0.663062  1
  Nd  Nd6  1  0.395594  0.294930  0.336938  1
  Nd  Nd7  1  0.604406  0.705070  0.336938  1
  Nd  Nd8  1  0.205070  0.895594  0.336938  1
  Nd  Nd9  1  0.794930  0.104406  0.336938  1
  Nd  Nd10  1  0.724850  0.918164  0.001698  1
  Nd  Nd11  1  0.275150  0.081836  0.001698  1
  Nd  Nd12  1  0.581836  0.224850  0.001698  1
  Nd  Nd13  1  0.418164  0.775150  0.001698  1
  Nd  Nd14  1  0.775150  0.581836  0.998302  1
  Nd  Nd15  1  0.224850  0.418164  0.998302  1
  Nd  Nd16  1  0.918164  0.275150  0.998302  1
  Nd  Nd17  1  0.081836  0.724850  0.998302  1
  Bi  Bi18  1  0.500000  0.000000  0.310092  1
  Bi  Bi19  1  0.000000  0.500000  0.689908  1
  Bi  Bi20  1  0.402634  0.308179  0.698948  1
  Bi  Bi21  1  0.597366  0.691821  0.698948  1
  Bi  Bi22  1  0.191821  0.902634  0.698948  1
  Bi  Bi23  1  0.808179  0.097366  0.698948  1
  Bi  Bi24  1  0.097366  0.191821  0.301052  1
  Bi  Bi25  1  0.902634  0.808179  0.301052  1
  Bi  Bi26  1  0.308179  0.597366  0.301052  1
  Bi  Bi27  1  0.691821  0.402634  0.301052  1
  O  O28  1  0.500000  0.000000  0.942274  1
  O  O29  1  0.000000  0.500000  0.057726  1
  O  O30  1  0.774061  0.121328  0.086693  1
  O  O31  1  0.225939  0.878672  0.086693  1
  O  O32  1  0.378672  0.274061  0.086693  1
  O  O33  1  0.621328  0.725939  0.086693  1
  O  O34  1  0.725939  0.378672  0.913307  1
  O  O35  1  0.274061  0.621328  0.913307  1
  O  O36  1  0.121328  0.225939  0.913307  1
  O  O37  1  0.878672  0.774061  0.913307  1
