# generated using pymatgen
data_Nd4YSn4
_symmetry_space_group_name_H-M   'P 1'
_cell_length_a   8.24729900
_cell_length_b   8.39922000
_cell_length_c   15.94257600
_cell_angle_alpha   90.00000000
_cell_angle_beta   90.00000000
_cell_angle_gamma   90.00000000
_symmetry_Int_Tables_number   1
_chemical_formula_structural   Nd4YSn4
_chemical_formula_sum   'Nd16 Y4 Sn16'
_cell_volume   1104.35624837
_cell_formula_units_Z   4
loop_
 _symmetry_equiv_pos_site_id
 _symmetry_equiv_pos_as_xyz
  1  'x, y, z'
loop_
 _atom_site_type_symbol
 _atom_site_label
 _atom_site_symmetry_multiplicity
 _atom_site_fract_x
 _atom_site_fract_y
 _atom_site_fract_z
 _atom_site_occupancy
  Nd  Nd0  1  0.017803  0.180958  0.401247  1
  Nd  Nd1  1  0.368394  0.836928  0.120570  1
  Nd  Nd2  1  0.131606  0.336928  0.620570  1
  Nd  Nd3  1  0.482197  0.680958  0.901247  1
  Nd  Nd4  1  0.868394  0.663072  0.120570  1
  Nd  Nd5  1  0.131606  0.336928  0.879430  1
  Nd  Nd6  1  0.482197  0.680958  0.598753  1
  Nd  Nd7  1  0.631606  0.163072  0.620570  1
  Nd  Nd8  1  0.868394  0.663072  0.379430  1
  Nd  Nd9  1  0.017803  0.180958  0.098753  1
  Nd  Nd10  1  0.982197  0.819042  0.901247  1
  Nd  Nd11  1  0.631606  0.163072  0.879430  1
  Nd  Nd12  1  0.517803  0.319042  0.098753  1
  Nd  Nd13  1  0.368394  0.836928  0.379430  1
  Nd  Nd14  1  0.982197  0.819042  0.598753  1
  Nd  Nd15  1  0.517803  0.319042  0.401247  1
  Y  Y16  1  0.199236  0.501909  0.250000  1
  Y  Y17  1  0.699236  0.998091  0.250000  1
  Y  Y18  1  0.300764  0.001909  0.750000  1
  Y  Y19  1  0.800764  0.498091  0.750000  1
  Sn  Sn20  1  0.791416  0.464512  0.543285  1
  Sn  Sn21  1  0.708584  0.964512  0.456715  1
  Sn  Sn22  1  0.675462  0.854781  0.750000  1
  Sn  Sn23  1  0.208584  0.535488  0.456715  1
  Sn  Sn24  1  0.291416  0.035488  0.956715  1
  Sn  Sn25  1  0.824538  0.354781  0.250000  1
  Sn  Sn26  1  0.791416  0.464512  0.956715  1
  Sn  Sn27  1  0.565285  0.616824  0.250000  1
  Sn  Sn28  1  0.208584  0.535488  0.043285  1
  Sn  Sn29  1  0.434715  0.383176  0.750000  1
  Sn  Sn30  1  0.175462  0.645219  0.750000  1
  Sn  Sn31  1  0.934715  0.116824  0.750000  1
  Sn  Sn32  1  0.291416  0.035488  0.543285  1
  Sn  Sn33  1  0.708584  0.964512  0.043285  1
  Sn  Sn34  1  0.324538  0.145219  0.250000  1
  Sn  Sn35  1  0.065285  0.883176  0.250000  1
