# generated using pymatgen
data_PaAl7ZnCu4
_symmetry_space_group_name_H-M   'P 1'
_cell_length_a   6.73293173
_cell_length_b   6.73293187
_cell_length_c   6.73293228
_cell_angle_alpha   98.54897076
_cell_angle_beta   97.93926925
_cell_angle_gamma   135.49767546
_symmetry_Int_Tables_number   1
_chemical_formula_structural   PaAl7ZnCu4
_chemical_formula_sum   'Pa1 Al7 Zn1 Cu4'
_cell_volume   198.00493257
_cell_formula_units_Z   1
loop_
 _symmetry_equiv_pos_site_id
 _symmetry_equiv_pos_as_xyz
  1  'x, y, z'
loop_
 _atom_site_type_symbol
 _atom_site_label
 _atom_site_symmetry_multiplicity
 _atom_site_fract_x
 _atom_site_fract_y
 _atom_site_fract_z
 _atom_site_occupancy
  Pa  Pa0  1  0.000000  0.998996  0.998996  1
  Al  Al1  1  0.283150  0.502180  0.785331  1
  Al  Al2  1  0.652423  0.998162  0.650586  1
  Al  Al3  1  0.000000  0.346743  0.346743  1
  Al  Al4  1  0.000000  0.651327  0.651327  1
  Al  Al5  1  0.347577  0.998162  0.345739  1
  Al  Al6  1  0.716850  0.502180  0.219030  1
  Al  Al7  1  0.500000  0.279898  0.779898  1
  Zn  Zn8  1  0.500000  0.718336  0.218336  1
  Cu  Cu9  1  0.002241  0.001883  0.502365  1
  Cu  Cu10  1  0.500483  0.500123  0.502365  1
  Cu  Cu11  1  0.499517  0.001883  0.999641  1
  Cu  Cu12  1  0.997759  0.500123  0.999641  1
