# generated using pymatgen
data_Pa4Br13Cl3
_symmetry_space_group_name_H-M   'P 1'
_cell_length_a   7.64954364
_cell_length_b   8.00349106
_cell_length_c   13.25717000
_cell_angle_alpha   68.46869105
_cell_angle_beta   89.25155382
_cell_angle_gamma   89.10783673
_symmetry_Int_Tables_number   1
_chemical_formula_structural   Pa4Br13Cl3
_chemical_formula_sum   'Pa4 Br13 Cl3'
_cell_volume   754.89049422
_cell_formula_units_Z   1
loop_
 _symmetry_equiv_pos_site_id
 _symmetry_equiv_pos_as_xyz
  1  'x, y, z'
loop_
 _atom_site_type_symbol
 _atom_site_label
 _atom_site_symmetry_multiplicity
 _atom_site_fract_x
 _atom_site_fract_y
 _atom_site_fract_z
 _atom_site_occupancy
  Pa  Pa0  1  0.488038  0.997818  0.315787  1
  Pa  Pa1  1  0.990883  0.993777  0.186600  1
  Pa  Pa2  1  0.509403  0.999777  0.682144  1
  Pa  Pa3  1  0.012777  0.005359  0.813422  1
  Br  Br4  1  0.667799  0.141669  0.839779  1
  Br  Br5  1  0.076863  0.218068  0.952940  1
  Br  Br6  1  0.567844  0.773902  0.550620  1
  Br  Br7  1  0.934115  0.779741  0.048028  1
  Br  Br8  1  0.430480  0.221959  0.448919  1
  Br  Br9  1  0.776828  0.728475  0.800431  1
  Br  Br10  1  0.265565  0.281990  0.694566  1
  Br  Br11  1  0.218883  0.272626  0.204007  1
  Br  Br12  1  0.725622  0.718352  0.298288  1
  Br  Br13  1  0.337817  0.814687  0.897481  1
  Br  Br14  1  0.834716  0.182913  0.597327  1
  Br  Br15  1  0.666704  0.192309  0.103992  1
  Br  Br16  1  0.166735  0.804482  0.400945  1
  Cl  Cl17  1  0.822308  0.101505  0.343507  1
  Cl  Cl18  1  0.328687  0.885055  0.160833  1
  Cl  Cl19  1  0.177932  0.885538  0.660383  1
