# generated using pymatgen
data_Sc4AsCl6
_symmetry_space_group_name_H-M   'P 1'
_cell_length_a   3.73830600
_cell_length_b   12.31133000
_cell_length_c   12.74445500
_cell_angle_alpha   90.00000000
_cell_angle_beta   90.00000000
_cell_angle_gamma   90.00000000
_symmetry_Int_Tables_number   1
_chemical_formula_structural   Sc4AsCl6
_chemical_formula_sum   'Sc8 As2 Cl12'
_cell_volume   586.54466438
_cell_formula_units_Z   2
loop_
 _symmetry_equiv_pos_site_id
 _symmetry_equiv_pos_as_xyz
  1  'x, y, z'
loop_
 _atom_site_type_symbol
 _atom_site_label
 _atom_site_symmetry_multiplicity
 _atom_site_fract_x
 _atom_site_fract_y
 _atom_site_fract_z
 _atom_site_occupancy
  Sc  Sc0  1  0.000000  0.113056  0.089983  1
  Sc  Sc1  1  0.000000  0.886944  0.910017  1
  Sc  Sc2  1  0.000000  0.613056  0.410017  1
  Sc  Sc3  1  0.000000  0.386944  0.589983  1
  Sc  Sc4  1  0.500000  0.132165  0.845061  1
  Sc  Sc5  1  0.500000  0.867835  0.154939  1
  Sc  Sc6  1  0.500000  0.632165  0.654939  1
  Sc  Sc7  1  0.500000  0.367835  0.345061  1
  As  As8  1  0.500000  0.000000  0.000000  1
  As  As9  1  0.500000  0.500000  0.500000  1
  Cl  Cl10  1  0.500000  0.266547  0.683135  1
  Cl  Cl11  1  0.500000  0.733453  0.316865  1
  Cl  Cl12  1  0.500000  0.766547  0.816865  1
  Cl  Cl13  1  0.500000  0.233453  0.183135  1
  Cl  Cl14  1  0.000000  0.252514  0.928937  1
  Cl  Cl15  1  0.000000  0.747486  0.071063  1
  Cl  Cl16  1  0.000000  0.476839  0.247250  1
  Cl  Cl17  1  0.000000  0.523161  0.752750  1
  Cl  Cl18  1  0.000000  0.976839  0.252750  1
  Cl  Cl19  1  0.000000  0.023161  0.747250  1
  Cl  Cl20  1  0.000000  0.247486  0.428937  1
  Cl  Cl21  1  0.000000  0.752514  0.571063  1
