# generated using pymatgen
data_Sr2Mg(SeO3)3
_symmetry_space_group_name_H-M   'P 1'
_cell_length_a   7.50610562
_cell_length_b   7.72652644
_cell_length_c   8.87041519
_cell_angle_alpha   103.62987697
_cell_angle_beta   105.48514508
_cell_angle_gamma   95.10561975
_symmetry_Int_Tables_number   1
_chemical_formula_structural   Sr2Mg(SeO3)3
_chemical_formula_sum   'Sr4 Mg2 Se6 O18'
_cell_volume   475.43312774
_cell_formula_units_Z   2
loop_
 _symmetry_equiv_pos_site_id
 _symmetry_equiv_pos_as_xyz
  1  'x, y, z'
loop_
 _atom_site_type_symbol
 _atom_site_label
 _atom_site_symmetry_multiplicity
 _atom_site_fract_x
 _atom_site_fract_y
 _atom_site_fract_z
 _atom_site_occupancy
  Sr  Sr0  1  0.626459  0.484074  0.807219  1
  Sr  Sr1  1  0.373541  0.515926  0.192781  1
  Sr  Sr2  1  0.748416  0.906509  0.611458  1
  Sr  Sr3  1  0.251585  0.093491  0.388542  1
  Mg  Mg4  1  0.091990  0.335832  0.752362  1
  Mg  Mg5  1  0.908009  0.664168  0.247638  1
  Se  Se6  1  0.236571  0.635195  0.586476  1
  Se  Se7  1  0.904908  0.211612  0.041883  1
  Se  Se8  1  0.361858  0.086138  0.793175  1
  Se  Se9  1  0.638141  0.913862  0.206825  1
  Se  Se10  1  0.095091  0.788388  0.958116  1
  Se  Se11  1  0.763430  0.364805  0.413524  1
  O  O12  1  0.172713  0.634946  0.384665  1
  O  O13  1  0.827287  0.365054  0.615336  1
  O  O14  1  0.225182  0.408457  0.588180  1
  O  O15  1  0.774818  0.591543  0.411820  1
  O  O16  1  0.475434  0.697858  0.644298  1
  O  O17  1  0.524566  0.302142  0.355702  1
  O  O18  1  0.064396  0.816542  0.147236  1
  O  O19  1  0.935604  0.183458  0.852764  1
  O  O20  1  0.163350  0.577460  0.928389  1
  O  O21  1  0.836651  0.422540  0.071611  1
  O  O22  1  0.871293  0.751158  0.830632  1
  O  O23  1  0.128708  0.248842  0.169368  1
  O  O24  1  0.489405  0.876370  0.318829  1
  O  O25  1  0.510594  0.123630  0.681170  1
  O  O26  1  0.852925  0.938903  0.352262  1
  O  O27  1  0.367559  0.305859  0.902580  1
  O  O28  1  0.632442  0.694141  0.097420  1
  O  O29  1  0.147074  0.061097  0.647739  1
