# generated using pymatgen
data_Pr5Al7Pt12
_symmetry_space_group_name_H-M   'P 1'
_cell_length_a   5.59166323
_cell_length_b   5.59166252
_cell_length_c   16.96669500
_cell_angle_alpha   80.51534970
_cell_angle_beta   80.51535093
_cell_angle_gamma   59.99999644
_symmetry_Int_Tables_number   1
_chemical_formula_structural   Pr5Al7Pt12
_chemical_formula_sum   'Pr5 Al7 Pt12'
_cell_volume   451.02666774
_cell_formula_units_Z   1
loop_
 _symmetry_equiv_pos_site_id
 _symmetry_equiv_pos_as_xyz
  1  'x, y, z'
loop_
 _atom_site_type_symbol
 _atom_site_label
 _atom_site_symmetry_multiplicity
 _atom_site_fract_x
 _atom_site_fract_y
 _atom_site_fract_z
 _atom_site_occupancy
  Pr  Pr0  1  0.000000  0.000000  0.000000  1
  Pr  Pr1  1  0.924716  0.924716  0.225852  1
  Pr  Pr2  1  0.075284  0.075284  0.774148  1
  Pr  Pr3  1  0.849162  0.849162  0.452514  1
  Pr  Pr4  1  0.150838  0.150838  0.547486  1
  Al  Al5  1  0.500000  0.500000  0.500000  1
  Al  Al6  1  0.749735  0.749736  0.750794  1
  Al  Al7  1  0.250264  0.250264  0.249207  1
  Al  Al8  1  0.666762  0.666762  0.999715  1
  Al  Al9  1  0.333238  0.333238  0.000285  1
  Al  Al10  1  0.583003  0.583003  0.250992  1
  Al  Al11  1  0.416997  0.416997  0.749008  1
  Pt  Pt12  1  0.374652  0.374652  0.371758  1
  Pt  Pt13  1  0.878937  0.374652  0.371758  1
  Pt  Pt14  1  0.374652  0.878937  0.371758  1
  Pt  Pt15  1  0.625348  0.625348  0.628242  1
  Pt  Pt16  1  0.121063  0.625348  0.628242  1
  Pt  Pt17  1  0.625348  0.121063  0.628242  1
  Pt  Pt18  1  0.458950  0.458950  0.124216  1
  Pt  Pt19  1  0.957883  0.458950  0.124216  1
  Pt  Pt20  1  0.458950  0.957883  0.124216  1
  Pt  Pt21  1  0.541050  0.541050  0.875784  1
  Pt  Pt22  1  0.042117  0.541050  0.875784  1
  Pt  Pt23  1  0.541050  0.042117  0.875784  1
