# generated using pymatgen
data_CaYbGa2F10
_symmetry_space_group_name_H-M   'P 1'
_cell_length_a   5.51752208
_cell_length_b   5.51752087
_cell_length_c   7.65328252
_cell_angle_alpha   69.95415588
_cell_angle_beta   69.95416149
_cell_angle_gamma   71.59304436
_symmetry_Int_Tables_number   1
_chemical_formula_structural   CaYbGa2F10
_chemical_formula_sum   'Ca1 Yb1 Ga2 F10'
_cell_volume   200.35822293
_cell_formula_units_Z   1
loop_
 _symmetry_equiv_pos_site_id
 _symmetry_equiv_pos_as_xyz
  1  'x, y, z'
loop_
 _atom_site_type_symbol
 _atom_site_label
 _atom_site_symmetry_multiplicity
 _atom_site_fract_x
 _atom_site_fract_y
 _atom_site_fract_z
 _atom_site_occupancy
  Ca  Ca0  1  0.456322  0.543678  0.750000  1
  Yb  Yb1  1  0.546982  0.453018  0.250000  1
  Ga  Ga2  1  0.002382  0.001410  0.497593  1
  Ga  Ga3  1  0.998590  0.997618  0.002407  1
  F  F4  1  0.080122  0.919878  0.750000  1
  F  F5  1  0.915396  0.084604  0.250000  1
  F  F6  1  0.212087  0.241627  0.886091  1
  F  F7  1  0.758373  0.787913  0.613909  1
  F  F8  1  0.713908  0.305643  0.526820  1
  F  F9  1  0.694357  0.286092  0.973180  1
  F  F10  1  0.287413  0.697545  0.462540  1
  F  F11  1  0.302455  0.712587  0.037460  1
  F  F12  1  0.246343  0.214731  0.384209  1
  F  F13  1  0.785269  0.753657  0.115791  1
