# generated using pymatgen
data_Ho4Al16SiGeIr6
_symmetry_space_group_name_H-M   'P 1'
_cell_length_a   7.54898200
_cell_length_b   7.54898311
_cell_length_c   9.38577400
_cell_angle_alpha   90.00000000
_cell_angle_beta   90.00000000
_cell_angle_gamma   119.67176426
_symmetry_Int_Tables_number   1
_chemical_formula_structural   Ho4Al16SiGeIr6
_chemical_formula_sum   'Ho4 Al16 Si1 Ge1 Ir6'
_cell_volume   464.73408377
_cell_formula_units_Z   1
loop_
 _symmetry_equiv_pos_site_id
 _symmetry_equiv_pos_as_xyz
  1  'x, y, z'
loop_
 _atom_site_type_symbol
 _atom_site_label
 _atom_site_symmetry_multiplicity
 _atom_site_fract_x
 _atom_site_fract_y
 _atom_site_fract_z
 _atom_site_occupancy
  Ho  Ho0  1  0.995189  0.675492  0.250000  1
  Ho  Ho1  1  0.004974  0.324421  0.750000  1
  Ho  Ho2  1  0.675492  0.995189  0.250000  1
  Ho  Ho3  1  0.324421  0.004974  0.750000  1
  Al  Al4  1  0.000124  0.337120  0.074070  1
  Al  Al5  1  0.998645  0.662964  0.922964  1
  Al  Al6  1  0.998645  0.662964  0.577036  1
  Al  Al7  1  0.337120  0.000124  0.425930  1
  Al  Al8  1  0.000124  0.337120  0.425930  1
  Al  Al9  1  0.662964  0.998645  0.577036  1
  Al  Al10  1  0.662964  0.998645  0.922964  1
  Al  Al11  1  0.337120  0.000124  0.074070  1
  Al  Al12  1  0.335532  0.335532  0.559274  1
  Al  Al13  1  0.664560  0.664560  0.442693  1
  Al  Al14  1  0.664560  0.664560  0.057307  1
  Al  Al15  1  0.335532  0.335532  0.940726  1
  Al  Al16  1  0.336205  0.553414  0.250000  1
  Al  Al17  1  0.664747  0.451075  0.750000  1
  Al  Al18  1  0.553414  0.336205  0.250000  1
  Al  Al19  1  0.451075  0.664747  0.750000  1
  Si  Si20  1  0.869081  0.869081  0.750000  1
  Ge  Ge21  1  0.131722  0.131722  0.250000  1
  Ir  Ir22  1  0.671114  0.328059  0.999911  1
  Ir  Ir23  1  0.328059  0.671114  0.999911  1
  Ir  Ir24  1  0.328059  0.671114  0.500089  1
  Ir  Ir25  1  0.671114  0.328059  0.500089  1
  Ir  Ir26  1  0.998722  0.998722  0.993880  1
  Ir  Ir27  1  0.998722  0.998722  0.506120  1
