# generated using pymatgen
data_Tb2YTm3Ru2
_symmetry_space_group_name_H-M   'P 1'
_cell_length_a   6.28817752
_cell_length_b   7.29550950
_cell_length_c   9.09999810
_cell_angle_alpha   89.92459649
_cell_angle_beta   89.52236593
_cell_angle_gamma   89.81204758
_symmetry_Int_Tables_number   1
_chemical_formula_structural   Tb2YTm3Ru2
_chemical_formula_sum   'Tb4 Y2 Tm6 Ru4'
_cell_volume   417.44948960
_cell_formula_units_Z   2
loop_
 _symmetry_equiv_pos_site_id
 _symmetry_equiv_pos_as_xyz
  1  'x, y, z'
loop_
 _atom_site_type_symbol
 _atom_site_label
 _atom_site_symmetry_multiplicity
 _atom_site_fract_x
 _atom_site_fract_y
 _atom_site_fract_z
 _atom_site_occupancy
  Tb  Tb0  1  0.633021  0.040881  0.252312  1
  Tb  Tb1  1  0.366979  0.959119  0.747688  1
  Tb  Tb2  1  0.131368  0.458856  0.748220  1
  Tb  Tb3  1  0.868632  0.541144  0.251780  1
  Y  Y4  1  0.169505  0.177207  0.065026  1
  Y  Y5  1  0.830495  0.822793  0.934974  1
  Tm  Tm6  1  0.667925  0.324852  0.934674  1
  Tm  Tm7  1  0.832249  0.823744  0.563432  1
  Tm  Tm8  1  0.332075  0.675148  0.065326  1
  Tm  Tm9  1  0.167751  0.176256  0.436568  1
  Tm  Tm10  1  0.333294  0.676276  0.435251  1
  Tm  Tm11  1  0.666706  0.323724  0.564749  1
  Ru  Ru12  1  0.460872  0.386050  0.251095  1
  Ru  Ru13  1  0.539128  0.613950  0.748905  1
  Ru  Ru14  1  0.956768  0.116366  0.744771  1
  Ru  Ru15  1  0.043232  0.883634  0.255229  1
