# generated using pymatgen
data_LaNdGa2PdRh
_symmetry_space_group_name_H-M   'P 1'
_cell_length_a   4.55824300
_cell_length_b   7.18829600
_cell_length_c   7.78945700
_cell_angle_alpha   90.00000000
_cell_angle_beta   90.00000000
_cell_angle_gamma   90.00000000
_symmetry_Int_Tables_number   1
_chemical_formula_structural   LaNdGa2PdRh
_chemical_formula_sum   'La2 Nd2 Ga4 Pd2 Rh2'
_cell_volume   255.22934747
_cell_formula_units_Z   2
loop_
 _symmetry_equiv_pos_site_id
 _symmetry_equiv_pos_as_xyz
  1  'x, y, z'
loop_
 _atom_site_type_symbol
 _atom_site_label
 _atom_site_symmetry_multiplicity
 _atom_site_fract_x
 _atom_site_fract_y
 _atom_site_fract_z
 _atom_site_occupancy
  La  La0  1  0.250000  0.034482  0.682729  1
  La  La1  1  0.250000  0.534482  0.817271  1
  Nd  Nd2  1  0.750000  0.975414  0.300844  1
  Nd  Nd3  1  0.750000  0.475414  0.199156  1
  Ga  Ga4  1  0.250000  0.160060  0.080814  1
  Ga  Ga5  1  0.250000  0.660060  0.419186  1
  Ga  Ga6  1  0.750000  0.834180  0.930273  1
  Ga  Ga7  1  0.750000  0.334180  0.569727  1
  Pd  Pd8  1  0.750000  0.713694  0.600512  1
  Pd  Pd9  1  0.750000  0.213694  0.899488  1
  Rh  Rh10  1  0.250000  0.282170  0.401124  1
  Rh  Rh11  1  0.250000  0.782170  0.098876  1
