# generated using pymatgen
data_Ho12Re(Si4Ir)3
_symmetry_space_group_name_H-M   'P 1'
_cell_length_a   4.21588600
_cell_length_b   10.66106292
_cell_length_c   12.27362715
_cell_angle_alpha   90.09002850
_cell_angle_beta   90.00000000
_cell_angle_gamma   90.00000000
_symmetry_Int_Tables_number   1
_chemical_formula_structural   Ho12Re(Si4Ir)3
_chemical_formula_sum   'Ho12 Re1 Si12 Ir3'
_cell_volume   551.64762800
_cell_formula_units_Z   1
loop_
 _symmetry_equiv_pos_site_id
 _symmetry_equiv_pos_as_xyz
  1  'x, y, z'
loop_
 _atom_site_type_symbol
 _atom_site_label
 _atom_site_symmetry_multiplicity
 _atom_site_fract_x
 _atom_site_fract_y
 _atom_site_fract_z
 _atom_site_occupancy
  Ho  Ho0  1  0.250000  0.878881  0.020546  1
  Ho  Ho1  1  0.250000  0.620224  0.521487  1
  Ho  Ho2  1  0.750000  0.118560  0.979894  1
  Ho  Ho3  1  0.750000  0.379306  0.480079  1
  Ho  Ho4  1  0.250000  0.921210  0.603364  1
  Ho  Ho5  1  0.250000  0.580320  0.105599  1
  Ho  Ho6  1  0.750000  0.080111  0.394688  1
  Ho  Ho7  1  0.750000  0.420096  0.895886  1
  Ho  Ho8  1  0.250000  0.663827  0.799164  1
  Ho  Ho9  1  0.250000  0.840233  0.300467  1
  Ho  Ho10  1  0.750000  0.340788  0.198206  1
  Ho  Ho11  1  0.750000  0.158429  0.699628  1
  Re  Re12  1  0.250000  0.391154  0.680451  1
  Si  Si13  1  0.250000  0.010091  0.821721  1
  Si  Si14  1  0.250000  0.488319  0.322219  1
  Si  Si15  1  0.750000  0.988967  0.178331  1
  Si  Si16  1  0.750000  0.510028  0.680301  1
  Si  Si17  1  0.250000  0.247230  0.841970  1
  Si  Si18  1  0.250000  0.252367  0.340496  1
  Si  Si19  1  0.750000  0.752787  0.158848  1
  Si  Si20  1  0.750000  0.750413  0.657591  1
  Si  Si21  1  0.250000  0.201555  0.543325  1
  Si  Si22  1  0.250000  0.296976  0.043770  1
  Si  Si23  1  0.750000  0.799643  0.455904  1
  Si  Si24  1  0.750000  0.699120  0.956440  1
  Ir  Ir25  1  0.250000  0.109387  0.180319  1
  Ir  Ir26  1  0.750000  0.610908  0.319276  1
  Ir  Ir27  1  0.750000  0.889069  0.820030  1
