# generated using pymatgen
data_Ce2Y13Th(MgIr)4
_symmetry_space_group_name_H-M   'P 1'
_cell_length_a   9.77284632
_cell_length_b   9.78067525
_cell_length_c   9.82745200
_cell_angle_alpha   59.84166740
_cell_angle_beta   59.81499457
_cell_angle_gamma   59.61948820
_symmetry_Int_Tables_number   1
_chemical_formula_structural   Ce2Y13Th(MgIr)4
_chemical_formula_sum   'Ce2 Y13 Th1 Mg4 Ir4'
_cell_volume   660.58087727
_cell_formula_units_Z   1
loop_
 _symmetry_equiv_pos_site_id
 _symmetry_equiv_pos_as_xyz
  1  'x, y, z'
loop_
 _atom_site_type_symbol
 _atom_site_label
 _atom_site_symmetry_multiplicity
 _atom_site_fract_x
 _atom_site_fract_y
 _atom_site_fract_z
 _atom_site_occupancy
  Ce  Ce0  1  0.594515  0.597546  0.596276  1
  Ce  Ce1  1  0.594515  0.597546  0.211663  1
  Y  Y2  1  0.203649  0.599437  0.598458  1
  Y  Y3  1  0.061905  0.437447  0.438816  1
  Y  Y4  1  0.436873  0.062510  0.063150  1
  Y  Y5  1  0.436873  0.062510  0.437468  1
  Y  Y6  1  0.061905  0.437447  0.061832  1
  Y  Y7  1  0.438246  0.437649  0.062053  1
  Y  Y8  1  0.063798  0.062230  0.436986  1
  Y  Y9  1  0.188742  0.812539  0.813347  1
  Y  Y10  1  0.813679  0.186839  0.185399  1
  Y  Y11  1  0.813679  0.186839  0.814082  1
  Y  Y12  1  0.188742  0.812539  0.185373  1
  Y  Y13  1  0.813703  0.813692  0.186302  1
  Y  Y14  1  0.186851  0.185768  0.813691  1
  Th  Th15  1  0.595810  0.208298  0.597946  1
  Mg  Mg16  1  0.829420  0.828354  0.831475  1
  Mg  Mg17  1  0.829420  0.828354  0.510752  1
  Mg  Mg18  1  0.828264  0.510838  0.830450  1
  Mg  Mg19  1  0.509497  0.828114  0.831195  1
  Ir  Ir20  1  0.396563  0.393500  0.389216  1
  Ir  Ir21  1  0.396563  0.393500  0.820723  1
  Ir  Ir22  1  0.398213  0.820900  0.390444  1
  Ir  Ir23  1  0.818579  0.395607  0.392907  1
