# generated using pymatgen
data_Li4OsO5
_symmetry_space_group_name_H-M   'P 1'
_cell_length_a   5.08867297
_cell_length_b   5.12740294
_cell_length_c   7.84164729
_cell_angle_alpha   102.46058256
_cell_angle_beta   108.74505197
_cell_angle_gamma   101.29687630
_symmetry_Int_Tables_number   1
_chemical_formula_structural   Li4OsO5
_chemical_formula_sum   'Li8 Os2 O10'
_cell_volume   181.23528381
_cell_formula_units_Z   2
loop_
 _symmetry_equiv_pos_site_id
 _symmetry_equiv_pos_as_xyz
  1  'x, y, z'
loop_
 _atom_site_type_symbol
 _atom_site_label
 _atom_site_symmetry_multiplicity
 _atom_site_fract_x
 _atom_site_fract_y
 _atom_site_fract_z
 _atom_site_occupancy
  Li  Li0  1  0.695626  0.005660  0.394212  1
  Li  Li1  1  0.321709  0.504140  0.101148  1
  Li  Li2  1  0.121485  0.496050  0.691062  1
  Li  Li3  1  0.500000  0.000000  0.000000  1
  Li  Li4  1  0.678291  0.495860  0.898852  1
  Li  Li5  1  0.878515  0.503950  0.308938  1
  Li  Li6  1  0.304374  0.994340  0.605788  1
  Li  Li7  1  0.500000  0.500000  0.500000  1
  Os  Os8  1  0.894821  0.998553  0.787071  1
  Os  Os9  1  0.105179  0.001447  0.212929  1
  O  O10  1  0.283134  0.767352  0.336113  1
  O  O11  1  0.474215  0.241479  0.250192  1
  O  O12  1  0.525785  0.758521  0.749808  1
  O  O13  1  0.724939  0.762589  0.154767  1
  O  O14  1  0.716866  0.232648  0.663887  1
  O  O15  1  0.910423  0.218408  0.042978  1
  O  O16  1  0.095633  0.242516  0.431542  1
  O  O17  1  0.089577  0.781592  0.957022  1
  O  O18  1  0.275061  0.237411  0.845233  1
  O  O19  1  0.904367  0.757485  0.568458  1
