# generated using pymatgen
data_Y3ErHf4F28
_symmetry_space_group_name_H-M   'P 1'
_cell_length_a   5.71566530
_cell_length_b   9.04223009
_cell_length_c   12.16211008
_cell_angle_alpha   62.31183148
_cell_angle_beta   90.00069786
_cell_angle_gamma   90.02072048
_symmetry_Int_Tables_number   1
_chemical_formula_structural   Y3ErHf4F28
_chemical_formula_sum   'Y3 Er1 Hf4 F28'
_cell_volume   556.58910483
_cell_formula_units_Z   1
loop_
 _symmetry_equiv_pos_site_id
 _symmetry_equiv_pos_as_xyz
  1  'x, y, z'
loop_
 _atom_site_type_symbol
 _atom_site_label
 _atom_site_symmetry_multiplicity
 _atom_site_fract_x
 _atom_site_fract_y
 _atom_site_fract_z
 _atom_site_occupancy
  Y  Y0  1  0.757593  0.814077  0.766145  1
  Y  Y1  1  0.257344  0.185324  0.733774  1
  Y  Y2  1  0.243072  0.184491  0.233756  1
  Er  Er3  1  0.742648  0.814301  0.266206  1
  Hf  Hf4  1  0.756344  0.272663  0.955562  1
  Hf  Hf5  1  0.256744  0.725980  0.543640  1
  Hf  Hf6  1  0.242704  0.726597  0.046333  1
  Hf  Hf7  1  0.743267  0.275124  0.454598  1
  F  F8  1  0.464006  0.710593  0.924773  1
  F  F9  1  0.962685  0.290621  0.576853  1
  F  F10  1  0.537111  0.290522  0.077113  1
  F  F11  1  0.034220  0.710505  0.422217  1
  F  F12  1  0.454996  0.280396  0.548470  1
  F  F13  1  0.956834  0.720242  0.951163  1
  F  F14  1  0.543907  0.720492  0.448441  1
  F  F15  1  0.044853  0.279302  0.049055  1
  F  F16  1  0.769910  0.522370  0.859691  1
  F  F17  1  0.270763  0.476858  0.640023  1
  F  F18  1  0.229448  0.477095  0.141185  1
  F  F19  1  0.731800  0.524887  0.358682  1
  F  F20  1  0.758404  0.023639  0.057773  1
  F  F21  1  0.259905  0.975206  0.443444  1
  F  F22  1  0.240102  0.975414  0.944223  1
  F  F23  1  0.740693  0.025911  0.556001  1
  F  F24  1  0.990554  0.731768  0.648858  1
  F  F25  1  0.488574  0.267730  0.851102  1
  F  F26  1  0.009727  0.266975  0.350454  1
  F  F27  1  0.507975  0.733534  0.152068  1
  F  F28  1  0.027760  0.745432  0.171788  1
  F  F29  1  0.531631  0.256900  0.328008  1
  F  F30  1  0.966616  0.255350  0.828297  1
  F  F31  1  0.468752  0.743525  0.670584  1
  F  F32  1  0.431146  0.972484  0.234391  1
  F  F33  1  0.926308  0.024082  0.265554  1
  F  F34  1  0.575797  0.027576  0.766320  1
  F  F35  1  0.075807  0.972036  0.733453  1
