# generated using pymatgen
data_Ho3Tm13In4(PtRh)2
_symmetry_space_group_name_H-M   'P 1'
_cell_length_a   9.56942431
_cell_length_b   9.56498251
_cell_length_c   9.61069117
_cell_angle_alpha   59.87242092
_cell_angle_beta   59.82662233
_cell_angle_gamma   59.99859664
_symmetry_Int_Tables_number   1
_chemical_formula_structural   Ho3Tm13In4(PtRh)2
_chemical_formula_sum   'Ho3 Tm13 In4 Pt2 Rh2'
_cell_volume   620.60224792
_cell_formula_units_Z   1
loop_
 _symmetry_equiv_pos_site_id
 _symmetry_equiv_pos_as_xyz
  1  'x, y, z'
loop_
 _atom_site_type_symbol
 _atom_site_label
 _atom_site_symmetry_multiplicity
 _atom_site_fract_x
 _atom_site_fract_y
 _atom_site_fract_z
 _atom_site_occupancy
  Ho  Ho0  1  0.061143  0.061143  0.438857  1
  Ho  Ho1  1  0.436876  0.063219  0.437815  1
  Ho  Ho2  1  0.063219  0.436876  0.062089  1
  Tm  Tm3  1  0.053919  0.644627  0.650935  1
  Tm  Tm4  1  0.437355  0.437355  0.062645  1
  Tm  Tm5  1  0.644627  0.053919  0.650520  1
  Tm  Tm6  1  0.192741  0.809807  0.186614  1
  Tm  Tm7  1  0.188887  0.188887  0.811113  1
  Tm  Tm8  1  0.810086  0.810086  0.189914  1
  Tm  Tm9  1  0.438370  0.061478  0.060672  1
  Tm  Tm10  1  0.809996  0.192564  0.186502  1
  Tm  Tm11  1  0.061478  0.438370  0.439479  1
  Tm  Tm12  1  0.809807  0.192741  0.810840  1
  Tm  Tm13  1  0.192564  0.809996  0.810938  1
  Tm  Tm14  1  0.649351  0.648880  0.048381  1
  Tm  Tm15  1  0.648880  0.649351  0.653390  1
  In  In16  1  0.416222  0.417091  0.416204  1
  In  In17  1  0.749519  0.417255  0.416721  1
  In  In18  1  0.417255  0.749519  0.416503  1
  In  In19  1  0.417091  0.416222  0.750482  1
  Pt  Pt20  1  0.857936  0.857242  0.427434  1
  Pt  Pt21  1  0.857242  0.857936  0.857389  1
  Rh  Rh22  1  0.427342  0.858094  0.857768  1
  Rh  Rh23  1  0.858094  0.427342  0.856795  1
