# generated using pymatgen
data_Lu2TaB2Ir2Ru3
_symmetry_space_group_name_H-M   'P 1'
_cell_length_a   9.64102900
_cell_length_b   9.63675800
_cell_length_c   3.10900600
_cell_angle_alpha   90.00000000
_cell_angle_beta   90.00000000
_cell_angle_gamma   90.00000000
_symmetry_Int_Tables_number   1
_chemical_formula_structural   Lu2TaB2Ir2Ru3
_chemical_formula_sum   'Lu4 Ta2 B4 Ir4 Ru6'
_cell_volume   288.85234819
_cell_formula_units_Z   2
loop_
 _symmetry_equiv_pos_site_id
 _symmetry_equiv_pos_as_xyz
  1  'x, y, z'
loop_
 _atom_site_type_symbol
 _atom_site_label
 _atom_site_symmetry_multiplicity
 _atom_site_fract_x
 _atom_site_fract_y
 _atom_site_fract_z
 _atom_site_occupancy
  Lu  Lu0  1  0.825307  0.674294  0.000000  1
  Lu  Lu1  1  0.174693  0.325706  0.000000  1
  Lu  Lu2  1  0.325307  0.825706  0.000000  1
  Lu  Lu3  1  0.674693  0.174294  0.000000  1
  Ta  Ta4  1  0.500000  0.500000  0.000000  1
  Ta  Ta5  1  0.000000  0.000000  0.000000  1
  B  B6  1  0.623874  0.885450  0.000000  1
  B  B7  1  0.376126  0.114550  0.000000  1
  B  B8  1  0.123874  0.614550  0.000000  1
  B  B9  1  0.876126  0.385450  0.000000  1
  Ir  Ir10  1  0.571463  0.719998  0.500000  1
  Ir  Ir11  1  0.428537  0.280002  0.500000  1
  Ir  Ir12  1  0.071463  0.780002  0.500000  1
  Ir  Ir13  1  0.928537  0.219998  0.500000  1
  Ru  Ru14  1  0.282672  0.570312  0.500000  1
  Ru  Ru15  1  0.717328  0.429688  0.500000  1
  Ru  Ru16  1  0.217328  0.070312  0.500000  1
  Ru  Ru17  1  0.782672  0.929688  0.500000  1
  Ru  Ru18  1  0.500000  0.000000  0.500000  1
  Ru  Ru19  1  0.000000  0.500000  0.500000  1
