# generated using pymatgen
data_Zr6Zn21GeRh2
_symmetry_space_group_name_H-M   'P 1'
_cell_length_a   8.77917835
_cell_length_b   8.77917764
_cell_length_c   8.77917821
_cell_angle_alpha   59.88003951
_cell_angle_beta   59.88004462
_cell_angle_gamma   59.88003832
_symmetry_Int_Tables_number   1
_chemical_formula_structural   Zr6Zn21GeRh2
_chemical_formula_sum   'Zr6 Zn21 Ge1 Rh2'
_cell_volume   477.15875047
_cell_formula_units_Z   1
loop_
 _symmetry_equiv_pos_site_id
 _symmetry_equiv_pos_as_xyz
  1  'x, y, z'
loop_
 _atom_site_type_symbol
 _atom_site_label
 _atom_site_symmetry_multiplicity
 _atom_site_fract_x
 _atom_site_fract_y
 _atom_site_fract_z
 _atom_site_occupancy
  Zr  Zr0  1  0.722589  0.284851  0.284851  1
  Zr  Zr1  1  0.277411  0.715149  0.715149  1
  Zr  Zr2  1  0.284851  0.722589  0.284851  1
  Zr  Zr3  1  0.715149  0.277411  0.715149  1
  Zr  Zr4  1  0.284851  0.284851  0.722589  1
  Zr  Zr5  1  0.715149  0.715149  0.277411  1
  Zn  Zn6  1  0.119398  0.119398  0.636329  1
  Zn  Zn7  1  0.119398  0.636329  0.119398  1
  Zn  Zn8  1  0.880602  0.880602  0.363671  1
  Zn  Zn9  1  0.880602  0.363671  0.880602  1
  Zn  Zn10  1  0.636329  0.119398  0.119398  1
  Zn  Zn11  1  0.363671  0.880602  0.880602  1
  Zn  Zn12  1  0.500000  0.000000  0.000000  1
  Zn  Zn13  1  0.000000  0.500000  0.500000  1
  Zn  Zn14  1  0.000000  0.500000  0.000000  1
  Zn  Zn15  1  0.500000  0.000000  0.500000  1
  Zn  Zn16  1  0.000000  0.000000  0.500000  1
  Zn  Zn17  1  0.500000  0.500000  0.000000  1
  Zn  Zn18  1  0.337255  0.337255  0.337255  1
  Zn  Zn19  1  0.662745  0.662745  0.662745  1
  Zn  Zn20  1  0.330024  0.330024  0.003069  1
  Zn  Zn21  1  0.330024  0.003069  0.330024  1
  Zn  Zn22  1  0.669976  0.669976  0.996931  1
  Zn  Zn23  1  0.669976  0.996931  0.669976  1
  Zn  Zn24  1  0.003069  0.330024  0.330024  1
  Zn  Zn25  1  0.996931  0.669976  0.669976  1
  Zn  Zn26  1  0.000000  0.000000  0.000000  1
  Ge  Ge27  1  0.500000  0.500000  0.500000  1
  Rh  Rh28  1  0.118360  0.118360  0.118360  1
  Rh  Rh29  1  0.881640  0.881640  0.881640  1
