# generated using pymatgen
data_ZrScVCo3
_symmetry_space_group_name_H-M   'P 1'
_cell_length_a   4.81258572
_cell_length_b   4.81258546
_cell_length_c   4.81258668
_cell_angle_alpha   64.13315356
_cell_angle_beta   64.13315951
_cell_angle_gamma   64.13316026
_symmetry_Int_Tables_number   1
_chemical_formula_structural   ZrScVCo3
_chemical_formula_sum   'Zr1 Sc1 V1 Co3'
_cell_volume   85.98371453
_cell_formula_units_Z   1
loop_
 _symmetry_equiv_pos_site_id
 _symmetry_equiv_pos_as_xyz
  1  'x, y, z'
loop_
 _atom_site_type_symbol
 _atom_site_label
 _atom_site_symmetry_multiplicity
 _atom_site_fract_x
 _atom_site_fract_y
 _atom_site_fract_z
 _atom_site_occupancy
  Zr  Zr0  1  0.997999  0.997999  0.997999  1
  Sc  Sc1  1  0.251895  0.251895  0.251895  1
  V  V2  1  0.625649  0.625649  0.625649  1
  Co  Co3  1  0.624156  0.126147  0.624156  1
  Co  Co4  1  0.624156  0.624156  0.126147  1
  Co  Co5  1  0.126147  0.624156  0.624156  1
