# generated using pymatgen
data_Pu6Al24Os3Pd5
_symmetry_space_group_name_H-M   'P 1'
_cell_length_a   8.98672500
_cell_length_b   9.02488907
_cell_length_c   9.66050800
_cell_angle_alpha   89.83245913
_cell_angle_beta   90.00000000
_cell_angle_gamma   119.86020847
_symmetry_Int_Tables_number   1
_chemical_formula_structural   Pu6Al24Os3Pd5
_chemical_formula_sum   'Pu6 Al24 Os3 Pd5'
_cell_volume   679.48753069
_cell_formula_units_Z   1
loop_
 _symmetry_equiv_pos_site_id
 _symmetry_equiv_pos_as_xyz
  1  'x, y, z'
loop_
 _atom_site_type_symbol
 _atom_site_label
 _atom_site_symmetry_multiplicity
 _atom_site_fract_x
 _atom_site_fract_y
 _atom_site_fract_z
 _atom_site_occupancy
  Pu  Pu0  1  0.191461  0.382923  0.252178  1
  Pu  Pu1  1  0.808539  0.617077  0.747822  1
  Pu  Pu2  1  0.614539  0.809748  0.251070  1
  Pu  Pu3  1  0.385461  0.190252  0.748930  1
  Pu  Pu4  1  0.195209  0.809748  0.251070  1
  Pu  Pu5  1  0.804791  0.190252  0.748930  1
  Al  Al6  1  0.333207  0.666415  0.024652  1
  Al  Al7  1  0.666793  0.333585  0.975348  1
  Al  Al8  1  0.664429  0.328858  0.523520  1
  Al  Al9  1  0.335571  0.671142  0.476480  1
  Al  Al10  1  0.160034  0.320067  0.575707  1
  Al  Al11  1  0.839966  0.679933  0.424293  1
  Al  Al12  1  0.677477  0.844125  0.573994  1
  Al  Al13  1  0.839954  0.679909  0.075821  1
  Al  Al14  1  0.322523  0.155875  0.426006  1
  Al  Al15  1  0.160046  0.320091  0.924179  1
  Al  Al16  1  0.166648  0.844125  0.573994  1
  Al  Al17  1  0.320965  0.160997  0.077589  1
  Al  Al18  1  0.833352  0.155875  0.426006  1
  Al  Al19  1  0.679035  0.839003  0.922411  1
  Al  Al20  1  0.840032  0.160997  0.077589  1
  Al  Al21  1  0.159968  0.839003  0.922411  1
  Al  Al22  1  0.562516  0.125031  0.252555  1
  Al  Al23  1  0.437484  0.874969  0.747445  1
  Al  Al24  1  0.875800  0.438065  0.249684  1
  Al  Al25  1  0.124200  0.561935  0.750316  1
  Al  Al26  1  0.562265  0.438065  0.249684  1
  Al  Al27  1  0.437735  0.561935  0.750316  1
  Al  Al28  1  0.000636  0.001273  0.250126  1
  Al  Al29  1  0.999364  0.998727  0.749874  1
  Os  Os30  1  0.500000  0.000000  0.500000  1
  Os  Os31  1  0.000000  0.000000  0.000000  1
  Os  Os32  1  0.000000  0.000000  0.500000  1
  Pd  Pd33  1  0.500000  0.000000  0.000000  1
  Pd  Pd34  1  0.000000  0.500000  0.000000  1
  Pd  Pd35  1  0.500000  0.500000  0.000000  1
  Pd  Pd36  1  0.000000  0.500000  0.500000  1
  Pd  Pd37  1  0.500000  0.500000  0.500000  1
