# generated using pymatgen
data_Ho4Cu3Sb8
_symmetry_space_group_name_H-M   'P 1'
_cell_length_a   10.52860014
_cell_length_b   10.52859997
_cell_length_c   10.52859960
_cell_angle_alpha   146.49295881
_cell_angle_beta   146.49295877
_cell_angle_gamma   48.11513347
_symmetry_Int_Tables_number   1
_chemical_formula_structural   Ho4Cu3Sb8
_chemical_formula_sum   'Ho4 Cu3 Sb8'
_cell_volume   354.21055904
_cell_formula_units_Z   1
loop_
 _symmetry_equiv_pos_site_id
 _symmetry_equiv_pos_as_xyz
  1  'x, y, z'
loop_
 _atom_site_type_symbol
 _atom_site_label
 _atom_site_symmetry_multiplicity
 _atom_site_fract_x
 _atom_site_fract_y
 _atom_site_fract_z
 _atom_site_occupancy
  Ho  Ho0  1  0.634173  0.634173  0.509164  1
  Ho  Ho1  1  0.125008  0.125008  0.490836  1
  Ho  Ho2  1  0.365827  0.874992  0.000000  1
  Ho  Ho3  1  0.874992  0.365827  0.000000  1
  Cu  Cu4  1  0.000000  0.000000  0.000000  1
  Cu  Cu5  1  0.000000  0.500000  0.500000  1
  Cu  Cu6  1  0.500000  0.000000  0.500000  1
  Sb  Sb7  1  0.335276  0.335276  0.516847  1
  Sb  Sb8  1  0.818429  0.818429  0.483153  1
  Sb  Sb9  1  0.664724  0.181571  0.000000  1
  Sb  Sb10  1  0.181571  0.664724  0.000000  1
  Sb  Sb11  1  0.250239  0.250239  0.000000  1
  Sb  Sb12  1  0.749761  0.749761  0.000000  1
  Sb  Sb13  1  0.750000  0.250000  0.500000  1
  Sb  Sb14  1  0.250000  0.750000  0.500000  1
