# generated using pymatgen
data_Tm4Pt2Pb5
_symmetry_space_group_name_H-M   'P 1'
_cell_length_a   8.09810522
_cell_length_b   3.60088200
_cell_length_c   9.95081477
_cell_angle_alpha   90.00000000
_cell_angle_beta   95.86532859
_cell_angle_gamma   90.00000000
_symmetry_Int_Tables_number   1
_chemical_formula_structural   Tm4Pt2Pb5
_chemical_formula_sum   'Tm4 Pt2 Pb5'
_cell_volume   288.64987460
_cell_formula_units_Z   1
loop_
 _symmetry_equiv_pos_site_id
 _symmetry_equiv_pos_as_xyz
  1  'x, y, z'
loop_
 _atom_site_type_symbol
 _atom_site_label
 _atom_site_symmetry_multiplicity
 _atom_site_fract_x
 _atom_site_fract_y
 _atom_site_fract_z
 _atom_site_occupancy
  Tm  Tm0  1  0.302340  0.500000  0.156492  1
  Tm  Tm1  1  0.697490  0.500000  0.434067  1
  Tm  Tm2  1  0.302511  0.500000  0.565934  1
  Tm  Tm3  1  0.697659  0.500000  0.843508  1
  Pt  Pt4  1  0.419124  0.000000  0.365057  1
  Pt  Pt5  1  0.580876  0.000000  0.634943  1
  Pb  Pb6  1  0.000000  0.000000  0.000000  1
  Pb  Pb7  1  0.647413  0.000000  0.136226  1
  Pb  Pb8  1  0.033683  0.000000  0.334512  1
  Pb  Pb9  1  0.966318  0.000000  0.665488  1
  Pb  Pb10  1  0.352587  0.000000  0.863774  1
