# generated using pymatgen
data_Na8Sr4SiGeP8
_symmetry_space_group_name_H-M   'P 1'
_cell_length_a   9.35563567
_cell_length_b   9.37096533
_cell_length_c   7.30929741
_cell_angle_alpha   89.57502962
_cell_angle_beta   89.49167040
_cell_angle_gamma   119.94456790
_symmetry_Int_Tables_number   1
_chemical_formula_structural   Na8Sr4SiGeP8
_chemical_formula_sum   'Na8 Sr4 Si1 Ge1 P8'
_cell_volume   555.19881431
_cell_formula_units_Z   1
loop_
 _symmetry_equiv_pos_site_id
 _symmetry_equiv_pos_as_xyz
  1  'x, y, z'
loop_
 _atom_site_type_symbol
 _atom_site_label
 _atom_site_symmetry_multiplicity
 _atom_site_fract_x
 _atom_site_fract_y
 _atom_site_fract_z
 _atom_site_occupancy
  Na  Na0  1  0.471209  0.939027  0.390874  1
  Na  Na1  1  0.944417  0.473935  0.893678  1
  Na  Na2  1  0.866103  0.724124  0.193416  1
  Na  Na3  1  0.287236  0.132708  0.229244  1
  Na  Na4  1  0.848668  0.138312  0.216806  1
  Na  Na5  1  0.134407  0.291089  0.732346  1
  Na  Na6  1  0.719884  0.863721  0.695769  1
  Na  Na7  1  0.139658  0.845917  0.718682  1
  Sr  Sr8  1  0.051201  0.529496  0.390397  1
  Sr  Sr9  1  0.478920  0.532279  0.388665  1
  Sr  Sr10  1  0.528249  0.049865  0.889247  1
  Sr  Sr11  1  0.530784  0.479791  0.886688  1
  Si  Si12  1  0.328773  0.663045  0.004670  1
  Ge  Ge13  1  0.661057  0.326045  0.504934  1
  P  P14  1  0.663197  0.338256  0.176727  1
  P  P15  1  0.337836  0.662673  0.686754  1
  P  P16  1  0.199655  0.394181  0.111340  1
  P  P17  1  0.606022  0.803465  0.094718  1
  P  P18  1  0.202709  0.804774  0.102402  1
  P  P19  1  0.807368  0.614709  0.594206  1
  P  P20  1  0.382087  0.194273  0.614215  1
  P  P21  1  0.809574  0.197327  0.603288  1
