# generated using pymatgen
data_Mn6NbIn5Rh12
_symmetry_space_group_name_H-M   'P 1'
_cell_length_a   4.47056900
_cell_length_b   6.28230700
_cell_length_c   13.39621100
_cell_angle_alpha   89.99996037
_cell_angle_beta   89.99959392
_cell_angle_gamma   89.99994701
_symmetry_Int_Tables_number   1
_chemical_formula_structural   Mn6NbIn5Rh12
_chemical_formula_sum   'Mn6 Nb1 In5 Rh12'
_cell_volume   376.23910885
_cell_formula_units_Z   1
loop_
 _symmetry_equiv_pos_site_id
 _symmetry_equiv_pos_as_xyz
  1  'x, y, z'
loop_
 _atom_site_type_symbol
 _atom_site_label
 _atom_site_symmetry_multiplicity
 _atom_site_fract_x
 _atom_site_fract_y
 _atom_site_fract_z
 _atom_site_occupancy
  Mn  Mn0  1  0.000000  0.500001  0.000000  1
  Mn  Mn1  1  0.499802  0.000000  0.168656  1
  Mn  Mn2  1  0.999832  0.500001  0.335102  1
  Mn  Mn3  1  0.500000  0.000000  0.500000  1
  Mn  Mn4  1  0.000168  0.500001  0.664898  1
  Mn  Mn5  1  0.500197  0.000000  0.831345  1
  Nb  Nb6  1  0.000000  0.000000  0.000000  1
  In  In7  1  0.499816  0.500001  0.167724  1
  In  In8  1  0.999739  0.000000  0.333612  1
  In  In9  1  0.500000  0.500001  0.500000  1
  In  In10  1  0.000263  0.000000  0.666387  1
  In  In11  1  0.500184  0.500001  0.832276  1
  Rh  Rh12  1  0.500000  0.238724  0.000000  1
  Rh  Rh13  1  0.500000  0.761275  0.000000  1
  Rh  Rh14  1  0.999793  0.243088  0.160040  1
  Rh  Rh15  1  0.999793  0.756912  0.160039  1
  Rh  Rh16  1  0.499792  0.249500  0.332805  1
  Rh  Rh17  1  0.499792  0.750500  0.332805  1
  Rh  Rh18  1  0.000000  0.249609  0.500000  1
  Rh  Rh19  1  0.000000  0.750391  0.500000  1
  Rh  Rh20  1  0.500210  0.249500  0.667195  1
  Rh  Rh21  1  0.500210  0.750500  0.667195  1
  Rh  Rh22  1  0.000207  0.243088  0.839960  1
  Rh  Rh23  1  0.000207  0.756912  0.839959  1
