# generated using pymatgen
data_K6InAg10Sn
_symmetry_space_group_name_H-M   'P 1'
_cell_length_a   11.29110993
_cell_length_b   11.29110947
_cell_length_c   11.29111043
_cell_angle_alpha   150.49497025
_cell_angle_beta   133.90628057
_cell_angle_gamma   55.68145994
_symmetry_Int_Tables_number   1
_chemical_formula_structural   K6InAg10Sn
_chemical_formula_sum   'K6 In1 Ag10 Sn1'
_cell_volume   507.56601850
_cell_formula_units_Z   1
loop_
 _symmetry_equiv_pos_site_id
 _symmetry_equiv_pos_as_xyz
  1  'x, y, z'
loop_
 _atom_site_type_symbol
 _atom_site_label
 _atom_site_symmetry_multiplicity
 _atom_site_fract_x
 _atom_site_fract_y
 _atom_site_fract_z
 _atom_site_occupancy
  K  K0  1  0.288662  0.911181  0.377481  1
  K  K1  1  0.033746  0.411228  0.622520  1
  K  K2  1  0.638120  0.250000  0.388120  1
  K  K3  1  0.361500  0.750000  0.611500  1
  K  K4  1  0.966302  0.588819  0.377481  1
  K  K5  1  0.711292  0.088772  0.622520  1
  In  In6  1  0.083026  0.250000  0.833026  1
  Ag  Ag7  1  0.000471  0.999879  0.000591  1
  Ag  Ag8  1  0.500712  0.500121  0.000591  1
  Ag  Ag9  1  0.684538  0.684585  0.499914  1
  Ag  Ag10  1  0.684538  0.184624  0.999953  1
  Ag  Ag11  1  0.817613  0.855762  0.961850  1
  Ag  Ag12  1  0.394564  0.356106  0.038458  1
  Ag  Ag13  1  0.606088  0.644238  0.961850  1
  Ag  Ag14  1  0.182352  0.143894  0.038458  1
  Ag  Ag15  1  0.315329  0.815415  0.999953  1
  Ag  Ag16  1  0.315329  0.315376  0.499914  1
  Sn  Sn17  1  0.915818  0.750000  0.165818  1
