# generated using pymatgen
data_Tb4PrSe7
_symmetry_space_group_name_H-M   'P 1'
_cell_length_a   7.04389798
_cell_length_b   7.04389781
_cell_length_c   12.31850134
_cell_angle_alpha   103.91366955
_cell_angle_beta   103.91367019
_cell_angle_gamma   33.19769993
_symmetry_Int_Tables_number   1
_chemical_formula_structural   Tb4PrSe7
_chemical_formula_sum   'Tb4 Pr1 Se7'
_cell_volume   323.94477103
_cell_formula_units_Z   1
loop_
 _symmetry_equiv_pos_site_id
 _symmetry_equiv_pos_as_xyz
  1  'x, y, z'
loop_
 _atom_site_type_symbol
 _atom_site_label
 _atom_site_symmetry_multiplicity
 _atom_site_fract_x
 _atom_site_fract_y
 _atom_site_fract_z
 _atom_site_occupancy
  Tb  Tb0  1  0.998505  0.998505  0.997517  1
  Tb  Tb1  1  0.112245  0.112245  0.425072  1
  Tb  Tb2  1  0.887510  0.887510  0.578667  1
  Tb  Tb3  1  0.700525  0.700525  0.813403  1
  Pr  Pr4  1  0.299503  0.299503  0.190476  1
  Se  Se5  1  0.656058  0.656058  0.045724  1
  Se  Se6  1  0.967157  0.967157  0.214970  1
  Se  Se7  1  0.739487  0.739487  0.356948  1
  Se  Se8  1  0.498230  0.498230  0.499513  1
  Se  Se9  1  0.259382  0.259382  0.648239  1
  Se  Se10  1  0.041344  0.041344  0.783406  1
  Se  Se11  1  0.340054  0.340054  0.946066  1
