# generated using pymatgen
data_Gd2Th(BN2)2
_symmetry_space_group_name_H-M   'P 1'
_cell_length_a   6.40836335
_cell_length_b   6.40836491
_cell_length_c   6.40836386
_cell_angle_alpha   148.47712856
_cell_angle_beta   122.02228480
_cell_angle_gamma   67.50016694
_symmetry_Int_Tables_number   1
_chemical_formula_structural   Gd2Th(BN2)2
_chemical_formula_sum   'Gd2 Th1 B2 N4'
_cell_volume   115.22536713
_cell_formula_units_Z   1
loop_
 _symmetry_equiv_pos_site_id
 _symmetry_equiv_pos_as_xyz
  1  'x, y, z'
loop_
 _atom_site_type_symbol
 _atom_site_label
 _atom_site_symmetry_multiplicity
 _atom_site_fract_x
 _atom_site_fract_y
 _atom_site_fract_z
 _atom_site_occupancy
  Gd  Gd0  1  0.698861  0.198861  0.500000  1
  Gd  Gd1  1  0.301139  0.801139  0.500000  1
  Th  Th2  1  0.000000  0.000000  0.000000  1
  B  B3  1  0.360436  0.500000  0.860436  1
  B  B4  1  0.639564  0.500000  0.139564  1
  N  N5  1  0.359803  0.620691  0.739112  1
  N  N6  1  0.881577  0.620691  0.260888  1
  N  N7  1  0.118423  0.379309  0.739112  1
  N  N8  1  0.640197  0.379309  0.260888  1
