# generated using pymatgen
data_Hf4Ni10PtRh
_symmetry_space_group_name_H-M   'P 1'
_cell_length_a   5.33508464
_cell_length_b   5.35112452
_cell_length_c   8.64287704
_cell_angle_alpha   90.00000042
_cell_angle_beta   90.24279627
_cell_angle_gamma   120.09950948
_symmetry_Int_Tables_number   1
_chemical_formula_structural   Hf4Ni10PtRh
_chemical_formula_sum   'Hf4 Ni10 Pt1 Rh1'
_cell_volume   213.46848894
_cell_formula_units_Z   1
loop_
 _symmetry_equiv_pos_site_id
 _symmetry_equiv_pos_as_xyz
  1  'x, y, z'
loop_
 _atom_site_type_symbol
 _atom_site_label
 _atom_site_symmetry_multiplicity
 _atom_site_fract_x
 _atom_site_fract_y
 _atom_site_fract_z
 _atom_site_occupancy
  Hf  Hf0  1  0.003872  0.001936  0.493647  1
  Hf  Hf1  1  0.663360  0.331679  0.749203  1
  Hf  Hf2  1  0.335058  0.667530  0.250939  1
  Hf  Hf3  1  0.004280  0.002140  0.006646  1
  Ni  Ni4  1  0.172173  0.345307  0.744873  1
  Ni  Ni5  1  0.820548  0.645720  0.254694  1
  Ni  Ni6  1  0.359293  0.179647  0.251456  1
  Ni  Ni7  1  0.499481  0.496237  0.004184  1
  Ni  Ni8  1  0.820548  0.174830  0.254694  1
  Ni  Ni9  1  0.499253  0.495795  0.495994  1
  Ni  Ni10  1  0.499253  0.003458  0.495994  1
  Ni  Ni11  1  0.172173  0.826865  0.744873  1
  Ni  Ni12  1  0.499481  0.003244  0.004184  1
  Ni  Ni13  1  0.000379  0.500190  0.498802  1
  Pt  Pt14  1  0.650417  0.825208  0.748913  1
  Rh  Rh15  1  0.000429  0.500215  0.000904  1
