# generated using pymatgen
data_Pa3Tc(Sb2Pt)2
_symmetry_space_group_name_H-M   'P 1'
_cell_length_a   8.42815623
_cell_length_b   8.42815617
_cell_length_c   8.42815701
_cell_angle_alpha   109.60231636
_cell_angle_beta   109.20935918
_cell_angle_gamma   109.60230444
_symmetry_Int_Tables_number   1
_chemical_formula_structural   Pa3Tc(Sb2Pt)2
_chemical_formula_sum   'Pa6 Tc2 Sb8 Pt4'
_cell_volume   460.86006038
_cell_formula_units_Z   2
loop_
 _symmetry_equiv_pos_site_id
 _symmetry_equiv_pos_as_xyz
  1  'x, y, z'
loop_
 _atom_site_type_symbol
 _atom_site_label
 _atom_site_symmetry_multiplicity
 _atom_site_fract_x
 _atom_site_fract_y
 _atom_site_fract_z
 _atom_site_occupancy
  Pa  Pa0  1  0.875000  0.250000  0.125000  1
  Pa  Pa1  1  0.625000  0.750000  0.375000  1
  Pa  Pa2  1  0.250000  0.122859  0.872859  1
  Pa  Pa3  1  0.750000  0.377141  0.627141  1
  Pa  Pa4  1  0.127141  0.877141  0.250000  1
  Pa  Pa5  1  0.372859  0.622859  0.750000  1
  Tc  Tc6  1  0.375000  0.250000  0.625000  1
  Tc  Tc7  1  0.125000  0.750000  0.875000  1
  Sb  Sb8  1  0.674059  0.496548  0.994997  1
  Sb  Sb9  1  0.498449  0.003452  0.677511  1
  Sb  Sb10  1  0.001551  0.679062  0.505003  1
  Sb  Sb11  1  0.825941  0.820938  0.822489  1
  Sb  Sb12  1  0.494997  0.996548  0.174059  1
  Sb  Sb13  1  0.177511  0.503452  0.998449  1
  Sb  Sb14  1  0.005003  0.179062  0.501551  1
  Sb  Sb15  1  0.322489  0.320938  0.325941  1
  Pt  Pt16  1  0.250000  0.624302  0.374302  1
  Pt  Pt17  1  0.750000  0.875698  0.125698  1
  Pt  Pt18  1  0.625698  0.375698  0.250000  1
  Pt  Pt19  1  0.874302  0.124302  0.750000  1
