# generated using pymatgen
data_SmPa(TcB4)2
_symmetry_space_group_name_H-M   'P 1'
_cell_length_a   3.65533200
_cell_length_b   5.99786266
_cell_length_c   11.60785228
_cell_angle_alpha   89.94617367
_cell_angle_beta   90.00000000
_cell_angle_gamma   90.00000000
_symmetry_Int_Tables_number   1
_chemical_formula_structural   SmPa(TcB4)2
_chemical_formula_sum   'Sm2 Pa2 Tc4 B16'
_cell_volume   254.49252260
_cell_formula_units_Z   2
loop_
 _symmetry_equiv_pos_site_id
 _symmetry_equiv_pos_as_xyz
  1  'x, y, z'
loop_
 _atom_site_type_symbol
 _atom_site_label
 _atom_site_symmetry_multiplicity
 _atom_site_fract_x
 _atom_site_fract_y
 _atom_site_fract_z
 _atom_site_occupancy
  Sm  Sm0  1  0.000000  0.625847  0.350813  1
  Sm  Sm1  1  0.000000  0.374153  0.649187  1
  Pa  Pa2  1  0.000000  0.127842  0.150753  1
  Pa  Pa3  1  0.000000  0.872158  0.849247  1
  Tc  Tc4  1  0.000000  0.640523  0.091328  1
  Tc  Tc5  1  0.000000  0.359477  0.908672  1
  Tc  Tc6  1  0.000000  0.131407  0.408969  1
  Tc  Tc7  1  0.000000  0.868593  0.591031  1
  B  B8  1  0.500000  0.788229  0.184504  1
  B  B9  1  0.500000  0.211771  0.815496  1
  B  B10  1  0.500000  0.284641  0.313452  1
  B  B11  1  0.500000  0.715359  0.686548  1
  B  B12  1  0.500000  0.865132  0.031122  1
  B  B13  1  0.500000  0.134868  0.968878  1
  B  B14  1  0.500000  0.361545  0.468073  1
  B  B15  1  0.500000  0.638455  0.531927  1
  B  B16  1  0.500000  0.888107  0.454276  1
  B  B17  1  0.500000  0.111893  0.545724  1
  B  B18  1  0.500000  0.387676  0.046036  1
  B  B19  1  0.500000  0.612324  0.953964  1
  B  B20  1  0.500000  0.978842  0.308240  1
  B  B21  1  0.500000  0.021158  0.691760  1
  B  B22  1  0.500000  0.471650  0.189967  1
  B  B23  1  0.500000  0.528350  0.810033  1
