# generated using pymatgen
data_Dy2HoAl12(OsRh)2
_symmetry_space_group_name_H-M   'P 1'
_cell_length_a   8.77284756
_cell_length_b   8.81818303
_cell_length_c   9.56465500
_cell_angle_alpha   90.00000000
_cell_angle_beta   90.00000000
_cell_angle_gamma   119.48987786
_symmetry_Int_Tables_number   1
_chemical_formula_structural   Dy2HoAl12(OsRh)2
_chemical_formula_sum   'Dy4 Ho2 Al24 Os4 Rh4'
_cell_volume   644.06422544
_cell_formula_units_Z   2
loop_
 _symmetry_equiv_pos_site_id
 _symmetry_equiv_pos_as_xyz
  1  'x, y, z'
loop_
 _atom_site_type_symbol
 _atom_site_label
 _atom_site_symmetry_multiplicity
 _atom_site_fract_x
 _atom_site_fract_y
 _atom_site_fract_z
 _atom_site_occupancy
  Dy  Dy0  1  0.190665  0.382434  0.250000  1
  Dy  Dy1  1  0.809335  0.617566  0.750000  1
  Dy  Dy2  1  0.614045  0.813448  0.250000  1
  Dy  Dy3  1  0.385955  0.186552  0.750000  1
  Ho  Ho4  1  0.199313  0.812648  0.250000  1
  Ho  Ho5  1  0.800687  0.187352  0.750000  1
  Al  Al6  1  0.333243  0.667541  0.025313  1
  Al  Al7  1  0.666757  0.332459  0.974687  1
  Al  Al8  1  0.666757  0.332459  0.525313  1
  Al  Al9  1  0.333243  0.667541  0.474687  1
  Al  Al10  1  0.162765  0.325528  0.577560  1
  Al  Al11  1  0.837235  0.674472  0.422440  1
  Al  Al12  1  0.672221  0.836721  0.576807  1
  Al  Al13  1  0.837235  0.674472  0.077560  1
  Al  Al14  1  0.327779  0.163279  0.423193  1
  Al  Al15  1  0.162765  0.325528  0.922440  1
  Al  Al16  1  0.164515  0.836442  0.576752  1
  Al  Al17  1  0.327779  0.163279  0.076807  1
  Al  Al18  1  0.835485  0.163558  0.423248  1
  Al  Al19  1  0.672221  0.836721  0.923193  1
  Al  Al20  1  0.835485  0.163558  0.076752  1
  Al  Al21  1  0.164515  0.836442  0.923248  1
  Al  Al22  1  0.563090  0.127409  0.250000  1
  Al  Al23  1  0.436910  0.872591  0.750000  1
  Al  Al24  1  0.878441  0.440717  0.250000  1
  Al  Al25  1  0.121559  0.559283  0.750000  1
  Al  Al26  1  0.562049  0.439953  0.250000  1
  Al  Al27  1  0.437951  0.560047  0.750000  1
  Al  Al28  1  0.001014  0.002069  0.250000  1
  Al  Al29  1  0.998986  0.997931  0.750000  1
  Os  Os30  1  0.500000  0.000000  0.000000  1
  Os  Os31  1  0.500000  0.000000  0.500000  1
  Os  Os32  1  0.000000  0.000000  0.000000  1
  Os  Os33  1  0.000000  0.000000  0.500000  1
  Rh  Rh34  1  0.000000  0.500000  0.000000  1
  Rh  Rh35  1  0.500000  0.500000  0.000000  1
  Rh  Rh36  1  0.000000  0.500000  0.500000  1
  Rh  Rh37  1  0.500000  0.500000  0.500000  1
