# generated using pymatgen
data_Tm2Be2FeRh5
_symmetry_space_group_name_H-M   'P 1'
_cell_length_a   9.55221900
_cell_length_b   9.55221900
_cell_length_c   3.20540100
_cell_angle_alpha   90.00000000
_cell_angle_beta   90.00000000
_cell_angle_gamma   90.00000000
_symmetry_Int_Tables_number   1
_chemical_formula_structural   Tm2Be2FeRh5
_chemical_formula_sum   'Tm4 Be4 Fe2 Rh10'
_cell_volume   292.47645468
_cell_formula_units_Z   2
loop_
 _symmetry_equiv_pos_site_id
 _symmetry_equiv_pos_as_xyz
  1  'x, y, z'
loop_
 _atom_site_type_symbol
 _atom_site_label
 _atom_site_symmetry_multiplicity
 _atom_site_fract_x
 _atom_site_fract_y
 _atom_site_fract_z
 _atom_site_occupancy
  Tm  Tm0  1  0.824509  0.324509  0.000000  1
  Tm  Tm1  1  0.324509  0.175491  0.000000  1
  Tm  Tm2  1  0.675491  0.824509  0.000000  1
  Tm  Tm3  1  0.175491  0.675491  0.000000  1
  Be  Be4  1  0.623309  0.123309  0.000000  1
  Be  Be5  1  0.123309  0.376691  0.000000  1
  Be  Be6  1  0.876691  0.623309  0.000000  1
  Be  Be7  1  0.376691  0.876691  0.000000  1
  Fe  Fe8  1  0.000000  0.000000  0.000000  1
  Fe  Fe9  1  0.500000  0.500000  0.000000  1
  Rh  Rh10  1  0.068586  0.209250  0.500000  1
  Rh  Rh11  1  0.209250  0.931414  0.500000  1
  Rh  Rh12  1  0.790750  0.068586  0.500000  1
  Rh  Rh13  1  0.931414  0.790750  0.500000  1
  Rh  Rh14  1  0.431414  0.709250  0.500000  1
  Rh  Rh15  1  0.568586  0.290750  0.500000  1
  Rh  Rh16  1  0.709250  0.568586  0.500000  1
  Rh  Rh17  1  0.290750  0.431414  0.500000  1
  Rh  Rh18  1  0.500000  0.000000  0.500000  1
  Rh  Rh19  1  0.000000  0.500000  0.500000  1
