# generated using pymatgen
data_Nb12Si4Os7RhC4
_symmetry_space_group_name_H-M   'P 1'
_cell_length_a   8.29100916
_cell_length_b   8.28586286
_cell_length_c   8.28086523
_cell_angle_alpha   59.94402511
_cell_angle_beta   59.98884347
_cell_angle_gamma   59.99760057
_symmetry_Int_Tables_number   1
_chemical_formula_structural   Nb12Si4Os7RhC4
_chemical_formula_sum   'Nb12 Si4 Os7 Rh1 C4'
_cell_volume   402.04746672
_cell_formula_units_Z   1
loop_
 _symmetry_equiv_pos_site_id
 _symmetry_equiv_pos_as_xyz
  1  'x, y, z'
loop_
 _atom_site_type_symbol
 _atom_site_label
 _atom_site_symmetry_multiplicity
 _atom_site_fract_x
 _atom_site_fract_y
 _atom_site_fract_z
 _atom_site_occupancy
  Nb  Nb0  1  0.553496  0.553501  0.945203  1
  Nb  Nb1  1  0.947795  0.947805  0.556478  1
  Nb  Nb2  1  0.695628  0.695619  0.302205  1
  Nb  Nb3  1  0.304347  0.695472  0.695832  1
  Nb  Nb4  1  0.695622  0.306553  0.302208  1
  Nb  Nb5  1  0.304344  0.304348  0.695843  1
  Nb  Nb6  1  0.547915  0.947808  0.556475  1
  Nb  Nb7  1  0.306546  0.695622  0.302204  1
  Nb  Nb8  1  0.947806  0.553495  0.945208  1
  Nb  Nb9  1  0.947795  0.547927  0.556480  1
  Nb  Nb10  1  0.695461  0.304346  0.695849  1
  Nb  Nb11  1  0.553501  0.947795  0.945199  1
  Si  Si12  1  0.124866  0.124877  0.625387  1
  Si  Si13  1  0.124863  0.626430  0.123847  1
  Si  Si14  1  0.626416  0.124858  0.123867  1
  Si  Si15  1  0.124861  0.124857  0.123862  1
  Os  Os16  1  0.247558  0.916824  0.918792  1
  Os  Os17  1  0.916820  0.247537  0.918822  1
  Os  Os18  1  0.333369  0.333375  0.332943  1
  Os  Os19  1  0.333367  0.000335  0.332930  1
  Os  Os20  1  0.332812  0.332840  0.001524  1
  Os  Os21  1  0.000294  0.333376  0.332953  1
  Os  Os22  1  0.916824  0.916823  0.918804  1
  Rh  Rh23  1  0.915534  0.915408  0.253584  1
  C  C24  1  0.625351  0.625343  0.123959  1
  C  C25  1  0.124897  0.625963  0.623182  1
  C  C26  1  0.625954  0.124905  0.623182  1
  C  C27  1  0.625955  0.625962  0.623181  1
