# generated using pymatgen
data_Li4Pr3ScSi8
_symmetry_space_group_name_H-M   'P 1'
_cell_length_a   3.85352500
_cell_length_b   7.66043841
_cell_length_c   10.38233997
_cell_angle_alpha   90.26514487
_cell_angle_beta   90.00000000
_cell_angle_gamma   90.00000000
_symmetry_Int_Tables_number   1
_chemical_formula_structural   Li4Pr3ScSi8
_chemical_formula_sum   'Li4 Pr3 Sc1 Si8'
_cell_volume   306.48018535
_cell_formula_units_Z   1
loop_
 _symmetry_equiv_pos_site_id
 _symmetry_equiv_pos_as_xyz
  1  'x, y, z'
loop_
 _atom_site_type_symbol
 _atom_site_label
 _atom_site_symmetry_multiplicity
 _atom_site_fract_x
 _atom_site_fract_y
 _atom_site_fract_z
 _atom_site_occupancy
  Li  Li0  1  0.250000  0.986384  0.391027  1
  Li  Li1  1  0.250000  0.495742  0.110896  1
  Li  Li2  1  0.750000  0.006475  0.604673  1
  Li  Li3  1  0.750000  0.505585  0.889701  1
  Pr  Pr4  1  0.250000  0.144742  0.865999  1
  Pr  Pr5  1  0.250000  0.638022  0.634073  1
  Pr  Pr6  1  0.750000  0.860900  0.137948  1
  Sc  Sc7  1  0.750000  0.369356  0.364809  1
  Si  Si8  1  0.250000  0.234009  0.556061  1
  Si  Si9  1  0.250000  0.726690  0.928996  1
  Si  Si10  1  0.750000  0.759849  0.427486  1
  Si  Si11  1  0.750000  0.281634  0.083187  1
  Si  Si12  1  0.250000  0.644847  0.323533  1
  Si  Si13  1  0.250000  0.170806  0.190004  1
  Si  Si14  1  0.750000  0.336476  0.669192  1
  Si  Si15  1  0.750000  0.838484  0.822414  1
