# generated using pymatgen
data_K4Ca(SiO3)3
_symmetry_space_group_name_H-M   'P 1'
_cell_length_a   7.15420834
_cell_length_b   7.15420831
_cell_length_c   11.00716600
_cell_angle_alpha   90.00000000
_cell_angle_beta   90.00000000
_cell_angle_gamma   112.82505620
_symmetry_Int_Tables_number   1
_chemical_formula_structural   K4Ca(SiO3)3
_chemical_formula_sum   'K8 Ca2 Si6 O18'
_cell_volume   519.26045714
_cell_formula_units_Z   2
loop_
 _symmetry_equiv_pos_site_id
 _symmetry_equiv_pos_as_xyz
  1  'x, y, z'
loop_
 _atom_site_type_symbol
 _atom_site_label
 _atom_site_symmetry_multiplicity
 _atom_site_fract_x
 _atom_site_fract_y
 _atom_site_fract_z
 _atom_site_occupancy
  K  K0  1  0.346253  0.764522  0.750000  1
  K  K1  1  0.933354  0.066646  0.000000  1
  K  K2  1  0.509914  0.490086  0.000000  1
  K  K3  1  0.235478  0.653747  0.250000  1
  K  K4  1  0.217798  0.221071  0.750000  1
  K  K5  1  0.509914  0.490086  0.500000  1
  K  K6  1  0.778929  0.782202  0.250000  1
  K  K7  1  0.933354  0.066646  0.500000  1
  Ca  Ca8  1  0.722643  0.246908  0.750000  1
  Ca  Ca9  1  0.753092  0.277357  0.250000  1
  Si  Si10  1  0.407658  0.981477  0.032429  1
  Si  Si11  1  0.018523  0.592342  0.967571  1
  Si  Si12  1  0.018523  0.592342  0.532429  1
  Si  Si13  1  0.259395  0.186065  0.250000  1
  Si  Si14  1  0.813935  0.740605  0.750000  1
  Si  Si15  1  0.407658  0.981477  0.467571  1
  O  O16  1  0.953954  0.747218  0.874527  1
  O  O17  1  0.011887  0.401064  0.612385  1
  O  O18  1  0.886739  0.544184  0.091834  1
  O  O19  1  0.252782  0.046046  0.125473  1
  O  O20  1  0.252782  0.046046  0.374527  1
  O  O21  1  0.265362  0.734638  0.000000  1
  O  O22  1  0.455816  0.113261  0.591834  1
  O  O23  1  0.455816  0.113261  0.908166  1
  O  O24  1  0.613154  0.531501  0.750000  1
  O  O25  1  0.265362  0.734638  0.500000  1
  O  O26  1  0.598936  0.988113  0.112385  1
  O  O27  1  0.049356  0.221178  0.250000  1
  O  O28  1  0.778822  0.950644  0.750000  1
  O  O29  1  0.468499  0.386846  0.250000  1
  O  O30  1  0.886739  0.544184  0.408166  1
  O  O31  1  0.011887  0.401064  0.887615  1
  O  O32  1  0.598936  0.988113  0.387615  1
  O  O33  1  0.953954  0.747218  0.625473  1
