# generated using pymatgen
data_CaY6IrCl12
_symmetry_space_group_name_H-M   'P 1'
_cell_length_a   8.89484146
_cell_length_b   8.89488547
_cell_length_c   8.89476386
_cell_angle_alpha   106.68159497
_cell_angle_beta   106.68145153
_cell_angle_gamma   106.68169463
_symmetry_Int_Tables_number   1
_chemical_formula_structural   CaY6IrCl12
_chemical_formula_sum   'Ca1 Y6 Ir1 Cl12'
_cell_volume   591.09933790
_cell_formula_units_Z   1
loop_
 _symmetry_equiv_pos_site_id
 _symmetry_equiv_pos_as_xyz
  1  'x, y, z'
loop_
 _atom_site_type_symbol
 _atom_site_label
 _atom_site_symmetry_multiplicity
 _atom_site_fract_x
 _atom_site_fract_y
 _atom_site_fract_z
 _atom_site_occupancy
  Ca  Ca0  1  0.500000  0.500000  0.500000  1
  Y  Y1  1  0.111295  0.322847  0.023952  1
  Y  Y2  1  0.322847  0.023953  0.111295  1
  Y  Y3  1  0.023952  0.111296  0.322847  1
  Y  Y4  1  0.976049  0.888704  0.677154  1
  Y  Y5  1  0.677153  0.976048  0.888705  1
  Y  Y6  1  0.888705  0.677153  0.976048  1
  Ir  Ir7  1  0.000000  0.000000  0.000000  1
  Cl  Cl8  1  0.214142  0.677925  0.072248  1
  Cl  Cl9  1  0.454001  0.373761  0.162322  1
  Cl  Cl10  1  0.677922  0.072247  0.214141  1
  Cl  Cl11  1  0.927755  0.785860  0.322078  1
  Cl  Cl12  1  0.162320  0.453998  0.373759  1
  Cl  Cl13  1  0.373759  0.162321  0.454000  1
  Cl  Cl14  1  0.626241  0.837679  0.546001  1
  Cl  Cl15  1  0.837681  0.546002  0.626241  1
  Cl  Cl16  1  0.072246  0.214140  0.677923  1
  Cl  Cl17  1  0.322079  0.927754  0.785859  1
  Cl  Cl18  1  0.545999  0.626239  0.837679  1
  Cl  Cl19  1  0.785858  0.322075  0.927752  1
