# generated using pymatgen
data_Tb2Y10AlCo4Sn
_symmetry_space_group_name_H-M   'P 1'
_cell_length_a   8.37244840
_cell_length_b   8.38756497
_cell_length_c   8.37244930
_cell_angle_alpha   111.86921505
_cell_angle_beta   109.31850178
_cell_angle_gamma   107.18666336
_symmetry_Int_Tables_number   1
_chemical_formula_structural   Tb2Y10AlCo4Sn
_chemical_formula_sum   'Tb2 Y10 Al1 Co4 Sn1'
_cell_volume   452.25422622
_cell_formula_units_Z   1
loop_
 _symmetry_equiv_pos_site_id
 _symmetry_equiv_pos_as_xyz
  1  'x, y, z'
loop_
 _atom_site_type_symbol
 _atom_site_label
 _atom_site_symmetry_multiplicity
 _atom_site_fract_x
 _atom_site_fract_y
 _atom_site_fract_z
 _atom_site_occupancy
  Tb  Tb0  1  0.323812  0.009753  0.685941  1
  Tb  Tb1  1  0.676188  0.990247  0.314059  1
  Y  Y2  1  0.434954  0.233724  0.201245  1
  Y  Y3  1  0.565046  0.766276  0.798755  1
  Y  Y4  1  0.032479  0.233724  0.798770  1
  Y  Y5  1  0.967521  0.766276  0.201230  1
  Y  Y6  1  0.181160  0.282056  0.462921  1
  Y  Y7  1  0.818840  0.717944  0.537079  1
  Y  Y8  1  0.180864  0.717944  0.899104  1
  Y  Y9  1  0.819136  0.282056  0.100896  1
  Y  Y10  1  0.323948  0.636463  0.312515  1
  Y  Y11  1  0.676052  0.363537  0.687485  1
  Al  Al12  1  0.000000  0.000000  0.000000  1
  Co  Co13  1  0.336551  0.000000  0.336551  1
  Co  Co14  1  0.663449  0.000000  0.663449  1
  Co  Co15  1  0.113247  0.613925  0.500678  1
  Co  Co16  1  0.886753  0.386075  0.499322  1
  Sn  Sn17  1  0.500000  0.500000  0.000000  1
