# generated using pymatgen
data_MnInSb12Os2Ru
_symmetry_space_group_name_H-M   'P 1'
_cell_length_a   8.19792104
_cell_length_b   8.19850102
_cell_length_c   8.20034646
_cell_angle_alpha   109.51544144
_cell_angle_beta   109.54812482
_cell_angle_gamma   109.54287033
_symmetry_Int_Tables_number   1
_chemical_formula_structural   MnInSb12Os2Ru
_chemical_formula_sum   'Mn1 In1 Sb12 Os2 Ru1'
_cell_volume   423.26359764
_cell_formula_units_Z   1
loop_
 _symmetry_equiv_pos_site_id
 _symmetry_equiv_pos_as_xyz
  1  'x, y, z'
loop_
 _atom_site_type_symbol
 _atom_site_label
 _atom_site_symmetry_multiplicity
 _atom_site_fract_x
 _atom_site_fract_y
 _atom_site_fract_z
 _atom_site_occupancy
  Mn  Mn0  1  0.500000  0.500000  0.500000  1
  In  In1  1  0.000000  0.000000  0.000000  1
  Sb  Sb2  1  0.847537  0.662153  0.503943  1
  Sb  Sb3  1  0.152463  0.337847  0.496057  1
  Sb  Sb4  1  0.156815  0.662228  0.820342  1
  Sb  Sb5  1  0.843185  0.337772  0.179658  1
  Sb  Sb6  1  0.662697  0.503803  0.847800  1
  Sb  Sb7  1  0.337303  0.496197  0.152200  1
  Sb  Sb8  1  0.662267  0.819297  0.156587  1
  Sb  Sb9  1  0.337733  0.180703  0.843413  1
  Sb  Sb10  1  0.503719  0.847473  0.662031  1
  Sb  Sb11  1  0.496281  0.152527  0.337969  1
  Sb  Sb12  1  0.179853  0.842390  0.337007  1
  Sb  Sb13  1  0.820147  0.157610  0.662993  1
  Os  Os14  1  0.500000  0.000000  0.000000  1
  Os  Os15  1  0.000000  0.000000  0.500000  1
  Ru  Ru16  1  0.000000  0.500000  0.000000  1
