# generated using pymatgen
data_Y5Er11(CoAg)4
_symmetry_space_group_name_H-M   'P 1'
_cell_length_a   9.36716848
_cell_length_b   9.36706923
_cell_length_c   9.36707007
_cell_angle_alpha   60.01331147
_cell_angle_beta   59.99965329
_cell_angle_gamma   59.99965919
_symmetry_Int_Tables_number   1
_chemical_formula_structural   Y5Er11(CoAg)4
_chemical_formula_sum   'Y5 Er11 Co4 Ag4'
_cell_volume   581.22227150
_cell_formula_units_Z   1
loop_
 _symmetry_equiv_pos_site_id
 _symmetry_equiv_pos_as_xyz
  1  'x, y, z'
loop_
 _atom_site_type_symbol
 _atom_site_label
 _atom_site_symmetry_multiplicity
 _atom_site_fract_x
 _atom_site_fract_y
 _atom_site_fract_z
 _atom_site_occupancy
  Y  Y0  1  0.561275  0.938725  0.938725  1
  Y  Y1  1  0.562057  0.938048  0.561323  1
  Y  Y2  1  0.938572  0.561323  0.938048  1
  Y  Y3  1  0.562057  0.561323  0.938048  1
  Y  Y4  1  0.938572  0.938048  0.561323  1
  Er  Er5  1  0.346966  0.348116  0.348116  1
  Er  Er6  1  0.347660  0.348060  0.956620  1
  Er  Er7  1  0.347660  0.956620  0.348060  1
  Er  Er8  1  0.956802  0.348116  0.348116  1
  Er  Er9  1  0.811609  0.188391  0.188391  1
  Er  Er10  1  0.188038  0.811962  0.811962  1
  Er  Er11  1  0.187692  0.811439  0.188718  1
  Er  Er12  1  0.812152  0.188718  0.811439  1
  Er  Er13  1  0.187692  0.188718  0.811439  1
  Er  Er14  1  0.812152  0.811439  0.188718  1
  Er  Er15  1  0.939036  0.560964  0.560964  1
  Co  Co16  1  0.141374  0.141246  0.141246  1
  Co  Co17  1  0.141065  0.141840  0.576030  1
  Co  Co18  1  0.141065  0.576030  0.141840  1
  Co  Co19  1  0.576134  0.141246  0.141246  1
  Ag  Ag20  1  0.581458  0.580442  0.580442  1
  Ag  Ag21  1  0.580627  0.580445  0.258301  1
  Ag  Ag22  1  0.580627  0.258301  0.580445  1
  Ag  Ag23  1  0.257659  0.580442  0.580442  1
