# generated using pymatgen
data_Er12Th4Mg3CdIr4
_symmetry_space_group_name_H-M   'P 1'
_cell_length_a   9.71369079
_cell_length_b   9.74438585
_cell_length_c   9.74438600
_cell_angle_alpha   59.99999949
_cell_angle_beta   59.89541305
_cell_angle_gamma   59.89541908
_symmetry_Int_Tables_number   1
_chemical_formula_structural   Er12Th4Mg3CdIr4
_chemical_formula_sum   'Er12 Th4 Mg3 Cd1 Ir4'
_cell_volume   651.16325960
_cell_formula_units_Z   1
loop_
 _symmetry_equiv_pos_site_id
 _symmetry_equiv_pos_as_xyz
  1  'x, y, z'
loop_
 _atom_site_type_symbol
 _atom_site_label
 _atom_site_symmetry_multiplicity
 _atom_site_fract_x
 _atom_site_fract_y
 _atom_site_fract_z
 _atom_site_occupancy
  Er  Er0  1  0.063068  0.436828  0.436828  1
  Er  Er1  1  0.437641  0.062588  0.062588  1
  Er  Er2  1  0.437641  0.062588  0.437183  1
  Er  Er3  1  0.063068  0.436828  0.063275  1
  Er  Er4  1  0.437641  0.437183  0.062588  1
  Er  Er5  1  0.063068  0.063275  0.436828  1
  Er  Er6  1  0.186119  0.815757  0.815757  1
  Er  Er7  1  0.816728  0.183303  0.183303  1
  Er  Er8  1  0.816728  0.183303  0.816665  1
  Er  Er9  1  0.186119  0.815757  0.182367  1
  Er  Er10  1  0.816728  0.816665  0.183303  1
  Er  Er11  1  0.186119  0.182367  0.815757  1
  Th  Th12  1  0.598805  0.598988  0.598988  1
  Th  Th13  1  0.598805  0.598988  0.203219  1
  Th  Th14  1  0.598805  0.203219  0.598988  1
  Th  Th15  1  0.203935  0.598688  0.598688  1
  Mg  Mg16  1  0.830024  0.831875  0.831875  1
  Mg  Mg17  1  0.830024  0.831875  0.506227  1
  Mg  Mg18  1  0.830024  0.506227  0.831875  1
  Cd  Cd19  1  0.500024  0.833325  0.833325  1
  Ir  Ir20  1  0.391991  0.392739  0.392739  1
  Ir  Ir21  1  0.391991  0.392739  0.822528  1
  Ir  Ir22  1  0.391991  0.822528  0.392739  1
  Ir  Ir23  1  0.822908  0.392363  0.392363  1
