# generated using pymatgen
data_Hf6MnGaTe
_symmetry_space_group_name_H-M   'P 1'
_cell_length_a   7.74897100
_cell_length_b   7.74897148
_cell_length_c   3.47665100
_cell_angle_alpha   90.00000000
_cell_angle_beta   90.00000000
_cell_angle_gamma   120.00000224
_symmetry_Int_Tables_number   1
_chemical_formula_structural   Hf6MnGaTe
_chemical_formula_sum   'Hf6 Mn1 Ga1 Te1'
_cell_volume   180.79225279
_cell_formula_units_Z   1
loop_
 _symmetry_equiv_pos_site_id
 _symmetry_equiv_pos_as_xyz
  1  'x, y, z'
loop_
 _atom_site_type_symbol
 _atom_site_label
 _atom_site_symmetry_multiplicity
 _atom_site_fract_x
 _atom_site_fract_y
 _atom_site_fract_z
 _atom_site_occupancy
  Hf  Hf0  1  0.399866  0.008343  0.000000  1
  Hf  Hf1  1  0.991657  0.391523  0.000000  1
  Hf  Hf2  1  0.608477  0.600135  0.000000  1
  Hf  Hf3  1  0.758331  0.006507  0.499999  1
  Hf  Hf4  1  0.248175  0.241668  0.499999  1
  Hf  Hf5  1  0.993493  0.751824  0.499999  1
  Mn  Mn6  1  0.000000  0.000000  0.000000  1
  Ga  Ga7  1  0.666666  0.333333  0.499999  1
  Te  Te8  1  0.333333  0.666667  0.499999  1
