# generated using pymatgen
data_NdYNi2(BO2)10
_symmetry_space_group_name_H-M   'P 1'
_cell_length_a   7.63233700
_cell_length_b   8.66963523
_cell_length_c   9.50827128
_cell_angle_alpha   93.54398162
_cell_angle_beta   90.00037640
_cell_angle_gamma   89.99963103
_symmetry_Int_Tables_number   1
_chemical_formula_structural   NdYNi2(BO2)10
_chemical_formula_sum   'Nd2 Y2 Ni4 B20 O40'
_cell_volume   627.95511990
_cell_formula_units_Z   2
loop_
 _symmetry_equiv_pos_site_id
 _symmetry_equiv_pos_as_xyz
  1  'x, y, z'
loop_
 _atom_site_type_symbol
 _atom_site_label
 _atom_site_symmetry_multiplicity
 _atom_site_fract_x
 _atom_site_fract_y
 _atom_site_fract_z
 _atom_site_occupancy
  Nd  Nd0  1  0.319182  0.680577  0.736401  1
  Nd  Nd1  1  0.819185  0.819415  0.763608  1
  Y  Y2  1  0.687512  0.314551  0.259833  1
  Y  Y3  1  0.187526  0.185481  0.240166  1
  Ni  Ni4  1  0.911678  0.898502  0.370846  1
  Ni  Ni5  1  0.411647  0.601530  0.129079  1
  Ni  Ni6  1  0.089639  0.102733  0.627242  1
  Ni  Ni7  1  0.589651  0.397220  0.872666  1
  B  B8  1  0.811927  0.566316  0.089032  1
  B  B9  1  0.311937  0.933692  0.410966  1
  B  B10  1  0.187039  0.431348  0.912799  1
  B  B11  1  0.687032  0.068639  0.587196  1
  B  B12  1  0.100241  0.657439  0.500934  1
  B  B13  1  0.600234  0.842584  0.999069  1
  B  B14  1  0.900444  0.340265  0.493159  1
  B  B15  1  0.400438  0.159719  0.006858  1
  B  B16  1  0.032638  0.778591  0.056592  1
  B  B17  1  0.532644  0.721411  0.443412  1
  B  B18  1  0.966130  0.221906  0.946048  1
  B  B19  1  0.466134  0.278088  0.553965  1
  B  B20  1  0.825327  0.018264  0.108114  1
  B  B21  1  0.325329  0.481752  0.391898  1
  B  B22  1  0.174570  0.984733  0.896645  1
  B  B23  1  0.674581  0.515259  0.603368  1
  B  B24  1  0.076796  0.584829  0.240720  1
  B  B25  1  0.576791  0.915188  0.259291  1
  B  B26  1  0.922912  0.411629  0.756392  1
  B  B27  1  0.422904  0.088352  0.743610  1
  O  O28  1  0.950458  0.261102  0.372983  1
  O  O29  1  0.450448  0.238892  0.127029  1
  O  O30  1  0.051818  0.738989  0.619626  1
  O  O31  1  0.551798  0.761037  0.880387  1
  O  O32  1  0.151484  0.007858  0.427132  1
  O  O33  1  0.651477  0.492140  0.072841  1
  O  O34  1  0.848594  0.997168  0.569353  1
  O  O35  1  0.348602  0.502802  0.930624  1
  O  O36  1  0.873876  0.682618  0.011129  1
  O  O37  1  0.373887  0.817388  0.488878  1
  O  O38  1  0.123503  0.317341  0.992056  1
  O  O39  1  0.623511  0.182651  0.507960  1
  O  O40  1  0.725843  0.957775  0.985872  1
  O  O41  1  0.225842  0.542245  0.514129  1
  O  O42  1  0.270988  0.047459  0.020646  1
  O  O43  1  0.770995  0.452530  0.479361  1
  O  O44  1  0.892511  0.174936  0.083300  1
  O  O45  1  0.392516  0.325080  0.416712  1
  O  O46  1  0.107012  0.827633  0.920830  1
  O  O47  1  0.607011  0.672358  0.579173  1
  O  O48  1  0.971407  0.914225  0.150182  1
  O  O49  1  0.471413  0.585784  0.349813  1
  O  O50  1  0.026852  0.085892  0.853000  1
  O  O51  1  0.526856  0.414092  0.647012  1
  O  O52  1  0.151425  0.682222  0.134765  1
  O  O53  1  0.651423  0.817786  0.365240  1
  O  O54  1  0.847673  0.315449  0.863621  1
  O  O55  1  0.347661  0.184530  0.636388  1
  O  O56  1  0.910170  0.511803  0.196845  1
  O  O57  1  0.410186  0.988208  0.303160  1
  O  O58  1  0.089470  0.483724  0.802849  1
  O  O59  1  0.589470  0.016268  0.697153  1
  O  O60  1  0.035478  0.686657  0.370548  1
  O  O61  1  0.535477  0.813367  0.129456  1
  O  O62  1  0.964948  0.311850  0.624586  1
  O  O63  1  0.464938  0.188121  0.875430  1
  O  O64  1  0.208905  0.463954  0.266797  1
  O  O65  1  0.708906  0.036061  0.233211  1
  O  O66  1  0.791557  0.531477  0.728261  1
  O  O67  1  0.291545  0.968510  0.771752  1
