# generated using pymatgen
data_TbDyTc5(PRh)7
_symmetry_space_group_name_H-M   'P 1'
_cell_length_a   3.94551000
_cell_length_b   9.47623313
_cell_length_c   9.50056309
_cell_angle_alpha   119.62665238
_cell_angle_beta   90.00012928
_cell_angle_gamma   90.00230610
_symmetry_Int_Tables_number   1
_chemical_formula_structural   TbDyTc5(PRh)7
_chemical_formula_sum   'Tb1 Dy1 Tc5 P7 Rh7'
_cell_volume   308.77381117
_cell_formula_units_Z   1
loop_
 _symmetry_equiv_pos_site_id
 _symmetry_equiv_pos_as_xyz
  1  'x, y, z'
loop_
 _atom_site_type_symbol
 _atom_site_label
 _atom_site_symmetry_multiplicity
 _atom_site_fract_x
 _atom_site_fract_y
 _atom_site_fract_z
 _atom_site_occupancy
  Tb  Tb0  1  0.262122  0.668742  0.333311  1
  Dy  Dy1  1  0.762271  0.333474  0.666564  1
  Tc  Tc2  1  0.761833  0.093648  0.870742  1
  Tc  Tc3  1  0.761744  0.127603  0.219307  1
  Tc  Tc4  1  0.761755  0.780451  0.906914  1
  Tc  Tc5  1  0.261790  0.885988  0.160024  1
  Tc  Tc6  1  0.261908  0.840819  0.726348  1
  P  P7  1  0.261147  0.996491  0.997667  1
  P  P8  1  0.761999  0.881565  0.599370  1
  P  P9  1  0.761907  0.402267  0.286823  1
  P  P10  1  0.761748  0.718672  0.120636  1
  P  P11  1  0.262242  0.115694  0.410431  1
  P  P12  1  0.262173  0.588100  0.704257  1
  P  P13  1  0.262117  0.294433  0.881536  1
  Rh  Rh14  1  0.261743  0.272252  0.112253  1
  Rh  Rh15  1  0.762022  0.608348  0.556683  1
  Rh  Rh16  1  0.761738  0.443289  0.055461  1
  Rh  Rh17  1  0.761990  0.947303  0.392211  1
  Rh  Rh18  1  0.261982  0.368605  0.435910  1
  Rh  Rh19  1  0.261755  0.562062  0.931860  1
  Rh  Rh20  1  0.262017  0.070194  0.631695  1
