# generated using pymatgen
data_NaSr4Sb2As
_symmetry_space_group_name_H-M   'P 1'
_cell_length_a   8.48191500
_cell_length_b   9.89786600
_cell_length_c   13.16258900
_cell_angle_alpha   90.00000000
_cell_angle_beta   90.00000000
_cell_angle_gamma   90.00000000
_symmetry_Int_Tables_number   1
_chemical_formula_structural   NaSr4Sb2As
_chemical_formula_sum   'Na4 Sr16 Sb8 As4'
_cell_volume   1105.03696646
_cell_formula_units_Z   4
loop_
 _symmetry_equiv_pos_site_id
 _symmetry_equiv_pos_as_xyz
  1  'x, y, z'
loop_
 _atom_site_type_symbol
 _atom_site_label
 _atom_site_symmetry_multiplicity
 _atom_site_fract_x
 _atom_site_fract_y
 _atom_site_fract_z
 _atom_site_occupancy
  Na  Na0  1  0.027970  0.750000  0.502297  1
  Na  Na1  1  0.972030  0.250000  0.497703  1
  Na  Na2  1  0.527970  0.250000  0.997703  1
  Na  Na3  1  0.472030  0.750000  0.002297  1
  Sr  Sr4  1  0.852950  0.750000  0.794459  1
  Sr  Sr5  1  0.147050  0.250000  0.205541  1
  Sr  Sr6  1  0.352950  0.250000  0.705541  1
  Sr  Sr7  1  0.647050  0.750000  0.294459  1
  Sr  Sr8  1  0.704374  0.511409  0.560785  1
  Sr  Sr9  1  0.295626  0.488591  0.439215  1
  Sr  Sr10  1  0.204374  0.488591  0.939215  1
  Sr  Sr11  1  0.295626  0.011409  0.439215  1
  Sr  Sr12  1  0.795626  0.511409  0.060785  1
  Sr  Sr13  1  0.704374  0.988591  0.560785  1
  Sr  Sr14  1  0.795626  0.988591  0.060785  1
  Sr  Sr15  1  0.204374  0.011409  0.939215  1
  Sr  Sr16  1  0.342022  0.750000  0.711513  1
  Sr  Sr17  1  0.657978  0.250000  0.288487  1
  Sr  Sr18  1  0.842022  0.250000  0.788487  1
  Sr  Sr19  1  0.157978  0.750000  0.211513  1
  Sb  Sb20  1  0.568131  0.503778  0.829402  1
  Sb  Sb21  1  0.431869  0.496222  0.170598  1
  Sb  Sb22  1  0.068131  0.496222  0.670598  1
  Sb  Sb23  1  0.431869  0.003778  0.170598  1
  Sb  Sb24  1  0.931869  0.503778  0.329402  1
  Sb  Sb25  1  0.568131  0.996222  0.829402  1
  Sb  Sb26  1  0.931869  0.996222  0.329402  1
  Sb  Sb27  1  0.068131  0.003778  0.670598  1
  As  As28  1  0.022767  0.750000  0.996581  1
  As  As29  1  0.977233  0.250000  0.003419  1
  As  As30  1  0.522767  0.250000  0.503419  1
  As  As31  1  0.477233  0.750000  0.496581  1
