# generated using pymatgen
data_ErUMnGe2Ru
_symmetry_space_group_name_H-M   'P 1'
_cell_length_a   4.46405500
_cell_length_b   6.90594589
_cell_length_c   7.11971154
_cell_angle_alpha   95.78482299
_cell_angle_beta   90.00000000
_cell_angle_gamma   90.00000000
_symmetry_Int_Tables_number   1
_chemical_formula_structural   ErUMnGe2Ru
_chemical_formula_sum   'Er2 U2 Mn2 Ge4 Ru2'
_cell_volume   218.37241931
_cell_formula_units_Z   2
loop_
 _symmetry_equiv_pos_site_id
 _symmetry_equiv_pos_as_xyz
  1  'x, y, z'
loop_
 _atom_site_type_symbol
 _atom_site_label
 _atom_site_symmetry_multiplicity
 _atom_site_fract_x
 _atom_site_fract_y
 _atom_site_fract_z
 _atom_site_occupancy
  Er  Er0  1  0.250000  0.981125  0.285665  1
  Er  Er1  1  0.750000  0.018875  0.714335  1
  U  U2  1  0.250000  0.478164  0.184938  1
  U  U3  1  0.750000  0.521836  0.815062  1
  Mn  Mn4  1  0.750000  0.740469  0.041116  1
  Mn  Mn5  1  0.250000  0.259531  0.958884  1
  Ge  Ge6  1  0.250000  0.815667  0.895448  1
  Ge  Ge7  1  0.750000  0.184333  0.104552  1
  Ge  Ge8  1  0.250000  0.287557  0.606699  1
  Ge  Ge9  1  0.750000  0.712443  0.393301  1
  Ru  Ru10  1  0.750000  0.348550  0.459428  1
  Ru  Ru11  1  0.250000  0.651450  0.540572  1
