# generated using pymatgen
data_HoLu5(Sc2Pb3)2
_symmetry_space_group_name_H-M   'P 1'
_cell_length_a   8.77638000
_cell_length_b   8.79480243
_cell_length_c   6.30028200
_cell_angle_alpha   90.00000000
_cell_angle_beta   90.00000000
_cell_angle_gamma   119.93073221
_symmetry_Int_Tables_number   1
_chemical_formula_structural   HoLu5(Sc2Pb3)2
_chemical_formula_sum   'Ho1 Lu5 Sc4 Pb6'
_cell_volume   421.43911061
_cell_formula_units_Z   1
loop_
 _symmetry_equiv_pos_site_id
 _symmetry_equiv_pos_as_xyz
  1  'x, y, z'
loop_
 _atom_site_type_symbol
 _atom_site_label
 _atom_site_symmetry_multiplicity
 _atom_site_fract_x
 _atom_site_fract_y
 _atom_site_fract_z
 _atom_site_occupancy
  Ho  Ho0  1  0.236395  0.000000  0.250000  1
  Lu  Lu1  1  0.236665  0.237143  0.750000  1
  Lu  Lu2  1  0.999522  0.762857  0.750000  1
  Lu  Lu3  1  0.999958  0.236833  0.250000  1
  Lu  Lu4  1  0.763125  0.763167  0.250000  1
  Lu  Lu5  1  0.764661  0.000000  0.750000  1
  Sc  Sc6  1  0.333812  0.667645  0.000640  1
  Sc  Sc7  1  0.666168  0.332355  0.499360  1
  Sc  Sc8  1  0.666168  0.332355  0.000640  1
  Sc  Sc9  1  0.333812  0.667645  0.499360  1
  Pb  Pb10  1  0.602317  0.000000  0.250000  1
  Pb  Pb11  1  0.601951  0.602209  0.750000  1
  Pb  Pb12  1  0.999742  0.397791  0.750000  1
  Pb  Pb13  1  0.998857  0.600032  0.250000  1
  Pb  Pb14  1  0.398824  0.399968  0.250000  1
  Pb  Pb15  1  0.398025  0.000000  0.750000  1
