# generated using pymatgen
data_Tb11Nd4Th(CdIr)4
_symmetry_space_group_name_H-M   'P 1'
_cell_length_a   9.76057883
_cell_length_b   9.75432702
_cell_length_c   9.75431631
_cell_angle_alpha   60.11149535
_cell_angle_beta   60.10268278
_cell_angle_gamma   60.10269265
_symmetry_Int_Tables_number   1
_chemical_formula_structural   Tb11Nd4Th(CdIr)4
_chemical_formula_sum   'Tb11 Nd4 Th1 Cd4 Ir4'
_cell_volume   658.25293706
_cell_formula_units_Z   1
loop_
 _symmetry_equiv_pos_site_id
 _symmetry_equiv_pos_as_xyz
  1  'x, y, z'
loop_
 _atom_site_type_symbol
 _atom_site_label
 _atom_site_symmetry_multiplicity
 _atom_site_fract_x
 _atom_site_fract_y
 _atom_site_fract_z
 _atom_site_occupancy
  Tb  Tb0  1  0.349077  0.350530  0.951955  1
  Tb  Tb1  1  0.349077  0.951954  0.350531  1
  Tb  Tb2  1  0.950654  0.349400  0.349400  1
  Tb  Tb3  1  0.813107  0.187220  0.187221  1
  Tb  Tb4  1  0.188228  0.811563  0.811564  1
  Tb  Tb5  1  0.188560  0.812167  0.188341  1
  Tb  Tb6  1  0.810837  0.187047  0.810632  1
  Tb  Tb7  1  0.188559  0.188341  0.812167  1
  Tb  Tb8  1  0.810838  0.810631  0.187047  1
  Tb  Tb9  1  0.942297  0.559087  0.559087  1
  Tb  Tb10  1  0.556198  0.944426  0.944426  1
  Nd  Nd11  1  0.563904  0.938860  0.563621  1
  Nd  Nd12  1  0.940287  0.560656  0.939170  1
  Nd  Nd13  1  0.563904  0.563621  0.938859  1
  Nd  Nd14  1  0.940287  0.939171  0.560656  1
  Th  Th15  1  0.346372  0.345299  0.345298  1
  Cd  Cd16  1  0.581282  0.578403  0.578403  1
  Cd  Cd17  1  0.579237  0.582988  0.257593  1
  Cd  Cd18  1  0.579237  0.257592  0.582988  1
  Cd  Cd19  1  0.258055  0.579741  0.579741  1
  Ir  Ir20  1  0.145406  0.140961  0.140961  1
  Ir  Ir21  1  0.140439  0.145472  0.573671  1
  Ir  Ir22  1  0.140440  0.573671  0.145472  1
  Ir  Ir23  1  0.573714  0.141197  0.141197  1
