# generated using pymatgen
data_TmLu15MgNi4Hg3
_symmetry_space_group_name_H-M   'P 1'
_cell_length_a   9.36826481
_cell_length_b   9.33029308
_cell_length_c   9.33029319
_cell_angle_alpha   59.99217655
_cell_angle_beta   60.11083769
_cell_angle_gamma   60.11083410
_symmetry_Int_Tables_number   1
_chemical_formula_structural   TmLu15MgNi4Hg3
_chemical_formula_sum   'Tm1 Lu15 Mg1 Ni4 Hg3'
_cell_volume   577.60973720
_cell_formula_units_Z   1
loop_
 _symmetry_equiv_pos_site_id
 _symmetry_equiv_pos_as_xyz
  1  'x, y, z'
loop_
 _atom_site_type_symbol
 _atom_site_label
 _atom_site_symmetry_multiplicity
 _atom_site_fract_x
 _atom_site_fract_y
 _atom_site_fract_z
 _atom_site_occupancy
  Tm  Tm0  1  0.597934  0.596398  0.596398  1
  Lu  Lu1  1  0.597842  0.596348  0.209335  1
  Lu  Lu2  1  0.597842  0.209335  0.596348  1
  Lu  Lu3  1  0.198283  0.600540  0.600540  1
  Lu  Lu4  1  0.058462  0.440258  0.440258  1
  Lu  Lu5  1  0.435708  0.062979  0.062979  1
  Lu  Lu6  1  0.435640  0.063080  0.438322  1
  Lu  Lu7  1  0.058364  0.440301  0.061066  1
  Lu  Lu8  1  0.435640  0.438322  0.063080  1
  Lu  Lu9  1  0.058364  0.061066  0.440301  1
  Lu  Lu10  1  0.185892  0.813574  0.813574  1
  Lu  Lu11  1  0.813438  0.186520  0.186520  1
  Lu  Lu12  1  0.813539  0.186460  0.813535  1
  Lu  Lu13  1  0.185961  0.813515  0.186968  1
  Lu  Lu14  1  0.813539  0.813535  0.186460  1
  Lu  Lu15  1  0.185961  0.186968  0.813515  1
  Mg  Mg16  1  0.534831  0.821802  0.821802  1
  Ni  Ni17  1  0.388204  0.394177  0.394177  1
  Ni  Ni18  1  0.388030  0.394009  0.823666  1
  Ni  Ni19  1  0.388030  0.823666  0.394009  1
  Ni  Ni20  1  0.824822  0.391658  0.391658  1
  Hg  Hg21  1  0.834487  0.836788  0.836788  1
  Hg  Hg22  1  0.834593  0.836859  0.491842  1
  Hg  Hg23  1  0.834593  0.491842  0.836859  1
