# generated using pymatgen
data_LaPr2InSn2Pt3
_symmetry_space_group_name_H-M   'P 1'
_cell_length_a   7.70203364
_cell_length_b   7.70777450
_cell_length_c   4.18645100
_cell_angle_alpha   90.00000000
_cell_angle_beta   90.00000000
_cell_angle_gamma   119.94843449
_symmetry_Int_Tables_number   1
_chemical_formula_structural   LaPr2InSn2Pt3
_chemical_formula_sum   'La1 Pr2 In1 Sn2 Pt3'
_cell_volume   215.34583905
_cell_formula_units_Z   1
loop_
 _symmetry_equiv_pos_site_id
 _symmetry_equiv_pos_as_xyz
  1  'x, y, z'
loop_
 _atom_site_type_symbol
 _atom_site_label
 _atom_site_symmetry_multiplicity
 _atom_site_fract_x
 _atom_site_fract_y
 _atom_site_fract_z
 _atom_site_occupancy
  La  La0  1  0.588609  0.587265  0.000000  1
  Pr  Pr1  1  0.409870  0.998421  0.000000  1
  Pr  Pr2  1  0.999854  0.413051  0.000000  1
  In  In3  1  0.001021  0.748659  0.500000  1
  Sn  Sn4  1  0.250730  0.248759  0.500000  1
  Sn  Sn5  1  0.748843  0.999156  0.500000  1
  Pt  Pt6  1  0.666189  0.332933  0.500000  1
  Pt  Pt7  1  0.000514  0.005505  0.000000  1
  Pt  Pt8  1  0.334371  0.666254  0.500000  1
