# generated using pymatgen
data_LaSmSn5Rh3
_symmetry_space_group_name_H-M   'P 1'
_cell_length_a   13.67465352
_cell_length_b   13.67465307
_cell_length_c   7.33721800
_cell_angle_alpha   90.00000000
_cell_angle_beta   90.00000000
_cell_angle_gamma   160.99111026
_symmetry_Int_Tables_number   1
_chemical_formula_structural   LaSmSn5Rh3
_chemical_formula_sum   'La2 Sm2 Sn10 Rh6'
_cell_volume   446.89102639
_cell_formula_units_Z   2
loop_
 _symmetry_equiv_pos_site_id
 _symmetry_equiv_pos_as_xyz
  1  'x, y, z'
loop_
 _atom_site_type_symbol
 _atom_site_label
 _atom_site_symmetry_multiplicity
 _atom_site_fract_x
 _atom_site_fract_y
 _atom_site_fract_z
 _atom_site_occupancy
  La  La0  1  0.172165  0.827835  0.753564  1
  La  La1  1  0.827835  0.172165  0.253564  1
  Sm  Sm2  1  0.475797  0.524203  0.738015  1
  Sm  Sm3  1  0.524203  0.475797  0.238015  1
  Sn  Sn4  1  0.880543  0.119457  0.732851  1
  Sn  Sn5  1  0.119457  0.880543  0.232851  1
  Sn  Sn6  1  0.704713  0.295287  0.051704  1
  Sn  Sn7  1  0.295287  0.704713  0.551704  1
  Sn  Sn8  1  0.594569  0.405431  0.614155  1
  Sn  Sn9  1  0.405431  0.594569  0.114155  1
  Sn  Sn10  1  0.952287  0.047713  0.399397  1
  Sn  Sn11  1  0.047713  0.952287  0.899397  1
  Sn  Sn12  1  0.289839  0.710161  0.972497  1
  Sn  Sn13  1  0.710161  0.289839  0.472497  1
  Rh  Rh14  1  0.050160  0.949840  0.519370  1
  Rh  Rh15  1  0.949840  0.050160  0.019370  1
  Rh  Rh16  1  0.778208  0.221792  0.761924  1
  Rh  Rh17  1  0.221792  0.778208  0.261924  1
  Rh  Rh18  1  0.394930  0.605070  0.484522  1
  Rh  Rh19  1  0.605070  0.394930  0.984522  1
