# generated using pymatgen
data_Li3Sc8CoRu4
_symmetry_space_group_name_H-M   'P 1'
_cell_length_a   6.46306500
_cell_length_b   4.60929300
_cell_length_c   9.20716300
_cell_angle_alpha   90.00000000
_cell_angle_beta   89.99776644
_cell_angle_gamma   90.00000000
_symmetry_Int_Tables_number   1
_chemical_formula_structural   Li3Sc8CoRu4
_chemical_formula_sum   'Li3 Sc8 Co1 Ru4'
_cell_volume   274.28286123
_cell_formula_units_Z   1
loop_
 _symmetry_equiv_pos_site_id
 _symmetry_equiv_pos_as_xyz
  1  'x, y, z'
loop_
 _atom_site_type_symbol
 _atom_site_label
 _atom_site_symmetry_multiplicity
 _atom_site_fract_x
 _atom_site_fract_y
 _atom_site_fract_z
 _atom_site_occupancy
  Li  Li0  1  0.750159  0.249999  0.124413  1
  Li  Li1  1  0.250157  0.749999  0.374931  1
  Li  Li2  1  0.749846  0.249999  0.625703  1
  Sc  Sc3  1  0.006808  0.749999  0.117847  1
  Sc  Sc4  1  0.493653  0.749999  0.117899  1
  Sc  Sc5  1  0.001440  0.249999  0.375009  1
  Sc  Sc6  1  0.498978  0.249999  0.375018  1
  Sc  Sc7  1  0.493199  0.749999  0.632128  1
  Sc  Sc8  1  0.006359  0.749999  0.632113  1
  Sc  Sc9  1  0.488436  0.249999  0.874997  1
  Sc  Sc10  1  0.011148  0.249999  0.875001  1
  Co  Co11  1  0.249850  0.749999  0.874996  1
  Ru  Ru12  1  0.250111  0.249999  0.125251  1
  Ru  Ru13  1  0.750140  0.749999  0.375039  1
  Ru  Ru14  1  0.249846  0.249999  0.624615  1
  Ru  Ru15  1  0.749873  0.749999  0.875037  1
