# generated using pymatgen
data_Cs2Nd10Fe2Br17
_symmetry_space_group_name_H-M   'P 1'
_cell_length_a   9.55608090
_cell_length_b   11.03679947
_cell_length_c   11.03684897
_cell_angle_alpha   107.06134819
_cell_angle_beta   93.47456902
_cell_angle_gamma   93.47515220
_symmetry_Int_Tables_number   1
_chemical_formula_structural   Cs2Nd10Fe2Br17
_chemical_formula_sum   'Cs2 Nd10 Fe2 Br17'
_cell_volume   1107.01172973
_cell_formula_units_Z   1
loop_
 _symmetry_equiv_pos_site_id
 _symmetry_equiv_pos_as_xyz
  1  'x, y, z'
loop_
 _atom_site_type_symbol
 _atom_site_label
 _atom_site_symmetry_multiplicity
 _atom_site_fract_x
 _atom_site_fract_y
 _atom_site_fract_z
 _atom_site_occupancy
  Cs  Cs0  1  0.000003  0.823879  0.176120  1
  Cs  Cs1  1  0.000001  0.176120  0.823879  1
  Nd  Nd2  1  0.440352  0.166618  0.166620  1
  Nd  Nd3  1  0.573252  0.505891  0.206494  1
  Nd  Nd4  1  0.823981  0.291930  0.291930  1
  Nd  Nd5  1  0.304295  0.431592  0.431593  1
  Nd  Nd6  1  0.426748  0.793525  0.494083  1
  Nd  Nd7  1  0.573253  0.206497  0.505894  1
  Nd  Nd8  1  0.695691  0.568391  0.568388  1
  Nd  Nd9  1  0.175990  0.708087  0.708089  1
  Nd  Nd10  1  0.426747  0.494082  0.793527  1
  Nd  Nd11  1  0.559662  0.833398  0.833396  1
  Fe  Fe12  1  0.569093  0.360092  0.360092  1
  Fe  Fe13  1  0.430913  0.639835  0.639837  1
  Br  Br14  1  0.577790  0.686330  0.021590  1
  Br  Br15  1  0.713929  0.067615  0.067615  1
  Br  Br16  1  0.855617  0.450420  0.118969  1
  Br  Br17  1  0.133740  0.207942  0.207941  1
  Br  Br18  1  0.285228  0.603498  0.256961  1
  Br  Br19  1  0.422220  0.978413  0.313678  1
  Br  Br20  1  0.714771  0.743043  0.396499  1
  Br  Br21  1  0.855618  0.118969  0.450419  1
  Br  Br22  1  0.000003  0.500012  0.500011  1
  Br  Br23  1  0.144373  0.881032  0.549585  1
  Br  Br24  1  0.285229  0.256960  0.603500  1
  Br  Br25  1  0.577789  0.021591  0.686328  1
  Br  Br26  1  0.714772  0.396505  0.743041  1
  Br  Br27  1  0.866260  0.792070  0.792069  1
  Br  Br28  1  0.144367  0.549581  0.881031  1
  Br  Br29  1  0.286094  0.932403  0.932402  1
  Br  Br30  1  0.422222  0.313679  0.978415  1
