# generated using pymatgen
data_CdOsI18
_symmetry_space_group_name_H-M   'P 1'
_cell_length_a   10.25398067
_cell_length_b   10.25398100
_cell_length_c   10.25398328
_cell_angle_alpha   96.24182405
_cell_angle_beta   96.24182330
_cell_angle_gamma   96.24182918
_symmetry_Int_Tables_number   1
_chemical_formula_structural   CdOsI18
_chemical_formula_sum   'Cd1 Os1 I18'
_cell_volume   1057.44426975
_cell_formula_units_Z   1
loop_
 _symmetry_equiv_pos_site_id
 _symmetry_equiv_pos_as_xyz
  1  'x, y, z'
loop_
 _atom_site_type_symbol
 _atom_site_label
 _atom_site_symmetry_multiplicity
 _atom_site_fract_x
 _atom_site_fract_y
 _atom_site_fract_z
 _atom_site_occupancy
  Cd  Cd0  1  0.000000  0.000000  0.000000  1
  Os  Os1  1  0.500000  0.500000  0.500000  1
  I  I2  1  0.731782  0.136257  0.603928  1
  I  I3  1  0.960765  0.021204  0.705900  1
  I  I4  1  0.603928  0.731782  0.136257  1
  I  I5  1  0.978796  0.294100  0.039235  1
  I  I6  1  0.705900  0.960765  0.021204  1
  I  I7  1  0.021204  0.705900  0.960765  1
  I  I8  1  0.039235  0.978796  0.294100  1
  I  I9  1  0.863743  0.396072  0.268218  1
  I  I10  1  0.294100  0.039235  0.978796  1
  I  I11  1  0.268218  0.863743  0.396072  1
  I  I12  1  0.136257  0.603928  0.731782  1
  I  I13  1  0.396072  0.268218  0.863743  1
  I  I14  1  0.764799  0.537157  0.503635  1
  I  I15  1  0.537157  0.503635  0.764799  1
  I  I16  1  0.235201  0.462843  0.496365  1
  I  I17  1  0.462843  0.496365  0.235201  1
  I  I18  1  0.503635  0.764799  0.537157  1
  I  I19  1  0.496365  0.235201  0.462843  1
