# generated using pymatgen
data_Er2Tm6Cd2RuPt
_symmetry_space_group_name_H-M   'P 1'
_cell_length_a   9.52794899
_cell_length_b   9.52673333
_cell_length_c   9.57389114
_cell_angle_alpha   59.84832550
_cell_angle_beta   59.83016550
_cell_angle_gamma   59.62589979
_symmetry_Int_Tables_number   1
_chemical_formula_structural   Er2Tm6Cd2RuPt
_chemical_formula_sum   'Er4 Tm12 Cd4 Ru2 Pt2'
_cell_volume   611.25214797
_cell_formula_units_Z   2
loop_
 _symmetry_equiv_pos_site_id
 _symmetry_equiv_pos_as_xyz
  1  'x, y, z'
loop_
 _atom_site_type_symbol
 _atom_site_label
 _atom_site_symmetry_multiplicity
 _atom_site_fract_x
 _atom_site_fract_y
 _atom_site_fract_z
 _atom_site_occupancy
  Er  Er0  1  0.559949  0.937023  0.566658  1
  Er  Er1  1  0.937032  0.559950  0.936397  1
  Er  Er2  1  0.564290  0.564286  0.935712  1
  Er  Er3  1  0.938335  0.938370  0.561634  1
  Tm  Tm4  1  0.349255  0.349404  0.352382  1
  Tm  Tm5  1  0.349405  0.349261  0.948952  1
  Tm  Tm6  1  0.347123  0.953256  0.349747  1
  Tm  Tm7  1  0.953271  0.347113  0.349886  1
  Tm  Tm8  1  0.815397  0.188036  0.189091  1
  Tm  Tm9  1  0.188040  0.815386  0.807472  1
  Tm  Tm10  1  0.188050  0.815399  0.189191  1
  Tm  Tm11  1  0.815416  0.188046  0.807358  1
  Tm  Tm12  1  0.187482  0.187490  0.812510  1
  Tm  Tm13  1  0.809331  0.809345  0.190655  1
  Tm  Tm14  1  0.937281  0.559552  0.566305  1
  Tm  Tm15  1  0.559538  0.937279  0.936880  1
  Cd  Cd16  1  0.579896  0.579563  0.581706  1
  Cd  Cd17  1  0.579577  0.579900  0.258820  1
  Cd  Cd18  1  0.580917  0.254989  0.582189  1
  Cd  Cd19  1  0.254979  0.580931  0.581903  1
  Ru  Ru20  1  0.143938  0.143792  0.139203  1
  Ru  Ru21  1  0.143804  0.143918  0.573068  1
  Pt  Pt22  1  0.144143  0.573566  0.141214  1
  Pt  Pt23  1  0.573551  0.144145  0.141065  1
