# generated using pymatgen
data_Ho4Tm8Co5Bi
_symmetry_space_group_name_H-M   'P 1'
_cell_length_a   8.20434487
_cell_length_b   8.20434522
_cell_length_c   8.20434415
_cell_angle_alpha   110.97048986
_cell_angle_beta   110.75311280
_cell_angle_gamma   106.72456198
_symmetry_Int_Tables_number   1
_chemical_formula_structural   Ho4Tm8Co5Bi
_chemical_formula_sum   'Ho4 Tm8 Co5 Bi1'
_cell_volume   424.38842341
_cell_formula_units_Z   1
loop_
 _symmetry_equiv_pos_site_id
 _symmetry_equiv_pos_as_xyz
  1  'x, y, z'
loop_
 _atom_site_type_symbol
 _atom_site_label
 _atom_site_symmetry_multiplicity
 _atom_site_fract_x
 _atom_site_fract_y
 _atom_site_fract_z
 _atom_site_occupancy
  Ho  Ho0  1  0.285334  0.183644  0.468978  1
  Ho  Ho1  1  0.714666  0.816356  0.531022  1
  Ho  Ho2  1  0.285334  0.816356  0.101690  1
  Ho  Ho3  1  0.714666  0.183644  0.898310  1
  Tm  Tm4  1  0.620633  0.311642  0.308991  1
  Tm  Tm5  1  0.379367  0.688358  0.691009  1
  Tm  Tm6  1  0.002651  0.311642  0.691009  1
  Tm  Tm7  1  0.997349  0.688358  0.308991  1
  Tm  Tm8  1  0.210143  0.405751  0.195609  1
  Tm  Tm9  1  0.789857  0.594249  0.804391  1
  Tm  Tm10  1  0.210143  0.014534  0.804391  1
  Tm  Tm11  1  0.789857  0.985466  0.195609  1
  Co  Co12  1  0.000000  0.374736  0.374736  1
  Co  Co13  1  0.000000  0.625264  0.625264  1
  Co  Co14  1  0.387612  0.887612  0.500000  1
  Co  Co15  1  0.612388  0.112388  0.500000  1
  Co  Co16  1  0.000000  0.000000  0.000000  1
  Bi  Bi17  1  0.500000  0.500000  0.000000  1
