# generated using pymatgen
data_Dy3Pa(CdPd2)2
_symmetry_space_group_name_H-M   'P 1'
_cell_length_a   7.75996436
_cell_length_b   7.75996436
_cell_length_c   3.70480800
_cell_angle_alpha   90.00000000
_cell_angle_beta   90.00000000
_cell_angle_gamma   91.60311582
_symmetry_Int_Tables_number   1
_chemical_formula_structural   Dy3Pa(CdPd2)2
_chemical_formula_sum   'Dy3 Pa1 Cd2 Pd4'
_cell_volume   223.00527740
_cell_formula_units_Z   1
loop_
 _symmetry_equiv_pos_site_id
 _symmetry_equiv_pos_as_xyz
  1  'x, y, z'
loop_
 _atom_site_type_symbol
 _atom_site_label
 _atom_site_symmetry_multiplicity
 _atom_site_fract_x
 _atom_site_fract_y
 _atom_site_fract_z
 _atom_site_occupancy
  Dy  Dy0  1  0.828420  0.669046  0.500000  1
  Dy  Dy1  1  0.169046  0.328420  0.500000  1
  Dy  Dy2  1  0.673517  0.173517  0.500000  1
  Pa  Pa3  1  0.331172  0.831172  0.500000  1
  Cd  Cd4  1  0.995856  0.999969  0.000000  1
  Cd  Cd5  1  0.499969  0.495856  0.000000  1
  Pd  Pd6  1  0.366777  0.119364  0.000000  1
  Pd  Pd7  1  0.875977  0.375977  0.000000  1
  Pd  Pd8  1  0.139902  0.639902  0.000000  1
  Pd  Pd9  1  0.619364  0.866777  0.000000  1
