# generated using pymatgen
data_PrNdPa(InPt)3
_symmetry_space_group_name_H-M   'P 1'
_cell_length_a   7.69487307
_cell_length_b   7.74533817
_cell_length_c   4.04008100
_cell_angle_alpha   90.00000000
_cell_angle_beta   90.00000000
_cell_angle_gamma   120.20136703
_symmetry_Int_Tables_number   1
_chemical_formula_structural   PrNdPa(InPt)3
_chemical_formula_sum   'Pr1 Nd1 Pa1 In3 Pt3'
_cell_volume   208.10271077
_cell_formula_units_Z   1
loop_
 _symmetry_equiv_pos_site_id
 _symmetry_equiv_pos_as_xyz
  1  'x, y, z'
loop_
 _atom_site_type_symbol
 _atom_site_label
 _atom_site_symmetry_multiplicity
 _atom_site_fract_x
 _atom_site_fract_y
 _atom_site_fract_z
 _atom_site_occupancy
  Pr  Pr0  1  0.592700  0.002312  0.500000  1
  Nd  Nd1  1  0.407148  0.409501  0.500000  1
  Pa  Pa2  1  0.999985  0.587806  0.500000  1
  In  In3  1  0.000404  0.242916  0.000000  1
  In  In4  1  0.262877  0.010111  0.000000  1
  In  In5  1  0.736880  0.746546  0.000000  1
  Pt  Pt6  1  0.000286  0.978299  0.500000  1
  Pt  Pt7  1  0.698103  0.360705  0.000000  1
  Pt  Pt8  1  0.301618  0.661803  0.000000  1
