# generated using pymatgen
data_HfNp(Ni2As)4
_symmetry_space_group_name_H-M   'P 1'
_cell_length_a   7.15952889
_cell_length_b   7.15952889
_cell_length_c   3.77196200
_cell_angle_alpha   90.00000000
_cell_angle_beta   90.00000000
_cell_angle_gamma   89.39164558
_symmetry_Int_Tables_number   1
_chemical_formula_structural   HfNp(Ni2As)4
_chemical_formula_sum   'Hf1 Np1 Ni8 As4'
_cell_volume   193.33555076
_cell_formula_units_Z   1
loop_
 _symmetry_equiv_pos_site_id
 _symmetry_equiv_pos_as_xyz
  1  'x, y, z'
loop_
 _atom_site_type_symbol
 _atom_site_label
 _atom_site_symmetry_multiplicity
 _atom_site_fract_x
 _atom_site_fract_y
 _atom_site_fract_z
 _atom_site_occupancy
  Hf  Hf0  1  0.000000  0.000000  0.500000  1
  Np  Np1  1  0.500000  0.500000  0.000000  1
  Ni  Ni2  1  0.592984  0.150785  0.500000  1
  Ni  Ni3  1  0.407016  0.849215  0.500000  1
  Ni  Ni4  1  0.088145  0.342660  0.000000  1
  Ni  Ni5  1  0.911855  0.657340  0.000000  1
  Ni  Ni6  1  0.150785  0.592984  0.500000  1
  Ni  Ni7  1  0.849215  0.407016  0.500000  1
  Ni  Ni8  1  0.342660  0.088145  0.000000  1
  Ni  Ni9  1  0.657340  0.911855  0.000000  1
  As  As10  1  0.721647  0.721647  0.500000  1
  As  As11  1  0.278353  0.278353  0.500000  1
  As  As12  1  0.211238  0.788762  0.000000  1
  As  As13  1  0.788762  0.211238  0.000000  1
