# generated using pymatgen
data_Mg2SiB2RuRh4
_symmetry_space_group_name_H-M   'P 1'
_cell_length_a   9.35200200
_cell_length_b   9.35200200
_cell_length_c   2.91039800
_cell_angle_alpha   90.00000000
_cell_angle_beta   90.00000000
_cell_angle_gamma   90.00000000
_symmetry_Int_Tables_number   1
_chemical_formula_structural   Mg2SiB2RuRh4
_chemical_formula_sum   'Mg4 Si2 B4 Ru2 Rh8'
_cell_volume   254.54323855
_cell_formula_units_Z   2
loop_
 _symmetry_equiv_pos_site_id
 _symmetry_equiv_pos_as_xyz
  1  'x, y, z'
loop_
 _atom_site_type_symbol
 _atom_site_label
 _atom_site_symmetry_multiplicity
 _atom_site_fract_x
 _atom_site_fract_y
 _atom_site_fract_z
 _atom_site_occupancy
  Mg  Mg0  1  0.326554  0.173446  0.000000  1
  Mg  Mg1  1  0.826554  0.326554  0.000000  1
  Mg  Mg2  1  0.173446  0.673445  0.000000  1
  Mg  Mg3  1  0.673445  0.826554  0.000000  1
  Si  Si4  1  0.000000  0.000000  0.000000  1
  Si  Si5  1  0.500000  0.500000  0.000000  1
  B  B6  1  0.621309  0.121309  0.000000  1
  B  B7  1  0.121309  0.378690  0.000000  1
  B  B8  1  0.878691  0.621309  0.000000  1
  B  B9  1  0.378690  0.878691  0.000000  1
  Ru  Ru10  1  0.500000  0.000000  0.500000  1
  Ru  Ru11  1  0.000000  0.500000  0.500000  1
  Rh  Rh12  1  0.791853  0.073762  0.500000  1
  Rh  Rh13  1  0.073762  0.208146  0.500000  1
  Rh  Rh14  1  0.573762  0.291854  0.500000  1
  Rh  Rh15  1  0.291854  0.426237  0.500000  1
  Rh  Rh16  1  0.708146  0.573762  0.500000  1
  Rh  Rh17  1  0.426237  0.708146  0.500000  1
  Rh  Rh18  1  0.926238  0.791853  0.500000  1
  Rh  Rh19  1  0.208146  0.926238  0.500000  1
