# generated using pymatgen
data_Ca7NbV2N9
_symmetry_space_group_name_H-M   'P 1'
_cell_length_a   6.13043566
_cell_length_b   10.07023000
_cell_length_c   9.10703144
_cell_angle_alpha   90.00000000
_cell_angle_beta   92.02461832
_cell_angle_gamma   90.00000000
_symmetry_Int_Tables_number   1
_chemical_formula_structural   Ca7NbV2N9
_chemical_formula_sum   'Ca14 Nb2 V4 N18'
_cell_volume   561.87067581
_cell_formula_units_Z   2
loop_
 _symmetry_equiv_pos_site_id
 _symmetry_equiv_pos_as_xyz
  1  'x, y, z'
loop_
 _atom_site_type_symbol
 _atom_site_label
 _atom_site_symmetry_multiplicity
 _atom_site_fract_x
 _atom_site_fract_y
 _atom_site_fract_z
 _atom_site_occupancy
  Ca  Ca0  1  0.068103  0.417341  0.170091  1
  Ca  Ca1  1  0.931897  0.917340  0.829909  1
  Ca  Ca2  1  0.931897  0.582660  0.829909  1
  Ca  Ca3  1  0.068103  0.082660  0.170091  1
  Ca  Ca4  1  0.245967  0.919178  0.510723  1
  Ca  Ca5  1  0.754033  0.419178  0.489277  1
  Ca  Ca6  1  0.754033  0.080822  0.489277  1
  Ca  Ca7  1  0.245967  0.580822  0.510723  1
  Ca  Ca8  1  0.576842  0.932312  0.159528  1
  Ca  Ca9  1  0.423158  0.432312  0.840472  1
  Ca  Ca10  1  0.423158  0.067688  0.840472  1
  Ca  Ca11  1  0.576842  0.567688  0.159528  1
  Ca  Ca12  1  0.909615  0.250000  0.796894  1
  Ca  Ca13  1  0.090385  0.750000  0.203106  1
  Nb  Nb14  1  0.278775  0.250000  0.563467  1
  Nb  Nb15  1  0.721225  0.750000  0.436533  1
  V  V16  1  0.456925  0.250000  0.276906  1
  V  V17  1  0.543075  0.750000  0.723094  1
  V  V18  1  0.675084  0.250000  0.063682  1
  V  V19  1  0.324916  0.750000  0.936318  1
  N  N20  1  0.115362  0.400936  0.658367  1
  N  N21  1  0.884638  0.900936  0.341633  1
  N  N22  1  0.884638  0.599064  0.341633  1
  N  N23  1  0.115362  0.099064  0.658367  1
  N  N24  1  0.232202  0.904161  0.020700  1
  N  N25  1  0.767798  0.404161  0.979300  1
  N  N26  1  0.767798  0.095839  0.979300  1
  N  N27  1  0.232202  0.595839  0.020700  1
  N  N28  1  0.365616  0.393898  0.374335  1
  N  N29  1  0.634384  0.893898  0.625665  1
  N  N30  1  0.634384  0.606102  0.625665  1
  N  N31  1  0.365616  0.106102  0.374335  1
  N  N32  1  0.357551  0.250000  0.069898  1
  N  N33  1  0.642449  0.750000  0.930102  1
  N  N34  1  0.554173  0.250000  0.668780  1
  N  N35  1  0.445827  0.750000  0.331220  1
  N  N36  1  0.774413  0.250000  0.269129  1
  N  N37  1  0.225587  0.750000  0.730871  1
