# generated using pymatgen
data_PrTh2(MgAu)3
_symmetry_space_group_name_H-M   'P 1'
_cell_length_a   7.79852418
_cell_length_b   7.79852306
_cell_length_c   4.22796800
_cell_angle_alpha   90.00000000
_cell_angle_beta   90.00000000
_cell_angle_gamma   120.67967616
_symmetry_Int_Tables_number   1
_chemical_formula_structural   PrTh2(MgAu)3
_chemical_formula_sum   'Pr1 Th2 Mg3 Au3'
_cell_volume   221.14226372
_cell_formula_units_Z   1
loop_
 _symmetry_equiv_pos_site_id
 _symmetry_equiv_pos_as_xyz
  1  'x, y, z'
loop_
 _atom_site_type_symbol
 _atom_site_label
 _atom_site_symmetry_multiplicity
 _atom_site_fract_x
 _atom_site_fract_y
 _atom_site_fract_z
 _atom_site_occupancy
  Pr  Pr0  1  0.413766  0.413766  0.000000  1
  Th  Th1  1  0.586549  0.000965  0.000000  1
  Th  Th2  1  0.000965  0.586549  0.000000  1
  Mg  Mg3  1  0.241652  0.002430  0.500000  1
  Mg  Mg4  1  0.002430  0.241652  0.500000  1
  Mg  Mg5  1  0.756075  0.756075  0.500000  1
  Au  Au6  1  0.331957  0.673248  0.500000  1
  Au  Au7  1  0.673248  0.331957  0.500000  1
  Au  Au8  1  0.993359  0.993359  0.000000  1
