# generated using pymatgen
data_Np3As2Se
_symmetry_space_group_name_H-M   'P 1'
_cell_length_a   7.18755702
_cell_length_b   7.18755738
_cell_length_c   7.18755854
_cell_angle_alpha   146.83074731
_cell_angle_beta   132.18051431
_cell_angle_gamma   59.43425394
_symmetry_Int_Tables_number   1
_chemical_formula_structural   Np3As2Se
_chemical_formula_sum   'Np3 As2 Se1'
_cell_volume   149.22460287
_cell_formula_units_Z   1
loop_
 _symmetry_equiv_pos_site_id
 _symmetry_equiv_pos_as_xyz
  1  'x, y, z'
loop_
 _atom_site_type_symbol
 _atom_site_label
 _atom_site_symmetry_multiplicity
 _atom_site_fract_x
 _atom_site_fract_y
 _atom_site_fract_z
 _atom_site_occupancy
  Np  Np0  1  0.000000  0.000000  0.000000  1
  Np  Np1  1  0.668430  0.668430  0.000000  1
  Np  Np2  1  0.331570  0.331570  0.000000  1
  As  As3  1  0.164977  0.664977  0.500000  1
  As  As4  1  0.835023  0.335023  0.500000  1
  Se  Se5  1  0.500000  0.000000  0.500000  1
