# generated using pymatgen
data_GaPb4W3O13
_symmetry_space_group_name_H-M   'P 1'
_cell_length_a   7.43228284
_cell_length_b   7.43292179
_cell_length_c   7.43170441
_cell_angle_alpha   61.25712689
_cell_angle_beta   61.25498244
_cell_angle_gamma   61.25498480
_symmetry_Int_Tables_number   1
_chemical_formula_structural   GaPb4W3O13
_chemical_formula_sum   'Ga1 Pb4 W3 O13'
_cell_volume   298.50227333
_cell_formula_units_Z   1
loop_
 _symmetry_equiv_pos_site_id
 _symmetry_equiv_pos_as_xyz
  1  'x, y, z'
loop_
 _atom_site_type_symbol
 _atom_site_label
 _atom_site_symmetry_multiplicity
 _atom_site_fract_x
 _atom_site_fract_y
 _atom_site_fract_z
 _atom_site_occupancy
  Ga  Ga0  1  0.499897  0.499982  0.499945  1
  Pb  Pb1  1  0.996731  0.996816  0.996694  1
  Pb  Pb2  1  0.502016  0.999191  0.999210  1
  Pb  Pb3  1  0.999186  0.999146  0.502072  1
  Pb  Pb4  1  0.999176  0.501987  0.999209  1
  W  W5  1  0.000929  0.499791  0.499811  1
  W  W6  1  0.499787  0.499876  0.000949  1
  W  W7  1  0.499777  0.000942  0.499810  1
  O  O8  1  0.821472  0.431721  0.431627  1
  O  O9  1  0.423903  0.824980  0.824993  1
  O  O10  1  0.431705  0.431645  0.821448  1
  O  O11  1  0.825044  0.825025  0.423839  1
  O  O12  1  0.824975  0.423902  0.824978  1
  O  O13  1  0.431699  0.821485  0.431738  1
  O  O14  1  0.181380  0.565724  0.565712  1
  O  O15  1  0.573757  0.177973  0.177911  1
  O  O16  1  0.565730  0.565680  0.181395  1
  O  O17  1  0.177937  0.177990  0.573859  1
  O  O18  1  0.177934  0.573777  0.177922  1
  O  O19  1  0.565799  0.181355  0.565718  1
  O  O20  1  0.126168  0.126015  0.126161  1
