# generated using pymatgen
data_KS23
_symmetry_space_group_name_H-M   'P 1'
_cell_length_a   5.56105905
_cell_length_b   9.53370481
_cell_length_c   15.50002100
_cell_angle_alpha   90.71283024
_cell_angle_beta   79.22882771
_cell_angle_gamma   98.13659550
_symmetry_Int_Tables_number   1
_chemical_formula_structural   KS23
_chemical_formula_sum   'K1 S23'
_cell_volume   799.08423055
_cell_formula_units_Z   1
loop_
 _symmetry_equiv_pos_site_id
 _symmetry_equiv_pos_as_xyz
  1  'x, y, z'
loop_
 _atom_site_type_symbol
 _atom_site_label
 _atom_site_symmetry_multiplicity
 _atom_site_fract_x
 _atom_site_fract_y
 _atom_site_fract_z
 _atom_site_occupancy
  K  K0  1  0.440483  0.191570  0.402640  1
  S  S1  1  0.517578  0.790511  0.388790  1
  S  S2  1  0.019974  0.305270  0.112198  1
  S  S3  1  0.870580  0.269910  0.522555  1
  S  S4  1  0.301585  0.752734  0.512217  1
  S  S5  1  0.213537  0.273196  0.988084  1
  S  S6  1  0.786282  0.724019  0.012097  1
  S  S7  1  0.109780  0.415330  0.352735  1
  S  S8  1  0.669522  0.607634  0.350241  1
  S  S9  1  0.805950  0.115793  0.158128  1
  S  S10  1  0.206680  0.878640  0.125044  1
  S  S11  1  0.710286  0.648527  0.624830  1
  S  S12  1  0.326961  0.345035  0.634613  1
  S  S13  1  0.206946  0.889264  0.850150  1
  S  S14  1  0.797946  0.117151  0.873423  1
  S  S15  1  0.987330  0.690953  0.107289  1
  S  S16  1  0.512730  0.810532  0.607201  1
  S  S17  1  0.560483  0.187995  0.605680  1
  S  S18  1  0.997155  0.696980  0.889982  1
  S  S19  1  0.007271  0.307016  0.894446  1
  S  S20  1  0.436827  0.486031  0.276001  1
  S  S21  1  0.011245  0.996306  0.219005  1
  S  S22  1  0.492422  0.496622  0.709973  1
  S  S23  1  0.010445  0.002980  0.782678  1
