# generated using pymatgen
data_La3Pr2Th2P12Pd17
_symmetry_space_group_name_H-M   'P 1'
_cell_length_a   12.43812684
_cell_length_b   12.43812830
_cell_length_c   13.70305933
_cell_angle_alpha   68.58384160
_cell_angle_beta   68.58383960
_cell_angle_gamma   19.06248997
_symmetry_Int_Tables_number   1
_chemical_formula_structural   La3Pr2Th2P12Pd17
_chemical_formula_sum   'La3 Pr2 Th2 P12 Pd17'
_cell_volume   643.17116114
_cell_formula_units_Z   1
loop_
 _symmetry_equiv_pos_site_id
 _symmetry_equiv_pos_as_xyz
  1  'x, y, z'
loop_
 _atom_site_type_symbol
 _atom_site_label
 _atom_site_symmetry_multiplicity
 _atom_site_fract_x
 _atom_site_fract_y
 _atom_site_fract_z
 _atom_site_occupancy
  La  La0  1  0.767142  0.767142  0.686608  1
  La  La1  1  0.418070  0.418070  0.262478  1
  La  La2  1  0.582334  0.582334  0.737167  1
  Pr  Pr3  1  0.635301  0.635301  0.000380  1
  Pr  Pr4  1  0.233131  0.233131  0.314130  1
  Th  Th5  1  0.500049  0.500049  0.499538  1
  Th  Th6  1  0.364380  0.364380  0.000805  1
  P  P7  1  0.060693  0.060693  0.926419  1
  P  P8  1  0.938772  0.938772  0.073893  1
  P  P9  1  0.885208  0.885208  0.829356  1
  P  P10  1  0.113947  0.113947  0.172355  1
  P  P11  1  0.188365  0.188365  0.618579  1
  P  P12  1  0.811403  0.811403  0.380289  1
  P  P13  1  0.366600  0.366600  0.577656  1
  P  P14  1  0.634281  0.634281  0.421266  1
  P  P15  1  0.010239  0.010239  0.666113  1
  P  P16  1  0.989932  0.989932  0.333395  1
  P  P17  1  0.233501  0.233501  0.883604  1
  P  P18  1  0.766376  0.766376  0.115743  1
  Pd  Pd19  1  0.838434  0.838434  0.192743  1
  Pd  Pd20  1  0.161144  0.161144  0.806874  1
  Pd  Pd21  1  0.026624  0.026624  0.124412  1
  Pd  Pd22  1  0.973056  0.973056  0.875680  1
  Pd  Pd23  1  0.890452  0.890452  0.458996  1
  Pd  Pd24  1  0.109638  0.109638  0.541050  1
  Pd  Pd25  1  0.498855  0.498855  0.999757  1
  Pd  Pd26  1  0.546762  0.546762  0.253999  1
  Pd  Pd27  1  0.454017  0.454017  0.746492  1
  Pd  Pd28  1  0.297010  0.297010  0.486132  1
  Pd  Pd29  1  0.703634  0.703634  0.512185  1
  Pd  Pd30  1  0.665600  0.665600  0.224944  1
  Pd  Pd31  1  0.335388  0.335388  0.776590  1
  Pd  Pd32  1  0.908643  0.908643  0.643623  1
  Pd  Pd33  1  0.091723  0.091723  0.356500  1
  Pd  Pd34  1  0.218258  0.218258  0.072142  1
  Pd  Pd35  1  0.781038  0.781038  0.928107  1
