# generated using pymatgen
data_Cr20Co(RhC3)2
_symmetry_space_group_name_H-M   'P 1'
_cell_length_a   7.49431770
_cell_length_b   7.49431659
_cell_length_c   7.49431800
_cell_angle_alpha   60.00000260
_cell_angle_beta   60.00000749
_cell_angle_gamma   60.00000266
_symmetry_Int_Tables_number   1
_chemical_formula_structural   Cr20Co(RhC3)2
_chemical_formula_sum   'Cr20 Co1 Rh2 C6'
_cell_volume   297.63314701
_cell_formula_units_Z   1
loop_
 _symmetry_equiv_pos_site_id
 _symmetry_equiv_pos_as_xyz
  1  'x, y, z'
loop_
 _atom_site_type_symbol
 _atom_site_label
 _atom_site_symmetry_multiplicity
 _atom_site_fract_x
 _atom_site_fract_y
 _atom_site_fract_z
 _atom_site_occupancy
  Cr  Cr0  1  0.615566  0.615566  0.153301  1
  Cr  Cr1  1  0.615566  0.153301  0.615566  1
  Cr  Cr2  1  0.153301  0.615566  0.615566  1
  Cr  Cr3  1  0.615566  0.615566  0.615566  1
  Cr  Cr4  1  0.384434  0.384434  0.846699  1
  Cr  Cr5  1  0.384434  0.846699  0.384434  1
  Cr  Cr6  1  0.846699  0.384434  0.384434  1
  Cr  Cr7  1  0.384434  0.384434  0.384434  1
  Cr  Cr8  1  0.000000  0.000000  0.331936  1
  Cr  Cr9  1  0.668064  0.000000  0.331936  1
  Cr  Cr10  1  0.000000  0.668064  0.331936  1
  Cr  Cr11  1  0.668064  0.331936  0.000000  1
  Cr  Cr12  1  0.000000  0.331936  0.000000  1
  Cr  Cr13  1  0.000000  0.331936  0.668064  1
  Cr  Cr14  1  0.331936  0.668064  0.000000  1
  Cr  Cr15  1  0.331936  0.000000  0.668064  1
  Cr  Cr16  1  0.331936  0.000000  0.000000  1
  Cr  Cr17  1  0.000000  0.000000  0.668064  1
  Cr  Cr18  1  0.000000  0.668064  0.000000  1
  Cr  Cr19  1  0.668064  0.000000  0.000000  1
  Co  Co20  1  0.000000  0.000000  0.000000  1
  Rh  Rh21  1  0.750000  0.750000  0.750000  1
  Rh  Rh22  1  0.250000  0.250000  0.250000  1
  C  C23  1  0.722708  0.722708  0.277292  1
  C  C24  1  0.277292  0.722708  0.277292  1
  C  C25  1  0.722708  0.277292  0.277292  1
  C  C26  1  0.277292  0.277292  0.722708  1
  C  C27  1  0.722708  0.277292  0.722708  1
  C  C28  1  0.277292  0.722708  0.722708  1
