# generated using pymatgen
data_HfZr5Al8Si8Ir7
_symmetry_space_group_name_H-M   'P 1'
_cell_length_a   8.60132238
_cell_length_b   8.60132222
_cell_length_c   8.59609800
_cell_angle_alpha   60.02008972
_cell_angle_beta   60.02009034
_cell_angle_gamma   59.95981825
_symmetry_Int_Tables_number   1
_chemical_formula_structural   HfZr5Al8Si8Ir7
_chemical_formula_sum   'Hf1 Zr5 Al8 Si8 Ir7'
_cell_volume   449.69336190
_cell_formula_units_Z   1
loop_
 _symmetry_equiv_pos_site_id
 _symmetry_equiv_pos_as_xyz
  1  'x, y, z'
loop_
 _atom_site_type_symbol
 _atom_site_label
 _atom_site_symmetry_multiplicity
 _atom_site_fract_x
 _atom_site_fract_y
 _atom_site_fract_z
 _atom_site_occupancy
  Hf  Hf0  1  0.691362  0.691362  0.308638  1
  Zr  Zr1  1  0.694070  0.306384  0.305930  1
  Zr  Zr2  1  0.306384  0.694070  0.693616  1
  Zr  Zr3  1  0.306384  0.694070  0.305930  1
  Zr  Zr4  1  0.694070  0.306384  0.693616  1
  Zr  Zr5  1  0.305265  0.305265  0.694735  1
  Al  Al6  1  0.120391  0.120391  0.120428  1
  Al  Al7  1  0.879687  0.879687  0.880491  1
  Al  Al8  1  0.120391  0.120391  0.638791  1
  Al  Al9  1  0.119509  0.639865  0.120313  1
  Al  Al10  1  0.879687  0.879687  0.360135  1
  Al  Al11  1  0.879572  0.361209  0.879609  1
  Al  Al12  1  0.639865  0.119509  0.120313  1
  Al  Al13  1  0.361209  0.879572  0.879609  1
  Si  Si14  1  0.342206  0.342206  0.341862  1
  Si  Si15  1  0.657882  0.657882  0.657579  1
  Si  Si16  1  0.342206  0.342206  0.973726  1
  Si  Si17  1  0.342421  0.973343  0.342118  1
  Si  Si18  1  0.657882  0.657882  0.026657  1
  Si  Si19  1  0.658138  0.026274  0.657794  1
  Si  Si20  1  0.973343  0.342421  0.342118  1
  Si  Si21  1  0.026274  0.658138  0.657794  1
  Ir  Ir22  1  0.501093  0.999172  0.000828  1
  Ir  Ir23  1  0.999172  0.501093  0.498907  1
  Ir  Ir24  1  0.999172  0.501093  0.000828  1
  Ir  Ir25  1  0.501093  0.999172  0.498907  1
  Ir  Ir26  1  0.000268  0.000268  0.499732  1
  Ir  Ir27  1  0.500268  0.500268  0.999732  1
  Ir  Ir28  1  0.000737  0.000737  0.999263  1
