# generated using pymatgen
data_LiAc2Zn25
_symmetry_space_group_name_H-M   'P 1'
_cell_length_a   8.68921841
_cell_length_b   8.68921894
_cell_length_c   8.68922000
_cell_angle_alpha   60.00000357
_cell_angle_beta   60.00000156
_cell_angle_gamma   60.00000525
_symmetry_Int_Tables_number   1
_chemical_formula_structural   LiAc2Zn25
_chemical_formula_sum   'Li1 Ac2 Zn25'
_cell_volume   463.90310908
_cell_formula_units_Z   1
loop_
 _symmetry_equiv_pos_site_id
 _symmetry_equiv_pos_as_xyz
  1  'x, y, z'
loop_
 _atom_site_type_symbol
 _atom_site_label
 _atom_site_symmetry_multiplicity
 _atom_site_fract_x
 _atom_site_fract_y
 _atom_site_fract_z
 _atom_site_occupancy
  Li  Li0  1  0.500000  0.500000  0.500000  1
  Ac  Ac1  1  0.250000  0.250000  0.250000  1
  Ac  Ac2  1  0.750000  0.750000  0.750000  1
  Zn  Zn3  1  0.000000  0.000000  0.000000  1
  Zn  Zn4  1  0.797397  0.558540  0.202603  1
  Zn  Zn5  1  0.202603  0.441460  0.797397  1
  Zn  Zn6  1  0.558540  0.797397  0.441460  1
  Zn  Zn7  1  0.441460  0.202603  0.558540  1
  Zn  Zn8  1  0.301051  0.943010  0.698949  1
  Zn  Zn9  1  0.698949  0.056990  0.301051  1
  Zn  Zn10  1  0.943010  0.301051  0.056990  1
  Zn  Zn11  1  0.056990  0.698949  0.943010  1
  Zn  Zn12  1  0.202603  0.797397  0.558540  1
  Zn  Zn13  1  0.797397  0.202603  0.441460  1
  Zn  Zn14  1  0.441460  0.558540  0.797397  1
  Zn  Zn15  1  0.558540  0.441460  0.202603  1
  Zn  Zn16  1  0.698949  0.301051  0.943010  1
  Zn  Zn17  1  0.301051  0.698949  0.056990  1
  Zn  Zn18  1  0.056990  0.943010  0.301051  1
  Zn  Zn19  1  0.943010  0.056990  0.698949  1
  Zn  Zn20  1  0.558540  0.202603  0.797397  1
  Zn  Zn21  1  0.441460  0.797397  0.202603  1
  Zn  Zn22  1  0.797397  0.441460  0.558540  1
  Zn  Zn23  1  0.202603  0.558540  0.441460  1
  Zn  Zn24  1  0.943010  0.698949  0.301051  1
  Zn  Zn25  1  0.056990  0.301051  0.698949  1
  Zn  Zn26  1  0.301051  0.056990  0.943010  1
  Zn  Zn27  1  0.698949  0.943010  0.056990  1
