# generated using pymatgen
data_EuY2Th(ZnSn)4
_symmetry_space_group_name_H-M   'P 1'
_cell_length_a   4.57015400
_cell_length_b   4.57015446
_cell_length_c   16.63434400
_cell_angle_alpha   90.00000000
_cell_angle_beta   90.00000000
_cell_angle_gamma   119.99999664
_symmetry_Int_Tables_number   1
_chemical_formula_structural   EuY2Th(ZnSn)4
_chemical_formula_sum   'Eu1 Y2 Th1 Zn4 Sn4'
_cell_volume   300.88326870
_cell_formula_units_Z   1
loop_
 _symmetry_equiv_pos_site_id
 _symmetry_equiv_pos_as_xyz
  1  'x, y, z'
loop_
 _atom_site_type_symbol
 _atom_site_label
 _atom_site_symmetry_multiplicity
 _atom_site_fract_x
 _atom_site_fract_y
 _atom_site_fract_z
 _atom_site_occupancy
  Eu  Eu0  1  0.000000  0.000000  0.005673  1
  Y  Y1  1  0.000000  0.000000  0.256868  1
  Y  Y2  1  0.000000  0.000000  0.495411  1
  Th  Th3  1  0.000000  0.000000  0.742720  1
  Zn  Zn4  1  0.333333  0.666667  0.170787  1
  Zn  Zn5  1  0.666667  0.333333  0.840608  1
  Zn  Zn6  1  0.666667  0.333333  0.645136  1
  Zn  Zn7  1  0.333333  0.666667  0.342813  1
  Sn  Sn8  1  0.333333  0.666667  0.608946  1
  Sn  Sn9  1  0.666667  0.333333  0.388694  1
  Sn  Sn10  1  0.666667  0.333333  0.125597  1
  Sn  Sn11  1  0.333333  0.666667  0.876746  1
