# generated using pymatgen
data_NdHo5Al24Os5Pd3
_symmetry_space_group_name_H-M   'P 1'
_cell_length_a   8.85344217
_cell_length_b   8.85685045
_cell_length_c   9.55267101
_cell_angle_alpha   89.89940799
_cell_angle_beta   89.75928736
_cell_angle_gamma   119.54924840
_symmetry_Int_Tables_number   1
_chemical_formula_structural   NdHo5Al24Os5Pd3
_chemical_formula_sum   'Nd1 Ho5 Al24 Os5 Pd3'
_cell_volume   651.61881195
_cell_formula_units_Z   1
loop_
 _symmetry_equiv_pos_site_id
 _symmetry_equiv_pos_as_xyz
  1  'x, y, z'
loop_
 _atom_site_type_symbol
 _atom_site_label
 _atom_site_symmetry_multiplicity
 _atom_site_fract_x
 _atom_site_fract_y
 _atom_site_fract_z
 _atom_site_occupancy
  Nd  Nd0  1  0.185731  0.378300  0.250950  1
  Ho  Ho1  1  0.813733  0.618060  0.747640  1
  Ho  Ho2  1  0.614991  0.816599  0.253152  1
  Ho  Ho3  1  0.384869  0.184036  0.746904  1
  Ho  Ho4  1  0.195928  0.810835  0.251134  1
  Ho  Ho5  1  0.804272  0.190246  0.748862  1
  Al  Al6  1  0.337017  0.672734  0.026416  1
  Al  Al7  1  0.664149  0.329422  0.970237  1
  Al  Al8  1  0.669770  0.332381  0.525835  1
  Al  Al9  1  0.329893  0.668851  0.476746  1
  Al  Al10  1  0.156946  0.324355  0.579108  1
  Al  Al11  1  0.842909  0.675829  0.423835  1
  Al  Al12  1  0.675509  0.841795  0.577820  1
  Al  Al13  1  0.837259  0.677769  0.079347  1
  Al  Al14  1  0.325293  0.157182  0.423646  1
  Al  Al15  1  0.163021  0.321842  0.917825  1
  Al  Al16  1  0.163800  0.835356  0.574903  1
  Al  Al17  1  0.325925  0.157820  0.074869  1
  Al  Al18  1  0.834452  0.164208  0.426472  1
  Al  Al19  1  0.675240  0.841324  0.923518  1
  Al  Al20  1  0.830696  0.158339  0.075882  1
  Al  Al21  1  0.167986  0.841188  0.922919  1
  Al  Al22  1  0.561246  0.125106  0.249216  1
  Al  Al23  1  0.438973  0.875452  0.750896  1
  Al  Al24  1  0.873387  0.439202  0.253290  1
  Al  Al25  1  0.124955  0.561831  0.747690  1
  Al  Al26  1  0.564390  0.439343  0.249226  1
  Al  Al27  1  0.438780  0.561457  0.750653  1
  Al  Al28  1  0.996167  0.997433  0.250359  1
  Al  Al29  1  0.001003  0.998445  0.749820  1
  Os  Os30  1  0.500627  0.000880  0.999271  1
  Os  Os31  1  0.500445  0.000380  0.500848  1
  Os  Os32  1  0.998770  0.500531  0.501684  1
  Os  Os33  1  0.000028  0.999674  0.999665  1
  Os  Os34  1  0.999936  0.999828  0.500505  1
  Pd  Pd35  1  0.999378  0.500601  0.998950  1
  Pd  Pd36  1  0.501472  0.500726  0.999047  1
  Pd  Pd37  1  0.501053  0.500641  0.500861  1
