# generated using pymatgen
data_Sc3In3HgPt
_symmetry_space_group_name_H-M   'P 1'
_cell_length_a   7.61830400
_cell_length_b   7.61830418
_cell_length_c   3.49583600
_cell_angle_alpha   90.00000000
_cell_angle_beta   90.00000000
_cell_angle_gamma   119.99999924
_symmetry_Int_Tables_number   1
_chemical_formula_structural   Sc3In3HgPt
_chemical_formula_sum   'Sc3 In3 Hg1 Pt1'
_cell_volume   175.71073396
_cell_formula_units_Z   1
loop_
 _symmetry_equiv_pos_site_id
 _symmetry_equiv_pos_as_xyz
  1  'x, y, z'
loop_
 _atom_site_type_symbol
 _atom_site_label
 _atom_site_symmetry_multiplicity
 _atom_site_fract_x
 _atom_site_fract_y
 _atom_site_fract_z
 _atom_site_occupancy
  Sc  Sc0  1  0.572585  0.974548  0.500001  1
  Sc  Sc1  1  0.401963  0.427415  0.500001  1
  Sc  Sc2  1  0.025452  0.598037  0.500001  1
  In  In3  1  0.232583  0.998863  0.000000  1
  In  In4  1  0.001137  0.233720  0.000000  1
  In  In5  1  0.766280  0.767417  0.000000  1
  Hg  Hg6  1  0.666667  0.333333  0.000000  1
  Pt  Pt7  1  0.333333  0.666667  0.000000  1
