# generated using pymatgen
data_TaNb3Ga2(SbIr2)2
_symmetry_space_group_name_H-M   'P 1'
_cell_length_a   6.15214704
_cell_length_b   6.14566782
_cell_length_c   7.52254244
_cell_angle_alpha   65.86694354
_cell_angle_beta   65.83965322
_cell_angle_gamma   89.94787935
_symmetry_Int_Tables_number   1
_chemical_formula_structural   TaNb3Ga2(SbIr2)2
_chemical_formula_sum   'Ta1 Nb3 Ga2 Sb2 Ir4'
_cell_volume   232.04572604
_cell_formula_units_Z   1
loop_
 _symmetry_equiv_pos_site_id
 _symmetry_equiv_pos_as_xyz
  1  'x, y, z'
loop_
 _atom_site_type_symbol
 _atom_site_label
 _atom_site_symmetry_multiplicity
 _atom_site_fract_x
 _atom_site_fract_y
 _atom_site_fract_z
 _atom_site_occupancy
  Ta  Ta0  1  0.244669  0.244664  0.510674  1
  Nb  Nb1  1  0.494560  0.994570  0.010876  1
  Nb  Nb2  1  0.755425  0.755426  0.489157  1
  Nb  Nb3  1  0.005425  0.505421  0.989160  1
  Ga  Ga4  1  0.000084  0.000088  0.999829  1
  Ga  Ga5  1  0.249975  0.749973  0.500054  1
  Sb  Sb6  1  0.500046  0.500036  0.999928  1
  Sb  Sb7  1  0.749976  0.249980  0.500054  1
  Ir  Ir8  1  0.125309  0.627492  0.250796  1
  Ir  Ir9  1  0.623879  0.121696  0.250805  1
  Ir  Ir10  1  0.371052  0.374703  0.749334  1
  Ir  Ir11  1  0.879593  0.875956  0.749336  1
