# generated using pymatgen
data_CaHo3HgPb11
_symmetry_space_group_name_H-M   'P 1'
_cell_length_a   9.83624900
_cell_length_b   6.89641423
_cell_length_c   6.92281800
_cell_angle_alpha   89.81428144
_cell_angle_beta   90.00000000
_cell_angle_gamma   90.00000000
_symmetry_Int_Tables_number   1
_chemical_formula_structural   CaHo3HgPb11
_chemical_formula_sum   'Ca1 Ho3 Hg1 Pb11'
_cell_volume   469.60583674
_cell_formula_units_Z   1
loop_
 _symmetry_equiv_pos_site_id
 _symmetry_equiv_pos_as_xyz
  1  'x, y, z'
loop_
 _atom_site_type_symbol
 _atom_site_label
 _atom_site_symmetry_multiplicity
 _atom_site_fract_x
 _atom_site_fract_y
 _atom_site_fract_z
 _atom_site_occupancy
  Ca  Ca0  1  0.750000  0.505862  0.498922  1
  Ho  Ho1  1  0.250000  0.006956  0.001926  1
  Ho  Ho2  1  0.250000  0.498096  0.504898  1
  Ho  Ho3  1  0.750000  0.997788  0.997945  1
  Hg  Hg4  1  0.750000  0.492486  0.996947  1
  Pb  Pb5  1  0.999451  0.242572  0.748557  1
  Pb  Pb6  1  0.501339  0.250559  0.244086  1
  Pb  Pb7  1  0.500181  0.754281  0.247091  1
  Pb  Pb8  1  0.999697  0.748288  0.758245  1
  Pb  Pb9  1  0.999819  0.754281  0.247091  1
  Pb  Pb10  1  0.500303  0.748288  0.758245  1
  Pb  Pb11  1  0.500549  0.242572  0.748557  1
  Pb  Pb12  1  0.998661  0.250559  0.244086  1
  Pb  Pb13  1  0.250000  0.997754  0.501295  1
  Pb  Pb14  1  0.250000  0.505709  0.003864  1
  Pb  Pb15  1  0.750000  0.003948  0.498244  1
