# generated using pymatgen
data_Yb(AuO2)2
_symmetry_space_group_name_H-M   'P 1'
_cell_length_a   6.61959661
_cell_length_b   6.61959613
_cell_length_c   6.61959704
_cell_angle_alpha   125.83952857
_cell_angle_beta   125.83951915
_cell_angle_gamma   80.15205145
_symmetry_Int_Tables_number   1
_chemical_formula_structural   Yb(AuO2)2
_chemical_formula_sum   'Yb2 Au4 O8'
_cell_volume   183.99288702
_cell_formula_units_Z   2
loop_
 _symmetry_equiv_pos_site_id
 _symmetry_equiv_pos_as_xyz
  1  'x, y, z'
loop_
 _atom_site_type_symbol
 _atom_site_label
 _atom_site_symmetry_multiplicity
 _atom_site_fract_x
 _atom_site_fract_y
 _atom_site_fract_z
 _atom_site_occupancy
  Yb  Yb0  1  0.750000  0.250000  0.500000  1
  Yb  Yb1  1  0.000000  0.000000  0.000000  1
  Au  Au2  1  0.375000  0.625000  0.750000  1
  Au  Au3  1  0.375000  0.125000  0.750000  1
  Au  Au4  1  0.875000  0.625000  0.250000  1
  Au  Au5  1  0.375000  0.625000  0.250000  1
  O  O6  1  0.040015  0.398045  0.039698  1
  O  O7  1  0.750318  0.290015  0.141969  1
  O  O8  1  0.148045  0.608348  0.858031  1
  O  O9  1  0.358348  0.000318  0.960302  1
  O  O10  1  0.709985  0.851955  0.460302  1
  O  O11  1  0.999682  0.959985  0.358031  1
  O  O12  1  0.391652  0.249682  0.539698  1
  O  O13  1  0.601955  0.641652  0.641969  1
