# generated using pymatgen
data_Tb3Y13MgNi4Ag3
_symmetry_space_group_name_H-M   'P 1'
_cell_length_a   9.52603994
_cell_length_b   9.54232321
_cell_length_c   9.54177830
_cell_angle_alpha   60.04886128
_cell_angle_beta   60.09618145
_cell_angle_gamma   60.09655709
_symmetry_Int_Tables_number   1
_chemical_formula_structural   Tb3Y13MgNi4Ag3
_chemical_formula_sum   'Tb3 Y13 Mg1 Ni4 Ag3'
_cell_volume   614.43011560
_cell_formula_units_Z   1
loop_
 _symmetry_equiv_pos_site_id
 _symmetry_equiv_pos_as_xyz
  1  'x, y, z'
loop_
 _atom_site_type_symbol
 _atom_site_label
 _atom_site_symmetry_multiplicity
 _atom_site_fract_x
 _atom_site_fract_y
 _atom_site_fract_z
 _atom_site_occupancy
  Tb  Tb0  1  0.599780  0.598277  0.205681  1
  Tb  Tb1  1  0.599705  0.205740  0.598363  1
  Tb  Tb2  1  0.194035  0.602924  0.603074  1
  Y  Y3  1  0.183518  0.815272  0.815234  1
  Y  Y4  1  0.813111  0.185921  0.185934  1
  Y  Y5  1  0.813376  0.185718  0.815131  1
  Y  Y6  1  0.184057  0.814808  0.187102  1
  Y  Y7  1  0.813355  0.815145  0.185720  1
  Y  Y8  1  0.184047  0.187079  0.814803  1
  Y  Y9  1  0.058921  0.440521  0.440506  1
  Y  Y10  1  0.436084  0.062536  0.062462  1
  Y  Y11  1  0.437151  0.062296  0.438069  1
  Y  Y12  1  0.059176  0.438990  0.060491  1
  Y  Y13  1  0.437156  0.438080  0.062240  1
  Y  Y14  1  0.059141  0.060534  0.438976  1
  Y  Y15  1  0.597474  0.597425  0.597497  1
  Mg  Mg16  1  0.538340  0.819913  0.819890  1
  Ni  Ni17  1  0.391631  0.394940  0.394964  1
  Ni  Ni18  1  0.389994  0.393550  0.821248  1
  Ni  Ni19  1  0.389927  0.821254  0.393551  1
  Ni  Ni20  1  0.821638  0.392289  0.392303  1
  Ag  Ag21  1  0.832744  0.833733  0.833719  1
  Ag  Ag22  1  0.832817  0.834154  0.498896  1
  Ag  Ag23  1  0.832823  0.498906  0.834147  1
