# generated using pymatgen
data_Sm2Ho3Zr3(Co4As3)4
_symmetry_space_group_name_H-M   'P 1'
_cell_length_a   12.75672300
_cell_length_b   12.75672359
_cell_length_c   3.84829200
_cell_angle_alpha   90.00000000
_cell_angle_beta   90.00000000
_cell_angle_gamma   120.00000625
_symmetry_Int_Tables_number   1
_chemical_formula_structural   Sm2Ho3Zr3(Co4As3)4
_chemical_formula_sum   'Sm2 Ho3 Zr3 Co16 As12'
_cell_volume   542.34656388
_cell_formula_units_Z   1
loop_
 _symmetry_equiv_pos_site_id
 _symmetry_equiv_pos_as_xyz
  1  'x, y, z'
loop_
 _atom_site_type_symbol
 _atom_site_label
 _atom_site_symmetry_multiplicity
 _atom_site_fract_x
 _atom_site_fract_y
 _atom_site_fract_z
 _atom_site_occupancy
  Sm  Sm0  1  0.333333  0.666667  0.000000  1
  Sm  Sm1  1  0.666667  0.333333  0.000000  1
  Ho  Ho2  1  0.182660  0.182660  0.500000  1
  Ho  Ho3  1  0.817340  0.000000  0.500000  1
  Ho  Ho4  1  0.000000  0.817340  0.500000  1
  Zr  Zr5  1  0.561008  0.561008  0.000000  1
  Zr  Zr6  1  0.438992  0.000000  0.000000  1
  Zr  Zr7  1  0.000000  0.438992  0.000000  1
  Co  Co8  1  0.720960  0.720960  0.500000  1
  Co  Co9  1  0.279040  0.000000  0.500000  1
  Co  Co10  1  0.000000  0.279040  0.500000  1
  Co  Co11  1  0.177194  0.372469  0.000000  1
  Co  Co12  1  0.627531  0.804725  0.000000  1
  Co  Co13  1  0.195275  0.822806  0.000000  1
  Co  Co14  1  0.804725  0.627531  0.000000  1
  Co  Co15  1  0.822806  0.195275  0.000000  1
  Co  Co16  1  0.372469  0.177194  0.000000  1
  Co  Co17  1  0.356967  0.478406  0.500000  1
  Co  Co18  1  0.521594  0.878562  0.500000  1
  Co  Co19  1  0.121438  0.643033  0.500000  1
  Co  Co20  1  0.878562  0.521594  0.500000  1
  Co  Co21  1  0.643033  0.121438  0.500000  1
  Co  Co22  1  0.478406  0.356967  0.500000  1
  Co  Co23  1  0.000000  0.000000  0.000000  1
  As  As24  1  0.823252  0.823252  0.000000  1
  As  As25  1  0.176748  0.000000  0.000000  1
  As  As26  1  0.000000  0.176748  0.000000  1
  As  As27  1  0.171898  0.479264  0.500000  1
  As  As28  1  0.520736  0.692634  0.500000  1
  As  As29  1  0.307366  0.828102  0.500000  1
  As  As30  1  0.692634  0.520736  0.500000  1
  As  As31  1  0.828102  0.307366  0.500000  1
  As  As32  1  0.479264  0.171898  0.500000  1
  As  As33  1  0.351672  0.351672  0.000000  1
  As  As34  1  0.648328  0.000000  0.000000  1
  As  As35  1  0.000000  0.648328  0.000000  1
