# generated using pymatgen
data_DyY3(ReB2)6
_symmetry_space_group_name_H-M   'P 1'
_cell_length_a   6.22666442
_cell_length_b   6.22661876
_cell_length_c   7.51430201
_cell_angle_alpha   89.40589664
_cell_angle_beta   89.40450140
_cell_angle_gamma   113.73788226
_symmetry_Int_Tables_number   1
_chemical_formula_structural   DyY3(ReB2)6
_chemical_formula_sum   'Dy1 Y3 Re6 B12'
_cell_volume   266.64125454
_cell_formula_units_Z   1
loop_
 _symmetry_equiv_pos_site_id
 _symmetry_equiv_pos_as_xyz
  1  'x, y, z'
loop_
 _atom_site_type_symbol
 _atom_site_label
 _atom_site_symmetry_multiplicity
 _atom_site_fract_x
 _atom_site_fract_y
 _atom_site_fract_z
 _atom_site_occupancy
  Dy  Dy0  1  0.556766  0.899038  0.822160  1
  Y  Y1  1  0.899142  0.556774  0.322160  1
  Y  Y2  1  0.443231  0.100832  0.177805  1
  Y  Y3  1  0.100857  0.443225  0.677846  1
  Re  Re4  1  0.411441  0.588573  0.249968  1
  Re  Re5  1  0.588566  0.411451  0.749998  1
  Re  Re6  1  0.009421  0.192874  0.088615  1
  Re  Re7  1  0.807084  0.990548  0.411381  1
  Re  Re8  1  0.990526  0.807124  0.911344  1
  Re  Re9  1  0.192905  0.009412  0.588677  1
  B  B10  1  0.750161  0.848813  0.130004  1
  B  B11  1  0.151189  0.249819  0.369961  1
  B  B12  1  0.249829  0.151179  0.869981  1
  B  B13  1  0.848783  0.750214  0.630042  1
  B  B14  1  0.413138  0.840468  0.479773  1
  B  B15  1  0.159601  0.586931  0.020238  1
  B  B16  1  0.586903  0.159503  0.520305  1
  B  B17  1  0.840469  0.413094  0.979726  1
  B  B18  1  0.557185  0.649810  0.535597  1
  B  B19  1  0.350249  0.442860  0.964434  1
  B  B20  1  0.442806  0.350231  0.464467  1
  B  B21  1  0.649749  0.557227  0.035519  1
