# generated using pymatgen
data_Tb8Er9Sc3Pb16
_symmetry_space_group_name_H-M   'P 1'
_cell_length_a   8.11611716
_cell_length_b   8.20071816
_cell_length_c   15.52582900
_cell_angle_alpha   90.00000000
_cell_angle_beta   90.00000000
_cell_angle_gamma   89.97703507
_symmetry_Int_Tables_number   1
_chemical_formula_structural   Tb8Er9Sc3Pb16
_chemical_formula_sum   'Tb8 Er9 Sc3 Pb16'
_cell_volume   1033.36787970
_cell_formula_units_Z   1
loop_
 _symmetry_equiv_pos_site_id
 _symmetry_equiv_pos_as_xyz
  1  'x, y, z'
loop_
 _atom_site_type_symbol
 _atom_site_label
 _atom_site_symmetry_multiplicity
 _atom_site_fract_x
 _atom_site_fract_y
 _atom_site_fract_z
 _atom_site_occupancy
  Tb  Tb0  1  0.534719  0.322925  0.900420  1
  Tb  Tb1  1  0.034798  0.176915  0.599878  1
  Tb  Tb2  1  0.465784  0.676147  0.400750  1
  Tb  Tb3  1  0.964719  0.822438  0.099311  1
  Tb  Tb4  1  0.465784  0.676147  0.099250  1
  Tb  Tb5  1  0.964719  0.822438  0.400689  1
  Tb  Tb6  1  0.534719  0.322925  0.599580  1
  Tb  Tb7  1  0.034798  0.176915  0.900122  1
  Er  Er8  1  0.376421  0.841847  0.878043  1
  Er  Er9  1  0.876499  0.658266  0.621708  1
  Er  Er10  1  0.624594  0.158930  0.378874  1
  Er  Er11  1  0.123059  0.342113  0.121320  1
  Er  Er12  1  0.624594  0.158930  0.121126  1
  Er  Er13  1  0.123059  0.342113  0.378680  1
  Er  Er14  1  0.376421  0.841847  0.621957  1
  Er  Er15  1  0.876499  0.658266  0.878292  1
  Er  Er16  1  0.292753  0.004829  0.250000  1
  Sc  Sc17  1  0.207823  0.505142  0.750000  1
  Sc  Sc18  1  0.707808  0.994572  0.750000  1
  Sc  Sc19  1  0.791977  0.494872  0.250000  1
  Pb  Pb20  1  0.283404  0.034578  0.042639  1
  Pb  Pb21  1  0.783358  0.466298  0.455566  1
  Pb  Pb22  1  0.716870  0.966309  0.544831  1
  Pb  Pb23  1  0.216769  0.533734  0.955217  1
  Pb  Pb24  1  0.716870  0.966309  0.955169  1
  Pb  Pb25  1  0.216769  0.533734  0.544783  1
  Pb  Pb26  1  0.283404  0.034578  0.457361  1
  Pb  Pb27  1  0.783358  0.466298  0.044434  1
  Pb  Pb28  1  0.568159  0.627254  0.750000  1
  Pb  Pb29  1  0.068190  0.872500  0.750000  1
  Pb  Pb30  1  0.433349  0.375297  0.250000  1
  Pb  Pb31  1  0.927655  0.130119  0.250000  1
  Pb  Pb32  1  0.346575  0.155640  0.750000  1
  Pb  Pb33  1  0.846274  0.344804  0.750000  1
  Pb  Pb34  1  0.656305  0.842865  0.250000  1
  Pb  Pb35  1  0.151144  0.651106  0.250000  1
