# generated using pymatgen
data_Tb2Si2Pt3
_symmetry_space_group_name_H-M   'P 1'
_cell_length_a   4.20551200
_cell_length_b   6.72004900
_cell_length_c   8.93850100
_cell_angle_alpha   90.00000000
_cell_angle_beta   90.00000000
_cell_angle_gamma   90.00000000
_symmetry_Int_Tables_number   1
_chemical_formula_structural   Tb2Si2Pt3
_chemical_formula_sum   'Tb4 Si4 Pt6'
_cell_volume   252.61318198
_cell_formula_units_Z   2
loop_
 _symmetry_equiv_pos_site_id
 _symmetry_equiv_pos_as_xyz
  1  'x, y, z'
loop_
 _atom_site_type_symbol
 _atom_site_label
 _atom_site_symmetry_multiplicity
 _atom_site_fract_x
 _atom_site_fract_y
 _atom_site_fract_z
 _atom_site_occupancy
  Tb  Tb0  1  0.000000  0.887994  0.329256  1
  Tb  Tb1  1  0.000000  0.112006  0.670744  1
  Tb  Tb2  1  0.000000  0.387994  0.170744  1
  Tb  Tb3  1  0.000000  0.612006  0.829256  1
  Si  Si4  1  0.500000  0.574333  0.357780  1
  Si  Si5  1  0.500000  0.425667  0.642220  1
  Si  Si6  1  0.500000  0.074333  0.142220  1
  Si  Si7  1  0.500000  0.925667  0.857780  1
  Pt  Pt8  1  0.500000  0.695851  0.090948  1
  Pt  Pt9  1  0.500000  0.304149  0.909052  1
  Pt  Pt10  1  0.500000  0.195851  0.409052  1
  Pt  Pt11  1  0.500000  0.804149  0.590948  1
  Pt  Pt12  1  0.000000  0.500000  0.500000  1
  Pt  Pt13  1  0.000000  0.000000  0.000000  1
