# generated using pymatgen
data_Tb8Ho8In2Ag2IrRh3
_symmetry_space_group_name_H-M   'P 1'
_cell_length_a   9.58453940
_cell_length_b   9.62479259
_cell_length_c   9.61015732
_cell_angle_alpha   59.90404083
_cell_angle_beta   59.80286673
_cell_angle_gamma   59.98254961
_symmetry_Int_Tables_number   1
_chemical_formula_structural   Tb8Ho8In2Ag2IrRh3
_chemical_formula_sum   'Tb8 Ho8 In2 Ag2 Ir1 Rh3'
_cell_volume   625.39564671
_cell_formula_units_Z   1
loop_
 _symmetry_equiv_pos_site_id
 _symmetry_equiv_pos_as_xyz
  1  'x, y, z'
loop_
 _atom_site_type_symbol
 _atom_site_label
 _atom_site_symmetry_multiplicity
 _atom_site_fract_x
 _atom_site_fract_y
 _atom_site_fract_z
 _atom_site_occupancy
  Tb  Tb0  1  0.190764  0.810846  0.808940  1
  Tb  Tb1  1  0.050118  0.647807  0.649125  1
  Tb  Tb2  1  0.438635  0.067860  0.058736  1
  Tb  Tb3  1  0.437642  0.066649  0.434969  1
  Tb  Tb4  1  0.067174  0.437829  0.059458  1
  Tb  Tb5  1  0.650272  0.649040  0.052329  1
  Tb  Tb6  1  0.188806  0.811705  0.190529  1
  Tb  Tb7  1  0.065927  0.435642  0.436568  1
  Ho  Ho8  1  0.807998  0.808584  0.192503  1
  Ho  Ho9  1  0.810414  0.190817  0.809595  1
  Ho  Ho10  1  0.187391  0.188936  0.813672  1
  Ho  Ho11  1  0.648192  0.052253  0.647865  1
  Ho  Ho12  1  0.062696  0.063518  0.437449  1
  Ho  Ho13  1  0.443911  0.439339  0.058718  1
  Ho  Ho14  1  0.651006  0.649613  0.649125  1
  Ho  Ho15  1  0.811042  0.189869  0.190640  1
  In  In16  1  0.416566  0.742951  0.421869  1
  In  In17  1  0.742689  0.415825  0.422162  1
  Ag  Ag18  1  0.417232  0.415288  0.418108  1
  Ag  Ag19  1  0.417121  0.415883  0.749914  1
  Ir  Ir20  1  0.854986  0.425077  0.858472  1
  Rh  Rh21  1  0.856701  0.859063  0.858364  1
  Rh  Rh22  1  0.854874  0.859177  0.425619  1
  Rh  Rh23  1  0.427840  0.856428  0.855272  1
