# generated using pymatgen
data_MnCuBi2(Pt2O7)2
_symmetry_space_group_name_H-M   'P 1'
_cell_length_a   7.11605909
_cell_length_b   7.27653316
_cell_length_c   7.27653341
_cell_angle_alpha   60.87589585
_cell_angle_beta   59.78308930
_cell_angle_gamma   59.78309008
_symmetry_Int_Tables_number   1
_chemical_formula_structural   MnCuBi2(Pt2O7)2
_chemical_formula_sum   'Mn1 Cu1 Bi2 Pt4 O14'
_cell_volume   267.24841897
_cell_formula_units_Z   1
loop_
 _symmetry_equiv_pos_site_id
 _symmetry_equiv_pos_as_xyz
  1  'x, y, z'
loop_
 _atom_site_type_symbol
 _atom_site_label
 _atom_site_symmetry_multiplicity
 _atom_site_fract_x
 _atom_site_fract_y
 _atom_site_fract_z
 _atom_site_occupancy
  Mn  Mn0  1  0.125000  0.125000  0.125000  1
  Cu  Cu1  1  0.625000  0.125000  0.125000  1
  Bi  Bi2  1  0.125000  0.125000  0.625000  1
  Bi  Bi3  1  0.125000  0.625000  0.125000  1
  Pt  Pt4  1  0.625000  0.625000  0.125000  1
  Pt  Pt5  1  0.625000  0.125000  0.625000  1
  Pt  Pt6  1  0.125000  0.625000  0.625000  1
  Pt  Pt7  1  0.625000  0.625000  0.625000  1
  O  O8  1  0.283598  0.233933  0.233933  1
  O  O9  1  0.966402  0.016067  0.016067  1
  O  O10  1  0.543261  0.958215  0.539187  1
  O  O11  1  0.283335  0.719489  0.288174  1
  O  O12  1  0.543261  0.539187  0.958215  1
  O  O13  1  0.964936  0.536738  0.536738  1
  O  O14  1  0.533796  0.961269  0.961269  1
  O  O15  1  0.966665  0.961826  0.530511  1
  O  O16  1  0.966665  0.530511  0.961826  1
  O  O17  1  0.716204  0.288731  0.288731  1
  O  O18  1  0.285064  0.713262  0.713262  1
  O  O19  1  0.706739  0.291785  0.710813  1
  O  O20  1  0.283335  0.288174  0.719489  1
  O  O21  1  0.706739  0.710813  0.291785  1
