# generated using pymatgen
data_Yb3Pr16HoSn16
_symmetry_space_group_name_H-M   'P 1'
_cell_length_a   8.15711800
_cell_length_b   8.51446931
_cell_length_c   16.16733100
_cell_angle_alpha   90.00000000
_cell_angle_beta   90.00000000
_cell_angle_gamma   89.79725476
_symmetry_Int_Tables_number   1
_chemical_formula_structural   Yb3Pr16HoSn16
_chemical_formula_sum   'Yb3 Pr16 Ho1 Sn16'
_cell_volume   1122.87119222
_cell_formula_units_Z   1
loop_
 _symmetry_equiv_pos_site_id
 _symmetry_equiv_pos_as_xyz
  1  'x, y, z'
loop_
 _atom_site_type_symbol
 _atom_site_label
 _atom_site_symmetry_multiplicity
 _atom_site_fract_x
 _atom_site_fract_y
 _atom_site_fract_z
 _atom_site_occupancy
  Yb  Yb0  1  0.325174  0.996137  0.750000  1
  Yb  Yb1  1  0.176330  0.496917  0.250000  1
  Yb  Yb2  1  0.674357  0.003045  0.250000  1
  Pr  Pr3  1  0.654199  0.170336  0.625046  1
  Pr  Pr4  1  0.155890  0.329722  0.875979  1
  Pr  Pr5  1  0.345646  0.828667  0.124793  1
  Pr  Pr6  1  0.845902  0.668180  0.377662  1
  Pr  Pr7  1  0.345646  0.828667  0.375207  1
  Pr  Pr8  1  0.845902  0.668180  0.122338  1
  Pr  Pr9  1  0.654199  0.170336  0.874954  1
  Pr  Pr10  1  0.155890  0.329722  0.624021  1
  Pr  Pr11  1  0.497387  0.681215  0.597829  1
  Pr  Pr12  1  0.001278  0.817906  0.903375  1
  Pr  Pr13  1  0.500375  0.318054  0.096371  1
  Pr  Pr14  1  0.998879  0.185225  0.404243  1
  Pr  Pr15  1  0.500375  0.318054  0.403629  1
  Pr  Pr16  1  0.998879  0.185225  0.095757  1
  Pr  Pr17  1  0.497387  0.681215  0.902171  1
  Pr  Pr18  1  0.001278  0.817906  0.596625  1
  Ho  Ho19  1  0.824472  0.503966  0.750000  1
  Sn  Sn20  1  0.680572  0.961796  0.462747  1
  Sn  Sn21  1  0.188114  0.537403  0.038062  1
  Sn  Sn22  1  0.318100  0.037257  0.962488  1
  Sn  Sn23  1  0.814173  0.464941  0.542903  1
  Sn  Sn24  1  0.318100  0.037257  0.537512  1
  Sn  Sn25  1  0.814173  0.464941  0.957097  1
  Sn  Sn26  1  0.680572  0.961796  0.037253  1
  Sn  Sn27  1  0.188114  0.537403  0.461938  1
  Sn  Sn28  1  0.459523  0.396654  0.750000  1
  Sn  Sn29  1  0.957579  0.109253  0.750000  1
  Sn  Sn30  1  0.545376  0.604312  0.250000  1
  Sn  Sn31  1  0.041557  0.895189  0.250000  1
  Sn  Sn32  1  0.699976  0.851939  0.750000  1
  Sn  Sn33  1  0.189655  0.641394  0.750000  1
  Sn  Sn34  1  0.301069  0.141700  0.250000  1
  Sn  Sn35  1  0.803902  0.358093  0.250000  1
