# generated using pymatgen
data_V3FeSi2H
_symmetry_space_group_name_H-M   'P 1'
_cell_length_a   7.56623413
_cell_length_b   7.56623395
_cell_length_c   7.56623300
_cell_angle_alpha   59.99999980
_cell_angle_beta   60.00000055
_cell_angle_gamma   59.99999709
_symmetry_Int_Tables_number   1
_chemical_formula_structural   V3FeSi2H
_chemical_formula_sum   'V12 Fe4 Si8 H4'
_cell_volume   306.28395506
_cell_formula_units_Z   4
loop_
 _symmetry_equiv_pos_site_id
 _symmetry_equiv_pos_as_xyz
  1  'x, y, z'
loop_
 _atom_site_type_symbol
 _atom_site_label
 _atom_site_symmetry_multiplicity
 _atom_site_fract_x
 _atom_site_fract_y
 _atom_site_fract_z
 _atom_site_occupancy
  V  V0  1  0.799805  0.799805  0.200195  1
  V  V1  1  0.200195  0.200195  0.799805  1
  V  V2  1  0.799805  0.200195  0.799805  1
  V  V3  1  0.200195  0.799805  0.200195  1
  V  V4  1  0.200195  0.799805  0.799805  1
  V  V5  1  0.799805  0.200195  0.200195  1
  V  V6  1  0.450195  0.450195  0.049805  1
  V  V7  1  0.049805  0.049805  0.450195  1
  V  V8  1  0.450195  0.049805  0.450195  1
  V  V9  1  0.049805  0.450195  0.049805  1
  V  V10  1  0.049805  0.450195  0.450195  1
  V  V11  1  0.450195  0.049805  0.049805  1
  Fe  Fe12  1  0.125000  0.625000  0.625000  1
  Fe  Fe13  1  0.625000  0.125000  0.625000  1
  Fe  Fe14  1  0.625000  0.625000  0.125000  1
  Fe  Fe15  1  0.625000  0.625000  0.625000  1
  Si  Si16  1  0.764732  0.411757  0.411757  1
  Si  Si17  1  0.411757  0.764732  0.411757  1
  Si  Si18  1  0.411757  0.411757  0.764732  1
  Si  Si19  1  0.411757  0.411757  0.411757  1
  Si  Si20  1  0.485268  0.838243  0.838243  1
  Si  Si21  1  0.838243  0.485268  0.838243  1
  Si  Si22  1  0.838243  0.838243  0.485268  1
  Si  Si23  1  0.838243  0.838243  0.838243  1
  H  H24  1  0.625000  0.125000  0.125000  1
  H  H25  1  0.125000  0.625000  0.125000  1
  H  H26  1  0.125000  0.125000  0.625000  1
  H  H27  1  0.125000  0.125000  0.125000  1
