# generated using pymatgen
data_Ho12InCuNi4
_symmetry_space_group_name_H-M   'P 1'
_cell_length_a   8.30708847
_cell_length_b   8.30686905
_cell_length_c   8.30708746
_cell_angle_alpha   112.24308335
_cell_angle_beta   109.47458497
_cell_angle_gamma   106.74376796
_symmetry_Int_Tables_number   1
_chemical_formula_structural   Ho12InCuNi4
_chemical_formula_sum   'Ho12 In1 Cu1 Ni4'
_cell_volume   440.25662450
_cell_formula_units_Z   1
loop_
 _symmetry_equiv_pos_site_id
 _symmetry_equiv_pos_as_xyz
  1  'x, y, z'
loop_
 _atom_site_type_symbol
 _atom_site_label
 _atom_site_symmetry_multiplicity
 _atom_site_fract_x
 _atom_site_fract_y
 _atom_site_fract_z
 _atom_site_occupancy
  Ho  Ho0  1  0.416021  0.222567  0.193491  1
  Ho  Ho1  1  0.583979  0.777433  0.806509  1
  Ho  Ho2  1  0.029076  0.222567  0.806546  1
  Ho  Ho3  1  0.970924  0.777433  0.193454  1
  Ho  Ho4  1  0.180756  0.289813  0.470557  1
  Ho  Ho5  1  0.819244  0.710187  0.529443  1
  Ho  Ho6  1  0.180745  0.710187  0.890944  1
  Ho  Ho7  1  0.819255  0.289813  0.109056  1
  Ho  Ho8  1  0.323252  0.630478  0.307226  1
  Ho  Ho9  1  0.676748  0.369522  0.692774  1
  Ho  Ho10  1  0.323245  0.015987  0.692742  1
  Ho  Ho11  1  0.676755  0.984013  0.307258  1
  In  In12  1  0.500000  0.500000  0.000000  1
  Cu  Cu13  1  0.000000  0.000000  0.000000  1
  Ni  Ni14  1  0.356888  0.000000  0.356888  1
  Ni  Ni15  1  0.643112  0.000000  0.643112  1
  Ni  Ni16  1  0.123620  0.623630  0.500010  1
  Ni  Ni17  1  0.876380  0.376370  0.499990  1
