# generated using pymatgen
data_Ti16Co5Ir3N4
_symmetry_space_group_name_H-M   'P 1'
_cell_length_a   8.04534760
_cell_length_b   8.04534907
_cell_length_c   8.04534848
_cell_angle_alpha   60.38505031
_cell_angle_beta   60.38505181
_cell_angle_gamma   60.38504865
_symmetry_Int_Tables_number   1
_chemical_formula_structural   Ti16Co5Ir3N4
_chemical_formula_sum   'Ti16 Co5 Ir3 N4'
_cell_volume   371.43711052
_cell_formula_units_Z   1
loop_
 _symmetry_equiv_pos_site_id
 _symmetry_equiv_pos_as_xyz
  1  'x, y, z'
loop_
 _atom_site_type_symbol
 _atom_site_label
 _atom_site_symmetry_multiplicity
 _atom_site_fract_x
 _atom_site_fract_y
 _atom_site_fract_z
 _atom_site_occupancy
  Ti  Ti0  1  0.101573  0.630538  0.630538  1
  Ti  Ti1  1  0.630538  0.101573  0.630538  1
  Ti  Ti2  1  0.630538  0.630538  0.101573  1
  Ti  Ti3  1  0.635685  0.635685  0.635685  1
  Ti  Ti4  1  0.814657  0.814657  0.184809  1
  Ti  Ti5  1  0.184887  0.184887  0.815981  1
  Ti  Ti6  1  0.814657  0.184809  0.814657  1
  Ti  Ti7  1  0.184887  0.815981  0.184887  1
  Ti  Ti8  1  0.184809  0.814657  0.814657  1
  Ti  Ti9  1  0.815981  0.184887  0.184887  1
  Ti  Ti10  1  0.433535  0.433535  0.069925  1
  Ti  Ti11  1  0.066118  0.066118  0.433939  1
  Ti  Ti12  1  0.433535  0.069925  0.433535  1
  Ti  Ti13  1  0.066118  0.433939  0.066118  1
  Ti  Ti14  1  0.069925  0.433535  0.433535  1
  Ti  Ti15  1  0.433939  0.066118  0.066118  1
  Co  Co16  1  0.415789  0.415789  0.415789  1
  Co  Co17  1  0.473616  0.843249  0.843249  1
  Co  Co18  1  0.843249  0.473616  0.843249  1
  Co  Co19  1  0.843249  0.843249  0.473616  1
  Co  Co20  1  0.838124  0.838124  0.838124  1
  Ir  Ir21  1  0.754657  0.414340  0.414340  1
  Ir  Ir22  1  0.414340  0.754657  0.414340  1
  Ir  Ir23  1  0.414340  0.414340  0.754657  1
  N  N24  1  0.624873  0.125508  0.125508  1
  N  N25  1  0.125508  0.624873  0.125508  1
  N  N26  1  0.125508  0.125508  0.624873  1
  N  N27  1  0.125365  0.125365  0.125365  1
