# generated using pymatgen
data_Nb12Zn5Au3N4
_symmetry_space_group_name_H-M   'P 1'
_cell_length_a   7.08221445
_cell_length_b   7.08221493
_cell_length_c   7.08221497
_cell_angle_alpha   90.11740797
_cell_angle_beta   89.88258827
_cell_angle_gamma   89.88259604
_symmetry_Int_Tables_number   1
_chemical_formula_structural   Nb12Zn5Au3N4
_chemical_formula_sum   'Nb12 Zn5 Au3 N4'
_cell_volume   355.22583306
_cell_formula_units_Z   1
loop_
 _symmetry_equiv_pos_site_id
 _symmetry_equiv_pos_as_xyz
  1  'x, y, z'
loop_
 _atom_site_type_symbol
 _atom_site_label
 _atom_site_symmetry_multiplicity
 _atom_site_fract_x
 _atom_site_fract_y
 _atom_site_fract_z
 _atom_site_occupancy
  Nb  Nb0  1  0.793544  0.961781  0.373578  1
  Nb  Nb1  1  0.705716  0.039685  0.872765  1
  Nb  Nb2  1  0.208121  0.460161  0.124370  1
  Nb  Nb3  1  0.292798  0.538761  0.626772  1
  Nb  Nb4  1  0.960315  0.372765  0.794284  1
  Nb  Nb5  1  0.038219  0.873578  0.706456  1
  Nb  Nb6  1  0.461239  0.126772  0.207202  1
  Nb  Nb7  1  0.539839  0.624370  0.291879  1
  Nb  Nb8  1  0.375630  0.791879  0.960161  1
  Nb  Nb9  1  0.873228  0.707202  0.038761  1
  Nb  Nb10  1  0.126422  0.206456  0.461781  1
  Nb  Nb11  1  0.627235  0.294284  0.539685  1
  Zn  Zn12  1  0.180686  0.819314  0.319314  1
  Zn  Zn13  1  0.324229  0.185300  0.821933  1
  Zn  Zn14  1  0.814700  0.321933  0.175771  1
  Zn  Zn15  1  0.678067  0.675771  0.685300  1
  Zn  Zn16  1  0.571674  0.428326  0.928326  1
  Au  Au17  1  0.429301  0.929617  0.570814  1
  Au  Au18  1  0.929186  0.570699  0.429617  1
  Au  Au19  1  0.070383  0.070814  0.070699  1
  N  N20  1  0.875145  0.124855  0.624855  1
  N  N21  1  0.625693  0.875578  0.125791  1
  N  N22  1  0.124422  0.625791  0.874307  1
  N  N23  1  0.374209  0.374307  0.375578  1
