# generated using pymatgen
data_LiS27
_symmetry_space_group_name_H-M   'P 1'
_cell_length_a   14.46969792
_cell_length_b   14.46969827
_cell_length_c   14.46969845
_cell_angle_alpha   118.82078031
_cell_angle_beta   118.82077793
_cell_angle_gamma   118.82077761
_symmetry_Int_Tables_number   1
_chemical_formula_structural   LiS27
_chemical_formula_sum   'Li1 S27'
_cell_volume   850.22772906
_cell_formula_units_Z   1
loop_
 _symmetry_equiv_pos_site_id
 _symmetry_equiv_pos_as_xyz
  1  'x, y, z'
loop_
 _atom_site_type_symbol
 _atom_site_label
 _atom_site_symmetry_multiplicity
 _atom_site_fract_x
 _atom_site_fract_y
 _atom_site_fract_z
 _atom_site_occupancy
  Li  Li0  1  0.443677  0.443677  0.443677  1
  S  S1  1  0.018122  0.621777  0.621777  1
  S  S2  1  0.621777  0.621777  0.018122  1
  S  S3  1  0.621777  0.018122  0.621777  1
  S  S4  1  0.248472  0.864492  0.730583  1
  S  S5  1  0.864492  0.730583  0.248472  1
  S  S6  1  0.730583  0.248472  0.864492  1
  S  S7  1  0.864492  0.248472  0.730583  1
  S  S8  1  0.248472  0.730583  0.864492  1
  S  S9  1  0.730583  0.864492  0.248472  1
  S  S10  1  0.094546  0.626243  0.436899  1
  S  S11  1  0.626243  0.436899  0.094546  1
  S  S12  1  0.436899  0.094546  0.626243  1
  S  S13  1  0.626243  0.094546  0.436899  1
  S  S14  1  0.094546  0.436899  0.626243  1
  S  S15  1  0.436899  0.626243  0.094546  1
  S  S16  1  0.359493  0.742592  0.607694  1
  S  S17  1  0.742592  0.607694  0.359493  1
  S  S18  1  0.607694  0.359493  0.742592  1
  S  S19  1  0.742592  0.359493  0.607694  1
  S  S20  1  0.359493  0.607694  0.742592  1
  S  S21  1  0.607694  0.742592  0.359493  1
  S  S22  1  0.178251  0.448251  0.448251  1
  S  S23  1  0.448251  0.448251  0.178251  1
  S  S24  1  0.448251  0.178251  0.448251  1
  S  S25  1  0.007762  0.918602  0.918602  1
  S  S26  1  0.918602  0.918602  0.007762  1
  S  S27  1  0.918602  0.007762  0.918602  1
