# generated using pymatgen
data_Hf8Ti11ReGe16
_symmetry_space_group_name_H-M   'P 1'
_cell_length_a   6.75692501
_cell_length_b   6.87542698
_cell_length_c   13.10709200
_cell_angle_alpha   90.00000000
_cell_angle_beta   90.00000000
_cell_angle_gamma   90.04712105
_symmetry_Int_Tables_number   1
_chemical_formula_structural   Hf8Ti11ReGe16
_chemical_formula_sum   'Hf8 Ti11 Re1 Ge16'
_cell_volume   608.91261898
_cell_formula_units_Z   1
loop_
 _symmetry_equiv_pos_site_id
 _symmetry_equiv_pos_as_xyz
  1  'x, y, z'
loop_
 _atom_site_type_symbol
 _atom_site_label
 _atom_site_symmetry_multiplicity
 _atom_site_fract_x
 _atom_site_fract_y
 _atom_site_fract_z
 _atom_site_occupancy
  Hf  Hf0  1  0.490767  0.675608  0.592377  1
  Hf  Hf1  1  0.990044  0.824564  0.907479  1
  Hf  Hf2  1  0.511541  0.324338  0.093080  1
  Hf  Hf3  1  0.011789  0.173218  0.406466  1
  Hf  Hf4  1  0.511541  0.324338  0.406920  1
  Hf  Hf5  1  0.011789  0.173218  0.093534  1
  Hf  Hf6  1  0.490767  0.675608  0.907623  1
  Hf  Hf7  1  0.990044  0.824564  0.592521  1
  Ti  Ti8  1  0.658174  0.167290  0.625375  1
  Ti  Ti9  1  0.157211  0.333393  0.874693  1
  Ti  Ti10  1  0.342995  0.834835  0.125225  1
  Ti  Ti11  1  0.840826  0.666851  0.375108  1
  Ti  Ti12  1  0.342995  0.834835  0.374775  1
  Ti  Ti13  1  0.840826  0.666851  0.124892  1
  Ti  Ti14  1  0.658174  0.167290  0.874625  1
  Ti  Ti15  1  0.157211  0.333393  0.625307  1
  Ti  Ti16  1  0.829855  0.494350  0.750000  1
  Ti  Ti17  1  0.330368  0.004821  0.750000  1
  Ti  Ti18  1  0.169847  0.508158  0.250000  1
  Re  Re19  1  0.667861  0.993119  0.250000  1
  Ge  Ge20  1  0.683940  0.959119  0.460259  1
  Ge  Ge21  1  0.183259  0.539616  0.040667  1
  Ge  Ge22  1  0.316627  0.041004  0.959452  1
  Ge  Ge23  1  0.816281  0.459330  0.540556  1
  Ge  Ge24  1  0.316627  0.041004  0.540548  1
  Ge  Ge25  1  0.816281  0.459330  0.959444  1
  Ge  Ge26  1  0.683940  0.959119  0.039741  1
  Ge  Ge27  1  0.183259  0.539616  0.459333  1
  Ge  Ge28  1  0.459152  0.380031  0.750000  1
  Ge  Ge29  1  0.959013  0.120144  0.750000  1
  Ge  Ge30  1  0.538498  0.619069  0.250000  1
  Ge  Ge31  1  0.038718  0.878795  0.250000  1
  Ge  Ge32  1  0.689913  0.854203  0.750000  1
  Ge  Ge33  1  0.188935  0.645540  0.750000  1
  Ge  Ge34  1  0.308557  0.147820  0.250000  1
  Ge  Ge35  1  0.812374  0.355622  0.250000  1
