# generated using pymatgen
data_Tm5PdPt8
_symmetry_space_group_name_H-M   'P 1'
_cell_length_a   9.73896200
_cell_length_b   9.73896200
_cell_length_c   5.74901300
_cell_angle_alpha   90.00000000
_cell_angle_beta   90.00000000
_cell_angle_gamma   90.00000000
_symmetry_Int_Tables_number   1
_chemical_formula_structural   Tm5PdPt8
_chemical_formula_sum   'Tm10 Pd2 Pt16'
_cell_volume   545.27882545
_cell_formula_units_Z   2
loop_
 _symmetry_equiv_pos_site_id
 _symmetry_equiv_pos_as_xyz
  1  'x, y, z'
loop_
 _atom_site_type_symbol
 _atom_site_label
 _atom_site_symmetry_multiplicity
 _atom_site_fract_x
 _atom_site_fract_y
 _atom_site_fract_z
 _atom_site_occupancy
  Tm  Tm0  1  0.453807  0.812136  0.000000  1
  Tm  Tm1  1  0.546193  0.187864  0.000000  1
  Tm  Tm2  1  0.187864  0.546193  0.000000  1
  Tm  Tm3  1  0.812136  0.453807  0.000000  1
  Tm  Tm4  1  0.500000  0.500000  0.500000  1
  Tm  Tm5  1  0.312136  0.046193  0.500000  1
  Tm  Tm6  1  0.687864  0.953807  0.500000  1
  Tm  Tm7  1  0.953807  0.687864  0.500000  1
  Tm  Tm8  1  0.046193  0.312136  0.500000  1
  Tm  Tm9  1  0.000000  0.000000  0.000000  1
  Pd  Pd10  1  0.000000  0.000000  0.500000  1
  Pd  Pd11  1  0.500000  0.500000  0.000000  1
  Pt  Pt12  1  0.192817  0.807183  0.250472  1
  Pt  Pt13  1  0.807183  0.192817  0.749528  1
  Pt  Pt14  1  0.807183  0.192817  0.250472  1
  Pt  Pt15  1  0.192817  0.807183  0.749528  1
  Pt  Pt16  1  0.442419  0.780644  0.500000  1
  Pt  Pt17  1  0.557581  0.219356  0.500000  1
  Pt  Pt18  1  0.219356  0.557581  0.500000  1
  Pt  Pt19  1  0.780644  0.442419  0.500000  1
  Pt  Pt20  1  0.307183  0.307183  0.249528  1
  Pt  Pt21  1  0.692817  0.692817  0.750472  1
  Pt  Pt22  1  0.692817  0.692817  0.249528  1
  Pt  Pt23  1  0.307183  0.307183  0.750472  1
  Pt  Pt24  1  0.280644  0.057581  0.000000  1
  Pt  Pt25  1  0.719356  0.942419  0.000000  1
  Pt  Pt26  1  0.942419  0.719356  0.000000  1
  Pt  Pt27  1  0.057581  0.280644  0.000000  1
