# generated using pymatgen
data_Tb6DyRhO12
_symmetry_space_group_name_H-M   'P 1'
_cell_length_a   6.67156502
_cell_length_b   6.67156511
_cell_length_c   6.67156500
_cell_angle_alpha   95.18979705
_cell_angle_beta   95.18980574
_cell_angle_gamma   95.18980842
_symmetry_Int_Tables_number   1
_chemical_formula_structural   Tb6DyRhO12
_chemical_formula_sum   'Tb6 Dy1 Rh1 O12'
_cell_volume   293.06009560
_cell_formula_units_Z   1
loop_
 _symmetry_equiv_pos_site_id
 _symmetry_equiv_pos_as_xyz
  1  'x, y, z'
loop_
 _atom_site_type_symbol
 _atom_site_label
 _atom_site_symmetry_multiplicity
 _atom_site_fract_x
 _atom_site_fract_y
 _atom_site_fract_z
 _atom_site_occupancy
  Tb  Tb0  1  0.733642  0.911941  0.426564  1
  Tb  Tb1  1  0.426564  0.733642  0.911941  1
  Tb  Tb2  1  0.088059  0.573436  0.266358  1
  Tb  Tb3  1  0.911941  0.426564  0.733642  1
  Tb  Tb4  1  0.573436  0.266358  0.088059  1
  Tb  Tb5  1  0.266358  0.088059  0.573436  1
  Dy  Dy6  1  0.000000  0.000000  0.000000  1
  Rh  Rh7  1  0.500000  0.500000  0.500000  1
  O  O8  1  0.065648  0.912621  0.319620  1
  O  O9  1  0.680380  0.934352  0.087379  1
  O  O10  1  0.454971  0.802683  0.584933  1
  O  O11  1  0.087379  0.680380  0.934352  1
  O  O12  1  0.802683  0.584933  0.454971  1
  O  O13  1  0.415067  0.545029  0.197317  1
  O  O14  1  0.584933  0.454971  0.802683  1
  O  O15  1  0.197317  0.415067  0.545029  1
  O  O16  1  0.912621  0.319620  0.065648  1
  O  O17  1  0.545029  0.197317  0.415067  1
  O  O18  1  0.319620  0.065648  0.912621  1
  O  O19  1  0.934352  0.087379  0.680380  1
