# generated using pymatgen
data_Yb3(SnIr)2
_symmetry_space_group_name_H-M   'P 1'
_cell_length_a   5.84923000
_cell_length_b   8.07941700
_cell_length_c   14.09205600
_cell_angle_alpha   90.00000000
_cell_angle_beta   90.00000000
_cell_angle_gamma   90.00000000
_symmetry_Int_Tables_number   1
_chemical_formula_structural   Yb3(SnIr)2
_chemical_formula_sum   'Yb12 Sn8 Ir8'
_cell_volume   665.96757254
_cell_formula_units_Z   4
loop_
 _symmetry_equiv_pos_site_id
 _symmetry_equiv_pos_as_xyz
  1  'x, y, z'
loop_
 _atom_site_type_symbol
 _atom_site_label
 _atom_site_symmetry_multiplicity
 _atom_site_fract_x
 _atom_site_fract_y
 _atom_site_fract_z
 _atom_site_occupancy
  Yb  Yb0  1  0.161606  0.396961  0.590880  1
  Yb  Yb1  1  0.838394  0.603039  0.090880  1
  Yb  Yb2  1  0.161606  0.103039  0.409120  1
  Yb  Yb3  1  0.838394  0.896961  0.909120  1
  Yb  Yb4  1  0.838394  0.603039  0.409120  1
  Yb  Yb5  1  0.161606  0.396961  0.909120  1
  Yb  Yb6  1  0.838394  0.896961  0.590880  1
  Yb  Yb7  1  0.161606  0.103039  0.090880  1
  Yb  Yb8  1  0.612462  0.253705  0.750000  1
  Yb  Yb9  1  0.387538  0.746295  0.250000  1
  Yb  Yb10  1  0.612462  0.246295  0.250000  1
  Yb  Yb11  1  0.387538  0.753705  0.750000  1
  Sn  Sn12  1  0.641201  0.250000  0.500000  1
  Sn  Sn13  1  0.358799  0.750000  0.000000  1
  Sn  Sn14  1  0.358799  0.750000  0.500000  1
  Sn  Sn15  1  0.641201  0.250000  0.000000  1
  Sn  Sn16  1  0.117173  0.095845  0.750000  1
  Sn  Sn17  1  0.882827  0.904155  0.250000  1
  Sn  Sn18  1  0.117173  0.404155  0.250000  1
  Sn  Sn19  1  0.882827  0.595845  0.750000  1
  Ir  Ir20  1  0.360204  0.038211  0.593705  1
  Ir  Ir21  1  0.639796  0.961789  0.093705  1
  Ir  Ir22  1  0.360204  0.461789  0.406295  1
  Ir  Ir23  1  0.639796  0.538211  0.906295  1
  Ir  Ir24  1  0.639796  0.961789  0.406295  1
  Ir  Ir25  1  0.360204  0.038211  0.906295  1
  Ir  Ir26  1  0.639796  0.538211  0.593705  1
  Ir  Ir27  1  0.360204  0.461789  0.093705  1
