# generated using pymatgen
data_TaMn4Cr3P4
_symmetry_space_group_name_H-M   'P 1'
_cell_length_a   3.60701600
_cell_length_b   5.85434555
_cell_length_c   6.78709282
_cell_angle_alpha   89.58269509
_cell_angle_beta   90.00000000
_cell_angle_gamma   90.00000000
_symmetry_Int_Tables_number   1
_chemical_formula_structural   TaMn4Cr3P4
_chemical_formula_sum   'Ta1 Mn4 Cr3 P4'
_cell_volume   143.31732434
_cell_formula_units_Z   1
loop_
 _symmetry_equiv_pos_site_id
 _symmetry_equiv_pos_as_xyz
  1  'x, y, z'
loop_
 _atom_site_type_symbol
 _atom_site_label
 _atom_site_symmetry_multiplicity
 _atom_site_fract_x
 _atom_site_fract_y
 _atom_site_fract_z
 _atom_site_occupancy
  Ta  Ta0  1  0.750000  0.470486  0.671164  1
  Mn  Mn1  1  0.750000  0.354649  0.057787  1
  Mn  Mn2  1  0.250000  0.648153  0.943853  1
  Mn  Mn3  1  0.750000  0.855157  0.443673  1
  Mn  Mn4  1  0.250000  0.151627  0.553084  1
  Cr  Cr5  1  0.750000  0.975058  0.829771  1
  Cr  Cr6  1  0.250000  0.537459  0.324833  1
  Cr  Cr7  1  0.250000  0.013682  0.172961  1
  P  P8  1  0.250000  0.782529  0.628597  1
  P  P9  1  0.750000  0.224905  0.360874  1
  P  P10  1  0.250000  0.252520  0.881291  1
  P  P11  1  0.750000  0.733773  0.132114  1
