# generated using pymatgen
data_Tb2Ho3Co2
_symmetry_space_group_name_H-M   'P 1'
_cell_length_a   6.28617268
_cell_length_b   6.90687936
_cell_length_c   8.54341005
_cell_angle_alpha   96.33761822
_cell_angle_beta   111.58590467
_cell_angle_gamma   90.00000174
_symmetry_Int_Tables_number   1
_chemical_formula_structural   Tb2Ho3Co2
_chemical_formula_sum   'Tb4 Ho6 Co4'
_cell_volume   342.48244940
_cell_formula_units_Z   2
loop_
 _symmetry_equiv_pos_site_id
 _symmetry_equiv_pos_as_xyz
  1  'x, y, z'
loop_
 _atom_site_type_symbol
 _atom_site_label
 _atom_site_symmetry_multiplicity
 _atom_site_fract_x
 _atom_site_fract_y
 _atom_site_fract_z
 _atom_site_occupancy
  Tb  Tb0  1  0.982033  0.913717  0.189910  1
  Tb  Tb1  1  0.792121  0.586283  0.810090  1
  Tb  Tb2  1  0.017967  0.086283  0.810090  1
  Tb  Tb3  1  0.207879  0.413717  0.189910  1
  Ho  Ho4  1  0.645380  0.815271  0.432170  1
  Ho  Ho5  1  0.213210  0.684729  0.567830  1
  Ho  Ho6  1  0.354620  0.184729  0.567830  1
  Ho  Ho7  1  0.786790  0.315271  0.432170  1
  Ho  Ho8  1  0.427218  0.750000  0.000000  1
  Ho  Ho9  1  0.572782  0.250000  0.000000  1
  Co  Co10  1  0.820901  0.572501  0.222500  1
  Co  Co11  1  0.598401  0.927499  0.777500  1
  Co  Co12  1  0.179099  0.427499  0.777500  1
  Co  Co13  1  0.401599  0.072501  0.222500  1
