# generated using pymatgen
data_Er5Sn3Bi
_symmetry_space_group_name_H-M   'P 1'
_cell_length_a   8.12375400
_cell_length_b   8.12677100
_cell_length_c   15.36037600
_cell_angle_alpha   90.00000000
_cell_angle_beta   90.00000000
_cell_angle_gamma   90.00000000
_symmetry_Int_Tables_number   1
_chemical_formula_structural   Er5Sn3Bi
_chemical_formula_sum   'Er20 Sn12 Bi4'
_cell_volume   1014.09030958
_cell_formula_units_Z   4
loop_
 _symmetry_equiv_pos_site_id
 _symmetry_equiv_pos_as_xyz
  1  'x, y, z'
loop_
 _atom_site_type_symbol
 _atom_site_label
 _atom_site_symmetry_multiplicity
 _atom_site_fract_x
 _atom_site_fract_y
 _atom_site_fract_z
 _atom_site_occupancy
  Er  Er0  1  0.386135  0.839697  0.876329  1
  Er  Er1  1  0.886135  0.660303  0.623671  1
  Er  Er2  1  0.613865  0.160303  0.376329  1
  Er  Er3  1  0.113865  0.339697  0.123671  1
  Er  Er4  1  0.622792  0.161946  0.122009  1
  Er  Er5  1  0.122792  0.338054  0.377991  1
  Er  Er6  1  0.377208  0.838054  0.622009  1
  Er  Er7  1  0.877208  0.661946  0.877991  1
  Er  Er8  1  0.555874  0.327983  0.892645  1
  Er  Er9  1  0.055874  0.172017  0.607355  1
  Er  Er10  1  0.444126  0.672017  0.392645  1
  Er  Er11  1  0.944126  0.827983  0.107355  1
  Er  Er12  1  0.464356  0.670687  0.105626  1
  Er  Er13  1  0.964356  0.829313  0.394374  1
  Er  Er14  1  0.535644  0.329313  0.605626  1
  Er  Er15  1  0.035644  0.170687  0.894374  1
  Er  Er16  1  0.212984  0.501236  0.747005  1
  Er  Er17  1  0.712984  0.998764  0.752995  1
  Er  Er18  1  0.787016  0.498764  0.247005  1
  Er  Er19  1  0.287016  0.001236  0.252995  1
  Sn  Sn20  1  0.720329  0.971458  0.956618  1
  Sn  Sn21  1  0.220329  0.528542  0.543382  1
  Sn  Sn22  1  0.279671  0.028542  0.456618  1
  Sn  Sn23  1  0.779671  0.471458  0.043382  1
  Sn  Sn24  1  0.577950  0.625395  0.748143  1
  Sn  Sn25  1  0.077950  0.874605  0.751857  1
  Sn  Sn26  1  0.422050  0.374605  0.248143  1
  Sn  Sn27  1  0.922050  0.125395  0.251857  1
  Sn  Sn28  1  0.351045  0.147059  0.751652  1
  Sn  Sn29  1  0.851045  0.352941  0.748348  1
  Sn  Sn30  1  0.648955  0.852941  0.251652  1
  Sn  Sn31  1  0.148955  0.647059  0.248348  1
  Bi  Bi32  1  0.273728  0.023234  0.044206  1
  Bi  Bi33  1  0.773728  0.476766  0.455794  1
  Bi  Bi34  1  0.726272  0.976766  0.544206  1
  Bi  Bi35  1  0.226272  0.523234  0.955794  1
