# generated using pymatgen
data_La4Mg2Si3Ge
_symmetry_space_group_name_H-M   'P 1'
_cell_length_a   7.53670653
_cell_length_b   7.53670653
_cell_length_c   4.48721900
_cell_angle_alpha   90.00000000
_cell_angle_beta   90.00000000
_cell_angle_gamma   89.79954429
_symmetry_Int_Tables_number   1
_chemical_formula_structural   La4Mg2Si3Ge
_chemical_formula_sum   'La4 Mg2 Si3 Ge1'
_cell_volume   254.88120845
_cell_formula_units_Z   1
loop_
 _symmetry_equiv_pos_site_id
 _symmetry_equiv_pos_as_xyz
  1  'x, y, z'
loop_
 _atom_site_type_symbol
 _atom_site_label
 _atom_site_symmetry_multiplicity
 _atom_site_fract_x
 _atom_site_fract_y
 _atom_site_fract_z
 _atom_site_occupancy
  La  La0  1  0.680037  0.180037  0.500000  1
  La  La1  1  0.320973  0.820973  0.500000  1
  La  La2  1  0.180156  0.318033  0.500000  1
  La  La3  1  0.818033  0.680156  0.500000  1
  Mg  Mg4  1  0.999451  0.001365  0.000000  1
  Mg  Mg5  1  0.501365  0.499451  0.000000  1
  Si  Si6  1  0.883800  0.383800  0.000000  1
  Si  Si7  1  0.613226  0.886723  0.000000  1
  Si  Si8  1  0.386723  0.113226  0.000000  1
  Ge  Ge9  1  0.116236  0.616236  0.000000  1
