# generated using pymatgen
data_La2Pr4OsRuI6
_symmetry_space_group_name_H-M   'P 1'
_cell_length_a   4.38225000
_cell_length_b   9.51659718
_cell_length_c   12.64487363
_cell_angle_alpha   87.32811434
_cell_angle_beta   90.00000000
_cell_angle_gamma   90.00000000
_symmetry_Int_Tables_number   1
_chemical_formula_structural   La2Pr4OsRuI6
_chemical_formula_sum   'La2 Pr4 Os1 Ru1 I6'
_cell_volume   526.76988409
_cell_formula_units_Z   1
loop_
 _symmetry_equiv_pos_site_id
 _symmetry_equiv_pos_as_xyz
  1  'x, y, z'
loop_
 _atom_site_type_symbol
 _atom_site_label
 _atom_site_symmetry_multiplicity
 _atom_site_fract_x
 _atom_site_fract_y
 _atom_site_fract_z
 _atom_site_occupancy
  La  La0  1  0.750000  0.691544  0.117800  1
  La  La1  1  0.750000  0.114607  0.673081  1
  Pr  Pr2  1  0.250000  0.312428  0.882396  1
  Pr  Pr3  1  0.250000  0.885613  0.333832  1
  Pr  Pr4  1  0.250000  0.901748  0.893363  1
  Pr  Pr5  1  0.750000  0.094809  0.106438  1
  Os  Os6  1  0.250000  0.887886  0.120247  1
  Ru  Ru7  1  0.750000  0.111724  0.870875  1
  I  I8  1  0.250000  0.864753  0.618698  1
  I  I9  1  0.750000  0.130529  0.381603  1
  I  I10  1  0.750000  0.639268  0.379444  1
  I  I11  1  0.250000  0.367101  0.625780  1
  I  I12  1  0.250000  0.394303  0.134393  1
  I  I13  1  0.750000  0.603686  0.862048  1
