# generated using pymatgen
data_Tb4Al15(SiRh2)3
_symmetry_space_group_name_H-M   'P 1'
_cell_length_a   7.53542379
_cell_length_b   7.49780465
_cell_length_c   9.41579300
_cell_angle_alpha   90.00673996
_cell_angle_beta   89.91760058
_cell_angle_gamma   119.74970085
_symmetry_Int_Tables_number   1
_chemical_formula_structural   Tb4Al15(SiRh2)3
_chemical_formula_sum   'Tb4 Al15 Si3 Rh6'
_cell_volume   461.86881322
_cell_formula_units_Z   1
loop_
 _symmetry_equiv_pos_site_id
 _symmetry_equiv_pos_as_xyz
  1  'x, y, z'
loop_
 _atom_site_type_symbol
 _atom_site_label
 _atom_site_symmetry_multiplicity
 _atom_site_fract_x
 _atom_site_fract_y
 _atom_site_fract_z
 _atom_site_occupancy
  Tb  Tb0  1  0.994429  0.664517  0.247495  1
  Tb  Tb1  1  0.006078  0.340623  0.753430  1
  Tb  Tb2  1  0.674650  0.000197  0.247972  1
  Tb  Tb3  1  0.320736  0.993335  0.749863  1
  Al  Al4  1  0.128867  0.126447  0.250047  1
  Al  Al5  1  0.871654  0.871268  0.749381  1
  Al  Al6  1  0.338632  0.002880  0.424105  1
  Al  Al7  1  0.001310  0.330447  0.429766  1
  Al  Al8  1  0.665849  0.001711  0.575180  1
  Al  Al9  1  0.662190  0.997980  0.922719  1
  Al  Al10  1  0.338404  0.003044  0.076261  1
  Al  Al11  1  0.333248  0.331744  0.554641  1
  Al  Al12  1  0.664384  0.667769  0.446484  1
  Al  Al13  1  0.663888  0.667429  0.054873  1
  Al  Al14  1  0.335468  0.332195  0.945773  1
  Al  Al15  1  0.338176  0.549800  0.250230  1
  Al  Al16  1  0.661335  0.450600  0.750378  1
  Al  Al17  1  0.548317  0.342832  0.250214  1
  Al  Al18  1  0.454691  0.658122  0.749688  1
  Si  Si19  1  0.002238  0.328830  0.074860  1
  Si  Si20  1  0.997221  0.671479  0.930729  1
  Si  Si21  1  0.997954  0.665713  0.564845  1
  Rh  Rh22  1  0.689056  0.337640  0.001350  1
  Rh  Rh23  1  0.311056  0.662896  0.997791  1
  Rh  Rh24  1  0.319322  0.670477  0.502433  1
  Rh  Rh25  1  0.679857  0.336314  0.499905  1
  Rh  Rh26  1  0.000061  0.000440  0.999339  1
  Rh  Rh27  1  0.000927  0.993273  0.500250  1
