# generated using pymatgen
data_TaNb3(PRu)4
_symmetry_space_group_name_H-M   'P 1'
_cell_length_a   3.74523700
_cell_length_b   6.36902305
_cell_length_c   7.21730306
_cell_angle_alpha   89.98559386
_cell_angle_beta   90.00232149
_cell_angle_gamma   89.99632916
_symmetry_Int_Tables_number   1
_chemical_formula_structural   TaNb3(PRu)4
_chemical_formula_sum   'Ta1 Nb3 P4 Ru4'
_cell_volume   172.15793843
_cell_formula_units_Z   1
loop_
 _symmetry_equiv_pos_site_id
 _symmetry_equiv_pos_as_xyz
  1  'x, y, z'
loop_
 _atom_site_type_symbol
 _atom_site_label
 _atom_site_symmetry_multiplicity
 _atom_site_fract_x
 _atom_site_fract_y
 _atom_site_fract_z
 _atom_site_occupancy
  Ta  Ta0  1  0.750070  0.475486  0.328015  1
  Nb  Nb1  1  0.250116  0.024301  0.827594  1
  Nb  Nb2  1  0.249925  0.524379  0.671870  1
  Nb  Nb3  1  0.749887  0.975660  0.171212  1
  P  P4  1  0.250003  0.768657  0.376048  1
  P  P5  1  0.249947  0.269772  0.124086  1
  P  P6  1  0.749998  0.230543  0.624681  1
  P  P7  1  0.750044  0.730409  0.875048  1
  Ru  Ru8  1  0.250011  0.146715  0.437041  1
  Ru  Ru9  1  0.250017  0.644184  0.064949  1
  Ru  Ru10  1  0.749998  0.854350  0.560881  1
  Ru  Ru11  1  0.749983  0.355544  0.938574  1
