# generated using pymatgen
data_Sm3ZnPt3Au2
_symmetry_space_group_name_H-M   'P 1'
_cell_length_a   7.42949600
_cell_length_b   7.55674539
_cell_length_c   3.93465900
_cell_angle_alpha   90.00000000
_cell_angle_beta   90.00000000
_cell_angle_gamma   119.44452779
_symmetry_Int_Tables_number   1
_chemical_formula_structural   Sm3ZnPt3Au2
_chemical_formula_sum   'Sm3 Zn1 Pt3 Au2'
_cell_volume   192.36924567
_cell_formula_units_Z   1
loop_
 _symmetry_equiv_pos_site_id
 _symmetry_equiv_pos_as_xyz
  1  'x, y, z'
loop_
 _atom_site_type_symbol
 _atom_site_label
 _atom_site_symmetry_multiplicity
 _atom_site_fract_x
 _atom_site_fract_y
 _atom_site_fract_z
 _atom_site_occupancy
  Sm  Sm0  1  0.395446  0.404876  0.000000  1
  Sm  Sm1  1  0.616282  0.000000  0.000000  1
  Sm  Sm2  1  0.990571  0.595124  0.000000  1
  Zn  Zn3  1  0.256711  0.000000  0.500000  1
  Pt  Pt4  1  0.029192  0.000000  0.000000  1
  Pt  Pt5  1  0.643894  0.316214  0.500000  1
  Pt  Pt6  1  0.327680  0.683786  0.500000  1
  Au  Au7  1  0.001041  0.261859  0.500000  1
  Au  Au8  1  0.739182  0.738141  0.500000  1
