# generated using pymatgen
data_SrYPtRhO7
_symmetry_space_group_name_H-M   'P 1'
_cell_length_a   7.32651240
_cell_length_b   7.36945188
_cell_length_c   7.36945322
_cell_angle_alpha   59.92794413
_cell_angle_beta   60.19255599
_cell_angle_gamma   60.19255496
_symmetry_Int_Tables_number   1
_chemical_formula_structural   SrYPtRhO7
_chemical_formula_sum   'Sr2 Y2 Pt2 Rh2 O14'
_cell_volume   282.01500312
_cell_formula_units_Z   2
loop_
 _symmetry_equiv_pos_site_id
 _symmetry_equiv_pos_as_xyz
  1  'x, y, z'
loop_
 _atom_site_type_symbol
 _atom_site_label
 _atom_site_symmetry_multiplicity
 _atom_site_fract_x
 _atom_site_fract_y
 _atom_site_fract_z
 _atom_site_occupancy
  Sr  Sr0  1  0.125000  0.625000  0.125000  1
  Sr  Sr1  1  0.125000  0.125000  0.625000  1
  Y  Y2  1  0.625000  0.125000  0.125000  1
  Y  Y3  1  0.125000  0.125000  0.125000  1
  Pt  Pt4  1  0.625000  0.625000  0.125000  1
  Pt  Pt5  1  0.625000  0.125000  0.625000  1
  Rh  Rh6  1  0.625000  0.625000  0.625000  1
  Rh  Rh7  1  0.125000  0.625000  0.625000  1
  O  O8  1  0.304437  0.695563  0.695563  1
  O  O9  1  0.540505  0.959495  0.959495  1
  O  O10  1  0.690996  0.716917  0.295204  1
  O  O11  1  0.296885  0.295204  0.716917  1
  O  O12  1  0.984868  0.015132  0.015132  1
  O  O13  1  0.296885  0.716917  0.295204  1
  O  O14  1  0.690996  0.295204  0.716917  1
  O  O15  1  0.953115  0.533083  0.954796  1
  O  O16  1  0.559004  0.533083  0.954796  1
  O  O17  1  0.953115  0.954796  0.533083  1
  O  O18  1  0.265132  0.234868  0.234868  1
  O  O19  1  0.559004  0.954796  0.533083  1
  O  O20  1  0.709495  0.290505  0.290505  1
  O  O21  1  0.945563  0.554437  0.554437  1
