# generated using pymatgen
data_NdFeSb12IrOs2
_symmetry_space_group_name_H-M   'P 1'
_cell_length_a   8.08622506
_cell_length_b   8.11089366
_cell_length_c   8.12594516
_cell_angle_alpha   109.60510287
_cell_angle_beta   109.54252569
_cell_angle_gamma   109.44685830
_symmetry_Int_Tables_number   1
_chemical_formula_structural   NdFeSb12IrOs2
_chemical_formula_sum   'Nd1 Fe1 Sb12 Ir1 Os2'
_cell_volume   409.34823144
_cell_formula_units_Z   1
loop_
 _symmetry_equiv_pos_site_id
 _symmetry_equiv_pos_as_xyz
  1  'x, y, z'
loop_
 _atom_site_type_symbol
 _atom_site_label
 _atom_site_symmetry_multiplicity
 _atom_site_fract_x
 _atom_site_fract_y
 _atom_site_fract_z
 _atom_site_occupancy
  Nd  Nd0  1  0.000000  0.000000  0.000000  1
  Fe  Fe1  1  0.000000  0.000000  0.500000  1
  Sb  Sb2  1  0.329271  0.174433  0.834499  1
  Sb  Sb3  1  0.670729  0.825567  0.165501  1
  Sb  Sb4  1  0.657795  0.504120  0.843640  1
  Sb  Sb5  1  0.342205  0.495880  0.156360  1
  Sb  Sb6  1  0.177459  0.848505  0.343001  1
  Sb  Sb7  1  0.822541  0.151495  0.656999  1
  Sb  Sb8  1  0.503771  0.843134  0.660532  1
  Sb  Sb9  1  0.496229  0.156866  0.339468  1
  Sb  Sb10  1  0.844219  0.340298  0.185847  1
  Sb  Sb11  1  0.155781  0.659702  0.814153  1
  Sb  Sb12  1  0.845848  0.671280  0.505054  1
  Sb  Sb13  1  0.154152  0.328720  0.494946  1
  Ir  Ir14  1  0.000000  0.500000  0.000000  1
  Os  Os15  1  0.500000  0.000000  0.000000  1
  Os  Os16  1  0.500000  0.500000  0.500000  1
