# generated using pymatgen
data_Dy3Ho9Os3Ru
_symmetry_space_group_name_H-M   'P 1'
_cell_length_a   6.31104900
_cell_length_b   7.36434082
_cell_length_c   9.05657500
_cell_angle_alpha   90.00000000
_cell_angle_beta   90.00000000
_cell_angle_gamma   89.93335618
_symmetry_Int_Tables_number   1
_chemical_formula_structural   Dy3Ho9Os3Ru
_chemical_formula_sum   'Dy3 Ho9 Os3 Ru1'
_cell_volume   420.91957753
_cell_formula_units_Z   1
loop_
 _symmetry_equiv_pos_site_id
 _symmetry_equiv_pos_as_xyz
  1  'x, y, z'
loop_
 _atom_site_type_symbol
 _atom_site_label
 _atom_site_symmetry_multiplicity
 _atom_site_fract_x
 _atom_site_fract_y
 _atom_site_fract_z
 _atom_site_occupancy
  Dy  Dy0  1  0.868473  0.538898  0.250000  1
  Dy  Dy1  1  0.133338  0.460326  0.750000  1
  Dy  Dy2  1  0.368696  0.958864  0.750000  1
  Ho  Ho3  1  0.330020  0.675901  0.064381  1
  Ho  Ho4  1  0.169207  0.175267  0.437094  1
  Ho  Ho5  1  0.668141  0.324305  0.563032  1
  Ho  Ho6  1  0.832547  0.825504  0.937724  1
  Ho  Ho7  1  0.668141  0.324305  0.936968  1
  Ho  Ho8  1  0.832547  0.825504  0.562276  1
  Ho  Ho9  1  0.330020  0.675901  0.435619  1
  Ho  Ho10  1  0.169207  0.175267  0.062906  1
  Ho  Ho11  1  0.631343  0.039377  0.250000  1
  Os  Os12  1  0.038937  0.883871  0.250000  1
  Os  Os13  1  0.460788  0.383789  0.250000  1
  Os  Os14  1  0.960658  0.116602  0.750000  1
  Ru  Ru15  1  0.537935  0.616318  0.750000  1
