# generated using pymatgen
data_Nd3In3CuIrAu
_symmetry_space_group_name_H-M   'P 1'
_cell_length_a   7.77071500
_cell_length_b   7.77071373
_cell_length_c   4.03478800
_cell_angle_alpha   90.00000000
_cell_angle_beta   90.00000000
_cell_angle_gamma   119.99999262
_symmetry_Int_Tables_number   1
_chemical_formula_structural   Nd3In3CuIrAu
_chemical_formula_sum   'Nd3 In3 Cu1 Ir1 Au1'
_cell_volume   210.99554021
_cell_formula_units_Z   1
loop_
 _symmetry_equiv_pos_site_id
 _symmetry_equiv_pos_as_xyz
  1  'x, y, z'
loop_
 _atom_site_type_symbol
 _atom_site_label
 _atom_site_symmetry_multiplicity
 _atom_site_fract_x
 _atom_site_fract_y
 _atom_site_fract_z
 _atom_site_occupancy
  Nd  Nd0  1  0.018608  0.596734  0.500000  1
  Nd  Nd1  1  0.403266  0.421873  0.500000  1
  Nd  Nd2  1  0.578127  0.981392  0.500000  1
  In  In3  1  0.754622  0.756027  0.000000  1
  In  In4  1  0.001404  0.245378  0.000000  1
  In  In5  1  0.243973  0.998596  0.000000  1
  Cu  Cu6  1  0.000000  0.000000  0.500000  1
  Ir  Ir7  1  0.333333  0.666667  0.000000  1
  Au  Au8  1  0.666667  0.333333  0.000000  1
