# generated using pymatgen
data_Sr4GaHgPt4
_symmetry_space_group_name_H-M   'P 1'
_cell_length_a   5.90248802
_cell_length_b   5.90248806
_cell_length_c   8.40832082
_cell_angle_alpha   78.39958362
_cell_angle_beta   78.39958083
_cell_angle_gamma   61.16546081
_symmetry_Int_Tables_number   1
_chemical_formula_structural   Sr4GaHgPt4
_chemical_formula_sum   'Sr4 Ga1 Hg1 Pt4'
_cell_volume   249.52210887
_cell_formula_units_Z   1
loop_
 _symmetry_equiv_pos_site_id
 _symmetry_equiv_pos_as_xyz
  1  'x, y, z'
loop_
 _atom_site_type_symbol
 _atom_site_label
 _atom_site_symmetry_multiplicity
 _atom_site_fract_x
 _atom_site_fract_y
 _atom_site_fract_z
 _atom_site_occupancy
  Sr  Sr0  1  0.790890  0.509100  0.851823  1
  Sr  Sr1  1  0.490900  0.209110  0.648177  1
  Sr  Sr2  1  0.208994  0.497069  0.147177  1
  Sr  Sr3  1  0.502931  0.791006  0.352823  1
  Ga  Ga4  1  0.885309  0.114691  0.250000  1
  Hg  Hg5  1  0.155498  0.844502  0.750000  1
  Pt  Pt6  1  0.988132  0.732323  0.490615  1
  Pt  Pt7  1  0.267677  0.011868  0.009385  1
  Pt  Pt8  1  0.984338  0.274667  0.479294  1
  Pt  Pt9  1  0.725333  0.015662  0.020706  1
