# generated using pymatgen
data_Ce2CdNiIr
_symmetry_space_group_name_H-M   'P 1'
_cell_length_a   7.61283700
_cell_length_b   7.60513400
_cell_length_c   3.68945300
_cell_angle_alpha   90.00000000
_cell_angle_beta   90.00000000
_cell_angle_gamma   90.00000000
_symmetry_Int_Tables_number   1
_chemical_formula_structural   Ce2CdNiIr
_chemical_formula_sum   'Ce4 Cd2 Ni2 Ir2'
_cell_volume   213.60695245
_cell_formula_units_Z   2
loop_
 _symmetry_equiv_pos_site_id
 _symmetry_equiv_pos_as_xyz
  1  'x, y, z'
loop_
 _atom_site_type_symbol
 _atom_site_label
 _atom_site_symmetry_multiplicity
 _atom_site_fract_x
 _atom_site_fract_y
 _atom_site_fract_z
 _atom_site_occupancy
  Ce  Ce0  1  0.669791  0.171752  0.000000  1
  Ce  Ce1  1  0.169790  0.328247  0.000000  1
  Ce  Ce2  1  0.827289  0.668867  0.000000  1
  Ce  Ce3  1  0.327289  0.831133  0.000000  1
  Cd  Cd4  1  0.996514  0.993282  0.500001  1
  Cd  Cd5  1  0.496514  0.506718  0.500001  1
  Ni  Ni6  1  0.131835  0.633073  0.500001  1
  Ni  Ni7  1  0.631834  0.866926  0.500001  1
  Ir  Ir8  1  0.374572  0.123065  0.500001  1
  Ir  Ir9  1  0.874571  0.376936  0.500001  1
