# generated using pymatgen
data_NdY3HgPd
_symmetry_space_group_name_H-M   'P 1'
_cell_length_a   9.79075700
_cell_length_b   9.79075754
_cell_length_c   9.79075700
_cell_angle_alpha   59.99999844
_cell_angle_beta   59.99999663
_cell_angle_gamma   59.99999956
_symmetry_Int_Tables_number   1
_chemical_formula_structural   NdY3HgPd
_chemical_formula_sum   'Nd4 Y12 Hg4 Pd4'
_cell_volume   663.64193957
_cell_formula_units_Z   4
loop_
 _symmetry_equiv_pos_site_id
 _symmetry_equiv_pos_as_xyz
  1  'x, y, z'
loop_
 _atom_site_type_symbol
 _atom_site_label
 _atom_site_symmetry_multiplicity
 _atom_site_fract_x
 _atom_site_fract_y
 _atom_site_fract_z
 _atom_site_occupancy
  Nd  Nd0  1  0.357528  0.357528  0.357528  1
  Nd  Nd1  1  0.357528  0.357528  0.927415  1
  Nd  Nd2  1  0.357528  0.927415  0.357528  1
  Nd  Nd3  1  0.927415  0.357528  0.357528  1
  Y  Y4  1  0.812849  0.187151  0.187151  1
  Y  Y5  1  0.187151  0.812849  0.812849  1
  Y  Y6  1  0.187151  0.812849  0.187151  1
  Y  Y7  1  0.812849  0.187151  0.812849  1
  Y  Y8  1  0.187151  0.187151  0.812849  1
  Y  Y9  1  0.812849  0.812849  0.187151  1
  Y  Y10  1  0.935000  0.565000  0.565000  1
  Y  Y11  1  0.565000  0.935000  0.935000  1
  Y  Y12  1  0.565000  0.935000  0.565000  1
  Y  Y13  1  0.935000  0.565000  0.935000  1
  Y  Y14  1  0.565000  0.565000  0.935000  1
  Y  Y15  1  0.935000  0.935000  0.565000  1
  Hg  Hg16  1  0.589121  0.589121  0.589121  1
  Hg  Hg17  1  0.589121  0.589121  0.232640  1
  Hg  Hg18  1  0.589121  0.232640  0.589121  1
  Hg  Hg19  1  0.232640  0.589121  0.589121  1
  Pd  Pd20  1  0.144316  0.144316  0.144316  1
  Pd  Pd21  1  0.144316  0.144316  0.567050  1
  Pd  Pd22  1  0.144316  0.567050  0.144316  1
  Pd  Pd23  1  0.567050  0.144316  0.144316  1
