# generated using pymatgen
data_CaDy3Sn6Rh7
_symmetry_space_group_name_H-M   'P 1'
_cell_length_a   7.63560286
_cell_length_b   7.61925283
_cell_length_c   7.63560419
_cell_angle_alpha   109.42785338
_cell_angle_beta   109.51455802
_cell_angle_gamma   109.42785082
_symmetry_Int_Tables_number   1
_chemical_formula_structural   CaDy3Sn6Rh7
_chemical_formula_sum   'Ca1 Dy3 Sn6 Rh7'
_cell_volume   342.14435579
_cell_formula_units_Z   1
loop_
 _symmetry_equiv_pos_site_id
 _symmetry_equiv_pos_as_xyz
  1  'x, y, z'
loop_
 _atom_site_type_symbol
 _atom_site_label
 _atom_site_symmetry_multiplicity
 _atom_site_fract_x
 _atom_site_fract_y
 _atom_site_fract_z
 _atom_site_occupancy
  Ca  Ca0  1  0.000000  0.500000  0.000000  1
  Dy  Dy1  1  0.000000  0.000000  0.500000  1
  Dy  Dy2  1  0.500000  0.000000  0.000000  1
  Dy  Dy3  1  0.500000  0.500000  0.500000  1
  Sn  Sn4  1  0.684638  0.681776  0.000000  1
  Sn  Sn5  1  0.315362  0.997138  0.315362  1
  Sn  Sn6  1  0.000000  0.318224  0.315362  1
  Sn  Sn7  1  0.315362  0.318224  0.000000  1
  Sn  Sn8  1  0.684638  0.002862  0.684638  1
  Sn  Sn9  1  0.000000  0.681776  0.684638  1
  Rh  Rh10  1  0.747089  0.247089  0.494178  1
  Rh  Rh11  1  0.747089  0.500000  0.252911  1
  Rh  Rh12  1  0.494178  0.247089  0.747089  1
  Rh  Rh13  1  0.252911  0.500000  0.747089  1
  Rh  Rh14  1  0.252911  0.752911  0.505822  1
  Rh  Rh15  1  0.505822  0.752911  0.252911  1
  Rh  Rh16  1  0.000000  0.000000  0.000000  1
