# generated using pymatgen
data_Y6Fe13Co5P12
_symmetry_space_group_name_H-M   'P 1'
_cell_length_a   3.72703400
_cell_length_b   10.51803283
_cell_length_c   12.11408782
_cell_angle_alpha   89.95715247
_cell_angle_beta   90.00000000
_cell_angle_gamma   90.00000000
_symmetry_Int_Tables_number   1
_chemical_formula_structural   Y6Fe13Co5P12
_chemical_formula_sum   'Y6 Fe13 Co5 P12'
_cell_volume   474.88502305
_cell_formula_units_Z   1
loop_
 _symmetry_equiv_pos_site_id
 _symmetry_equiv_pos_as_xyz
  1  'x, y, z'
loop_
 _atom_site_type_symbol
 _atom_site_label
 _atom_site_symmetry_multiplicity
 _atom_site_fract_x
 _atom_site_fract_y
 _atom_site_fract_z
 _atom_site_occupancy
  Y  Y0  1  0.000000  0.500059  0.524883  1
  Y  Y1  1  0.500000  0.000036  0.474644  1
  Y  Y2  1  0.500000  0.818409  0.205307  1
  Y  Y3  1  0.500000  0.181893  0.204981  1
  Y  Y4  1  0.000000  0.680768  0.795148  1
  Y  Y5  1  0.000000  0.318424  0.796116  1
  Fe  Fe6  1  0.000000  0.502487  0.987684  1
  Fe  Fe7  1  0.500000  0.998820  0.012804  1
  Fe  Fe8  1  0.500000  0.299160  0.428822  1
  Fe  Fe9  1  0.500000  0.701153  0.428925  1
  Fe  Fe10  1  0.000000  0.201183  0.571226  1
  Fe  Fe11  1  0.000000  0.798846  0.571112  1
  Fe  Fe12  1  0.500000  0.882522  0.710245  1
  Fe  Fe13  1  0.500000  0.116890  0.710885  1
  Fe  Fe14  1  0.000000  0.617456  0.289636  1
  Fe  Fe15  1  0.000000  0.382923  0.288031  1
  Fe  Fe16  1  0.500000  0.330893  0.994602  1
  Fe  Fe17  1  0.500000  0.502911  0.151420  1
  Fe  Fe18  1  0.000000  0.998359  0.847910  1
  Co  Co19  1  0.500000  0.670313  0.992706  1
  Co  Co20  1  0.000000  0.166189  0.006697  1
  Co  Co21  1  0.000000  0.830785  0.007394  1
  Co  Co22  1  0.500000  0.500247  0.698457  1
  Co  Co23  1  0.000000  0.000254  0.301346  1
  P  P24  1  0.500000  0.304822  0.614768  1
  P  P25  1  0.500000  0.695233  0.614228  1
  P  P26  1  0.000000  0.195899  0.385486  1
  P  P27  1  0.000000  0.804659  0.385876  1
  P  P28  1  0.500000  0.498772  0.884826  1
  P  P29  1  0.000000  0.999311  0.116389  1
  P  P30  1  0.500000  0.850020  0.892370  1
  P  P31  1  0.500000  0.151246  0.894069  1
  P  P32  1  0.000000  0.650471  0.107761  1
  P  P33  1  0.000000  0.348575  0.103988  1
  P  P34  1  0.500000  0.500168  0.337390  1
  P  P35  1  0.000000  0.999840  0.661868  1
