# generated using pymatgen
data_LiCdBPt3
_symmetry_space_group_name_H-M   'P 1'
_cell_length_a   6.99219900
_cell_length_b   6.99219900
_cell_length_c   6.99219900
_cell_angle_alpha   90.00000000
_cell_angle_beta   90.00000000
_cell_angle_gamma   90.00000000
_symmetry_Int_Tables_number   1
_chemical_formula_structural   LiCdBPt3
_chemical_formula_sum   'Li4 Cd4 B4 Pt12'
_cell_volume   341.85453049
_cell_formula_units_Z   4
loop_
 _symmetry_equiv_pos_site_id
 _symmetry_equiv_pos_as_xyz
  1  'x, y, z'
loop_
 _atom_site_type_symbol
 _atom_site_label
 _atom_site_symmetry_multiplicity
 _atom_site_fract_x
 _atom_site_fract_y
 _atom_site_fract_z
 _atom_site_occupancy
  Li  Li0  1  0.950139  0.950139  0.950139  1
  Li  Li1  1  0.549860  0.049860  0.450139  1
  Li  Li2  1  0.049860  0.450139  0.549860  1
  Li  Li3  1  0.450139  0.549860  0.049860  1
  Cd  Cd4  1  0.309082  0.309082  0.309082  1
  Cd  Cd5  1  0.190919  0.690919  0.809081  1
  Cd  Cd6  1  0.809081  0.190919  0.690919  1
  Cd  Cd7  1  0.690919  0.809081  0.190919  1
  B  B8  1  0.874350  0.374350  0.125650  1
  B  B9  1  0.625651  0.625651  0.625651  1
  B  B10  1  0.374350  0.125650  0.874350  1
  B  B11  1  0.125650  0.874350  0.374350  1
  Pt  Pt12  1  0.125754  0.306627  0.943091  1
  Pt  Pt13  1  0.374246  0.693373  0.443090  1
  Pt  Pt14  1  0.625755  0.193374  0.056910  1
  Pt  Pt15  1  0.874246  0.806627  0.556909  1
  Pt  Pt16  1  0.943091  0.125754  0.306627  1
  Pt  Pt17  1  0.306627  0.943091  0.125754  1
  Pt  Pt18  1  0.556909  0.874246  0.806627  1
  Pt  Pt19  1  0.693373  0.443090  0.374246  1
  Pt  Pt20  1  0.443090  0.374246  0.693373  1
  Pt  Pt21  1  0.193374  0.056910  0.625755  1
  Pt  Pt22  1  0.056910  0.625755  0.193374  1
  Pt  Pt23  1  0.806627  0.556909  0.874246  1
