# generated using pymatgen
data_Ho16Cd4Ir2RuRh
_symmetry_space_group_name_H-M   'P 1'
_cell_length_a   9.61932820
_cell_length_b   9.61920183
_cell_length_c   9.59434734
_cell_angle_alpha   59.76978231
_cell_angle_beta   59.76746243
_cell_angle_gamma   59.91188890
_symmetry_Int_Tables_number   1
_chemical_formula_structural   Ho16Cd4Ir2RuRh
_chemical_formula_sum   'Ho16 Cd4 Ir2 Ru1 Rh1'
_cell_volume   625.12734057
_cell_formula_units_Z   1
loop_
 _symmetry_equiv_pos_site_id
 _symmetry_equiv_pos_as_xyz
  1  'x, y, z'
loop_
 _atom_site_type_symbol
 _atom_site_label
 _atom_site_symmetry_multiplicity
 _atom_site_fract_x
 _atom_site_fract_y
 _atom_site_fract_z
 _atom_site_occupancy
  Ho  Ho0  1  0.937792  0.937828  0.560824  1
  Ho  Ho1  1  0.562067  0.562106  0.935730  1
  Ho  Ho2  1  0.689823  0.689796  0.311698  1
  Ho  Ho3  1  0.150004  0.546944  0.150206  1
  Ho  Ho4  1  0.687811  0.312493  0.690191  1
  Ho  Ho5  1  0.152159  0.152139  0.150710  1
  Ho  Ho6  1  0.546952  0.150005  0.150181  1
  Ho  Ho7  1  0.690491  0.310304  0.311488  1
  Ho  Ho8  1  0.150101  0.150100  0.546298  1
  Ho  Ho9  1  0.310299  0.690494  0.311485  1
  Ho  Ho10  1  0.312491  0.687817  0.690181  1
  Ho  Ho11  1  0.937212  0.563000  0.562156  1
  Ho  Ho12  1  0.939625  0.561017  0.936977  1
  Ho  Ho13  1  0.562993  0.937201  0.562177  1
  Ho  Ho14  1  0.561048  0.939623  0.936979  1
  Ho  Ho15  1  0.311315  0.311296  0.691640  1
  Cd  Cd16  1  0.919229  0.919222  0.242760  1
  Cd  Cd17  1  0.243540  0.918986  0.919063  1
  Cd  Cd18  1  0.919193  0.919194  0.919599  1
  Cd  Cd19  1  0.918998  0.243532  0.919066  1
  Ir  Ir20  1  0.357236  0.924467  0.358045  1
  Ir  Ir21  1  0.924467  0.357215  0.358067  1
  Ru  Ru22  1  0.357301  0.357350  0.924810  1
  Rh  Rh23  1  0.357853  0.357870  0.359666  1
