# generated using pymatgen
data_V3Si2Tc3
_symmetry_space_group_name_H-M   'P 1'
_cell_length_a   4.73864343
_cell_length_b   4.73864338
_cell_length_c   4.73864433
_cell_angle_alpha   89.79776180
_cell_angle_beta   90.20224133
_cell_angle_gamma   90.20224271
_symmetry_Int_Tables_number   1
_chemical_formula_structural   V3Si2Tc3
_chemical_formula_sum   'V3 Si2 Tc3'
_cell_volume   106.40304871
_cell_formula_units_Z   1
loop_
 _symmetry_equiv_pos_site_id
 _symmetry_equiv_pos_as_xyz
  1  'x, y, z'
loop_
 _atom_site_type_symbol
 _atom_site_label
 _atom_site_symmetry_multiplicity
 _atom_site_fract_x
 _atom_site_fract_y
 _atom_site_fract_z
 _atom_site_occupancy
  V  V0  1  0.502068  0.250000  0.002068  1
  V  V1  1  0.750000  0.002068  0.497932  1
  V  V2  1  0.997932  0.497932  0.250000  1
  Si  Si3  1  0.501284  0.498716  0.498716  1
  Si  Si4  1  0.998716  0.001284  0.001284  1
  Tc  Tc5  1  0.503287  0.750000  0.003287  1
  Tc  Tc6  1  0.250000  0.003287  0.496713  1
  Tc  Tc7  1  0.996713  0.496713  0.750000  1
