# generated using pymatgen
data_Eu2CuSn2Au
_symmetry_space_group_name_H-M   'P 1'
_cell_length_a   4.71173700
_cell_length_b   7.61043861
_cell_length_c   7.94116000
_cell_angle_alpha   90.07553424
_cell_angle_beta   90.00000000
_cell_angle_gamma   90.00000000
_symmetry_Int_Tables_number   1
_chemical_formula_structural   Eu2CuSn2Au
_chemical_formula_sum   'Eu4 Cu2 Sn4 Au2'
_cell_volume   284.75692677
_cell_formula_units_Z   2
loop_
 _symmetry_equiv_pos_site_id
 _symmetry_equiv_pos_as_xyz
  1  'x, y, z'
loop_
 _atom_site_type_symbol
 _atom_site_label
 _atom_site_symmetry_multiplicity
 _atom_site_fract_x
 _atom_site_fract_y
 _atom_site_fract_z
 _atom_site_occupancy
  Eu  Eu0  1  0.250000  0.495652  0.203709  1
  Eu  Eu1  1  0.750000  0.511228  0.798695  1
  Eu  Eu2  1  0.250000  0.988308  0.298270  1
  Eu  Eu3  1  0.750000  0.004752  0.704070  1
  Cu  Cu4  1  0.750000  0.812387  0.081815  1
  Cu  Cu5  1  0.250000  0.687562  0.582481  1
  Sn  Sn6  1  0.250000  0.318403  0.589428  1
  Sn  Sn7  1  0.750000  0.182024  0.089698  1
  Sn  Sn8  1  0.250000  0.799312  0.910128  1
  Sn  Sn9  1  0.750000  0.700469  0.410502  1
  Au  Au10  1  0.750000  0.301425  0.415789  1
  Au  Au11  1  0.250000  0.198478  0.915413  1
