# generated using pymatgen
data_Ti5Ga(Co5B2)2
_symmetry_space_group_name_H-M   'P 1'
_cell_length_a   8.40659900
_cell_length_b   8.40659900
_cell_length_c   3.04632000
_cell_angle_alpha   90.00000000
_cell_angle_beta   90.00000000
_cell_angle_gamma   90.00000000
_symmetry_Int_Tables_number   1
_chemical_formula_structural   Ti5Ga(Co5B2)2
_chemical_formula_sum   'Ti5 Ga1 Co10 B4'
_cell_volume   215.28619664
_cell_formula_units_Z   1
loop_
 _symmetry_equiv_pos_site_id
 _symmetry_equiv_pos_as_xyz
  1  'x, y, z'
loop_
 _atom_site_type_symbol
 _atom_site_label
 _atom_site_symmetry_multiplicity
 _atom_site_fract_x
 _atom_site_fract_y
 _atom_site_fract_z
 _atom_site_occupancy
  Ti  Ti0  1  0.500000  0.500000  0.000000  1
  Ti  Ti1  1  0.827338  0.322878  0.000000  1
  Ti  Ti2  1  0.322878  0.172662  0.000000  1
  Ti  Ti3  1  0.677122  0.827338  0.000000  1
  Ti  Ti4  1  0.172662  0.677122  0.000000  1
  Ga  Ga5  1  0.000000  0.000000  0.000000  1
  Co  Co6  1  0.500000  0.000000  0.500000  1
  Co  Co7  1  0.000000  0.500000  0.500000  1
  Co  Co8  1  0.071461  0.220611  0.500000  1
  Co  Co9  1  0.220611  0.928539  0.500000  1
  Co  Co10  1  0.779389  0.071461  0.500000  1
  Co  Co11  1  0.928539  0.779389  0.500000  1
  Co  Co12  1  0.429550  0.720427  0.500000  1
  Co  Co13  1  0.570450  0.279573  0.500000  1
  Co  Co14  1  0.720427  0.570450  0.500000  1
  Co  Co15  1  0.279573  0.429550  0.500000  1
  B  B16  1  0.621214  0.120030  0.000000  1
  B  B17  1  0.120030  0.378786  0.000000  1
  B  B18  1  0.879970  0.621214  0.000000  1
  B  B19  1  0.378786  0.879970  0.000000  1
