# generated using pymatgen
data_Th3Ga2Rh3Au
_symmetry_space_group_name_H-M   'P 1'
_cell_length_a   7.37909189
_cell_length_b   7.67198087
_cell_length_c   3.91157200
_cell_angle_alpha   90.00000000
_cell_angle_beta   90.00000000
_cell_angle_gamma   121.32192299
_symmetry_Int_Tables_number   1
_chemical_formula_structural   Th3Ga2Rh3Au
_chemical_formula_sum   'Th3 Ga2 Rh3 Au1'
_cell_volume   189.16980755
_cell_formula_units_Z   1
loop_
 _symmetry_equiv_pos_site_id
 _symmetry_equiv_pos_as_xyz
  1  'x, y, z'
loop_
 _atom_site_type_symbol
 _atom_site_label
 _atom_site_symmetry_multiplicity
 _atom_site_fract_x
 _atom_site_fract_y
 _atom_site_fract_z
 _atom_site_occupancy
  Th  Th0  1  0.000000  0.405841  0.500000  1
  Th  Th1  1  0.600848  0.598010  0.500000  1
  Th  Th2  1  0.399152  0.997162  0.500000  1
  Ga  Ga3  1  0.252080  0.251371  0.000000  1
  Ga  Ga4  1  0.747920  0.999290  0.000000  1
  Rh  Rh5  1  0.345926  0.654292  0.000000  1
  Rh  Rh6  1  0.654074  0.308366  0.000000  1
  Rh  Rh7  1  0.000000  0.037058  0.500000  1
  Au  Au8  1  0.000000  0.748610  0.000000  1
