# generated using pymatgen
data_Ta4Co2Si4NiRu
_symmetry_space_group_name_H-M   'P 1'
_cell_length_a   6.29195871
_cell_length_b   3.68814700
_cell_length_c   7.15078308
_cell_angle_alpha   90.00000000
_cell_angle_beta   89.40264244
_cell_angle_gamma   90.00000000
_symmetry_Int_Tables_number   1
_chemical_formula_structural   Ta4Co2Si4NiRu
_chemical_formula_sum   'Ta4 Co2 Si4 Ni1 Ru1'
_cell_volume   165.92968417
_cell_formula_units_Z   1
loop_
 _symmetry_equiv_pos_site_id
 _symmetry_equiv_pos_as_xyz
  1  'x, y, z'
loop_
 _atom_site_type_symbol
 _atom_site_label
 _atom_site_symmetry_multiplicity
 _atom_site_fract_x
 _atom_site_fract_y
 _atom_site_fract_z
 _atom_site_occupancy
  Ta  Ta0  1  0.022050  0.250000  0.823997  1
  Ta  Ta1  1  0.526622  0.250000  0.681624  1
  Ta  Ta2  1  0.979160  0.750000  0.172336  1
  Ta  Ta3  1  0.476812  0.750000  0.320630  1
  Co  Co4  1  0.641069  0.250000  0.060904  1
  Co  Co5  1  0.360966  0.750000  0.938220  1
  Si  Si6  1  0.766860  0.250000  0.373557  1
  Si  Si7  1  0.278490  0.250000  0.112303  1
  Si  Si8  1  0.234443  0.750000  0.630123  1
  Si  Si9  1  0.724158  0.750000  0.883568  1
  Ni  Ni10  1  0.849712  0.750000  0.565919  1
  Ru  Ru11  1  0.139658  0.250000  0.436821  1
