# generated using pymatgen
data_KBaFe2(CoP2)2
_symmetry_space_group_name_H-M   'P 1'
_cell_length_a   6.92111553
_cell_length_b   6.92111634
_cell_length_c   5.29647800
_cell_angle_alpha   90.00000000
_cell_angle_beta   90.00000000
_cell_angle_gamma   135.02432351
_symmetry_Int_Tables_number   1
_chemical_formula_structural   KBaFe2(CoP2)2
_chemical_formula_sum   'K1 Ba1 Fe2 Co2 P4'
_cell_volume   179.32464328
_cell_formula_units_Z   1
loop_
 _symmetry_equiv_pos_site_id
 _symmetry_equiv_pos_as_xyz
  1  'x, y, z'
loop_
 _atom_site_type_symbol
 _atom_site_label
 _atom_site_symmetry_multiplicity
 _atom_site_fract_x
 _atom_site_fract_y
 _atom_site_fract_z
 _atom_site_occupancy
  K  K0  1  0.000000  0.000000  0.000000  1
  Ba  Ba1  1  0.500000  0.500000  0.500000  1
  Fe  Fe2  1  0.000000  0.500000  0.749904  1
  Fe  Fe3  1  0.500000  0.000000  0.250096  1
  Co  Co4  1  0.500000  0.000000  0.750030  1
  Co  Co5  1  0.000000  0.500000  0.249970  1
  P  P6  1  0.659547  0.340453  0.000000  1
  P  P7  1  0.159321  0.840679  0.500000  1
  P  P8  1  0.840679  0.159321  0.500000  1
  P  P9  1  0.340453  0.659547  0.000000  1
