# generated using pymatgen
data_Li8Ca3HoIn4
_symmetry_space_group_name_H-M   'P 1'
_cell_length_a   7.02544400
_cell_length_b   4.93750800
_cell_length_c   9.92370500
_cell_angle_alpha   90.00000000
_cell_angle_beta   90.00004756
_cell_angle_gamma   90.00000000
_symmetry_Int_Tables_number   1
_chemical_formula_structural   Li8Ca3HoIn4
_chemical_formula_sum   'Li8 Ca3 Ho1 In4'
_cell_volume   344.23532439
_cell_formula_units_Z   1
loop_
 _symmetry_equiv_pos_site_id
 _symmetry_equiv_pos_as_xyz
  1  'x, y, z'
loop_
 _atom_site_type_symbol
 _atom_site_label
 _atom_site_symmetry_multiplicity
 _atom_site_fract_x
 _atom_site_fract_y
 _atom_site_fract_z
 _atom_site_occupancy
  Li  Li0  1  0.002781  0.750000  0.127539  1
  Li  Li1  1  0.497204  0.750000  0.127550  1
  Li  Li2  1  0.999073  0.249999  0.373277  1
  Li  Li3  1  0.500942  0.249999  0.373276  1
  Li  Li4  1  0.499932  0.750000  0.627695  1
  Li  Li5  1  0.000069  0.750000  0.627711  1
  Li  Li6  1  0.500930  0.249999  0.871278  1
  Li  Li7  1  0.999073  0.249999  0.871288  1
  Ca  Ca8  1  0.249989  0.750000  0.377152  1
  Ca  Ca9  1  0.750006  0.249999  0.621877  1
  Ca  Ca10  1  0.250008  0.750000  0.878707  1
  Ho  Ho11  1  0.749994  0.249999  0.121984  1
  In  In12  1  0.250000  0.249999  0.125002  1
  In  In13  1  0.750000  0.750000  0.364926  1
  In  In14  1  0.250000  0.249999  0.624824  1
  In  In15  1  0.750000  0.750000  0.885913  1
