# generated using pymatgen
data_TbDy5(Er7Pb8)2
_symmetry_space_group_name_H-M   'P 1'
_cell_length_a   8.18144703
_cell_length_b   8.24500750
_cell_length_c   15.56994013
_cell_angle_alpha   90.03936225
_cell_angle_beta   90.01031360
_cell_angle_gamma   90.00158655
_symmetry_Int_Tables_number   1
_chemical_formula_structural   TbDy5(Er7Pb8)2
_chemical_formula_sum   'Tb1 Dy5 Er14 Pb16'
_cell_volume   1050.28705092
_cell_formula_units_Z   1
loop_
 _symmetry_equiv_pos_site_id
 _symmetry_equiv_pos_as_xyz
  1  'x, y, z'
loop_
 _atom_site_type_symbol
 _atom_site_label
 _atom_site_symmetry_multiplicity
 _atom_site_fract_x
 _atom_site_fract_y
 _atom_site_fract_z
 _atom_site_occupancy
  Tb  Tb0  1  0.463311  0.676251  0.400276  1
  Dy  Dy1  1  0.963275  0.823786  0.099747  1
  Dy  Dy2  1  0.463000  0.675854  0.099476  1
  Dy  Dy3  1  0.963004  0.824177  0.400536  1
  Dy  Dy4  1  0.536420  0.323772  0.599515  1
  Dy  Dy5  1  0.036430  0.176219  0.900492  1
  Er  Er6  1  0.376844  0.842150  0.878353  1
  Er  Er7  1  0.876829  0.657827  0.621643  1
  Er  Er8  1  0.622779  0.157974  0.378710  1
  Er  Er9  1  0.122772  0.342026  0.121267  1
  Er  Er10  1  0.622678  0.158134  0.121042  1
  Er  Er11  1  0.122661  0.341824  0.378936  1
  Er  Er12  1  0.377076  0.842333  0.621760  1
  Er  Er13  1  0.877075  0.657690  0.878271  1
  Er  Er14  1  0.538021  0.324352  0.899720  1
  Er  Er15  1  0.038000  0.175657  0.600341  1
  Er  Er16  1  0.209170  0.504745  0.750039  1
  Er  Er17  1  0.709180  0.995254  0.749975  1
  Er  Er18  1  0.791020  0.495120  0.249844  1
  Er  Er19  1  0.290953  0.004859  0.250119  1
  Pb  Pb20  1  0.281588  0.034051  0.042820  1
  Pb  Pb21  1  0.781685  0.465886  0.457183  1
  Pb  Pb22  1  0.718743  0.966546  0.543020  1
  Pb  Pb23  1  0.218740  0.533449  0.956969  1
  Pb  Pb24  1  0.717196  0.965515  0.957150  1
  Pb  Pb25  1  0.217118  0.534423  0.542894  1
  Pb  Pb26  1  0.281569  0.035007  0.457931  1
  Pb  Pb27  1  0.781627  0.465053  0.042072  1
  Pb  Pb28  1  0.572013  0.626014  0.749842  1
  Pb  Pb29  1  0.072004  0.874008  0.750154  1
  Pb  Pb30  1  0.428028  0.373160  0.249979  1
  Pb  Pb31  1  0.928046  0.126801  0.250011  1
  Pb  Pb32  1  0.348992  0.154809  0.750185  1
  Pb  Pb33  1  0.848988  0.345191  0.749819  1
  Pb  Pb34  1  0.651640  0.845904  0.249575  1
  Pb  Pb35  1  0.151528  0.654179  0.250334  1
