# generated using pymatgen
data_TbY2AlGa3Ni9B2
_symmetry_space_group_name_H-M   'P 1'
_cell_length_a   5.19190700
_cell_length_b   5.19190608
_cell_length_c   10.60689200
_cell_angle_alpha   90.00000000
_cell_angle_beta   90.00000000
_cell_angle_gamma   120.00001226
_symmetry_Int_Tables_number   1
_chemical_formula_structural   TbY2AlGa3Ni9B2
_chemical_formula_sum   'Tb1 Y2 Al1 Ga3 Ni9 B2'
_cell_volume   247.61243826
_cell_formula_units_Z   1
loop_
 _symmetry_equiv_pos_site_id
 _symmetry_equiv_pos_as_xyz
  1  'x, y, z'
loop_
 _atom_site_type_symbol
 _atom_site_label
 _atom_site_symmetry_multiplicity
 _atom_site_fract_x
 _atom_site_fract_y
 _atom_site_fract_z
 _atom_site_occupancy
  Tb  Tb0  1  0.000000  0.000000  0.000246  1
  Y  Y1  1  0.000000  0.000000  0.663602  1
  Y  Y2  1  0.000000  0.000000  0.336496  1
  Al  Al3  1  0.666667  0.333333  0.315931  1
  Ga  Ga4  1  0.666667  0.333333  0.684144  1
  Ga  Ga5  1  0.333333  0.666667  0.684317  1
  Ga  Ga6  1  0.333333  0.666667  0.315754  1
  Ni  Ni7  1  0.500093  0.499907  0.871628  1
  Ni  Ni8  1  0.500093  0.000187  0.871628  1
  Ni  Ni9  1  0.999813  0.499907  0.871628  1
  Ni  Ni10  1  0.500136  0.499864  0.128719  1
  Ni  Ni11  1  0.500136  0.000271  0.128719  1
  Ni  Ni12  1  0.999729  0.499864  0.128719  1
  Ni  Ni13  1  0.500400  0.499600  0.499541  1
  Ni  Ni14  1  0.500400  0.000800  0.499541  1
  Ni  Ni15  1  0.999200  0.499600  0.499541  1
  B  B16  1  0.666667  0.333333  0.000135  1
  B  B17  1  0.333333  0.666667  0.999714  1
