# generated using pymatgen
data_KCoPd3O8
_symmetry_space_group_name_H-M   'P 1'
_cell_length_a   6.06508484
_cell_length_b   6.06508526
_cell_length_c   7.39555100
_cell_angle_alpha   67.79621037
_cell_angle_beta   67.79620874
_cell_angle_gamma   60.07819071
_symmetry_Int_Tables_number   1
_chemical_formula_structural   KCoPd3O8
_chemical_formula_sum   'K1 Co1 Pd3 O8'
_cell_volume   212.13288638
_cell_formula_units_Z   1
loop_
 _symmetry_equiv_pos_site_id
 _symmetry_equiv_pos_as_xyz
  1  'x, y, z'
loop_
 _atom_site_type_symbol
 _atom_site_label
 _atom_site_symmetry_multiplicity
 _atom_site_fract_x
 _atom_site_fract_y
 _atom_site_fract_z
 _atom_site_occupancy
  K  K0  1  0.500000  0.500000  0.500000  1
  Co  Co1  1  0.500000  0.500000  0.000000  1
  Pd  Pd2  1  0.000000  0.000000  0.000000  1
  Pd  Pd3  1  0.000000  0.500000  0.000000  1
  Pd  Pd4  1  0.500000  0.000000  0.000000  1
  O  O5  1  0.705158  0.705158  0.851531  1
  O  O6  1  0.704806  0.227342  0.850844  1
  O  O7  1  0.227342  0.704806  0.850844  1
  O  O8  1  0.215081  0.215081  0.844113  1
  O  O9  1  0.784919  0.784919  0.155887  1
  O  O10  1  0.772658  0.295194  0.149156  1
  O  O11  1  0.295194  0.772658  0.149156  1
  O  O12  1  0.294842  0.294842  0.148469  1
