# generated using pymatgen
data_Y4MgRu2Pb
_symmetry_space_group_name_H-M   'P 1'
_cell_length_a   9.20656631
_cell_length_b   9.20656609
_cell_length_c   9.20656700
_cell_angle_alpha   133.07812339
_cell_angle_beta   133.07813065
_cell_angle_gamma   68.53148214
_symmetry_Int_Tables_number   1
_chemical_formula_structural   Y4MgRu2Pb
_chemical_formula_sum   'Y8 Mg2 Ru4 Pb2'
_cell_volume   408.88197491
_cell_formula_units_Z   2
loop_
 _symmetry_equiv_pos_site_id
 _symmetry_equiv_pos_as_xyz
  1  'x, y, z'
loop_
 _atom_site_type_symbol
 _atom_site_label
 _atom_site_symmetry_multiplicity
 _atom_site_fract_x
 _atom_site_fract_y
 _atom_site_fract_z
 _atom_site_occupancy
  Y  Y0  1  0.803855  0.303855  0.854429  1
  Y  Y1  1  0.196145  0.696145  0.145571  1
  Y  Y2  1  0.449427  0.949427  0.145571  1
  Y  Y3  1  0.303855  0.449427  0.500000  1
  Y  Y4  1  0.050573  0.196145  0.500000  1
  Y  Y5  1  0.550573  0.050573  0.854429  1
  Y  Y6  1  0.696145  0.550573  0.500000  1
  Y  Y7  1  0.949427  0.803855  0.500000  1
  Mg  Mg8  1  0.000000  0.000000  0.000000  1
  Mg  Mg9  1  0.500000  0.500000  0.000000  1
  Ru  Ru10  1  0.126351  0.626351  0.752702  1
  Ru  Ru11  1  0.873649  0.373649  0.247298  1
  Ru  Ru12  1  0.626351  0.873649  0.500000  1
  Ru  Ru13  1  0.373649  0.126351  0.500000  1
  Pb  Pb14  1  0.250000  0.250000  0.000000  1
  Pb  Pb15  1  0.750000  0.750000  0.000000  1
