# generated using pymatgen
data_TmLu2Mg3SiHg2
_symmetry_space_group_name_H-M   'P 1'
_cell_length_a   7.38406461
_cell_length_b   7.38792176
_cell_length_c   4.30180300
_cell_angle_alpha   90.00000000
_cell_angle_beta   90.00000000
_cell_angle_gamma   119.93605008
_symmetry_Int_Tables_number   1
_chemical_formula_structural   TmLu2Mg3SiHg2
_chemical_formula_sum   'Tm1 Lu2 Mg3 Si1 Hg2'
_cell_volume   203.36603687
_cell_formula_units_Z   1
loop_
 _symmetry_equiv_pos_site_id
 _symmetry_equiv_pos_as_xyz
  1  'x, y, z'
loop_
 _atom_site_type_symbol
 _atom_site_label
 _atom_site_symmetry_multiplicity
 _atom_site_fract_x
 _atom_site_fract_y
 _atom_site_fract_z
 _atom_site_occupancy
  Tm  Tm0  1  0.578310  0.007792  0.000000  1
  Lu  Lu1  1  0.992245  0.570636  0.000000  1
  Lu  Lu2  1  0.429368  0.421660  0.000000  1
  Mg  Mg3  1  0.250319  0.001375  0.500000  1
  Mg  Mg4  1  0.998770  0.249199  0.500000  1
  Mg  Mg5  1  0.750897  0.749459  0.500000  1
  Si  Si6  1  0.666779  0.333631  0.500000  1
  Hg  Hg7  1  0.333017  0.666224  0.500000  1
  Hg  Hg8  1  0.000297  0.000023  0.000000  1
