# generated using pymatgen
data_Tb3Th(Ga8Pd3)3
_symmetry_space_group_name_H-M   'P 1'
_cell_length_a   7.55160432
_cell_length_b   7.60816185
_cell_length_c   13.43295472
_cell_angle_alpha   84.99368332
_cell_angle_beta   100.32448367
_cell_angle_gamma   119.68411694
_symmetry_Int_Tables_number   1
_chemical_formula_structural   Tb3Th(Ga8Pd3)3
_chemical_formula_sum   'Tb3 Th1 Ga24 Pd9'
_cell_volume   659.63650225
_cell_formula_units_Z   1
loop_
 _symmetry_equiv_pos_site_id
 _symmetry_equiv_pos_as_xyz
  1  'x, y, z'
loop_
 _atom_site_type_symbol
 _atom_site_label
 _atom_site_symmetry_multiplicity
 _atom_site_fract_x
 _atom_site_fract_y
 _atom_site_fract_z
 _atom_site_occupancy
  Tb  Tb0  1  0.563110  0.169261  0.189690  1
  Tb  Tb1  1  0.771626  0.503421  0.810609  1
  Tb  Tb2  1  0.228834  0.496675  0.189598  1
  Th  Th3  1  0.437188  0.830476  0.809606  1
  Ga  Ga4  1  0.480619  0.169834  0.941049  1
  Ga  Ga5  1  0.520508  0.833396  0.061805  1
  Ga  Ga6  1  0.021602  0.164893  0.558352  1
  Ga  Ga7  1  0.977761  0.835070  0.441043  1
  Ga  Ga8  1  0.355054  0.832866  0.555507  1
  Ga  Ga9  1  0.645181  0.167716  0.443280  1
  Ga  Ga10  1  0.613462  0.834814  0.325222  1
  Ga  Ga11  1  0.386183  0.168095  0.673433  1
  Ga  Ga12  1  0.056258  0.492904  0.672468  1
  Ga  Ga13  1  0.939839  0.503642  0.325662  1
  Ga  Ga14  1  0.732682  0.837282  0.671212  1
  Ga  Ga15  1  0.270092  0.163129  0.326510  1
  Ga  Ga16  1  0.142063  0.497240  0.942138  1
  Ga  Ga17  1  0.855096  0.499676  0.059503  1
  Ga  Ga18  1  0.816309  0.831981  0.947119  1
  Ga  Ga19  1  0.187085  0.167706  0.055132  1
  Ga  Ga20  1  0.311483  0.499503  0.442652  1
  Ga  Ga21  1  0.688333  0.500112  0.556896  1
  Ga  Ga22  1  0.102587  0.836120  0.182540  1
  Ga  Ga23  1  0.900436  0.166346  0.817887  1
  Ga  Ga24  1  0.308279  0.367111  0.816723  1
  Ga  Ga25  1  0.691321  0.629996  0.183656  1
  Ga  Ga26  1  0.100990  0.961037  0.816738  1
  Ga  Ga27  1  0.897199  0.039878  0.183932  1
  Pd  Pd28  1  0.386392  0.502941  0.638187  1
  Pd  Pd29  1  0.613154  0.496994  0.361544  1
  Pd  Pd30  1  0.171370  0.830916  0.998972  1
  Pd  Pd31  1  0.828523  0.168895  0.001299  1
  Pd  Pd32  1  0.289735  0.832799  0.360749  1
  Pd  Pd33  1  0.710302  0.167176  0.638945  1
  Pd  Pd34  1  0.049618  0.828281  0.638026  1
  Pd  Pd35  1  0.950374  0.171707  0.362122  1
  Pd  Pd36  1  0.499353  0.500110  0.000194  1
