# generated using pymatgen
data_Tb13Tm3In2(AgRh2)2
_symmetry_space_group_name_H-M   'P 1'
_cell_length_a   9.61290790
_cell_length_b   9.61052438
_cell_length_c   9.61193938
_cell_angle_alpha   60.01368683
_cell_angle_beta   59.95430088
_cell_angle_gamma   60.08779773
_symmetry_Int_Tables_number   1
_chemical_formula_structural   Tb13Tm3In2(AgRh2)2
_chemical_formula_sum   'Tb13 Tm3 In2 Ag2 Rh4'
_cell_volume   628.17369481
_cell_formula_units_Z   1
loop_
 _symmetry_equiv_pos_site_id
 _symmetry_equiv_pos_as_xyz
  1  'x, y, z'
loop_
 _atom_site_type_symbol
 _atom_site_label
 _atom_site_symmetry_multiplicity
 _atom_site_fract_x
 _atom_site_fract_y
 _atom_site_fract_z
 _atom_site_occupancy
  Tb  Tb0  1  0.646966  0.053840  0.648352  1
  Tb  Tb1  1  0.062919  0.064217  0.437693  1
  Tb  Tb2  1  0.440637  0.439091  0.059654  1
  Tb  Tb3  1  0.650381  0.648798  0.649127  1
  Tb  Tb4  1  0.811786  0.188108  0.188966  1
  Tb  Tb5  1  0.188683  0.812555  0.810602  1
  Tb  Tb6  1  0.052920  0.647440  0.648077  1
  Tb  Tb7  1  0.439403  0.066835  0.057874  1
  Tb  Tb8  1  0.437206  0.065891  0.436322  1
  Tb  Tb9  1  0.066812  0.438293  0.058862  1
  Tb  Tb10  1  0.649467  0.649363  0.052946  1
  Tb  Tb11  1  0.188410  0.811839  0.190160  1
  Tb  Tb12  1  0.065982  0.436424  0.436817  1
  Tm  Tm13  1  0.808039  0.809470  0.191541  1
  Tm  Tm14  1  0.811785  0.189835  0.810275  1
  Tm  Tm15  1  0.187743  0.187824  0.813752  1
  In  In16  1  0.417018  0.742573  0.420747  1
  In  In17  1  0.742449  0.416748  0.421328  1
  Ag  Ag18  1  0.416507  0.416588  0.418550  1
  Ag  Ag19  1  0.416597  0.415984  0.749251  1
  Rh  Rh20  1  0.858588  0.425298  0.856082  1
  Rh  Rh21  1  0.856513  0.858289  0.860180  1
  Rh  Rh22  1  0.856362  0.855934  0.426208  1
  Rh  Rh23  1  0.426826  0.858763  0.856634  1
