# generated using pymatgen
data_SmTm3(InRh2)4
_symmetry_space_group_name_H-M   'P 1'
_cell_length_a   6.32504800
_cell_length_b   6.32496700
_cell_length_c   7.21238200
_cell_angle_alpha   89.99823356
_cell_angle_beta   90.00117761
_cell_angle_gamma   90.00112331
_symmetry_Int_Tables_number   1
_chemical_formula_structural   SmTm3(InRh2)4
_chemical_formula_sum   'Sm1 Tm3 In4 Rh8'
_cell_volume   288.53653391
_cell_formula_units_Z   1
loop_
 _symmetry_equiv_pos_site_id
 _symmetry_equiv_pos_as_xyz
  1  'x, y, z'
loop_
 _atom_site_type_symbol
 _atom_site_label
 _atom_site_symmetry_multiplicity
 _atom_site_fract_x
 _atom_site_fract_y
 _atom_site_fract_z
 _atom_site_occupancy
  Sm  Sm0  1  0.249927  0.749963  0.500010  1
  Tm  Tm1  1  0.750094  0.250019  0.000021  1
  Tm  Tm2  1  0.249940  0.749984  0.000002  1
  Tm  Tm3  1  0.750073  0.250028  0.500009  1
  In  In4  1  0.250220  0.249998  0.999961  1
  In  In5  1  0.749785  0.750011  0.999969  1
  In  In6  1  0.250024  0.249987  0.500414  1
  In  In7  1  0.749919  0.750058  0.499526  1
  Rh  Rh8  1  0.997963  0.002159  0.246764  1
  Rh  Rh9  1  0.997908  0.497811  0.246695  1
  Rh  Rh10  1  0.502092  0.002144  0.246798  1
  Rh  Rh11  1  0.502058  0.497863  0.246809  1
  Rh  Rh12  1  0.502156  0.002077  0.753286  1
  Rh  Rh13  1  0.502215  0.497912  0.753240  1
  Rh  Rh14  1  0.997826  0.002101  0.753239  1
  Rh  Rh15  1  0.997801  0.497885  0.753258  1
