# generated using pymatgen
data_Tb4YHo(GaCo3)2
_symmetry_space_group_name_H-M   'P 1'
_cell_length_a   5.39466085
_cell_length_b   5.39466163
_cell_length_c   12.86802000
_cell_angle_alpha   90.00000000
_cell_angle_beta   90.00000000
_cell_angle_gamma   134.51826269
_symmetry_Int_Tables_number   1
_chemical_formula_structural   Tb4YHo(GaCo3)2
_chemical_formula_sum   'Tb4 Y1 Ho1 Ga2 Co6'
_cell_volume   267.02139513
_cell_formula_units_Z   1
loop_
 _symmetry_equiv_pos_site_id
 _symmetry_equiv_pos_as_xyz
  1  'x, y, z'
loop_
 _atom_site_type_symbol
 _atom_site_label
 _atom_site_symmetry_multiplicity
 _atom_site_fract_x
 _atom_site_fract_y
 _atom_site_fract_z
 _atom_site_occupancy
  Tb  Tb0  1  0.792386  0.207614  0.396309  1
  Tb  Tb1  1  0.208002  0.791998  0.602397  1
  Tb  Tb2  1  0.792386  0.207614  0.103691  1
  Tb  Tb3  1  0.208002  0.791998  0.897603  1
  Y  Y4  1  0.499457  0.500543  0.750000  1
  Ho  Ho5  1  0.501991  0.498009  0.250000  1
  Ga  Ga6  1  0.499985  0.500015  0.499496  1
  Ga  Ga7  1  0.499985  0.500015  0.000504  1
  Co  Co8  1  0.080860  0.919140  0.404061  1
  Co  Co9  1  0.917994  0.082006  0.594299  1
  Co  Co10  1  0.080860  0.919140  0.095939  1
  Co  Co11  1  0.917994  0.082006  0.905701  1
  Co  Co12  1  0.196181  0.803819  0.250000  1
  Co  Co13  1  0.803917  0.196083  0.750000  1
