# generated using pymatgen
data_Ac11Pr(Si7I3)2
_symmetry_space_group_name_H-M   'P 1'
_cell_length_a   4.29220700
_cell_length_b   12.73705700
_cell_length_c   17.75947600
_cell_angle_alpha   90.00000000
_cell_angle_beta   90.00000000
_cell_angle_gamma   90.00000000
_symmetry_Int_Tables_number   1
_chemical_formula_structural   Ac11Pr(Si7I3)2
_chemical_formula_sum   'Ac11 Pr1 Si14 I6'
_cell_volume   970.91206629
_cell_formula_units_Z   1
loop_
 _symmetry_equiv_pos_site_id
 _symmetry_equiv_pos_as_xyz
  1  'x, y, z'
loop_
 _atom_site_type_symbol
 _atom_site_label
 _atom_site_symmetry_multiplicity
 _atom_site_fract_x
 _atom_site_fract_y
 _atom_site_fract_z
 _atom_site_occupancy
  Ac  Ac0  1  0.500000  0.354795  0.500000  1
  Ac  Ac1  1  0.000000  0.644687  0.000000  1
  Ac  Ac2  1  0.500000  0.366398  0.754459  1
  Ac  Ac3  1  0.000000  0.634480  0.741433  1
  Ac  Ac4  1  0.500000  0.366398  0.245541  1
  Ac  Ac5  1  0.000000  0.634480  0.258567  1
  Ac  Ac6  1  0.500000  0.078737  0.882508  1
  Ac  Ac7  1  0.000000  0.919847  0.616859  1
  Ac  Ac8  1  0.500000  0.078737  0.117492  1
  Ac  Ac9  1  0.000000  0.919847  0.383141  1
  Ac  Ac10  1  0.500000  0.362871  0.000000  1
  Pr  Pr11  1  0.000000  0.639130  0.500000  1
  Si  Si12  1  0.000000  0.167422  0.000000  1
  Si  Si13  1  0.500000  0.829822  0.500000  1
  Si  Si14  1  0.500000  0.557809  0.876919  1
  Si  Si15  1  0.000000  0.445840  0.619043  1
  Si  Si16  1  0.500000  0.557809  0.123081  1
  Si  Si17  1  0.000000  0.445840  0.380957  1
  Si  Si18  1  0.000000  0.264013  0.877891  1
  Si  Si19  1  0.500000  0.734125  0.618700  1
  Si  Si20  1  0.000000  0.264013  0.122109  1
  Si  Si21  1  0.500000  0.734125  0.381300  1
  Si  Si22  1  0.000000  0.457343  0.874785  1
  Si  Si23  1  0.500000  0.543905  0.620444  1
  Si  Si24  1  0.500000  0.543905  0.379556  1
  Si  Si25  1  0.000000  0.457343  0.125215  1
  I  I26  1  0.500000  0.111292  0.689826  1
  I  I27  1  0.000000  0.887524  0.809146  1
  I  I28  1  0.000000  0.136874  0.500000  1
  I  I29  1  0.500000  0.861774  0.000000  1
  I  I30  1  0.500000  0.111292  0.310174  1
  I  I31  1  0.000000  0.887524  0.190854  1
