# generated using pymatgen
data_Ba3MoCl2O5
_symmetry_space_group_name_H-M   'P 1'
_cell_length_a   7.61924402
_cell_length_b   7.61924361
_cell_length_c   11.65918900
_cell_angle_alpha   90.00000000
_cell_angle_beta   90.00000000
_cell_angle_gamma   134.53076697
_symmetry_Int_Tables_number   1
_chemical_formula_structural   Ba3MoCl2O5
_chemical_formula_sum   'Ba6 Mo2 Cl4 O10'
_cell_volume   482.50835833
_cell_formula_units_Z   2
loop_
 _symmetry_equiv_pos_site_id
 _symmetry_equiv_pos_as_xyz
  1  'x, y, z'
loop_
 _atom_site_type_symbol
 _atom_site_label
 _atom_site_symmetry_multiplicity
 _atom_site_fract_x
 _atom_site_fract_y
 _atom_site_fract_z
 _atom_site_occupancy
  Ba  Ba0  1  0.346183  0.653817  0.956097  1
  Ba  Ba1  1  0.653817  0.346183  0.456097  1
  Ba  Ba2  1  0.346183  0.653817  0.543903  1
  Ba  Ba3  1  0.092586  0.907414  0.750000  1
  Ba  Ba4  1  0.653817  0.346183  0.043903  1
  Ba  Ba5  1  0.907414  0.092586  0.250000  1
  Mo  Mo6  1  0.245384  0.754616  0.250000  1
  Mo  Mo7  1  0.754616  0.245384  0.750000  1
  Cl  Cl8  1  0.503385  0.496615  0.750000  1
  Cl  Cl9  1  0.000000  0.000000  0.000000  1
  Cl  Cl10  1  0.000000  0.000000  0.500000  1
  Cl  Cl11  1  0.496615  0.503385  0.250000  1
  O  O12  1  0.504341  0.942961  0.136612  1
  O  O13  1  0.879722  0.120278  0.750000  1
  O  O14  1  0.942961  0.504341  0.636612  1
  O  O15  1  0.495659  0.057039  0.863388  1
  O  O16  1  0.120278  0.879722  0.250000  1
  O  O17  1  0.495659  0.057039  0.636612  1
  O  O18  1  0.942961  0.504341  0.863388  1
  O  O19  1  0.057039  0.495659  0.136612  1
  O  O20  1  0.504341  0.942961  0.363388  1
  O  O21  1  0.057039  0.495659  0.363388  1
