# generated using pymatgen
data_Dy8Re3B24Ru
_symmetry_space_group_name_H-M   'P 1'
_cell_length_a   3.68133000
_cell_length_b   9.17140226
_cell_length_c   11.55424237
_cell_angle_alpha   90.11045200
_cell_angle_beta   90.00000000
_cell_angle_gamma   90.00000000
_symmetry_Int_Tables_number   1
_chemical_formula_structural   Dy8Re3B24Ru
_chemical_formula_sum   'Dy8 Re3 B24 Ru1'
_cell_volume   390.10467818
_cell_formula_units_Z   1
loop_
 _symmetry_equiv_pos_site_id
 _symmetry_equiv_pos_as_xyz
  1  'x, y, z'
loop_
 _atom_site_type_symbol
 _atom_site_label
 _atom_site_symmetry_multiplicity
 _atom_site_fract_x
 _atom_site_fract_y
 _atom_site_fract_z
 _atom_site_occupancy
  Dy  Dy0  1  0.000000  0.322541  0.414084  1
  Dy  Dy1  1  0.000000  0.676862  0.587592  1
  Dy  Dy2  1  0.000000  0.824955  0.084388  1
  Dy  Dy3  1  0.000000  0.176212  0.913687  1
  Dy  Dy4  1  0.000000  0.942139  0.369613  1
  Dy  Dy5  1  0.000000  0.056173  0.629461  1
  Dy  Dy6  1  0.000000  0.443377  0.130542  1
  Dy  Dy7  1  0.000000  0.556615  0.870836  1
  Re  Re8  1  0.000000  0.361888  0.678060  1
  Re  Re9  1  0.000000  0.138569  0.179502  1
  Re  Re10  1  0.000000  0.861442  0.820989  1
  B  B11  1  0.500000  0.554155  0.432605  1
  B  B12  1  0.500000  0.446824  0.566800  1
  B  B13  1  0.500000  0.053326  0.066851  1
  B  B14  1  0.500000  0.946673  0.932975  1
  B  B15  1  0.500000  0.748426  0.418554  1
  B  B16  1  0.500000  0.250757  0.581048  1
  B  B17  1  0.500000  0.249261  0.081221  1
  B  B18  1  0.500000  0.751341  0.918861  1
  B  B19  1  0.500000  0.790989  0.265767  1
  B  B20  1  0.500000  0.207840  0.734070  1
  B  B21  1  0.500000  0.291975  0.234602  1
  B  B22  1  0.500000  0.707755  0.765998  1
  B  B23  1  0.500000  0.631956  0.186128  1
  B  B24  1  0.500000  0.368830  0.813780  1
  B  B25  1  0.500000  0.131581  0.314582  1
  B  B26  1  0.500000  0.868278  0.685885  1
  B  B27  1  0.500000  0.983130  0.211754  1
  B  B28  1  0.500000  0.016879  0.787881  1
  B  B29  1  0.500000  0.484234  0.288279  1
  B  B30  1  0.500000  0.517429  0.711934  1
  B  B31  1  0.500000  0.602562  0.029057  1
  B  B32  1  0.500000  0.397908  0.971921  1
  B  B33  1  0.500000  0.101338  0.471233  1
  B  B34  1  0.500000  0.897124  0.528329  1
  Ru  Ru35  1  0.000000  0.638658  0.321132  1
