# generated using pymatgen
data_Ca2CdSn(BRh3)2
_symmetry_space_group_name_H-M   'P 1'
_cell_length_a   5.66527500
_cell_length_b   5.66527432
_cell_length_c   7.21450200
_cell_angle_alpha   90.00000000
_cell_angle_beta   90.00000000
_cell_angle_gamma   120.00000979
_symmetry_Int_Tables_number   1
_chemical_formula_structural   Ca2CdSn(BRh3)2
_chemical_formula_sum   'Ca2 Cd1 Sn1 B2 Rh6'
_cell_volume   200.52978448
_cell_formula_units_Z   1
loop_
 _symmetry_equiv_pos_site_id
 _symmetry_equiv_pos_as_xyz
  1  'x, y, z'
loop_
 _atom_site_type_symbol
 _atom_site_label
 _atom_site_symmetry_multiplicity
 _atom_site_fract_x
 _atom_site_fract_y
 _atom_site_fract_z
 _atom_site_occupancy
  Ca  Ca0  1  0.000000  0.000000  0.500000  1
  Ca  Ca1  1  0.000000  0.000000  0.000000  1
  Cd  Cd2  1  0.666667  0.333333  0.500000  1
  Sn  Sn3  1  0.333333  0.666667  0.500000  1
  B  B4  1  0.666667  0.333333  0.000000  1
  B  B5  1  0.333333  0.666667  0.000000  1
  Rh  Rh6  1  0.499164  0.500836  0.806382  1
  Rh  Rh7  1  0.001672  0.500836  0.806382  1
  Rh  Rh8  1  0.499164  0.998328  0.806382  1
  Rh  Rh9  1  0.001672  0.500836  0.193618  1
  Rh  Rh10  1  0.499164  0.500836  0.193618  1
  Rh  Rh11  1  0.499164  0.998328  0.193618  1
