# generated using pymatgen
data_HfPtSeBr12
_symmetry_space_group_name_H-M   'P 1'
_cell_length_a   9.63569673
_cell_length_b   9.63569723
_cell_length_c   7.24050443
_cell_angle_alpha   71.99499540
_cell_angle_beta   71.99499348
_cell_angle_gamma   81.37307508
_symmetry_Int_Tables_number   1
_chemical_formula_structural   HfPtSeBr12
_chemical_formula_sum   'Hf1 Pt1 Se1 Br12'
_cell_volume   606.92419145
_cell_formula_units_Z   1
loop_
 _symmetry_equiv_pos_site_id
 _symmetry_equiv_pos_as_xyz
  1  'x, y, z'
loop_
 _atom_site_type_symbol
 _atom_site_label
 _atom_site_symmetry_multiplicity
 _atom_site_fract_x
 _atom_site_fract_y
 _atom_site_fract_z
 _atom_site_occupancy
  Hf  Hf0  1  0.268229  0.268229  0.736435  1
  Pt  Pt1  1  0.000758  0.000758  0.001782  1
  Se  Se2  1  0.727058  0.727058  0.266846  1
  Br  Br3  1  0.973324  0.246390  0.757051  1
  Br  Br4  1  0.246390  0.973324  0.757051  1
  Br  Br5  1  0.035146  0.759448  0.243206  1
  Br  Br6  1  0.759448  0.035146  0.243206  1
  Br  Br7  1  0.209126  0.513667  0.794510  1
  Br  Br8  1  0.513667  0.209126  0.794510  1
  Br  Br9  1  0.779215  0.490436  0.210920  1
  Br  Br10  1  0.490436  0.779215  0.210920  1
  Br  Br11  1  0.130193  0.130193  0.147671  1
  Br  Br12  1  0.877124  0.877124  0.845447  1
  Br  Br13  1  0.652557  0.652557  0.630405  1
  Br  Br14  1  0.337328  0.337328  0.360042  1
