# generated using pymatgen
data_Y6Ho10MgIn3Pt4
_symmetry_space_group_name_H-M   'P 1'
_cell_length_a   9.74144354
_cell_length_b   9.70494644
_cell_length_c   9.70494800
_cell_angle_alpha   60.00000149
_cell_angle_beta   60.12386017
_cell_angle_gamma   60.12385458
_symmetry_Int_Tables_number   1
_chemical_formula_structural   Y6Ho10MgIn3Pt4
_chemical_formula_sum   'Y6 Ho10 Mg1 In3 Pt4'
_cell_volume   649.98778156
_cell_formula_units_Z   1
loop_
 _symmetry_equiv_pos_site_id
 _symmetry_equiv_pos_as_xyz
  1  'x, y, z'
loop_
 _atom_site_type_symbol
 _atom_site_label
 _atom_site_symmetry_multiplicity
 _atom_site_fract_x
 _atom_site_fract_y
 _atom_site_fract_z
 _atom_site_occupancy
  Y  Y0  1  0.185380  0.813689  0.813689  1
  Y  Y1  1  0.813732  0.187305  0.187305  1
  Y  Y2  1  0.813732  0.187305  0.811659  1
  Y  Y3  1  0.185380  0.813689  0.187242  1
  Y  Y4  1  0.813732  0.811659  0.187305  1
  Y  Y5  1  0.185380  0.187242  0.813689  1
  Ho  Ho6  1  0.600719  0.599645  0.599645  1
  Ho  Ho7  1  0.600719  0.599645  0.199990  1
  Ho  Ho8  1  0.600719  0.199990  0.599645  1
  Ho  Ho9  1  0.197582  0.600806  0.600806  1
  Ho  Ho10  1  0.058962  0.440503  0.440503  1
  Ho  Ho11  1  0.438024  0.061697  0.061697  1
  Ho  Ho12  1  0.438024  0.061697  0.438581  1
  Ho  Ho13  1  0.058962  0.440503  0.060032  1
  Ho  Ho14  1  0.438024  0.438581  0.061697  1
  Ho  Ho15  1  0.058962  0.060032  0.440503  1
  Mg  Mg16  1  0.515225  0.828258  0.828258  1
  In  In17  1  0.832510  0.833362  0.833362  1
  In  In18  1  0.832510  0.833362  0.500765  1
  In  In19  1  0.832510  0.500765  0.833362  1
  Pt  Pt20  1  0.392259  0.392906  0.392906  1
  Pt  Pt21  1  0.392259  0.392906  0.821931  1
  Pt  Pt22  1  0.392259  0.821931  0.392906  1
  Pt  Pt23  1  0.822437  0.392522  0.392522  1
