# generated using pymatgen
data_Dy3(Fe2Os)2
_symmetry_space_group_name_H-M   'P 1'
_cell_length_a   5.24318193
_cell_length_b   5.22341894
_cell_length_c   12.73575615
_cell_angle_alpha   89.53508430
_cell_angle_beta   90.73920709
_cell_angle_gamma   120.35118439
_symmetry_Int_Tables_number   1
_chemical_formula_structural   Dy3(Fe2Os)2
_chemical_formula_sum   'Dy6 Fe8 Os4'
_cell_volume   300.96812059
_cell_formula_units_Z   2
loop_
 _symmetry_equiv_pos_site_id
 _symmetry_equiv_pos_as_xyz
  1  'x, y, z'
loop_
 _atom_site_type_symbol
 _atom_site_label
 _atom_site_symmetry_multiplicity
 _atom_site_fract_x
 _atom_site_fract_y
 _atom_site_fract_z
 _atom_site_occupancy
  Dy  Dy0  1  0.332756  0.665676  0.914640  1
  Dy  Dy1  1  0.002144  0.002507  0.250943  1
  Dy  Dy2  1  0.667041  0.333128  0.583830  1
  Dy  Dy3  1  0.332959  0.666872  0.666170  1
  Dy  Dy4  1  0.997856  0.997493  0.999057  1
  Dy  Dy5  1  0.667244  0.334324  0.335360  1
  Fe  Fe6  1  0.166792  0.333547  0.459264  1
  Fe  Fe7  1  0.833208  0.666453  0.790736  1
  Fe  Fe8  1  0.333309  0.665668  0.296298  1
  Fe  Fe9  1  0.000000  0.000000  0.625000  1
  Fe  Fe10  1  0.666691  0.334332  0.953702  1
  Fe  Fe11  1  0.000000  0.500000  0.125000  1
  Fe  Fe12  1  0.667671  0.833724  0.459786  1
  Fe  Fe13  1  0.332329  0.166276  0.790214  1
  Os  Os14  1  0.500000  0.500000  0.125000  1
  Os  Os15  1  0.166617  0.834036  0.459805  1
  Os  Os16  1  0.833383  0.165964  0.790195  1
  Os  Os17  1  0.500000  0.000000  0.125000  1
