# generated using pymatgen
data_DyHoPbO2
_symmetry_space_group_name_H-M   'P 1'
_cell_length_a   7.58911366
_cell_length_b   7.58911349
_cell_length_c   7.58911407
_cell_angle_alpha   150.66391465
_cell_angle_beta   150.66391067
_cell_angle_gamma   41.96771776
_symmetry_Int_Tables_number   1
_chemical_formula_structural   DyHoPbO2
_chemical_formula_sum   'Dy1 Ho1 Pb1 O2'
_cell_volume   104.67005253
_cell_formula_units_Z   1
loop_
 _symmetry_equiv_pos_site_id
 _symmetry_equiv_pos_as_xyz
  1  'x, y, z'
loop_
 _atom_site_type_symbol
 _atom_site_label
 _atom_site_symmetry_multiplicity
 _atom_site_fract_x
 _atom_site_fract_y
 _atom_site_fract_z
 _atom_site_occupancy
  Dy  Dy0  1  0.671196  0.671196  0.000000  1
  Ho  Ho1  1  0.328285  0.328285  0.000000  1
  Pb  Pb2  1  0.999883  0.999883  0.000000  1
  O  O3  1  0.750318  0.250318  0.500000  1
  O  O4  1  0.250318  0.750318  0.500000  1
