# generated using pymatgen
data_TbGd2Ho(B6Os)2
_symmetry_space_group_name_H-M   'P 1'
_cell_length_a   3.67066400
_cell_length_b   9.18710562
_cell_length_c   11.57112978
_cell_angle_alpha   90.04206280
_cell_angle_beta   90.00000000
_cell_angle_gamma   90.00000000
_symmetry_Int_Tables_number   1
_chemical_formula_structural   TbGd2Ho(B6Os)2
_chemical_formula_sum   'Tb2 Gd4 Ho2 B24 Os4'
_cell_volume   390.21053399
_cell_formula_units_Z   2
loop_
 _symmetry_equiv_pos_site_id
 _symmetry_equiv_pos_as_xyz
  1  'x, y, z'
loop_
 _atom_site_type_symbol
 _atom_site_label
 _atom_site_symmetry_multiplicity
 _atom_site_fract_x
 _atom_site_fract_y
 _atom_site_fract_z
 _atom_site_occupancy
  Tb  Tb0  1  0.000000  0.943904  0.372569  1
  Tb  Tb1  1  0.000000  0.056096  0.627431  1
  Gd  Gd2  1  0.000000  0.322606  0.414093  1
  Gd  Gd3  1  0.000000  0.677394  0.585907  1
  Gd  Gd4  1  0.000000  0.822215  0.085736  1
  Gd  Gd5  1  0.000000  0.177785  0.914264  1
  Ho  Ho6  1  0.000000  0.443983  0.127075  1
  Ho  Ho7  1  0.000000  0.556017  0.872925  1
  B  B8  1  0.500000  0.554042  0.432297  1
  B  B9  1  0.500000  0.445958  0.567703  1
  B  B10  1  0.500000  0.054633  0.067372  1
  B  B11  1  0.500000  0.945367  0.932628  1
  B  B12  1  0.500000  0.747104  0.419081  1
  B  B13  1  0.500000  0.252896  0.580919  1
  B  B14  1  0.500000  0.248494  0.080680  1
  B  B15  1  0.500000  0.751506  0.919320  1
  B  B16  1  0.500000  0.789895  0.266265  1
  B  B17  1  0.500000  0.210105  0.733735  1
  B  B18  1  0.500000  0.291290  0.233164  1
  B  B19  1  0.500000  0.708710  0.766836  1
  B  B20  1  0.500000  0.631161  0.185125  1
  B  B21  1  0.500000  0.368839  0.814875  1
  B  B22  1  0.500000  0.132458  0.314092  1
  B  B23  1  0.500000  0.867542  0.685908  1
  B  B24  1  0.500000  0.984645  0.212551  1
  B  B25  1  0.500000  0.015355  0.787449  1
  B  B26  1  0.500000  0.483751  0.286582  1
  B  B27  1  0.500000  0.516249  0.713418  1
  B  B28  1  0.500000  0.606241  0.029388  1
  B  B29  1  0.500000  0.393759  0.970612  1
  B  B30  1  0.500000  0.109002  0.469919  1
  B  B31  1  0.500000  0.890998  0.530081  1
  Os  Os32  1  0.000000  0.637268  0.320645  1
  Os  Os33  1  0.000000  0.362732  0.679355  1
  Os  Os34  1  0.000000  0.138552  0.178764  1
  Os  Os35  1  0.000000  0.861448  0.821236  1
