# generated using pymatgen
data_Dy3U(Nb3Si4)2
_symmetry_space_group_name_H-M   'P 1'
_cell_length_a   7.06924615
_cell_length_b   7.07771240
_cell_length_c   13.07680400
_cell_angle_alpha   90.00000000
_cell_angle_beta   90.00000000
_cell_angle_gamma   90.03113560
_symmetry_Int_Tables_number   1
_chemical_formula_structural   Dy3U(Nb3Si4)2
_chemical_formula_sum   'Dy6 U2 Nb12 Si16'
_cell_volume   654.28590694
_cell_formula_units_Z   2
loop_
 _symmetry_equiv_pos_site_id
 _symmetry_equiv_pos_as_xyz
  1  'x, y, z'
loop_
 _atom_site_type_symbol
 _atom_site_label
 _atom_site_symmetry_multiplicity
 _atom_site_fract_x
 _atom_site_fract_y
 _atom_site_fract_z
 _atom_site_occupancy
  Dy  Dy0  1  0.998338  0.338597  0.216965  1
  Dy  Dy1  1  0.001662  0.661403  0.716965  1
  Dy  Dy2  1  0.159556  0.499415  0.467388  1
  Dy  Dy3  1  0.501066  0.840183  0.032550  1
  Dy  Dy4  1  0.840444  0.500585  0.967388  1
  Dy  Dy5  1  0.498934  0.159817  0.532550  1
  U  U6  1  0.340025  0.999030  0.783164  1
  U  U7  1  0.659975  0.000970  0.283164  1
  Nb  Nb8  1  0.172386  0.167912  0.997323  1
  Nb  Nb9  1  0.827614  0.832088  0.497323  1
  Nb  Nb10  1  0.333433  0.673001  0.250730  1
  Nb  Nb11  1  0.666567  0.326999  0.750730  1
  Nb  Nb12  1  0.153031  0.991903  0.374975  1
  Nb  Nb13  1  0.846969  0.008097  0.874975  1
  Nb  Nb14  1  0.503987  0.658047  0.627099  1
  Nb  Nb15  1  0.346476  0.497122  0.874433  1
  Nb  Nb16  1  0.496013  0.341953  0.127099  1
  Nb  Nb17  1  0.653524  0.502878  0.374433  1
  Nb  Nb18  1  0.996604  0.152472  0.626644  1
  Nb  Nb19  1  0.003396  0.847528  0.126644  1
  Si  Si20  1  0.293844  0.043284  0.185441  1
  Si  Si21  1  0.706156  0.956716  0.685441  1
  Si  Si22  1  0.456535  0.793788  0.436482  1
  Si  Si23  1  0.207452  0.543282  0.063189  1
  Si  Si24  1  0.543465  0.206212  0.936482  1
  Si  Si25  1  0.792548  0.456718  0.563189  1
  Si  Si26  1  0.044836  0.295869  0.813205  1
  Si  Si27  1  0.955164  0.704131  0.313205  1
  Si  Si28  1  0.368080  0.293085  0.317043  1
  Si  Si29  1  0.631920  0.706915  0.817043  1
  Si  Si30  1  0.205583  0.868935  0.567421  1
  Si  Si31  1  0.132426  0.795092  0.932787  1
  Si  Si32  1  0.794417  0.131065  0.067421  1
  Si  Si33  1  0.867574  0.204908  0.432787  1
  Si  Si34  1  0.296159  0.367645  0.683161  1
  Si  Si35  1  0.703841  0.632355  0.183161  1
