# generated using pymatgen
data_Li3CaNdNi9As7
_symmetry_space_group_name_H-M   'P 1'
_cell_length_a   3.91334100
_cell_length_b   9.52018557
_cell_length_c   9.52018400
_cell_angle_alpha   119.99999456
_cell_angle_beta   90.00000000
_cell_angle_gamma   90.00000000
_symmetry_Int_Tables_number   1
_chemical_formula_structural   Li3CaNdNi9As7
_chemical_formula_sum   'Li3 Ca1 Nd1 Ni9 As7'
_cell_volume   307.16314412
_cell_formula_units_Z   1
loop_
 _symmetry_equiv_pos_site_id
 _symmetry_equiv_pos_as_xyz
  1  'x, y, z'
loop_
 _atom_site_type_symbol
 _atom_site_label
 _atom_site_symmetry_multiplicity
 _atom_site_fract_x
 _atom_site_fract_y
 _atom_site_fract_z
 _atom_site_occupancy
  Li  Li0  1  0.500000  0.790205  0.891326  1
  Li  Li1  1  0.500000  0.101122  0.209795  1
  Li  Li2  1  0.500000  0.108674  0.898878  1
  Ca  Ca3  1  0.500000  0.333333  0.666667  1
  Nd  Nd4  1  0.000000  0.666667  0.333333  1
  Ni  Ni5  1  0.000000  0.571816  0.946008  1
  Ni  Ni6  1  0.000000  0.374191  0.428184  1
  Ni  Ni7  1  0.000000  0.053992  0.625809  1
  Ni  Ni8  1  0.000000  0.875368  0.161065  1
  Ni  Ni9  1  0.000000  0.285698  0.124632  1
  Ni  Ni10  1  0.000000  0.838935  0.714302  1
  Ni  Ni11  1  0.500000  0.953748  0.387520  1
  Ni  Ni12  1  0.500000  0.433773  0.046252  1
  Ni  Ni13  1  0.500000  0.612480  0.566227  1
  As  As14  1  0.500000  0.710572  0.114471  1
  As  As15  1  0.500000  0.403900  0.289428  1
  As  As16  1  0.500000  0.885529  0.596100  1
  As  As17  1  0.000000  0.000000  0.000000  1
  As  As18  1  0.000000  0.587663  0.700361  1
  As  As19  1  0.000000  0.112696  0.412337  1
  As  As20  1  0.000000  0.299639  0.887304  1
