# generated using pymatgen
data_Zr5Ta3Mn6(Co5P6)2
_symmetry_space_group_name_H-M   'P 1'
_cell_length_a   11.97934600
_cell_length_b   11.98455927
_cell_length_c   3.64347300
_cell_angle_alpha   90.00000000
_cell_angle_beta   90.00000000
_cell_angle_gamma   119.71309017
_symmetry_Int_Tables_number   1
_chemical_formula_structural   Zr5Ta3Mn6(Co5P6)2
_chemical_formula_sum   'Zr5 Ta3 Mn6 Co10 P12'
_cell_volume   454.30728792
_cell_formula_units_Z   1
loop_
 _symmetry_equiv_pos_site_id
 _symmetry_equiv_pos_as_xyz
  1  'x, y, z'
loop_
 _atom_site_type_symbol
 _atom_site_label
 _atom_site_symmetry_multiplicity
 _atom_site_fract_x
 _atom_site_fract_y
 _atom_site_fract_z
 _atom_site_occupancy
  Zr  Zr0  1  0.668324  0.334580  0.000000  1
  Zr  Zr1  1  0.337318  0.669009  0.000000  1
  Zr  Zr2  1  0.818966  0.817724  0.500000  1
  Zr  Zr3  1  0.179602  0.002844  0.500000  1
  Zr  Zr4  1  0.996902  0.178856  0.500000  1
  Ta  Ta5  1  0.445239  0.445114  0.000000  1
  Ta  Ta6  1  0.554578  0.998237  0.000000  1
  Ta  Ta7  1  0.001304  0.558030  0.000000  1
  Mn  Mn8  1  0.196690  0.376769  0.000000  1
  Mn  Mn9  1  0.181748  0.804302  0.000000  1
  Mn  Mn10  1  0.822503  0.624020  0.000000  1
  Mn  Mn11  1  0.798734  0.173839  0.000000  1
  Mn  Mn12  1  0.122292  0.472340  0.500000  1
  Mn  Mn13  1  0.353051  0.879176  0.500000  1
  Co  Co14  1  0.373970  0.198325  0.000000  1
  Co  Co15  1  0.520179  0.646246  0.500000  1
  Co  Co16  1  0.642975  0.517080  0.500000  1
  Co  Co17  1  0.872831  0.356897  0.500000  1
  Co  Co18  1  0.485277  0.130709  0.500000  1
  Co  Co19  1  0.000419  0.999009  0.000000  1
  Co  Co20  1  0.718266  0.994371  0.500000  1
  Co  Co21  1  0.002974  0.723035  0.500000  1
  Co  Co22  1  0.626942  0.820228  0.000000  1
  Co  Co23  1  0.280200  0.279568  0.500000  1
  P  P24  1  0.651858  0.648828  0.000000  1
  P  P25  1  0.350467  0.005236  0.000000  1
  P  P26  1  0.991772  0.344251  0.000000  1
  P  P27  1  0.483353  0.313021  0.500000  1
  P  P28  1  0.689719  0.170475  0.500000  1
  P  P29  1  0.829300  0.520108  0.500000  1
  P  P30  1  0.517536  0.829175  0.500000  1
  P  P31  1  0.169811  0.684629  0.500000  1
  P  P32  1  0.823693  0.999439  0.000000  1
  P  P33  1  0.999350  0.821786  0.000000  1
  P  P34  1  0.317754  0.486097  0.500000  1
  P  P35  1  0.174103  0.176645  0.000000  1
