# generated using pymatgen
data_Tb6Er10Cd4OsPd3
_symmetry_space_group_name_H-M   'P 1'
_cell_length_a   9.68115731
_cell_length_b   9.68115741
_cell_length_c   9.68115706
_cell_angle_alpha   59.50787851
_cell_angle_beta   59.50787658
_cell_angle_gamma   59.50787694
_symmetry_Int_Tables_number   1
_chemical_formula_structural   Tb6Er10Cd4OsPd3
_chemical_formula_sum   'Tb6 Er10 Cd4 Os1 Pd3'
_cell_volume   634.42304465
_cell_formula_units_Z   1
loop_
 _symmetry_equiv_pos_site_id
 _symmetry_equiv_pos_as_xyz
  1  'x, y, z'
loop_
 _atom_site_type_symbol
 _atom_site_label
 _atom_site_symmetry_multiplicity
 _atom_site_fract_x
 _atom_site_fract_y
 _atom_site_fract_z
 _atom_site_occupancy
  Tb  Tb0  1  0.934881  0.565724  0.565724  1
  Tb  Tb1  1  0.557610  0.937978  0.937978  1
  Tb  Tb2  1  0.565724  0.934881  0.565724  1
  Tb  Tb3  1  0.937978  0.557610  0.937978  1
  Tb  Tb4  1  0.565724  0.565724  0.934881  1
  Tb  Tb5  1  0.937978  0.937978  0.557610  1
  Er  Er6  1  0.352875  0.352875  0.352875  1
  Er  Er7  1  0.350185  0.350185  0.946097  1
  Er  Er8  1  0.350185  0.946097  0.350185  1
  Er  Er9  1  0.946097  0.350185  0.350185  1
  Er  Er10  1  0.816964  0.187893  0.187893  1
  Er  Er11  1  0.187109  0.811120  0.811120  1
  Er  Er12  1  0.187893  0.816964  0.187893  1
  Er  Er13  1  0.811120  0.187109  0.811120  1
  Er  Er14  1  0.187893  0.187893  0.816964  1
  Er  Er15  1  0.811120  0.811120  0.187109  1
  Cd  Cd16  1  0.580051  0.580051  0.580051  1
  Cd  Cd17  1  0.580697  0.580697  0.255031  1
  Cd  Cd18  1  0.580697  0.255031  0.580697  1
  Cd  Cd19  1  0.255031  0.580697  0.580697  1
  Os  Os20  1  0.143671  0.143671  0.143671  1
  Pd  Pd21  1  0.144207  0.144207  0.570103  1
  Pd  Pd22  1  0.144207  0.570103  0.144207  1
  Pd  Pd23  1  0.570103  0.144207  0.144207  1
