# generated using pymatgen
data_Tb4Y4CdInIrPd
_symmetry_space_group_name_H-M   'P 1'
_cell_length_a   9.70544340
_cell_length_b   9.70544339
_cell_length_c   9.68528300
_cell_angle_alpha   60.06868687
_cell_angle_beta   60.06868691
_cell_angle_gamma   60.32570740
_symmetry_Int_Tables_number   1
_chemical_formula_structural   Tb4Y4CdInIrPd
_chemical_formula_sum   'Tb8 Y8 Cd2 In2 Ir2 Pd2'
_cell_volume   647.34835954
_cell_formula_units_Z   2
loop_
 _symmetry_equiv_pos_site_id
 _symmetry_equiv_pos_as_xyz
  1  'x, y, z'
loop_
 _atom_site_type_symbol
 _atom_site_label
 _atom_site_symmetry_multiplicity
 _atom_site_fract_x
 _atom_site_fract_y
 _atom_site_fract_z
 _atom_site_occupancy
  Tb  Tb0  1  0.351515  0.351515  0.345446  1
  Tb  Tb1  1  0.351515  0.351515  0.951527  1
  Tb  Tb2  1  0.359511  0.940674  0.349907  1
  Tb  Tb3  1  0.940674  0.359511  0.349907  1
  Tb  Tb4  1  0.805970  0.190839  0.189563  1
  Tb  Tb5  1  0.190839  0.805970  0.813626  1
  Tb  Tb6  1  0.190839  0.805970  0.189563  1
  Tb  Tb7  1  0.805970  0.190839  0.813626  1
  Y  Y8  1  0.191463  0.191463  0.808537  1
  Y  Y9  1  0.810082  0.810082  0.189918  1
  Y  Y10  1  0.936825  0.566427  0.561536  1
  Y  Y11  1  0.566427  0.936825  0.935213  1
  Y  Y12  1  0.566427  0.936825  0.561536  1
  Y  Y13  1  0.936825  0.566427  0.935213  1
  Y  Y14  1  0.563732  0.563732  0.936268  1
  Y  Y15  1  0.936668  0.936668  0.563332  1
  Cd  Cd16  1  0.579264  0.256797  0.581970  1
  Cd  Cd17  1  0.256797  0.579264  0.581970  1
  In  In18  1  0.580810  0.580810  0.582235  1
  In  In19  1  0.580810  0.580810  0.256146  1
  Ir  Ir20  1  0.141744  0.571507  0.143375  1
  Ir  Ir21  1  0.571507  0.141744  0.143375  1
  Pd  Pd22  1  0.141893  0.141893  0.147491  1
  Pd  Pd23  1  0.141893  0.141893  0.568722  1
