# generated using pymatgen
data_TiZn3(GaRh2)4
_symmetry_space_group_name_H-M   'P 1'
_cell_length_a   6.07663300
_cell_length_b   6.07711300
_cell_length_c   6.07432500
_cell_angle_alpha   90.00000000
_cell_angle_beta   90.00015089
_cell_angle_gamma   90.00000000
_symmetry_Int_Tables_number   1
_chemical_formula_structural   TiZn3(GaRh2)4
_chemical_formula_sum   'Ti1 Zn3 Ga4 Rh8'
_cell_volume   224.31501465
_cell_formula_units_Z   1
loop_
 _symmetry_equiv_pos_site_id
 _symmetry_equiv_pos_as_xyz
  1  'x, y, z'
loop_
 _atom_site_type_symbol
 _atom_site_label
 _atom_site_symmetry_multiplicity
 _atom_site_fract_x
 _atom_site_fract_y
 _atom_site_fract_z
 _atom_site_occupancy
  Ti  Ti0  1  0.749452  0.250000  0.999999  1
  Zn  Zn1  1  0.250576  0.750001  0.999989  1
  Zn  Zn2  1  0.750597  0.250000  0.499979  1
  Zn  Zn3  1  0.249401  0.750001  0.500031  1
  Ga  Ga4  1  0.250482  0.250000  0.999997  1
  Ga  Ga5  1  0.749500  0.750001  0.000003  1
  Ga  Ga6  1  0.750514  0.750001  0.499984  1
  Ga  Ga7  1  0.249487  0.250000  0.500009  1
  Rh  Rh8  1  0.999856  0.000138  0.249639  1
  Rh  Rh9  1  0.999856  0.499868  0.249639  1
  Rh  Rh10  1  0.500106  0.000146  0.250475  1
  Rh  Rh11  1  0.500106  0.499850  0.250475  1
  Rh  Rh12  1  0.500177  0.000151  0.749528  1
  Rh  Rh13  1  0.500177  0.499853  0.749528  1
  Rh  Rh14  1  0.999856  0.000143  0.750362  1
  Rh  Rh15  1  0.999856  0.499851  0.750362  1
