# generated using pymatgen
data_Y13Th3Mg3Co4Hg
_symmetry_space_group_name_H-M   'P 1'
_cell_length_a   9.60918581
_cell_length_b   9.63926170
_cell_length_c   9.63926182
_cell_angle_alpha   60.07784854
_cell_angle_beta   60.02825139
_cell_angle_gamma   60.02825054
_symmetry_Int_Tables_number   1
_chemical_formula_structural   Y13Th3Mg3Co4Hg
_chemical_formula_sum   'Y13 Th3 Mg3 Co4 Hg1'
_cell_volume   631.97447732
_cell_formula_units_Z   1
loop_
 _symmetry_equiv_pos_site_id
 _symmetry_equiv_pos_as_xyz
  1  'x, y, z'
loop_
 _atom_site_type_symbol
 _atom_site_label
 _atom_site_symmetry_multiplicity
 _atom_site_fract_x
 _atom_site_fract_y
 _atom_site_fract_z
 _atom_site_occupancy
  Y  Y0  1  0.956471  0.348643  0.348643  1
  Y  Y1  1  0.810924  0.187611  0.187611  1
  Y  Y2  1  0.187501  0.812374  0.812374  1
  Y  Y3  1  0.187821  0.812024  0.186962  1
  Y  Y4  1  0.812694  0.186466  0.812933  1
  Y  Y5  1  0.187821  0.186962  0.812024  1
  Y  Y6  1  0.812694  0.812933  0.186466  1
  Y  Y7  1  0.934602  0.564376  0.564376  1
  Y  Y8  1  0.562235  0.936868  0.936868  1
  Y  Y9  1  0.562804  0.934939  0.564078  1
  Y  Y10  1  0.936397  0.562912  0.935424  1
  Y  Y11  1  0.562804  0.564078  0.934939  1
  Y  Y12  1  0.936397  0.935424  0.562912  1
  Th  Th13  1  0.339928  0.343612  0.343612  1
  Th  Th14  1  0.340974  0.345524  0.968346  1
  Th  Th15  1  0.340974  0.968346  0.345524  1
  Mg  Mg16  1  0.578864  0.579945  0.265169  1
  Mg  Mg17  1  0.578864  0.265169  0.579945  1
  Mg  Mg18  1  0.263027  0.579683  0.579683  1
  Co  Co19  1  0.151349  0.140374  0.140374  1
  Co  Co20  1  0.153255  0.139154  0.566927  1
  Co  Co21  1  0.153255  0.566927  0.139154  1
  Co  Co22  1  0.562569  0.145336  0.145336  1
  Hg  Hg23  1  0.585769  0.580321  0.580321  1
