# generated using pymatgen
data_Np(Al3Pt)3
_symmetry_space_group_name_H-M   'P 1'
_cell_length_a   10.43819049
_cell_length_b   10.43819096
_cell_length_c   10.43819212
_cell_angle_alpha   42.30588535
_cell_angle_beta   42.30589288
_cell_angle_gamma   42.30588658
_symmetry_Int_Tables_number   1
_chemical_formula_structural   Np(Al3Pt)3
_chemical_formula_sum   'Np2 Al18 Pt6'
_cell_volume   466.36862880
_cell_formula_units_Z   2
loop_
 _symmetry_equiv_pos_site_id
 _symmetry_equiv_pos_as_xyz
  1  'x, y, z'
loop_
 _atom_site_type_symbol
 _atom_site_label
 _atom_site_symmetry_multiplicity
 _atom_site_fract_x
 _atom_site_fract_y
 _atom_site_fract_z
 _atom_site_occupancy
  Np  Np0  1  0.167440  0.167440  0.167440  1
  Np  Np1  1  0.832560  0.832560  0.832560  1
  Al  Al2  1  0.107860  0.434372  0.765757  1
  Al  Al3  1  0.434372  0.765757  0.107860  1
  Al  Al4  1  0.565628  0.892140  0.234243  1
  Al  Al5  1  0.949195  0.949195  0.949195  1
  Al  Al6  1  0.050805  0.050805  0.050805  1
  Al  Al7  1  0.296798  0.703202  0.500000  1
  Al  Al8  1  0.892140  0.234243  0.565628  1
  Al  Al9  1  0.385089  0.385089  0.385089  1
  Al  Al10  1  0.500000  0.296798  0.703202  1
  Al  Al11  1  0.234243  0.565628  0.892140  1
  Al  Al12  1  0.716930  0.716930  0.716930  1
  Al  Al13  1  0.614911  0.614911  0.614911  1
  Al  Al14  1  0.333427  0.000000  0.666573  1
  Al  Al15  1  0.703202  0.500000  0.296798  1
  Al  Al16  1  0.666573  0.333427  0.000000  1
  Al  Al17  1  0.283070  0.283070  0.283070  1
  Al  Al18  1  0.000000  0.666573  0.333427  1
  Al  Al19  1  0.765757  0.107860  0.434372  1
  Pt  Pt20  1  0.419596  0.077833  0.757876  1
  Pt  Pt21  1  0.580404  0.242124  0.922167  1
  Pt  Pt22  1  0.077833  0.757876  0.419596  1
  Pt  Pt23  1  0.757876  0.419596  0.077833  1
  Pt  Pt24  1  0.922167  0.580404  0.242124  1
  Pt  Pt25  1  0.242124  0.922167  0.580404  1
