# generated using pymatgen
data_Lu16Sc4Ir11Pt
_symmetry_space_group_name_H-M   'P 1'
_cell_length_a   10.57417993
_cell_length_b   10.57417990
_cell_length_c   6.12658700
_cell_angle_alpha   90.03461855
_cell_angle_beta   90.03461855
_cell_angle_gamma   89.88861883
_symmetry_Int_Tables_number   1
_chemical_formula_structural   Lu16Sc4Ir11Pt
_chemical_formula_sum   'Lu16 Sc4 Ir11 Pt1'
_cell_volume   685.03224924
_cell_formula_units_Z   1
loop_
 _symmetry_equiv_pos_site_id
 _symmetry_equiv_pos_as_xyz
  1  'x, y, z'
loop_
 _atom_site_type_symbol
 _atom_site_label
 _atom_site_symmetry_multiplicity
 _atom_site_fract_x
 _atom_site_fract_y
 _atom_site_fract_z
 _atom_site_occupancy
  Lu  Lu0  1  0.287162  0.084698  0.371893  1
  Lu  Lu1  1  0.288931  0.914091  0.870919  1
  Lu  Lu2  1  0.710036  0.084453  0.870211  1
  Lu  Lu3  1  0.709670  0.910956  0.374467  1
  Lu  Lu4  1  0.585343  0.788163  0.872918  1
  Lu  Lu5  1  0.582566  0.212098  0.372888  1
  Lu  Lu6  1  0.413904  0.788092  0.372384  1
  Lu  Lu7  1  0.413127  0.211394  0.872964  1
  Lu  Lu8  1  0.211837  0.414657  0.627082  1
  Lu  Lu9  1  0.211908  0.586096  0.127616  1
  Lu  Lu10  1  0.787902  0.417434  0.127112  1
  Lu  Lu11  1  0.788606  0.586873  0.627036  1
  Lu  Lu12  1  0.915302  0.712838  0.128107  1
  Lu  Lu13  1  0.915547  0.289964  0.629789  1
  Lu  Lu14  1  0.085909  0.711069  0.629081  1
  Lu  Lu15  1  0.089044  0.290330  0.125533  1
  Sc  Sc16  1  0.000855  0.998301  0.502229  1
  Sc  Sc17  1  0.001699  0.999145  0.997771  1
  Sc  Sc18  1  0.500576  0.498647  0.000080  1
  Sc  Sc19  1  0.501353  0.499424  0.499920  1
  Ir  Ir20  1  0.849413  0.850719  0.751740  1
  Ir  Ir21  1  0.149281  0.150587  0.748260  1
  Ir  Ir22  1  0.151687  0.848313  0.250000  1
  Ir  Ir23  1  0.651579  0.348421  0.750000  1
  Ir  Ir24  1  0.650287  0.650931  0.249517  1
  Ir  Ir25  1  0.349069  0.349713  0.250483  1
  Ir  Ir26  1  0.349155  0.650845  0.750000  1
  Ir  Ir27  1  0.499381  0.999227  0.122587  1
  Ir  Ir28  1  0.499399  0.999778  0.620217  1
  Ir  Ir29  1  0.000222  0.500601  0.879783  1
  Ir  Ir30  1  0.000773  0.500619  0.377413  1
  Pt  Pt31  1  0.848474  0.151526  0.250000  1
