# generated using pymatgen
data_Sc7BBr12
_symmetry_space_group_name_H-M   'P 1'
_cell_length_a   8.66501950
_cell_length_b   8.66501889
_cell_length_c   8.66501950
_cell_angle_alpha   107.69275893
_cell_angle_beta   107.69276323
_cell_angle_gamma   107.69276670
_symmetry_Int_Tables_number   1
_chemical_formula_structural   Sc7BBr12
_chemical_formula_sum   'Sc7 B1 Br12'
_cell_volume   531.24741266
_cell_formula_units_Z   1
loop_
 _symmetry_equiv_pos_site_id
 _symmetry_equiv_pos_as_xyz
  1  'x, y, z'
loop_
 _atom_site_type_symbol
 _atom_site_label
 _atom_site_symmetry_multiplicity
 _atom_site_fract_x
 _atom_site_fract_y
 _atom_site_fract_z
 _atom_site_occupancy
  Sc  Sc0  1  0.479375  0.479375  0.479375  1
  Sc  Sc1  1  0.907368  0.975804  0.707198  1
  Sc  Sc2  1  0.975804  0.707198  0.907368  1
  Sc  Sc3  1  0.707198  0.907368  0.975804  1
  Sc  Sc4  1  0.040025  0.301598  0.106641  1
  Sc  Sc5  1  0.301598  0.106641  0.040025  1
  Sc  Sc6  1  0.106641  0.040025  0.301598  1
  B  B7  1  0.000828  0.000828  0.000828  1
  Br  Br8  1  0.226279  0.076718  0.694232  1
  Br  Br9  1  0.076718  0.694232  0.226279  1
  Br  Br10  1  0.694232  0.226279  0.076718  1
  Br  Br11  1  0.544670  0.839529  0.617992  1
  Br  Br12  1  0.839529  0.617992  0.544670  1
  Br  Br13  1  0.617992  0.544670  0.839529  1
  Br  Br14  1  0.925772  0.311499  0.781791  1
  Br  Br15  1  0.311499  0.781791  0.925772  1
  Br  Br16  1  0.781791  0.925772  0.311499  1
  Br  Br17  1  0.388665  0.467094  0.151122  1
  Br  Br18  1  0.467094  0.151122  0.388665  1
  Br  Br19  1  0.151122  0.388665  0.467094  1
