# generated using pymatgen
data_Th4Nb3WN12
_symmetry_space_group_name_H-M   'P 1'
_cell_length_a   5.67757408
_cell_length_b   5.78298336
_cell_length_c   8.04995665
_cell_angle_alpha   89.90589715
_cell_angle_beta   89.94530743
_cell_angle_gamma   89.95558169
_symmetry_Int_Tables_number   1
_chemical_formula_structural   Th4Nb3WN12
_chemical_formula_sum   'Th4 Nb3 W1 N12'
_cell_volume   264.30621800
_cell_formula_units_Z   1
loop_
 _symmetry_equiv_pos_site_id
 _symmetry_equiv_pos_as_xyz
  1  'x, y, z'
loop_
 _atom_site_type_symbol
 _atom_site_label
 _atom_site_symmetry_multiplicity
 _atom_site_fract_x
 _atom_site_fract_y
 _atom_site_fract_z
 _atom_site_occupancy
  Th  Th0  1  0.506644  0.548586  0.250514  1
  Th  Th1  1  0.993840  0.048771  0.250699  1
  Th  Th2  1  0.493356  0.451414  0.749486  1
  Th  Th3  1  0.006160  0.951229  0.749301  1
  Nb  Nb4  1  0.500000  0.000000  0.500000  1
  Nb  Nb5  1  0.000000  0.500000  0.500000  1
  Nb  Nb6  1  0.500000  0.000000  0.000000  1
  W  W7  1  0.000000  0.500000  0.000000  1
  N  N8  1  0.408142  0.972961  0.249351  1
  N  N9  1  0.088022  0.475827  0.245055  1
  N  N10  1  0.591858  0.027039  0.750649  1
  N  N11  1  0.911978  0.524173  0.754945  1
  N  N12  1  0.802351  0.793229  0.046068  1
  N  N13  1  0.696916  0.304169  0.451009  1
  N  N14  1  0.196307  0.196865  0.548040  1
  N  N15  1  0.292536  0.697398  0.953684  1
  N  N16  1  0.197649  0.206771  0.953932  1
  N  N17  1  0.303084  0.695831  0.548991  1
  N  N18  1  0.803693  0.803135  0.451960  1
  N  N19  1  0.707464  0.302602  0.046316  1
