# generated using pymatgen
data_Rb2Np2O7
_symmetry_space_group_name_H-M   'P 1'
_cell_length_a   8.04149200
_cell_length_b   7.00323475
_cell_length_c   7.46551626
_cell_angle_alpha   71.54289548
_cell_angle_beta   90.00000000
_cell_angle_gamma   90.00000000
_symmetry_Int_Tables_number   1
_chemical_formula_structural   Rb2Np2O7
_chemical_formula_sum   'Rb4 Np4 O14'
_cell_volume   398.80482472
_cell_formula_units_Z   2
loop_
 _symmetry_equiv_pos_site_id
 _symmetry_equiv_pos_as_xyz
  1  'x, y, z'
loop_
 _atom_site_type_symbol
 _atom_site_label
 _atom_site_symmetry_multiplicity
 _atom_site_fract_x
 _atom_site_fract_y
 _atom_site_fract_z
 _atom_site_occupancy
  Rb  Rb0  1  0.121917  0.769856  0.492909  1
  Rb  Rb1  1  0.378083  0.269856  0.492909  1
  Rb  Rb2  1  0.621917  0.730144  0.507091  1
  Rb  Rb3  1  0.878083  0.230144  0.507091  1
  Np  Np4  1  0.618453  0.224463  0.005322  1
  Np  Np5  1  0.118453  0.275537  0.994678  1
  Np  Np6  1  0.381547  0.775537  0.994678  1
  Np  Np7  1  0.881547  0.724463  0.005322  1
  O  O8  1  0.883844  0.636384  0.268815  1
  O  O9  1  0.616156  0.136384  0.268815  1
  O  O10  1  0.639287  0.889012  0.011550  1
  O  O11  1  0.383844  0.863616  0.731185  1
  O  O12  1  0.630278  0.310265  0.742357  1
  O  O13  1  0.139287  0.610988  0.988450  1
  O  O14  1  0.130278  0.189735  0.257643  1
  O  O15  1  0.860713  0.389012  0.011550  1
  O  O16  1  0.869722  0.810265  0.742357  1
  O  O17  1  0.369722  0.689735  0.257643  1
  O  O18  1  0.360713  0.110988  0.988450  1
  O  O19  1  0.500000  0.500000  0.000000  1
  O  O20  1  0.116156  0.363616  0.731185  1
  O  O21  1  0.000000  0.000000  0.000000  1
