# generated using pymatgen
data_Re8Si13As
_symmetry_space_group_name_H-M   'P 1'
_cell_length_a   3.18162192
_cell_length_b   8.35553352
_cell_length_c   11.80280955
_cell_angle_alpha   93.09189654
_cell_angle_beta   97.74604573
_cell_angle_gamma   89.99999922
_symmetry_Int_Tables_number   1
_chemical_formula_structural   Re8Si13As
_chemical_formula_sum   'Re8 Si13 As1'
_cell_volume   310.44361506
_cell_formula_units_Z   1
loop_
 _symmetry_equiv_pos_site_id
 _symmetry_equiv_pos_as_xyz
  1  'x, y, z'
loop_
 _atom_site_type_symbol
 _atom_site_label
 _atom_site_symmetry_multiplicity
 _atom_site_fract_x
 _atom_site_fract_y
 _atom_site_fract_z
 _atom_site_occupancy
  Re  Re0  1  0.149913  0.582949  0.299826  1
  Re  Re1  1  0.275224  0.479430  0.550448  1
  Re  Re2  1  0.398583  0.366284  0.797166  1
  Re  Re3  1  0.523180  0.223432  0.046360  1
  Re  Re4  1  0.653338  0.109363  0.306676  1
  Re  Re5  1  0.768510  0.968150  0.537021  1
  Re  Re6  1  0.897801  0.850582  0.795602  1
  Re  Re7  1  0.023792  0.717652  0.047584  1
  Si  Si8  1  0.316895  0.787433  0.633790  1
  Si  Si9  1  0.442426  0.655856  0.884853  1
  Si  Si10  1  0.568036  0.525872  0.136073  1
  Si  Si11  1  0.691051  0.391145  0.382101  1
  Si  Si12  1  0.829056  0.227407  0.658111  1
  Si  Si13  1  0.992798  0.003263  0.985594  1
  Si  Si14  1  0.105419  0.294472  0.210837  1
  Si  Si15  1  0.237261  0.187049  0.474522  1
  Si  Si16  1  0.733600  0.676347  0.467201  1
  Si  Si17  1  0.856371  0.559702  0.712742  1
  Si  Si18  1  0.981383  0.423114  0.962765  1
  Si  Si19  1  0.570108  0.918422  0.140217  1
  Si  Si20  1  0.413455  0.080919  0.826909  1
  As  As21  1  0.179670  0.884554  0.359341  1
