# generated using pymatgen
data_Hf4TaTi3P4
_symmetry_space_group_name_H-M   'P 1'
_cell_length_a   3.53293500
_cell_length_b   6.75178419
_cell_length_c   8.21557465
_cell_angle_alpha   89.87642149
_cell_angle_beta   90.00000000
_cell_angle_gamma   90.00000000
_symmetry_Int_Tables_number   1
_chemical_formula_structural   Hf4TaTi3P4
_chemical_formula_sum   'Hf4 Ta1 Ti3 P4'
_cell_volume   195.97069613
_cell_formula_units_Z   1
loop_
 _symmetry_equiv_pos_site_id
 _symmetry_equiv_pos_as_xyz
  1  'x, y, z'
loop_
 _atom_site_type_symbol
 _atom_site_label
 _atom_site_symmetry_multiplicity
 _atom_site_fract_x
 _atom_site_fract_y
 _atom_site_fract_z
 _atom_site_occupancy
  Hf  Hf0  1  0.250000  0.032972  0.666427  1
  Hf  Hf1  1  0.250000  0.534883  0.830930  1
  Hf  Hf2  1  0.750000  0.465225  0.170941  1
  Hf  Hf3  1  0.750000  0.964573  0.332137  1
  Ta  Ta4  1  0.250000  0.139494  0.058875  1
  Ti  Ti5  1  0.750000  0.862579  0.940477  1
  Ti  Ti6  1  0.250000  0.636822  0.440661  1
  Ti  Ti7  1  0.750000  0.364758  0.560176  1
  P  P8  1  0.250000  0.263647  0.363644  1
  P  P9  1  0.250000  0.762092  0.142228  1
  P  P10  1  0.750000  0.736648  0.641192  1
  P  P11  1  0.750000  0.236307  0.852315  1
