# generated using pymatgen
data_Y9HoSi16Pt
_symmetry_space_group_name_H-M   'P 1'
_cell_length_a   11.11524142
_cell_length_b   11.12539942
_cell_length_c   11.11415825
_cell_angle_alpha   144.77467772
_cell_angle_beta   136.31071728
_cell_angle_gamma   57.29012040
_symmetry_Int_Tables_number   1
_chemical_formula_structural   Y9HoSi16Pt
_chemical_formula_sum   'Y9 Ho1 Si16 Pt1'
_cell_volume   543.20136514
_cell_formula_units_Z   1
loop_
 _symmetry_equiv_pos_site_id
 _symmetry_equiv_pos_as_xyz
  1  'x, y, z'
loop_
 _atom_site_type_symbol
 _atom_site_label
 _atom_site_symmetry_multiplicity
 _atom_site_fract_x
 _atom_site_fract_y
 _atom_site_fract_z
 _atom_site_occupancy
  Y  Y0  1  0.051782  0.563856  0.015516  1
  Y  Y1  1  0.352275  0.371934  0.522513  1
  Y  Y2  1  0.151547  0.165908  0.520275  1
  Y  Y3  1  0.451462  0.963189  0.014435  1
  Y  Y4  1  0.645639  0.165910  0.014321  1
  Y  Y5  1  0.948734  0.963162  0.511736  1
  Y  Y6  1  0.849402  0.371925  0.019681  1
  Y  Y7  1  0.548330  0.563868  0.512059  1
  Y  Y8  1  0.248823  0.762854  0.010586  1
  Ho  Ho9  1  0.752267  0.762594  0.513991  1
  Si  Si10  1  0.117415  0.076304  0.958710  1
  Si  Si11  1  0.797917  0.186732  0.388785  1
  Si  Si12  1  0.300219  0.899188  0.599000  1
  Si  Si13  1  0.400255  0.500879  0.101063  1
  Si  Si14  1  0.886602  0.846582  0.959841  1
  Si  Si15  1  0.103828  0.708813  0.604524  1
  Si  Si16  1  0.200441  0.586955  0.386486  1
  Si  Si17  1  0.697338  0.293074  0.595774  1
  Si  Si18  1  0.999797  0.433273  0.432953  1
  Si  Si19  1  0.713080  0.665150  0.952088  1
  Si  Si20  1  0.600605  0.703101  0.103004  1
  Si  Si21  1  0.000909  0.087477  0.085892  1
  Si  Si22  1  0.501120  0.393543  0.892708  1
  Si  Si23  1  0.286331  0.241091  0.954793  1
  Si  Si24  1  0.583013  0.040728  0.458437  1
  Si  Si25  1  0.414658  0.868903  0.454892  1
  Pt  Pt26  1  0.896212  0.501925  0.604853  1
