# generated using pymatgen
data_Np8Nb12Si15Sb
_symmetry_space_group_name_H-M   'P 1'
_cell_length_a   7.07193308
_cell_length_b   7.09971449
_cell_length_c   13.08210110
_cell_angle_alpha   89.84029950
_cell_angle_beta   89.83421982
_cell_angle_gamma   89.85628401
_symmetry_Int_Tables_number   1
_chemical_formula_structural   Np8Nb12Si15Sb
_chemical_formula_sum   'Np8 Nb12 Si15 Sb1'
_cell_volume   656.82801108
_cell_formula_units_Z   1
loop_
 _symmetry_equiv_pos_site_id
 _symmetry_equiv_pos_as_xyz
  1  'x, y, z'
loop_
 _atom_site_type_symbol
 _atom_site_label
 _atom_site_symmetry_multiplicity
 _atom_site_fract_x
 _atom_site_fract_y
 _atom_site_fract_z
 _atom_site_occupancy
  Np  Np0  1  0.987814  0.338950  0.221096  1
  Np  Np1  1  0.008185  0.666887  0.718648  1
  Np  Np2  1  0.166235  0.495465  0.470847  1
  Np  Np3  1  0.515705  0.821344  0.023333  1
  Np  Np4  1  0.831318  0.507771  0.967265  1
  Np  Np5  1  0.492774  0.166669  0.532000  1
  Np  Np6  1  0.333746  0.993405  0.780627  1
  Np  Np7  1  0.677359  0.010837  0.285322  1
  Nb  Nb8  1  0.164780  0.170925  0.992665  1
  Nb  Nb9  1  0.832410  0.831338  0.500381  1
  Nb  Nb10  1  0.328980  0.657881  0.252252  1
  Nb  Nb11  1  0.668094  0.330065  0.750139  1
  Nb  Nb12  1  0.153687  0.998613  0.381381  1
  Nb  Nb13  1  0.844489  0.003034  0.874052  1
  Nb  Nb14  1  0.503796  0.655904  0.624780  1
  Nb  Nb15  1  0.345054  0.494236  0.874101  1
  Nb  Nb16  1  0.500964  0.352741  0.123857  1
  Nb  Nb17  1  0.657583  0.507129  0.377515  1
  Nb  Nb18  1  0.997588  0.156175  0.625481  1
  Nb  Nb19  1  0.987431  0.833435  0.119150  1
  Si  Si20  1  0.704534  0.958988  0.684367  1
  Si  Si21  1  0.459781  0.798201  0.435371  1
  Si  Si22  1  0.201618  0.537763  0.064389  1
  Si  Si23  1  0.540408  0.201251  0.934864  1
  Si  Si24  1  0.796647  0.459681  0.566874  1
  Si  Si25  1  0.038782  0.297811  0.813180  1
  Si  Si26  1  0.960480  0.706141  0.315707  1
  Si  Si27  1  0.373626  0.301391  0.322565  1
  Si  Si28  1  0.630949  0.704651  0.813336  1
  Si  Si29  1  0.207137  0.869500  0.567733  1
  Si  Si30  1  0.131474  0.792277  0.932449  1
  Si  Si31  1  0.794186  0.132653  0.065158  1
  Si  Si32  1  0.870645  0.210049  0.437280  1
  Si  Si33  1  0.294542  0.369587  0.683732  1
  Si  Si34  1  0.701042  0.633965  0.186771  1
  Sb  Sb35  1  0.296152  0.033284  0.181329  1
