# generated using pymatgen
data_Ho2PdPtPb
_symmetry_space_group_name_H-M   'P 1'
_cell_length_a   7.94896800
_cell_length_b   7.94466100
_cell_length_c   3.57510400
_cell_angle_alpha   90.00000000
_cell_angle_beta   90.00000000
_cell_angle_gamma   90.00000000
_symmetry_Int_Tables_number   1
_chemical_formula_structural   Ho2PdPtPb
_chemical_formula_sum   'Ho4 Pd2 Pt2 Pb2'
_cell_volume   225.77445321
_cell_formula_units_Z   2
loop_
 _symmetry_equiv_pos_site_id
 _symmetry_equiv_pos_as_xyz
  1  'x, y, z'
loop_
 _atom_site_type_symbol
 _atom_site_label
 _atom_site_symmetry_multiplicity
 _atom_site_fract_x
 _atom_site_fract_y
 _atom_site_fract_z
 _atom_site_occupancy
  Ho  Ho0  1  0.659501  0.170716  0.500000  1
  Ho  Ho1  1  0.176904  0.332871  0.500000  1
  Ho  Ho2  1  0.840499  0.670716  0.500000  1
  Ho  Ho3  1  0.323096  0.832871  0.500000  1
  Pd  Pd4  1  0.629327  0.868526  0.000000  1
  Pd  Pd5  1  0.870673  0.368526  0.000000  1
  Pt  Pt6  1  0.375722  0.121582  0.000000  1
  Pt  Pt7  1  0.124278  0.621582  0.000000  1
  Pb  Pb8  1  0.993530  0.006305  0.000000  1
  Pb  Pb9  1  0.506470  0.506305  0.000000  1
