# generated using pymatgen
data_Dy3Pa(Al3Ir)6
_symmetry_space_group_name_H-M   'P 1'
_cell_length_a   7.57930262
_cell_length_b   7.57477386
_cell_length_c   9.43695300
_cell_angle_alpha   90.00000000
_cell_angle_beta   90.00000000
_cell_angle_gamma   119.61570966
_symmetry_Int_Tables_number   1
_chemical_formula_structural   Dy3Pa(Al3Ir)6
_chemical_formula_sum   'Dy3 Pa1 Al18 Ir6'
_cell_volume   471.00996852
_cell_formula_units_Z   1
loop_
 _symmetry_equiv_pos_site_id
 _symmetry_equiv_pos_as_xyz
  1  'x, y, z'
loop_
 _atom_site_type_symbol
 _atom_site_label
 _atom_site_symmetry_multiplicity
 _atom_site_fract_x
 _atom_site_fract_y
 _atom_site_fract_z
 _atom_site_occupancy
  Dy  Dy0  1  0.005016  0.329689  0.250000  1
  Dy  Dy1  1  0.671348  0.995069  0.750000  1
  Dy  Dy2  1  0.329901  0.004463  0.250000  1
  Pa  Pa3  1  0.995959  0.670691  0.750000  1
  Al  Al4  1  0.130865  0.130001  0.750000  1
  Al  Al5  1  0.872983  0.874195  0.250000  1
  Al  Al6  1  0.000821  0.332045  0.574490  1
  Al  Al7  1  0.999038  0.665045  0.421772  1
  Al  Al8  1  0.999038  0.665045  0.078228  1
  Al  Al9  1  0.337963  0.003746  0.925395  1
  Al  Al10  1  0.000821  0.332045  0.925510  1
  Al  Al11  1  0.665364  0.999819  0.075457  1
  Al  Al12  1  0.665364  0.999819  0.424543  1
  Al  Al13  1  0.337963  0.003746  0.574605  1
  Al  Al14  1  0.332971  0.333047  0.055025  1
  Al  Al15  1  0.663421  0.666005  0.947583  1
  Al  Al16  1  0.663421  0.666005  0.552417  1
  Al  Al17  1  0.332971  0.333047  0.444975  1
  Al  Al18  1  0.339053  0.546241  0.750000  1
  Al  Al19  1  0.659864  0.450525  0.250000  1
  Al  Al20  1  0.545954  0.340804  0.750000  1
  Al  Al21  1  0.451474  0.660965  0.250000  1
  Ir  Ir22  1  0.673988  0.330330  0.502119  1
  Ir  Ir23  1  0.326049  0.671936  0.502069  1
  Ir  Ir24  1  0.326049  0.671936  0.997931  1
  Ir  Ir25  1  0.673988  0.330330  0.997881  1
  Ir  Ir26  1  0.999174  0.996705  0.502977  1
  Ir  Ir27  1  0.999174  0.996705  0.997023  1
