# generated using pymatgen
data_Tb11Th9(Ir2Ru)4
_symmetry_space_group_name_H-M   'P 1'
_cell_length_a   11.12089055
_cell_length_b   11.12232110
_cell_length_c   6.42189217
_cell_angle_alpha   89.94454235
_cell_angle_beta   89.82619294
_cell_angle_gamma   89.90508870
_symmetry_Int_Tables_number   1
_chemical_formula_structural   Tb11Th9(Ir2Ru)4
_chemical_formula_sum   'Tb11 Th9 Ir8 Ru4'
_cell_volume   794.31947218
_cell_formula_units_Z   1
loop_
 _symmetry_equiv_pos_site_id
 _symmetry_equiv_pos_as_xyz
  1  'x, y, z'
loop_
 _atom_site_type_symbol
 _atom_site_label
 _atom_site_symmetry_multiplicity
 _atom_site_fract_x
 _atom_site_fract_y
 _atom_site_fract_z
 _atom_site_occupancy
  Tb  Tb0  1  0.204826  0.586454  0.116595  1
  Tb  Tb1  1  0.797012  0.415593  0.113181  1
  Tb  Tb2  1  0.796505  0.585240  0.614251  1
  Tb  Tb3  1  0.915799  0.702876  0.114348  1
  Tb  Tb4  1  0.909301  0.294213  0.614704  1
  Tb  Tb5  1  0.082691  0.709306  0.614949  1
  Tb  Tb6  1  0.083421  0.293964  0.116625  1
  Tb  Tb7  1  0.998711  0.001353  0.509107  1
  Tb  Tb8  1  0.000011  0.999665  0.008960  1
  Tb  Tb9  1  0.500189  0.499261  0.010444  1
  Tb  Tb10  1  0.503264  0.501268  0.510083  1
  Th  Th11  1  0.288650  0.091736  0.379881  1
  Th  Th12  1  0.288367  0.908372  0.879325  1
  Th  Th13  1  0.711497  0.091107  0.881143  1
  Th  Th14  1  0.712024  0.906830  0.380740  1
  Th  Th15  1  0.591740  0.787385  0.880638  1
  Th  Th16  1  0.593088  0.211880  0.381080  1
  Th  Th17  1  0.407267  0.788179  0.380219  1
  Th  Th18  1  0.408811  0.212161  0.880029  1
  Th  Th19  1  0.199841  0.415799  0.614688  1
  Ir  Ir20  1  0.840848  0.149526  0.252279  1
  Ir  Ir21  1  0.841499  0.849444  0.754879  1
  Ir  Ir22  1  0.158156  0.151750  0.750224  1
  Ir  Ir23  1  0.157876  0.851095  0.251390  1
  Ir  Ir24  1  0.650329  0.341732  0.753835  1
  Ir  Ir25  1  0.650413  0.658695  0.251764  1
  Ir  Ir26  1  0.349972  0.342134  0.262635  1
  Ir  Ir27  1  0.347535  0.657304  0.750918  1
  Ru  Ru28  1  0.499916  0.000119  0.110957  1
  Ru  Ru29  1  0.500379  0.998648  0.612495  1
  Ru  Ru30  1  0.006205  0.497706  0.869061  1
  Ru  Ru31  1  0.003857  0.499204  0.378571  1
