# generated using pymatgen
data_Ac5La5Tc2I15
_symmetry_space_group_name_H-M   'P 1'
_cell_length_a   10.30461386
_cell_length_b   11.48864174
_cell_length_c   12.18196532
_cell_angle_alpha   90.28330862
_cell_angle_beta   113.39327310
_cell_angle_gamma   110.44043156
_symmetry_Int_Tables_number   1
_chemical_formula_structural   Ac5La5Tc2I15
_chemical_formula_sum   'Ac5 La5 Tc2 I15'
_cell_volume   1222.87497779
_cell_formula_units_Z   1
loop_
 _symmetry_equiv_pos_site_id
 _symmetry_equiv_pos_as_xyz
  1  'x, y, z'
loop_
 _atom_site_type_symbol
 _atom_site_label
 _atom_site_symmetry_multiplicity
 _atom_site_fract_x
 _atom_site_fract_y
 _atom_site_fract_z
 _atom_site_occupancy
  Ac  Ac0  1  0.232091  0.586412  0.054542  1
  Ac  Ac1  1  0.765254  0.414859  0.945187  1
  Ac  Ac2  1  0.312777  0.924027  0.281013  1
  Ac  Ac3  1  0.690367  0.079434  0.718066  1
  Ac  Ac4  1  0.081822  0.541518  0.324018  1
  La  La5  1  0.919249  0.447495  0.683862  1
  La  La6  1  0.840807  0.750889  0.177186  1
  La  La7  1  0.156531  0.249711  0.822088  1
  La  La8  1  0.979134  0.790589  0.923228  1
  La  La9  1  0.022608  0.211047  0.082733  1
  Tc  Tc10  1  0.013503  0.695647  0.108377  1
  Tc  Tc11  1  0.983842  0.316448  0.874222  1
  I  I12  1  0.332253  0.432781  0.297260  1
  I  I13  1  0.677335  0.562258  0.702059  1
  I  I14  1  0.197197  0.731345  0.810911  1
  I  I15  1  0.792472  0.257124  0.185857  1
  I  I16  1  0.141351  0.388063  0.585287  1
  I  I17  1  0.855624  0.612169  0.416522  1
  I  I18  1  0.385388  0.793661  0.529188  1
  I  I19  1  0.616802  0.208870  0.471271  1
  I  I20  1  0.259388  0.088822  0.049046  1
  I  I21  1  0.741652  0.916064  0.953748  1
  I  I22  1  0.571069  0.845086  0.228237  1
  I  I23  1  0.430468  0.155212  0.773470  1
  I  I24  1  0.083497  0.039083  0.329331  1
  I  I25  1  0.916982  0.960358  0.672293  1
  I  I26  1  0.500538  0.501029  0.001000  1
