# generated using pymatgen
data_Yb8Bi5I
_symmetry_space_group_name_H-M   'P 1'
_cell_length_a   8.38419095
_cell_length_b   8.38419063
_cell_length_c   8.38419010
_cell_angle_alpha   109.54036645
_cell_angle_beta   109.54036715
_cell_angle_gamma   109.33301725
_symmetry_Int_Tables_number   1
_chemical_formula_structural   Yb8Bi5I
_chemical_formula_sum   'Yb8 Bi5 I1'
_cell_volume   453.69044561
_cell_formula_units_Z   1
loop_
 _symmetry_equiv_pos_site_id
 _symmetry_equiv_pos_as_xyz
  1  'x, y, z'
loop_
 _atom_site_type_symbol
 _atom_site_label
 _atom_site_symmetry_multiplicity
 _atom_site_fract_x
 _atom_site_fract_y
 _atom_site_fract_z
 _atom_site_occupancy
  Yb  Yb0  1  0.134490  0.491978  0.009802  1
  Yb  Yb1  1  0.660005  0.498293  0.008541  1
  Yb  Yb2  1  0.508022  0.017824  0.642513  1
  Yb  Yb3  1  0.348537  0.339995  0.338289  1
  Yb  Yb4  1  0.501707  0.010248  0.161711  1
  Yb  Yb5  1  0.989752  0.651463  0.491459  1
  Yb  Yb6  1  0.875312  0.865510  0.857487  1
  Yb  Yb7  1  0.982176  0.124688  0.490198  1
  Bi  Bi8  1  0.874809  0.242769  0.133180  1
  Bi  Bi9  1  0.609589  0.741629  0.366820  1
  Bi  Bi10  1  0.125000  0.875000  0.250000  1
  Bi  Bi11  1  0.258371  0.125191  0.867960  1
  Bi  Bi12  1  0.757231  0.390411  0.632040  1
  I  I13  1  0.375000  0.625000  0.750000  1
