# generated using pymatgen
data_Nd6IrPd4Au3
_symmetry_space_group_name_H-M   'P 1'
_cell_length_a   8.23987990
_cell_length_b   8.23988115
_cell_length_c   8.23988035
_cell_angle_alpha   114.45490836
_cell_angle_beta   114.45490034
_cell_angle_gamma   114.45492146
_symmetry_Int_Tables_number   1
_chemical_formula_structural   Nd6IrPd4Au3
_chemical_formula_sum   'Nd6 Ir1 Pd4 Au3'
_cell_volume   328.11596419
_cell_formula_units_Z   1
loop_
 _symmetry_equiv_pos_site_id
 _symmetry_equiv_pos_as_xyz
  1  'x, y, z'
loop_
 _atom_site_type_symbol
 _atom_site_label
 _atom_site_symmetry_multiplicity
 _atom_site_fract_x
 _atom_site_fract_y
 _atom_site_fract_z
 _atom_site_occupancy
  Nd  Nd0  1  0.979283  0.601514  0.723693  1
  Nd  Nd1  1  0.723693  0.979283  0.601514  1
  Nd  Nd2  1  0.601514  0.723693  0.979283  1
  Nd  Nd3  1  0.030170  0.383100  0.271841  1
  Nd  Nd4  1  0.271841  0.030170  0.383100  1
  Nd  Nd5  1  0.383100  0.271841  0.030170  1
  Ir  Ir6  1  0.984496  0.984496  0.984496  1
  Pd  Pd7  1  0.509924  0.509924  0.509924  1
  Pd  Pd8  1  0.063966  0.228305  0.564541  1
  Pd  Pd9  1  0.564541  0.063966  0.228305  1
  Pd  Pd10  1  0.228305  0.564541  0.063966  1
  Au  Au11  1  0.938734  0.779516  0.440917  1
  Au  Au12  1  0.440917  0.938734  0.779516  1
  Au  Au13  1  0.779516  0.440917  0.938734  1
