# generated using pymatgen
data_Rb2Pt(SeO3)3
_symmetry_space_group_name_H-M   'P 1'
_cell_length_a   8.09865900
_cell_length_b   8.09907302
_cell_length_c   10.00021000
_cell_angle_alpha   90.00000000
_cell_angle_beta   90.00000000
_cell_angle_gamma   119.99500485
_symmetry_Int_Tables_number   1
_chemical_formula_structural   Rb2Pt(SeO3)3
_chemical_formula_sum   'Rb4 Pt2 Se6 O18'
_cell_volume   568.08070293
_cell_formula_units_Z   2
loop_
 _symmetry_equiv_pos_site_id
 _symmetry_equiv_pos_as_xyz
  1  'x, y, z'
loop_
 _atom_site_type_symbol
 _atom_site_label
 _atom_site_symmetry_multiplicity
 _atom_site_fract_x
 _atom_site_fract_y
 _atom_site_fract_z
 _atom_site_occupancy
  Rb  Rb0  1  0.333352  0.666678  0.058123  1
  Rb  Rb1  1  0.333352  0.666678  0.441877  1
  Rb  Rb2  1  0.666636  0.333324  0.558072  1
  Rb  Rb3  1  0.666636  0.333324  0.941929  1
  Pt  Pt4  1  0.000005  0.000000  0.999998  1
  Pt  Pt5  1  0.000005  0.000000  0.500002  1
  Se  Se6  1  0.772452  0.075904  0.250000  1
  Se  Se7  1  0.303445  0.227541  0.250000  1
  Se  Se8  1  0.924102  0.696575  0.250000  1
  Se  Se9  1  0.075837  0.303418  0.750001  1
  Se  Se10  1  0.696577  0.772451  0.750001  1
  Se  Se11  1  0.227573  0.924097  0.750001  1
  O  O12  1  0.166160  0.236391  0.111836  1
  O  O13  1  0.763626  0.929795  0.111836  1
  O  O14  1  0.070247  0.833848  0.111842  1
  O  O15  1  0.540719  0.010611  0.250000  1
  O  O16  1  0.989404  0.530138  0.250000  1
  O  O17  1  0.469848  0.459259  0.250000  1
  O  O18  1  0.070247  0.833848  0.388158  1
  O  O19  1  0.763626  0.929795  0.388164  1
  O  O20  1  0.166160  0.236391  0.388163  1
  O  O21  1  0.929743  0.166155  0.611839  1
  O  O22  1  0.833851  0.763606  0.611833  1
  O  O23  1  0.236423  0.070226  0.611838  1
  O  O24  1  0.530118  0.540695  0.750001  1
  O  O25  1  0.010487  0.469858  0.750001  1
  O  O26  1  0.459344  0.989406  0.750001  1
  O  O27  1  0.929743  0.166155  0.888160  1
  O  O28  1  0.833851  0.763606  0.888167  1
  O  O29  1  0.236423  0.070226  0.888162  1
