# generated using pymatgen
data_La8HoScIn6
_symmetry_space_group_name_H-M   'P 1'
_cell_length_a   6.29843163
_cell_length_b   9.46098187
_cell_length_c   9.46098145
_cell_angle_alpha   83.68655417
_cell_angle_beta   70.62668978
_cell_angle_gamma   70.62670376
_symmetry_Int_Tables_number   1
_chemical_formula_structural   La8HoScIn6
_chemical_formula_sum   'La8 Ho1 Sc1 In6'
_cell_volume   501.73648812
_cell_formula_units_Z   1
loop_
 _symmetry_equiv_pos_site_id
 _symmetry_equiv_pos_as_xyz
  1  'x, y, z'
loop_
 _atom_site_type_symbol
 _atom_site_label
 _atom_site_symmetry_multiplicity
 _atom_site_fract_x
 _atom_site_fract_y
 _atom_site_fract_z
 _atom_site_occupancy
  La  La0  1  0.724014  0.862723  0.686542  1
  La  La1  1  0.273785  0.137121  0.313392  1
  La  La2  1  0.775986  0.313458  0.137277  1
  La  La3  1  0.226215  0.686608  0.862879  1
  La  La4  1  0.589049  0.686808  0.137285  1
  La  La5  1  0.413322  0.313234  0.862822  1
  La  La6  1  0.086678  0.137178  0.686766  1
  La  La7  1  0.910951  0.862715  0.313192  1
  Ho  Ho8  1  0.250000  0.499983  0.500017  1
  Sc  Sc9  1  0.750000  0.500020  0.499980  1
  In  In10  1  0.151245  0.500094  0.191428  1
  In  In11  1  0.842837  0.500050  0.808468  1
  In  In12  1  0.348755  0.808572  0.499906  1
  In  In13  1  0.657163  0.191532  0.499950  1
  In  In14  1  0.250000  0.000192  0.999808  1
  In  In15  1  0.750000  0.999712  0.000288  1
