# generated using pymatgen
data_Hf16Co4Tc3Mo
_symmetry_space_group_name_H-M   'P 1'
_cell_length_a   8.62898677
_cell_length_b   8.62898743
_cell_length_c   8.62898723
_cell_angle_alpha   59.98764080
_cell_angle_beta   59.98763711
_cell_angle_gamma   59.98763714
_symmetry_Int_Tables_number   1
_chemical_formula_structural   Hf16Co4Tc3Mo
_chemical_formula_sum   'Hf16 Co4 Tc3 Mo1'
_cell_volume   454.19539019
_cell_formula_units_Z   1
loop_
 _symmetry_equiv_pos_site_id
 _symmetry_equiv_pos_as_xyz
  1  'x, y, z'
loop_
 _atom_site_type_symbol
 _atom_site_label
 _atom_site_symmetry_multiplicity
 _atom_site_fract_x
 _atom_site_fract_y
 _atom_site_fract_z
 _atom_site_occupancy
  Hf  Hf0  1  0.052013  0.649462  0.649462  1
  Hf  Hf1  1  0.649462  0.052013  0.649462  1
  Hf  Hf2  1  0.649462  0.649462  0.052013  1
  Hf  Hf3  1  0.649086  0.649086  0.649086  1
  Hf  Hf4  1  0.797814  0.797814  0.202104  1
  Hf  Hf5  1  0.201491  0.201491  0.798607  1
  Hf  Hf6  1  0.797814  0.202104  0.797814  1
  Hf  Hf7  1  0.201491  0.798607  0.201491  1
  Hf  Hf8  1  0.202104  0.797814  0.797814  1
  Hf  Hf9  1  0.798607  0.201491  0.201491  1
  Hf  Hf10  1  0.435303  0.435303  0.063185  1
  Hf  Hf11  1  0.064152  0.064152  0.435729  1
  Hf  Hf12  1  0.435303  0.063185  0.435303  1
  Hf  Hf13  1  0.064152  0.435729  0.064152  1
  Hf  Hf14  1  0.063185  0.435303  0.435303  1
  Hf  Hf15  1  0.435729  0.064152  0.064152  1
  Co  Co16  1  0.422116  0.859194  0.859194  1
  Co  Co17  1  0.859194  0.422116  0.859194  1
  Co  Co18  1  0.859194  0.859194  0.422116  1
  Co  Co19  1  0.859452  0.859452  0.859452  1
  Tc  Tc20  1  0.751962  0.416114  0.416114  1
  Tc  Tc21  1  0.416114  0.751962  0.416114  1
  Tc  Tc22  1  0.416114  0.416114  0.751962  1
  Mo  Mo23  1  0.418687  0.418687  0.418687  1
