# generated using pymatgen
data_CaNdTm2(NiAs)4
_symmetry_space_group_name_H-M   'P 1'
_cell_length_a   4.03864900
_cell_length_b   4.03864907
_cell_length_c   16.07373600
_cell_angle_alpha   90.00000000
_cell_angle_beta   90.00000000
_cell_angle_gamma   119.99999124
_symmetry_Int_Tables_number   1
_chemical_formula_structural   CaNdTm2(NiAs)4
_chemical_formula_sum   'Ca1 Nd1 Tm2 Ni4 As4'
_cell_volume   227.04907082
_cell_formula_units_Z   1
loop_
 _symmetry_equiv_pos_site_id
 _symmetry_equiv_pos_as_xyz
  1  'x, y, z'
loop_
 _atom_site_type_symbol
 _atom_site_label
 _atom_site_symmetry_multiplicity
 _atom_site_fract_x
 _atom_site_fract_y
 _atom_site_fract_z
 _atom_site_occupancy
  Ca  Ca0  1  0.000000  0.000000  0.500000  1
  Nd  Nd1  1  0.000000  0.000000  0.000000  1
  Tm  Tm2  1  0.000000  0.000000  0.252358  1
  Tm  Tm3  1  0.000000  0.000000  0.747642  1
  Ni  Ni4  1  0.333333  0.666667  0.138608  1
  Ni  Ni5  1  0.666667  0.333333  0.861392  1
  Ni  Ni6  1  0.666667  0.333333  0.642180  1
  Ni  Ni7  1  0.333333  0.666667  0.357820  1
  As  As8  1  0.333333  0.666667  0.626000  1
  As  As9  1  0.666667  0.333333  0.374000  1
  As  As10  1  0.666667  0.333333  0.126509  1
  As  As11  1  0.333333  0.666667  0.873491  1
