# generated using pymatgen
data_Tb4Sc4Cr(FeB8)3
_symmetry_space_group_name_H-M   'P 1'
_cell_length_a   3.44081700
_cell_length_b   8.93759377
_cell_length_c   11.32061627
_cell_angle_alpha   89.92773302
_cell_angle_beta   90.00000000
_cell_angle_gamma   90.00000000
_symmetry_Int_Tables_number   1
_chemical_formula_structural   Tb4Sc4Cr(FeB8)3
_chemical_formula_sum   'Tb4 Sc4 Cr1 Fe3 B24'
_cell_volume   348.13838499
_cell_formula_units_Z   1
loop_
 _symmetry_equiv_pos_site_id
 _symmetry_equiv_pos_as_xyz
  1  'x, y, z'
loop_
 _atom_site_type_symbol
 _atom_site_label
 _atom_site_symmetry_multiplicity
 _atom_site_fract_x
 _atom_site_fract_y
 _atom_site_fract_z
 _atom_site_occupancy
  Tb  Tb0  1  0.000000  0.822965  0.084590  1
  Tb  Tb1  1  0.000000  0.177837  0.914292  1
  Tb  Tb2  1  0.000000  0.322154  0.414931  1
  Tb  Tb3  1  0.000000  0.677758  0.585670  1
  Sc  Sc4  1  0.000000  0.443918  0.130607  1
  Sc  Sc5  1  0.000000  0.556238  0.871128  1
  Sc  Sc6  1  0.000000  0.942839  0.369738  1
  Sc  Sc7  1  0.000000  0.055103  0.628985  1
  Cr  Cr8  1  0.000000  0.359227  0.682344  1
  Fe  Fe9  1  0.000000  0.140826  0.182378  1
  Fe  Fe10  1  0.000000  0.858589  0.818168  1
  Fe  Fe11  1  0.000000  0.642100  0.316957  1
  B  B12  1  0.500000  0.056572  0.069284  1
  B  B13  1  0.500000  0.943813  0.930416  1
  B  B14  1  0.500000  0.556238  0.430333  1
  B  B15  1  0.500000  0.445659  0.567998  1
  B  B16  1  0.500000  0.251647  0.083969  1
  B  B17  1  0.500000  0.748678  0.916402  1
  B  B18  1  0.500000  0.751044  0.415940  1
  B  B19  1  0.500000  0.246804  0.582472  1
  B  B20  1  0.500000  0.292189  0.235005  1
  B  B21  1  0.500000  0.707810  0.765936  1
  B  B22  1  0.500000  0.792567  0.265133  1
  B  B23  1  0.500000  0.204937  0.735076  1
  B  B24  1  0.500000  0.129338  0.315892  1
  B  B25  1  0.500000  0.870240  0.684604  1
  B  B26  1  0.500000  0.629981  0.184022  1
  B  B27  1  0.500000  0.370602  0.816963  1
  B  B28  1  0.500000  0.485260  0.286084  1
  B  B29  1  0.500000  0.518355  0.714545  1
  B  B30  1  0.500000  0.985016  0.213477  1
  B  B31  1  0.500000  0.015019  0.786183  1
  B  B32  1  0.500000  0.097003  0.472864  1
  B  B33  1  0.500000  0.901182  0.525871  1
  B  B34  1  0.500000  0.598212  0.026841  1
  B  B35  1  0.500000  0.402279  0.974901  1
