# generated using pymatgen
data_Hf20Zn3SiSb8
_symmetry_space_group_name_H-M   'P 1'
_cell_length_a   5.52377300
_cell_length_b   8.24505874
_cell_length_c   15.50796000
_cell_angle_alpha   90.00000000
_cell_angle_beta   90.00000000
_cell_angle_gamma   109.57099890
_symmetry_Int_Tables_number   1
_chemical_formula_structural   Hf20Zn3SiSb8
_chemical_formula_sum   'Hf20 Zn3 Si1 Sb8'
_cell_volume   665.48742293
_cell_formula_units_Z   1
loop_
 _symmetry_equiv_pos_site_id
 _symmetry_equiv_pos_as_xyz
  1  'x, y, z'
loop_
 _atom_site_type_symbol
 _atom_site_label
 _atom_site_symmetry_multiplicity
 _atom_site_fract_x
 _atom_site_fract_y
 _atom_site_fract_z
 _atom_site_occupancy
  Hf  Hf0  1  0.429537  0.859326  0.354372  1
  Hf  Hf1  1  0.933795  0.863733  0.857316  1
  Hf  Hf2  1  0.070062  0.136267  0.142684  1
  Hf  Hf3  1  0.570212  0.140674  0.645628  1
  Hf  Hf4  1  0.640668  0.286738  0.067785  1
  Hf  Hf5  1  0.145030  0.289855  0.569104  1
  Hf  Hf6  1  0.855176  0.710145  0.430896  1
  Hf  Hf7  1  0.353932  0.713262  0.932215  1
  Hf  Hf8  1  0.859332  0.713262  0.067785  1
  Hf  Hf9  1  0.354970  0.710145  0.569104  1
  Hf  Hf10  1  0.644824  0.289855  0.430896  1
  Hf  Hf11  1  0.146068  0.286738  0.932215  1
  Hf  Hf12  1  0.070463  0.140674  0.354372  1
  Hf  Hf13  1  0.566205  0.136267  0.857316  1
  Hf  Hf14  1  0.429938  0.863733  0.142684  1
  Hf  Hf15  1  0.929788  0.859326  0.645628  1
  Hf  Hf16  1  0.499863  0.499570  0.250082  1
  Hf  Hf17  1  0.000294  0.500430  0.749918  1
  Hf  Hf18  1  0.000137  0.500430  0.250082  1
  Hf  Hf19  1  0.499706  0.499570  0.749918  1
  Zn  Zn20  1  0.750000  0.000000  0.500000  1
  Zn  Zn21  1  0.750000  0.000000  0.000000  1
  Zn  Zn22  1  0.250000  0.000000  0.500000  1
  Si  Si23  1  0.250000  0.000000  0.000000  1
  Sb  Sb24  1  0.913474  0.828470  0.250280  1
  Sb  Sb25  1  0.414997  0.828470  0.749720  1
  Sb  Sb26  1  0.586526  0.171530  0.250280  1
  Sb  Sb27  1  0.085003  0.171530  0.749720  1
  Sb  Sb28  1  0.250000  0.500000  0.086024  1
  Sb  Sb29  1  0.750000  0.500000  0.585729  1
  Sb  Sb30  1  0.250000  0.500000  0.414271  1
  Sb  Sb31  1  0.750000  0.500000  0.913976  1
