# generated using pymatgen
data_ErTh3(Ga8Pt3)3
_symmetry_space_group_name_H-M   'P 1'
_cell_length_a   7.65195101
_cell_length_b   7.65954135
_cell_length_c   13.31664262
_cell_angle_alpha   84.54976297
_cell_angle_beta   101.09625877
_cell_angle_gamma   119.88923715
_symmetry_Int_Tables_number   1
_chemical_formula_structural   ErTh3(Ga8Pt3)3
_chemical_formula_sum   'Er1 Th3 Ga24 Pt9'
_cell_volume   664.03018784
_cell_formula_units_Z   1
loop_
 _symmetry_equiv_pos_site_id
 _symmetry_equiv_pos_as_xyz
  1  'x, y, z'
loop_
 _atom_site_type_symbol
 _atom_site_label
 _atom_site_symmetry_multiplicity
 _atom_site_fract_x
 _atom_site_fract_y
 _atom_site_fract_z
 _atom_site_occupancy
  Er  Er0  1  0.936345  0.332150  0.806375  1
  Th  Th1  1  0.732096  0.999158  0.192787  1
  Th  Th2  1  0.267812  0.000645  0.806447  1
  Th  Th3  1  0.063293  0.667559  0.192480  1
  Ga  Ga4  1  0.803222  0.868670  0.816355  1
  Ga  Ga5  1  0.196633  0.136114  0.183374  1
  Ga  Ga6  1  0.978868  0.661690  0.938089  1
  Ga  Ga7  1  0.020055  0.333669  0.055732  1
  Ga  Ga8  1  0.396941  0.658262  0.817084  1
  Ga  Ga9  1  0.598529  0.337658  0.182907  1
  Ga  Ga10  1  0.880399  0.661680  0.670575  1
  Ga  Ga11  1  0.120622  0.334385  0.332255  1
  Ga  Ga12  1  0.605484  0.462926  0.816252  1
  Ga  Ga13  1  0.398397  0.536924  0.183340  1
  Ga  Ga14  1  0.228243  0.341999  0.669686  1
  Ga  Ga15  1  0.768408  0.657622  0.333712  1
  Ga  Ga16  1  0.852782  0.332915  0.558825  1
  Ga  Ga17  1  0.186162  0.999841  0.557113  1
  Ga  Ga18  1  0.813969  0.000288  0.443961  1
  Ga  Ga19  1  0.353498  0.001960  0.058097  1
  Ga  Ga20  1  0.650208  0.004280  0.938088  1
  Ga  Ga21  1  0.560226  0.995774  0.670744  1
  Ga  Ga22  1  0.444678  0.008309  0.332460  1
  Ga  Ga23  1  0.521202  0.666505  0.561883  1
  Ga  Ga24  1  0.480179  0.333855  0.440484  1
  Ga  Ga25  1  0.683401  0.665938  0.050929  1
  Ga  Ga26  1  0.309623  0.332747  0.943478  1
  Ga  Ga27  1  0.147823  0.666470  0.444037  1
  Pt  Pt28  1  0.331508  0.671934  0.000771  1
  Pt  Pt29  1  0.544990  0.325238  0.638200  1
  Pt  Pt30  1  0.453975  0.674231  0.362511  1
  Pt  Pt31  1  0.887880  0.007034  0.640409  1
  Pt  Pt32  1  0.112524  0.992300  0.360144  1
  Pt  Pt33  1  0.669168  0.329883  0.999263  1
  Pt  Pt34  1  0.205374  0.667675  0.639910  1
  Pt  Pt35  1  0.795246  0.333250  0.361292  1
  Pt  Pt36  1  0.000242  0.998462  0.999953  1
