# generated using pymatgen
data_Er5Ta3(Co4P3)4
_symmetry_space_group_name_H-M   'P 1'
_cell_length_a   12.13854200
_cell_length_b   12.13854136
_cell_length_c   3.68305300
_cell_angle_alpha   90.00000000
_cell_angle_beta   90.00000000
_cell_angle_gamma   120.00000174
_symmetry_Int_Tables_number   1
_chemical_formula_structural   Er5Ta3(Co4P3)4
_chemical_formula_sum   'Er5 Ta3 Co16 P12'
_cell_volume   469.97160624
_cell_formula_units_Z   1
loop_
 _symmetry_equiv_pos_site_id
 _symmetry_equiv_pos_as_xyz
  1  'x, y, z'
loop_
 _atom_site_type_symbol
 _atom_site_label
 _atom_site_symmetry_multiplicity
 _atom_site_fract_x
 _atom_site_fract_y
 _atom_site_fract_z
 _atom_site_occupancy
  Er  Er0  1  0.816777  0.000000  0.500000  1
  Er  Er1  1  0.000000  0.816777  0.500000  1
  Er  Er2  1  0.183223  0.183223  0.500000  1
  Er  Er3  1  0.333333  0.666667  0.000000  1
  Er  Er4  1  0.666667  0.333333  0.000000  1
  Ta  Ta5  1  0.443956  0.000000  0.000000  1
  Ta  Ta6  1  0.000000  0.443956  0.000000  1
  Ta  Ta7  1  0.556044  0.556044  0.000000  1
  Co  Co8  1  0.280013  0.000000  0.500000  1
  Co  Co9  1  0.000000  0.280013  0.500000  1
  Co  Co10  1  0.719987  0.719987  0.500000  1
  Co  Co11  1  0.625899  0.802630  0.000000  1
  Co  Co12  1  0.197370  0.823269  0.000000  1
  Co  Co13  1  0.176731  0.374101  0.000000  1
  Co  Co14  1  0.374101  0.176731  0.000000  1
  Co  Co15  1  0.802630  0.625899  0.000000  1
  Co  Co16  1  0.823269  0.197370  0.000000  1
  Co  Co17  1  0.518535  0.873290  0.500000  1
  Co  Co18  1  0.126710  0.645245  0.500000  1
  Co  Co19  1  0.354755  0.481465  0.500000  1
  Co  Co20  1  0.481465  0.354755  0.500000  1
  Co  Co21  1  0.873290  0.518535  0.500000  1
  Co  Co22  1  0.645245  0.126710  0.500000  1
  Co  Co23  1  0.000000  0.000000  0.000000  1
  P  P24  1  0.177281  0.000000  0.000000  1
  P  P25  1  0.000000  0.177281  0.000000  1
  P  P26  1  0.822719  0.822719  0.000000  1
  P  P27  1  0.519713  0.688237  0.500000  1
  P  P28  1  0.311763  0.831476  0.500000  1
  P  P29  1  0.168524  0.480287  0.500000  1
  P  P30  1  0.480287  0.168524  0.500000  1
  P  P31  1  0.688237  0.519713  0.500000  1
  P  P32  1  0.831476  0.311763  0.500000  1
  P  P33  1  0.645280  0.000000  0.000000  1
  P  P34  1  0.000000  0.645280  0.000000  1
  P  P35  1  0.354720  0.354720  0.000000  1
