# generated using pymatgen
data_Er2TmSn3GeIr2
_symmetry_space_group_name_H-M   'P 1'
_cell_length_a   7.36192921
_cell_length_b   7.36165883
_cell_length_c   4.15638800
_cell_angle_alpha   90.00000000
_cell_angle_beta   90.00000000
_cell_angle_gamma   120.02852180
_symmetry_Int_Tables_number   1
_chemical_formula_structural   Er2TmSn3GeIr2
_chemical_formula_sum   'Er2 Tm1 Sn3 Ge1 Ir2'
_cell_volume   195.02448854
_cell_formula_units_Z   1
loop_
 _symmetry_equiv_pos_site_id
 _symmetry_equiv_pos_as_xyz
  1  'x, y, z'
loop_
 _atom_site_type_symbol
 _atom_site_label
 _atom_site_symmetry_multiplicity
 _atom_site_fract_x
 _atom_site_fract_y
 _atom_site_fract_z
 _atom_site_occupancy
  Er  Er0  1  0.984833  0.398813  0.500000  1
  Er  Er1  1  0.601077  0.585979  0.500000  1
  Tm  Tm2  1  0.414036  0.015579  0.500000  1
  Sn  Sn3  1  0.988069  0.741476  0.000000  1
  Sn  Sn4  1  0.258611  0.246447  0.000000  1
  Sn  Sn5  1  0.753273  0.011929  0.000000  1
  Ge  Ge6  1  0.333411  0.666897  0.000000  1
  Ir  Ir7  1  0.666369  0.332900  0.000000  1
  Ir  Ir8  1  0.000322  0.999980  0.500000  1
