# generated using pymatgen
data_La8Ga3Os
_symmetry_space_group_name_H-M   'P 1'
_cell_length_a   10.63333723
_cell_length_b   10.63360010
_cell_length_c   7.39821200
_cell_angle_alpha   90.00000000
_cell_angle_beta   90.00000000
_cell_angle_gamma   119.97907977
_symmetry_Int_Tables_number   1
_chemical_formula_structural   La8Ga3Os
_chemical_formula_sum   'La16 Ga6 Os2'
_cell_volume   724.60083192
_cell_formula_units_Z   2
loop_
 _symmetry_equiv_pos_site_id
 _symmetry_equiv_pos_as_xyz
  1  'x, y, z'
loop_
 _atom_site_type_symbol
 _atom_site_label
 _atom_site_symmetry_multiplicity
 _atom_site_fract_x
 _atom_site_fract_y
 _atom_site_fract_z
 _atom_site_occupancy
  La  La0  1  0.168632  0.831359  0.984598  1
  La  La1  1  0.337218  0.168682  0.484642  1
  La  La2  1  0.831382  0.662838  0.484656  1
  La  La3  1  0.168618  0.337162  0.984656  1
  La  La4  1  0.662782  0.831318  0.984642  1
  La  La5  1  0.831368  0.168641  0.484598  1
  La  La6  1  0.333281  0.666786  0.675443  1
  La  La7  1  0.666719  0.333214  0.175443  1
  La  La8  1  0.458468  0.541494  0.295326  1
  La  La9  1  0.916901  0.458376  0.795197  1
  La  La10  1  0.541635  0.083124  0.795151  1
  La  La11  1  0.458365  0.916876  0.295151  1
  La  La12  1  0.083099  0.541624  0.295197  1
  La  La13  1  0.541532  0.458506  0.795326  1
  La  La14  1  0.000050  0.000035  0.277410  1
  La  La15  1  0.999950  0.999965  0.777410  1
  Ga  Ga16  1  0.164696  0.835340  0.541018  1
  Ga  Ga17  1  0.329493  0.164733  0.041082  1
  Ga  Ga18  1  0.835277  0.670501  0.041091  1
  Ga  Ga19  1  0.164723  0.329499  0.541091  1
  Ga  Ga20  1  0.670507  0.835267  0.541082  1
  Ga  Ga21  1  0.835304  0.164660  0.041018  1
  Os  Os22  1  0.333291  0.666697  0.047384  1
  Os  Os23  1  0.666709  0.333303  0.547384  1
