# generated using pymatgen
data_Sm2Mg3Cu9P7
_symmetry_space_group_name_H-M   'P 1'
_cell_length_a   9.69069500
_cell_length_b   9.69069571
_cell_length_c   3.84985500
_cell_angle_alpha   90.00000000
_cell_angle_beta   90.00000000
_cell_angle_gamma   120.00000783
_symmetry_Int_Tables_number   1
_chemical_formula_structural   Sm2Mg3Cu9P7
_chemical_formula_sum   'Sm2 Mg3 Cu9 P7'
_cell_volume   313.10128628
_cell_formula_units_Z   1
loop_
 _symmetry_equiv_pos_site_id
 _symmetry_equiv_pos_as_xyz
  1  'x, y, z'
loop_
 _atom_site_type_symbol
 _atom_site_label
 _atom_site_symmetry_multiplicity
 _atom_site_fract_x
 _atom_site_fract_y
 _atom_site_fract_z
 _atom_site_occupancy
  Sm  Sm0  1  0.666667  0.333333  0.000000  1
  Sm  Sm1  1  0.333333  0.666667  0.500000  1
  Mg  Mg2  1  0.225490  0.101943  0.000000  1
  Mg  Mg3  1  0.898057  0.123548  0.000000  1
  Mg  Mg4  1  0.876452  0.774510  0.000000  1
  Cu  Cu5  1  0.422444  0.048010  0.500000  1
  Cu  Cu6  1  0.951990  0.374435  0.500000  1
  Cu  Cu7  1  0.625565  0.577556  0.500000  1
  Cu  Cu8  1  0.167426  0.285639  0.500000  1
  Cu  Cu9  1  0.714361  0.881787  0.500000  1
  Cu  Cu10  1  0.118213  0.832574  0.500000  1
  Cu  Cu11  1  0.389167  0.432405  0.000000  1
  Cu  Cu12  1  0.567595  0.956762  0.000000  1
  Cu  Cu13  1  0.043238  0.610833  0.000000  1
  P  P14  1  0.127330  0.417478  0.000000  1
  P  P15  1  0.582522  0.709851  0.000000  1
  P  P16  1  0.290149  0.872670  0.000000  1
  P  P17  1  0.000000  0.000000  0.500000  1
  P  P18  1  0.424088  0.300011  0.500000  1
  P  P19  1  0.699989  0.124076  0.500000  1
  P  P20  1  0.875924  0.575912  0.500000  1
