# generated using pymatgen
data_Dy3In3Ga2Co
_symmetry_space_group_name_H-M   'P 1'
_cell_length_a   7.25780800
_cell_length_b   7.25780778
_cell_length_c   4.32969900
_cell_angle_alpha   90.00000000
_cell_angle_beta   90.00000000
_cell_angle_gamma   119.99998279
_symmetry_Int_Tables_number   1
_chemical_formula_structural   Dy3In3Ga2Co
_chemical_formula_sum   'Dy3 In3 Ga2 Co1'
_cell_volume   197.51466617
_cell_formula_units_Z   1
loop_
 _symmetry_equiv_pos_site_id
 _symmetry_equiv_pos_as_xyz
  1  'x, y, z'
loop_
 _atom_site_type_symbol
 _atom_site_label
 _atom_site_symmetry_multiplicity
 _atom_site_fract_x
 _atom_site_fract_y
 _atom_site_fract_z
 _atom_site_occupancy
  Dy  Dy0  1  0.400634  0.000000  0.500000  1
  Dy  Dy1  1  0.000000  0.400634  0.500000  1
  Dy  Dy2  1  0.599366  0.599366  0.500000  1
  In  In3  1  0.757023  0.000000  0.000000  1
  In  In4  1  0.000000  0.757023  0.000000  1
  In  In5  1  0.242977  0.242977  0.000000  1
  Ga  Ga6  1  0.333333  0.666667  0.000000  1
  Ga  Ga7  1  0.666667  0.333333  0.000000  1
  Co  Co8  1  0.000000  0.000000  0.500000  1
