# generated using pymatgen
data_AuSe35
_symmetry_space_group_name_H-M   'P 1'
_cell_length_a   19.32203954
_cell_length_b   6.96056890
_cell_length_c   8.67867300
_cell_angle_alpha   71.75977880
_cell_angle_beta   91.15525811
_cell_angle_gamma   93.45325628
_symmetry_Int_Tables_number   1
_chemical_formula_structural   AuSe35
_chemical_formula_sum   'Au1 Se35'
_cell_volume   1106.55195670
_cell_formula_units_Z   1
loop_
 _symmetry_equiv_pos_site_id
 _symmetry_equiv_pos_as_xyz
  1  'x, y, z'
loop_
 _atom_site_type_symbol
 _atom_site_label
 _atom_site_symmetry_multiplicity
 _atom_site_fract_x
 _atom_site_fract_y
 _atom_site_fract_z
 _atom_site_occupancy
  Au  Au0  1  0.346904  0.791158  0.809570  1
  Se  Se1  1  0.799667  0.274227  0.168712  1
  Se  Se2  1  0.351679  0.810166  0.248460  1
  Se  Se3  1  0.854583  0.173255  0.746145  1
  Se  Se4  1  0.988034  0.803386  0.959956  1
  Se  Se5  1  0.550975  0.294620  0.932431  1
  Se  Se6  1  0.987541  0.379074  0.301661  1
  Se  Se7  1  0.515637  0.748160  0.616074  1
  Se  Se8  1  0.740001  0.707183  0.361632  1
  Se  Se9  1  0.264868  0.345507  0.682456  1
  Se  Se10  1  0.186390  0.917527  0.018771  1
  Se  Se11  1  0.720971  0.930733  0.104743  1
  Se  Se12  1  0.821919  0.902585  0.493490  1
  Se  Se13  1  0.534784  0.001979  0.163559  1
  Se  Se14  1  0.683421  0.280750  0.304382  1
  Se  Se15  1  0.225371  0.607867  0.789268  1
  Se  Se16  1  0.981161  0.085527  0.228211  1
  Se  Se17  1  0.475315  0.944426  0.761151  1
  Se  Se18  1  0.904635  0.443323  0.830834  1
  Se  Se19  1  0.309366  0.032593  0.538243  1
  Se  Se20  1  0.441914  0.264695  0.520874  1
  Se  Se21  1  0.376456  0.570297  0.107351  1
  Se  Se22  1  0.744873  0.516226  0.925424  1
  Se  Se23  1  0.247437  0.382881  0.153372  1
  Se  Se24  1  0.938945  0.822380  0.467941  1
  Se  Se25  1  0.192031  0.631311  0.240914  1
  Se  Se26  1  0.674126  0.042615  0.548695  1
  Se  Se27  1  0.191629  0.873712  0.550322  1
  Se  Se28  1  0.029848  0.365022  0.841355  1
  Se  Se29  1  0.521273  0.710235  0.081382  1
  Se  Se30  1  0.857548  0.883799  0.981704  1
  Se  Se31  1  0.311740  0.065602  0.021543  1
  Se  Se32  1  0.867413  0.506625  0.295335  1
  Se  Se33  1  0.395885  0.490597  0.642147  1
  Se  Se34  1  0.665832  0.310702  0.820909  1
  Se  Se35  1  0.023589  0.089257  0.740980  1
