# generated using pymatgen
data_DyEr7(MgSn4)2
_symmetry_space_group_name_H-M   'P 1'
_cell_length_a   7.63112502
_cell_length_b   8.19734002
_cell_length_c   15.19668505
_cell_angle_alpha   90.00714203
_cell_angle_beta   89.99355551
_cell_angle_gamma   89.99671337
_symmetry_Int_Tables_number   1
_chemical_formula_structural   DyEr7(MgSn4)2
_chemical_formula_sum   'Dy2 Er14 Mg4 Sn16'
_cell_volume   950.62750129
_cell_formula_units_Z   2
loop_
 _symmetry_equiv_pos_site_id
 _symmetry_equiv_pos_as_xyz
  1  'x, y, z'
loop_
 _atom_site_type_symbol
 _atom_site_label
 _atom_site_symmetry_multiplicity
 _atom_site_fract_x
 _atom_site_fract_y
 _atom_site_fract_z
 _atom_site_occupancy
  Dy  Dy0  1  0.998917  0.184795  0.090674  1
  Dy  Dy1  1  0.001083  0.815205  0.909326  1
  Er  Er2  1  0.501061  0.684790  0.909392  1
  Er  Er3  1  0.001057  0.815131  0.590640  1
  Er  Er4  1  0.498939  0.315210  0.090608  1
  Er  Er5  1  0.998943  0.184869  0.409360  1
  Er  Er6  1  0.498953  0.315155  0.409425  1
  Er  Er7  1  0.501047  0.684845  0.590575  1
  Er  Er8  1  0.335085  0.169009  0.628727  1
  Er  Er9  1  0.664915  0.830991  0.371273  1
  Er  Er10  1  0.164911  0.668992  0.371264  1
  Er  Er11  1  0.664827  0.830936  0.128751  1
  Er  Er12  1  0.835089  0.331008  0.628736  1
  Er  Er13  1  0.335173  0.169064  0.871249  1
  Er  Er14  1  0.835051  0.331021  0.871236  1
  Er  Er15  1  0.164949  0.668979  0.128764  1
  Mg  Mg16  1  0.159241  0.505322  0.750002  1
  Mg  Mg17  1  0.840759  0.494678  0.249998  1
  Mg  Mg18  1  0.340811  0.005351  0.249995  1
  Mg  Mg19  1  0.659189  0.994649  0.750005  1
  Sn  Sn20  1  0.021519  0.091874  0.749931  1
  Sn  Sn21  1  0.978481  0.908126  0.250069  1
  Sn  Sn22  1  0.478533  0.591704  0.250008  1
  Sn  Sn23  1  0.521467  0.408296  0.749992  1
  Sn  Sn24  1  0.182683  0.463019  0.538503  1
  Sn  Sn25  1  0.817317  0.536981  0.461497  1
  Sn  Sn26  1  0.317306  0.963010  0.461506  1
  Sn  Sn27  1  0.817203  0.537040  0.038484  1
  Sn  Sn28  1  0.682694  0.036990  0.538494  1
  Sn  Sn29  1  0.182797  0.462960  0.961516  1
  Sn  Sn30  1  0.682209  0.037120  0.961546  1
  Sn  Sn31  1  0.317791  0.962880  0.038454  1
  Sn  Sn32  1  0.302822  0.846753  0.749927  1
  Sn  Sn33  1  0.697178  0.153247  0.250073  1
  Sn  Sn34  1  0.197525  0.346877  0.250130  1
  Sn  Sn35  1  0.802475  0.653123  0.749870  1
