# generated using pymatgen
data_Ho2LuHg5
_symmetry_space_group_name_H-M   'P 1'
_cell_length_a   6.34639008
_cell_length_b   6.34638965
_cell_length_c   10.07039000
_cell_angle_alpha   90.00000000
_cell_angle_beta   90.00000000
_cell_angle_gamma   105.33043008
_symmetry_Int_Tables_number   1
_chemical_formula_structural   Ho2LuHg5
_chemical_formula_sum   'Ho4 Lu2 Hg10'
_cell_volume   391.16924760
_cell_formula_units_Z   2
loop_
 _symmetry_equiv_pos_site_id
 _symmetry_equiv_pos_as_xyz
  1  'x, y, z'
loop_
 _atom_site_type_symbol
 _atom_site_label
 _atom_site_symmetry_multiplicity
 _atom_site_fract_x
 _atom_site_fract_y
 _atom_site_fract_z
 _atom_site_occupancy
  Ho  Ho0  1  0.215536  0.784464  0.500000  1
  Ho  Ho1  1  0.215536  0.784464  0.000000  1
  Ho  Ho2  1  0.784464  0.215536  0.500000  1
  Ho  Ho3  1  0.784464  0.215536  0.000000  1
  Lu  Lu4  1  0.571836  0.571836  0.250000  1
  Lu  Lu5  1  0.428164  0.428164  0.750000  1
  Hg  Hg6  1  0.971685  0.971685  0.250000  1
  Hg  Hg7  1  0.028315  0.028315  0.750000  1
  Hg  Hg8  1  0.294918  0.294918  0.030122  1
  Hg  Hg9  1  0.705082  0.705082  0.969878  1
  Hg  Hg10  1  0.294918  0.294918  0.469878  1
  Hg  Hg11  1  0.705082  0.705082  0.530122  1
  Hg  Hg12  1  0.482101  0.039605  0.250000  1
  Hg  Hg13  1  0.960395  0.517899  0.750000  1
  Hg  Hg14  1  0.517899  0.960395  0.750000  1
  Hg  Hg15  1  0.039605  0.482101  0.250000  1
