# generated using pymatgen
data_ErTmFeSi2
_symmetry_space_group_name_H-M   'P 1'
_cell_length_a   5.56013970
_cell_length_b   5.56013900
_cell_length_c   9.84217756
_cell_angle_alpha   63.17156011
_cell_angle_beta   116.82843849
_cell_angle_gamma   136.59550875
_symmetry_Int_Tables_number   1
_chemical_formula_structural   ErTmFeSi2
_chemical_formula_sum   'Er2 Tm2 Fe2 Si4'
_cell_volume   182.75539117
_cell_formula_units_Z   2
loop_
 _symmetry_equiv_pos_site_id
 _symmetry_equiv_pos_as_xyz
  1  'x, y, z'
loop_
 _atom_site_type_symbol
 _atom_site_label
 _atom_site_symmetry_multiplicity
 _atom_site_fract_x
 _atom_site_fract_y
 _atom_site_fract_z
 _atom_site_occupancy
  Er  Er0  1  0.188521  0.811460  0.108671  1
  Er  Er1  1  0.811460  0.188522  0.891329  1
  Tm  Tm2  1  0.999797  0.000205  0.328153  1
  Tm  Tm3  1  0.000205  0.999797  0.671847  1
  Fe  Fe4  1  0.270983  0.729016  0.624082  1
  Fe  Fe5  1  0.729016  0.270983  0.375918  1
  Si  Si6  1  0.498935  0.501064  0.126901  1
  Si  Si7  1  0.501064  0.498936  0.873099  1
  Si  Si8  1  0.347928  0.652078  0.436513  1
  Si  Si9  1  0.652078  0.347927  0.563487  1
