# generated using pymatgen
data_La4(Al8Pt3)3
_symmetry_space_group_name_H-M   'P 1'
_cell_length_a   7.59477858
_cell_length_b   7.61626510
_cell_length_c   13.41754824
_cell_angle_alpha   84.83996720
_cell_angle_beta   100.61621662
_cell_angle_gamma   119.68332796
_symmetry_Int_Tables_number   1
_chemical_formula_structural   La4(Al8Pt3)3
_chemical_formula_sum   'La4 Al24 Pt9'
_cell_volume   662.73423654
_cell_formula_units_Z   1
loop_
 _symmetry_equiv_pos_site_id
 _symmetry_equiv_pos_as_xyz
  1  'x, y, z'
loop_
 _atom_site_type_symbol
 _atom_site_label
 _atom_site_symmetry_multiplicity
 _atom_site_fract_x
 _atom_site_fract_y
 _atom_site_fract_z
 _atom_site_occupancy
  La  La0  1  0.436956  0.831131  0.807857  1
  La  La1  1  0.563044  0.168869  0.192143  1
  La  La2  1  0.768217  0.501471  0.808067  1
  La  La3  1  0.231783  0.498529  0.191933  1
  Al  Al4  1  0.479080  0.166269  0.946536  1
  Al  Al5  1  0.520920  0.833731  0.053464  1
  Al  Al6  1  0.020597  0.167508  0.558731  1
  Al  Al7  1  0.979403  0.832492  0.441269  1
  Al  Al8  1  0.354058  0.833356  0.556853  1
  Al  Al9  1  0.645942  0.166644  0.443147  1
  Al  Al10  1  0.621424  0.834491  0.333944  1
  Al  Al11  1  0.378576  0.165509  0.666056  1
  Al  Al12  1  0.055065  0.491983  0.665375  1
  Al  Al13  1  0.944935  0.508017  0.334625  1
  Al  Al14  1  0.731907  0.841829  0.664503  1
  Al  Al15  1  0.268093  0.158171  0.335497  1
  Al  Al16  1  0.148321  0.497011  0.947067  1
  Al  Al17  1  0.851679  0.502989  0.052933  1
  Al  Al18  1  0.820518  0.834942  0.957180  1
  Al  Al19  1  0.179482  0.165058  0.042820  1
  Al  Al20  1  0.314194  0.500643  0.442417  1
  Al  Al21  1  0.685806  0.499357  0.557583  1
  Al  Al22  1  0.099083  0.836172  0.183542  1
  Al  Al23  1  0.900917  0.163828  0.816458  1
  Al  Al24  1  0.303359  0.365489  0.815136  1
  Al  Al25  1  0.696641  0.634511  0.184864  1
  Al  Al26  1  0.102470  0.962713  0.815887  1
  Al  Al27  1  0.897530  0.037287  0.184113  1
  Pt  Pt28  1  0.384413  0.504673  0.635901  1
  Pt  Pt29  1  0.615587  0.495327  0.364099  1
  Pt  Pt30  1  0.170992  0.829445  0.999796  1
  Pt  Pt31  1  0.829008  0.170555  0.000204  1
  Pt  Pt32  1  0.293538  0.833762  0.363581  1
  Pt  Pt33  1  0.706462  0.166238  0.636419  1
  Pt  Pt34  1  0.047150  0.828399  0.634963  1
  Pt  Pt35  1  0.952850  0.171601  0.365037  1
  Pt  Pt36  1  0.500000  0.500000  0.000000  1
