# generated using pymatgen
data_Pu8Cu3Si12Tc
_symmetry_space_group_name_H-M   'P 1'
_cell_length_a   8.15869900
_cell_length_b   8.15869997
_cell_length_c   8.29934800
_cell_angle_alpha   90.00000000
_cell_angle_beta   90.00000000
_cell_angle_gamma   119.99999203
_symmetry_Int_Tables_number   1
_chemical_formula_structural   Pu8Cu3Si12Tc
_chemical_formula_sum   'Pu8 Cu3 Si12 Tc1'
_cell_volume   478.42791897
_cell_formula_units_Z   1
loop_
 _symmetry_equiv_pos_site_id
 _symmetry_equiv_pos_as_xyz
  1  'x, y, z'
loop_
 _atom_site_type_symbol
 _atom_site_label
 _atom_site_symmetry_multiplicity
 _atom_site_fract_x
 _atom_site_fract_y
 _atom_site_fract_z
 _atom_site_occupancy
  Pu  Pu0  1  0.000000  0.000000  0.251313  1
  Pu  Pu1  1  0.000000  0.000000  0.750877  1
  Pu  Pu2  1  0.495644  0.504356  0.242229  1
  Pu  Pu3  1  0.495644  0.991288  0.242229  1
  Pu  Pu4  1  0.008712  0.504356  0.242229  1
  Pu  Pu5  1  0.495934  0.504066  0.755780  1
  Pu  Pu6  1  0.495934  0.991868  0.755780  1
  Pu  Pu7  1  0.008132  0.504066  0.755780  1
  Cu  Cu8  1  0.333333  0.666667  0.496786  1
  Cu  Cu9  1  0.666667  0.333333  0.494913  1
  Cu  Cu10  1  0.666667  0.333333  0.998023  1
  Si  Si11  1  0.167431  0.832569  0.502116  1
  Si  Si12  1  0.167431  0.334864  0.502116  1
  Si  Si13  1  0.665136  0.832569  0.502116  1
  Si  Si14  1  0.831696  0.168304  0.499386  1
  Si  Si15  1  0.831696  0.663389  0.499386  1
  Si  Si16  1  0.336611  0.168304  0.499386  1
  Si  Si17  1  0.831532  0.168468  0.001455  1
  Si  Si18  1  0.831532  0.663063  0.001455  1
  Si  Si19  1  0.336937  0.168468  0.001455  1
  Si  Si20  1  0.164431  0.835569  0.992666  1
  Si  Si21  1  0.164431  0.328862  0.992666  1
  Si  Si22  1  0.671138  0.835569  0.992666  1
  Tc  Tc23  1  0.333333  0.666667  0.027200  1
