# generated using pymatgen
data_Hf2U6Bi7Sb3
_symmetry_space_group_name_H-M   'P 1'
_cell_length_a   9.45352700
_cell_length_b   9.45129686
_cell_length_c   6.32504400
_cell_angle_alpha   90.00000000
_cell_angle_beta   90.00000000
_cell_angle_gamma   120.00780935
_symmetry_Int_Tables_number   1
_chemical_formula_structural   Hf2U6Bi7Sb3
_chemical_formula_sum   'Hf2 U6 Bi7 Sb3'
_cell_volume   489.37893878
_cell_formula_units_Z   1
loop_
 _symmetry_equiv_pos_site_id
 _symmetry_equiv_pos_as_xyz
  1  'x, y, z'
loop_
 _atom_site_type_symbol
 _atom_site_label
 _atom_site_symmetry_multiplicity
 _atom_site_fract_x
 _atom_site_fract_y
 _atom_site_fract_z
 _atom_site_occupancy
  Hf  Hf0  1  0.008949  0.000000  0.501588  1
  Hf  Hf1  1  0.008949  0.000000  0.998412  1
  U  U2  1  0.374655  0.000000  0.750000  1
  U  U3  1  0.381313  0.377920  0.250000  1
  U  U4  1  0.003392  0.622080  0.250000  1
  U  U5  1  0.003460  0.389880  0.750000  1
  U  U6  1  0.613580  0.610120  0.750000  1
  U  U7  1  0.608587  0.000000  0.250000  1
  Bi  Bi8  1  0.333811  0.666794  0.500140  1
  Bi  Bi9  1  0.667018  0.333206  0.999860  1
  Bi  Bi10  1  0.667018  0.333206  0.500140  1
  Bi  Bi11  1  0.333811  0.666794  0.999860  1
  Bi  Bi12  1  0.731197  0.000000  0.750000  1
  Bi  Bi13  1  0.728971  0.731139  0.250000  1
  Bi  Bi14  1  0.997832  0.268861  0.250000  1
  Sb  Sb15  1  0.997745  0.728922  0.750000  1
  Sb  Sb16  1  0.270887  0.000000  0.250000  1
  Sb  Sb17  1  0.268824  0.271078  0.750000  1
