# generated using pymatgen
data_Eu5AgPt2
_symmetry_space_group_name_H-M   'P 1'
_cell_length_a   9.25751905
_cell_length_b   9.25751884
_cell_length_c   9.25751868
_cell_angle_alpha   128.14144091
_cell_angle_beta   128.14144160
_cell_angle_gamma   76.39601514
_symmetry_Int_Tables_number   1
_chemical_formula_structural   Eu5AgPt2
_chemical_formula_sum   'Eu10 Ag2 Pt4'
_cell_volume   476.84967317
_cell_formula_units_Z   2
loop_
 _symmetry_equiv_pos_site_id
 _symmetry_equiv_pos_as_xyz
  1  'x, y, z'
loop_
 _atom_site_type_symbol
 _atom_site_label
 _atom_site_symmetry_multiplicity
 _atom_site_fract_x
 _atom_site_fract_y
 _atom_site_fract_z
 _atom_site_occupancy
  Eu  Eu0  1  0.468701  0.968701  0.167836  1
  Eu  Eu1  1  0.199136  0.699136  0.167836  1
  Eu  Eu2  1  0.531299  0.031299  0.832164  1
  Eu  Eu3  1  0.031299  0.199136  0.500000  1
  Eu  Eu4  1  0.699136  0.531299  0.500000  1
  Eu  Eu5  1  0.968701  0.800864  0.500000  1
  Eu  Eu6  1  0.000000  0.000000  0.000000  1
  Eu  Eu7  1  0.500000  0.500000  0.000000  1
  Eu  Eu8  1  0.800864  0.300864  0.832164  1
  Eu  Eu9  1  0.300864  0.468701  0.500000  1
  Ag  Ag10  1  0.750000  0.750000  0.000000  1
  Ag  Ag11  1  0.250000  0.250000  0.000000  1
  Pt  Pt12  1  0.131924  0.631924  0.763846  1
  Pt  Pt13  1  0.631924  0.868076  0.500000  1
  Pt  Pt14  1  0.368076  0.131924  0.500000  1
  Pt  Pt15  1  0.868076  0.368076  0.236154  1
