# generated using pymatgen
data_Tm2Ga7Ni2Au
_symmetry_space_group_name_H-M   'P 1'
_cell_length_a   7.85935011
_cell_length_b   7.85935146
_cell_length_c   6.52494706
_cell_angle_alpha   90.69076213
_cell_angle_beta   89.30923799
_cell_angle_gamma   149.68067969
_symmetry_Int_Tables_number   1
_chemical_formula_structural   Tm2Ga7Ni2Au
_chemical_formula_sum   'Tm2 Ga7 Ni2 Au1'
_cell_volume   203.44729606
_cell_formula_units_Z   1
loop_
 _symmetry_equiv_pos_site_id
 _symmetry_equiv_pos_as_xyz
  1  'x, y, z'
loop_
 _atom_site_type_symbol
 _atom_site_label
 _atom_site_symmetry_multiplicity
 _atom_site_fract_x
 _atom_site_fract_y
 _atom_site_fract_z
 _atom_site_occupancy
  Tm  Tm0  1  0.875898  0.124102  0.737061  1
  Tm  Tm1  1  0.124102  0.875898  0.262939  1
  Ga  Ga2  1  0.500000  0.500000  0.500000  1
  Ga  Ga3  1  0.068077  0.931923  0.762303  1
  Ga  Ga4  1  0.931923  0.068077  0.237697  1
  Ga  Ga5  1  0.683853  0.316147  0.954410  1
  Ga  Ga6  1  0.316147  0.683853  0.045590  1
  Ga  Ga7  1  0.684751  0.315249  0.554277  1
  Ga  Ga8  1  0.315249  0.684751  0.445723  1
  Ni  Ni9  1  0.223312  0.776688  0.749259  1
  Ni  Ni10  1  0.776688  0.223312  0.250741  1
  Au  Au11  1  0.500000  0.500000  0.000000  1
