# generated using pymatgen
data_Dy3Lu7Si5As
_symmetry_space_group_name_H-M   'P 1'
_cell_length_a   8.30003605
_cell_length_b   8.33396651
_cell_length_c   6.17644400
_cell_angle_alpha   90.00000000
_cell_angle_beta   90.00000000
_cell_angle_gamma   119.95355360
_symmetry_Int_Tables_number   1
_chemical_formula_structural   Dy3Lu7Si5As
_chemical_formula_sum   'Dy3 Lu7 Si5 As1'
_cell_volume   370.17231894
_cell_formula_units_Z   1
loop_
 _symmetry_equiv_pos_site_id
 _symmetry_equiv_pos_as_xyz
  1  'x, y, z'
loop_
 _atom_site_type_symbol
 _atom_site_label
 _atom_site_symmetry_multiplicity
 _atom_site_fract_x
 _atom_site_fract_y
 _atom_site_fract_z
 _atom_site_occupancy
  Dy  Dy0  1  0.759451  0.000037  0.750000  1
  Dy  Dy1  1  0.243073  0.246974  0.750000  1
  Dy  Dy2  1  0.241991  0.999277  0.250000  1
  Lu  Lu3  1  0.995946  0.752050  0.750000  1
  Lu  Lu4  1  0.000254  0.245624  0.250000  1
  Lu  Lu5  1  0.756642  0.755772  0.250000  1
  Lu  Lu6  1  0.669097  0.336143  0.001433  1
  Lu  Lu7  1  0.332832  0.664139  0.498553  1
  Lu  Lu8  1  0.332832  0.664139  0.001447  1
  Lu  Lu9  1  0.669097  0.336143  0.498567  1
  Si  Si10  1  0.394871  0.395416  0.250000  1
  Si  Si11  1  0.999342  0.604084  0.250000  1
  Si  Si12  1  0.999400  0.397686  0.750000  1
  Si  Si13  1  0.606346  0.605068  0.750000  1
  Si  Si14  1  0.608852  0.999785  0.250000  1
  As  As15  1  0.389974  0.997662  0.750000  1
