# generated using pymatgen
data_ZrTi8In14Co6Os
_symmetry_space_group_name_H-M   'P 1'
_cell_length_a   9.19719294
_cell_length_b   9.19719359
_cell_length_c   9.19719400
_cell_angle_alpha   60.00000573
_cell_angle_beta   60.00000338
_cell_angle_gamma   60.00001084
_symmetry_Int_Tables_number   1
_chemical_formula_structural   ZrTi8In14Co6Os
_chemical_formula_sum   'Zr1 Ti8 In14 Co6 Os1'
_cell_volume   550.11190083
_cell_formula_units_Z   1
loop_
 _symmetry_equiv_pos_site_id
 _symmetry_equiv_pos_as_xyz
  1  'x, y, z'
loop_
 _atom_site_type_symbol
 _atom_site_label
 _atom_site_symmetry_multiplicity
 _atom_site_fract_x
 _atom_site_fract_y
 _atom_site_fract_z
 _atom_site_occupancy
  Zr  Zr0  1  0.500000  0.500000  0.500000  1
  Ti  Ti1  1  0.118262  0.645214  0.118262  1
  Ti  Ti2  1  0.354786  0.881738  0.881738  1
  Ti  Ti3  1  0.881738  0.881738  0.881738  1
  Ti  Ti4  1  0.645214  0.118262  0.118262  1
  Ti  Ti5  1  0.881738  0.881738  0.354786  1
  Ti  Ti6  1  0.118262  0.118262  0.118262  1
  Ti  Ti7  1  0.881738  0.354786  0.881738  1
  Ti  Ti8  1  0.118262  0.118262  0.645214  1
  In  In9  1  0.500000  0.845413  0.154587  1
  In  In10  1  0.500000  0.845413  0.500000  1
  In  In11  1  0.500000  0.154587  0.500000  1
  In  In12  1  0.500000  0.500000  0.845413  1
  In  In13  1  0.154587  0.500000  0.500000  1
  In  In14  1  0.845413  0.154587  0.500000  1
  In  In15  1  0.154587  0.845413  0.500000  1
  In  In16  1  0.500000  0.154587  0.845413  1
  In  In17  1  0.154587  0.500000  0.845413  1
  In  In18  1  0.500000  0.500000  0.154587  1
  In  In19  1  0.845413  0.500000  0.500000  1
  In  In20  1  0.845413  0.500000  0.154587  1
  In  In21  1  0.250000  0.250000  0.250000  1
  In  In22  1  0.750000  0.750000  0.750000  1
  Co  Co23  1  0.785734  0.785734  0.214266  1
  Co  Co24  1  0.214266  0.785734  0.214266  1
  Co  Co25  1  0.214266  0.785734  0.785734  1
  Co  Co26  1  0.214266  0.214266  0.785734  1
  Co  Co27  1  0.785734  0.214266  0.785734  1
  Co  Co28  1  0.785734  0.214266  0.214266  1
  Os  Os29  1  0.000000  0.000000  0.000000  1
