# generated using pymatgen
data_Sc5Al3Si4Ni3
_symmetry_space_group_name_H-M   'P 1'
_cell_length_a   3.99668300
_cell_length_b   18.30826500
_cell_length_c   6.55930200
_cell_angle_alpha   90.00000000
_cell_angle_beta   90.00000000
_cell_angle_gamma   90.00000000
_symmetry_Int_Tables_number   1
_chemical_formula_structural   Sc5Al3Si4Ni3
_chemical_formula_sum   'Sc10 Al6 Si8 Ni6'
_cell_volume   479.95942025
_cell_formula_units_Z   2
loop_
 _symmetry_equiv_pos_site_id
 _symmetry_equiv_pos_as_xyz
  1  'x, y, z'
loop_
 _atom_site_type_symbol
 _atom_site_label
 _atom_site_symmetry_multiplicity
 _atom_site_fract_x
 _atom_site_fract_y
 _atom_site_fract_z
 _atom_site_occupancy
  Sc  Sc0  1  0.750000  0.119635  0.004791  1
  Sc  Sc1  1  0.750000  0.380365  0.004791  1
  Sc  Sc2  1  0.750000  0.250000  0.379810  1
  Sc  Sc3  1  0.750000  0.070914  0.498692  1
  Sc  Sc4  1  0.750000  0.429085  0.498692  1
  Sc  Sc5  1  0.250001  0.570914  0.501308  1
  Sc  Sc6  1  0.250001  0.929086  0.501308  1
  Sc  Sc7  1  0.250001  0.750000  0.620190  1
  Sc  Sc8  1  0.250001  0.619635  0.995209  1
  Sc  Sc9  1  0.250001  0.880365  0.995209  1
  Al  Al10  1  0.250001  0.250000  0.034522  1
  Al  Al11  1  0.750000  0.675100  0.322404  1
  Al  Al12  1  0.750000  0.824900  0.322404  1
  Al  Al13  1  0.250001  0.175100  0.677596  1
  Al  Al14  1  0.250001  0.324900  0.677596  1
  Al  Al15  1  0.750000  0.750000  0.965478  1
  Si  Si16  1  0.750000  0.539019  0.206339  1
  Si  Si17  1  0.750000  0.960981  0.206339  1
  Si  Si18  1  0.250001  0.143706  0.289516  1
  Si  Si19  1  0.250001  0.356294  0.289516  1
  Si  Si20  1  0.750000  0.643706  0.710484  1
  Si  Si21  1  0.750000  0.856294  0.710484  1
  Si  Si22  1  0.250001  0.039020  0.793661  1
  Si  Si23  1  0.250001  0.460980  0.793661  1
  Ni  Ni24  1  0.250001  0.024240  0.157666  1
  Ni  Ni25  1  0.250001  0.475760  0.157666  1
  Ni  Ni26  1  0.250001  0.750000  0.208964  1
  Ni  Ni27  1  0.750000  0.250000  0.791036  1
  Ni  Ni28  1  0.750000  0.524240  0.842334  1
  Ni  Ni29  1  0.750000  0.975760  0.842334  1
