# generated using pymatgen
data_CsLaBeF6
_symmetry_space_group_name_H-M   'P 1'
_cell_length_a   6.21860300
_cell_length_b   6.83581126
_cell_length_c   7.69095697
_cell_angle_alpha   66.36588208
_cell_angle_beta   90.00000000
_cell_angle_gamma   90.00000000
_symmetry_Int_Tables_number   1
_chemical_formula_structural   CsLaBeF6
_chemical_formula_sum   'Cs2 La2 Be2 F12'
_cell_volume   299.51433862
_cell_formula_units_Z   2
loop_
 _symmetry_equiv_pos_site_id
 _symmetry_equiv_pos_as_xyz
  1  'x, y, z'
loop_
 _atom_site_type_symbol
 _atom_site_label
 _atom_site_symmetry_multiplicity
 _atom_site_fract_x
 _atom_site_fract_y
 _atom_site_fract_z
 _atom_site_occupancy
  Cs  Cs0  1  0.250000  0.083704  0.783081  1
  Cs  Cs1  1  0.750000  0.916296  0.216919  1
  La  La2  1  0.250000  0.391063  0.185904  1
  La  La3  1  0.750000  0.608937  0.814096  1
  Be  Be4  1  0.250000  0.767520  0.465912  1
  Be  Be5  1  0.750000  0.232480  0.534088  1
  F  F6  1  0.454722  0.755748  0.590188  1
  F  F7  1  0.545278  0.244252  0.409812  1
  F  F8  1  0.954722  0.244252  0.409812  1
  F  F9  1  0.045278  0.755748  0.590188  1
  F  F10  1  0.250000  0.580871  0.398151  1
  F  F11  1  0.750000  0.419129  0.601849  1
  F  F12  1  0.499372  0.677215  0.026703  1
  F  F13  1  0.500628  0.322785  0.973297  1
  F  F14  1  0.999372  0.322785  0.973297  1
  F  F15  1  0.000628  0.677215  0.026703  1
  F  F16  1  0.250000  0.987536  0.286650  1
  F  F17  1  0.750000  0.012464  0.713350  1
