# generated using pymatgen
data_CeNd2Zn3CuPd2
_symmetry_space_group_name_H-M   'P 1'
_cell_length_a   7.35869900
_cell_length_b   7.30272414
_cell_length_c   4.01729800
_cell_angle_alpha   90.00000000
_cell_angle_beta   90.00000000
_cell_angle_gamma   120.25388391
_symmetry_Int_Tables_number   1
_chemical_formula_structural   CeNd2Zn3CuPd2
_chemical_formula_sum   'Ce1 Nd2 Zn3 Cu1 Pd2'
_cell_volume   186.48068827
_cell_formula_units_Z   1
loop_
 _symmetry_equiv_pos_site_id
 _symmetry_equiv_pos_as_xyz
  1  'x, y, z'
loop_
 _atom_site_type_symbol
 _atom_site_label
 _atom_site_symmetry_multiplicity
 _atom_site_fract_x
 _atom_site_fract_y
 _atom_site_fract_z
 _atom_site_occupancy
  Ce  Ce0  1  0.408985  0.000000  0.000000  1
  Nd  Nd1  1  0.999545  0.407948  0.000000  1
  Nd  Nd2  1  0.591597  0.592052  0.000000  1
  Zn  Zn3  1  0.001829  0.766812  0.500000  1
  Zn  Zn4  1  0.235017  0.233188  0.500000  1
  Zn  Zn5  1  0.767414  0.000000  0.500000  1
  Cu  Cu6  1  0.003271  0.000000  0.000000  1
  Pd  Pd7  1  0.657069  0.321796  0.500000  1
  Pd  Pd8  1  0.335272  0.678204  0.500000  1
