# generated using pymatgen
data_Tb3Tm2In2Bi
_symmetry_space_group_name_H-M   'P 1'
_cell_length_a   6.60767000
_cell_length_b   9.03724623
_cell_length_c   9.00294517
_cell_angle_alpha   119.81405882
_cell_angle_beta   89.99988101
_cell_angle_gamma   89.99993077
_symmetry_Int_Tables_number   1
_chemical_formula_structural   Tb3Tm2In2Bi
_chemical_formula_sum   'Tb6 Tm4 In4 Bi2'
_cell_volume   466.45566862
_cell_formula_units_Z   2
loop_
 _symmetry_equiv_pos_site_id
 _symmetry_equiv_pos_as_xyz
  1  'x, y, z'
loop_
 _atom_site_type_symbol
 _atom_site_label
 _atom_site_symmetry_multiplicity
 _atom_site_fract_x
 _atom_site_fract_y
 _atom_site_fract_z
 _atom_site_occupancy
  Tb  Tb0  1  0.749999  0.229889  0.991533  1
  Tb  Tb1  1  0.750000  0.769864  0.760195  1
  Tb  Tb2  1  0.750000  0.000299  0.239090  1
  Tb  Tb3  1  0.250001  0.764340  0.000316  1
  Tb  Tb4  1  0.249998  0.235523  0.235874  1
  Tb  Tb5  1  0.249997  0.999790  0.762665  1
  Tm  Tm6  1  0.492476  0.329016  0.667404  1
  Tm  Tm7  1  0.492770  0.671051  0.338616  1
  Tm  Tm8  1  0.007227  0.671047  0.338609  1
  Tm  Tm9  1  0.007520  0.329019  0.667406  1
  In  In10  1  0.750000  0.000121  0.594451  1
  In  In11  1  0.250010  0.399663  0.003450  1
  In  In12  1  0.250000  0.599759  0.602912  1
  In  In13  1  0.250000  0.000103  0.400191  1
  Bi  Bi14  1  0.750000  0.603012  0.999998  1
  Bi  Bi15  1  0.749999  0.397504  0.397292  1
