# generated using pymatgen
data_SmGdCr3O12
_symmetry_space_group_name_H-M   'P 1'
_cell_length_a   10.16022708
_cell_length_b   10.16023689
_cell_length_c   10.16023400
_cell_angle_alpha   57.78044638
_cell_angle_beta   57.78045154
_cell_angle_gamma   57.78044561
_symmetry_Int_Tables_number   1
_chemical_formula_structural   SmGdCr3O12
_chemical_formula_sum   'Sm2 Gd2 Cr6 O24'
_cell_volume   703.84041760
_cell_formula_units_Z   2
loop_
 _symmetry_equiv_pos_site_id
 _symmetry_equiv_pos_as_xyz
  1  'x, y, z'
loop_
 _atom_site_type_symbol
 _atom_site_label
 _atom_site_symmetry_multiplicity
 _atom_site_fract_x
 _atom_site_fract_y
 _atom_site_fract_z
 _atom_site_occupancy
  Sm  Sm0  1  0.357380  0.357380  0.357380  1
  Sm  Sm1  1  0.642620  0.642620  0.642620  1
  Gd  Gd2  1  0.143105  0.143105  0.143105  1
  Gd  Gd3  1  0.856895  0.856895  0.856895  1
  Cr  Cr4  1  0.034610  0.465031  0.751828  1
  Cr  Cr5  1  0.465031  0.751828  0.034610  1
  Cr  Cr6  1  0.751828  0.034610  0.465030  1
  Cr  Cr7  1  0.965390  0.534969  0.248172  1
  Cr  Cr8  1  0.248172  0.965390  0.534970  1
  Cr  Cr9  1  0.534969  0.248172  0.965390  1
  O  O10  1  0.223420  0.996928  0.370406  1
  O  O11  1  0.370406  0.223420  0.996928  1
  O  O12  1  0.996928  0.370406  0.223420  1
  O  O13  1  0.776580  0.003072  0.629594  1
  O  O14  1  0.629594  0.776580  0.003072  1
  O  O15  1  0.003072  0.629594  0.776580  1
  O  O16  1  0.273151  0.128921  0.505358  1
  O  O17  1  0.505358  0.273151  0.128921  1
  O  O18  1  0.128921  0.505358  0.273151  1
  O  O19  1  0.726849  0.871079  0.494642  1
  O  O20  1  0.063356  0.297649  0.917796  1
  O  O21  1  0.297650  0.917796  0.063356  1
  O  O22  1  0.917795  0.063356  0.297650  1
  O  O23  1  0.936644  0.702351  0.082204  1
  O  O24  1  0.702350  0.082204  0.936644  1
  O  O25  1  0.082205  0.936644  0.702350  1
  O  O26  1  0.202287  0.437019  0.585914  1
  O  O27  1  0.437020  0.585914  0.202287  1
  O  O28  1  0.585914  0.202287  0.437019  1
  O  O29  1  0.797713  0.562981  0.414086  1
  O  O30  1  0.562980  0.414086  0.797713  1
  O  O31  1  0.414086  0.797713  0.562981  1
  O  O32  1  0.871079  0.494642  0.726849  1
  O  O33  1  0.494642  0.726849  0.871079  1
