# generated using pymatgen
data_Tb19Ce(TcSb2)4
_symmetry_space_group_name_H-M   'P 1'
_cell_length_a   7.93662310
_cell_length_b   8.96836045
_cell_length_c   12.22958507
_cell_angle_alpha   89.79441704
_cell_angle_beta   89.88303169
_cell_angle_gamma   90.15228285
_symmetry_Int_Tables_number   1
_chemical_formula_structural   Tb19Ce(TcSb2)4
_chemical_formula_sum   'Tb19 Ce1 Tc4 Sb8'
_cell_volume   870.47297216
_cell_formula_units_Z   1
loop_
 _symmetry_equiv_pos_site_id
 _symmetry_equiv_pos_as_xyz
  1  'x, y, z'
loop_
 _atom_site_type_symbol
 _atom_site_label
 _atom_site_symmetry_multiplicity
 _atom_site_fract_x
 _atom_site_fract_y
 _atom_site_fract_z
 _atom_site_occupancy
  Tb  Tb0  1  0.163340  0.748686  0.215470  1
  Tb  Tb1  1  0.659347  0.249931  0.287847  1
  Tb  Tb2  1  0.835854  0.248924  0.786566  1
  Tb  Tb3  1  0.341033  0.749745  0.711863  1
  Tb  Tb4  1  0.457652  0.753217  0.997573  1
  Tb  Tb5  1  0.951967  0.250864  0.503156  1
  Tb  Tb6  1  0.538015  0.250696  0.002404  1
  Tb  Tb7  1  0.048653  0.749316  0.497617  1
  Tb  Tb8  1  0.629118  0.753222  0.299670  1
  Tb  Tb9  1  0.133084  0.250274  0.202999  1
  Tb  Tb10  1  0.372860  0.251115  0.698270  1
  Tb  Tb11  1  0.870440  0.746979  0.798884  1
  Tb  Tb12  1  0.321441  0.038839  0.435194  1
  Tb  Tb13  1  0.174206  0.463587  0.936168  1
  Tb  Tb14  1  0.678166  0.539521  0.564224  1
  Tb  Tb15  1  0.185723  0.038343  0.930040  1
  Tb  Tb16  1  0.678376  0.960789  0.563856  1
  Tb  Tb17  1  0.819263  0.540777  0.067070  1
  Tb  Tb18  1  0.323158  0.460674  0.434967  1
  Ce  Ce19  1  0.833449  0.973939  0.059586  1
  Tc  Tc20  1  0.418335  0.749825  0.484003  1
  Tc  Tc21  1  0.908965  0.223948  0.021839  1
  Tc  Tc22  1  0.581963  0.249858  0.515420  1
  Tc  Tc23  1  0.077648  0.754429  0.986315  1
  Sb  Sb24  1  0.930018  0.993809  0.329585  1
  Sb  Sb25  1  0.426335  0.007537  0.170214  1
  Sb  Sb26  1  0.071282  0.492712  0.672544  1
  Sb  Sb27  1  0.571141  0.507011  0.830161  1
  Sb  Sb28  1  0.071623  0.006237  0.671020  1
  Sb  Sb29  1  0.571904  0.993516  0.827037  1
  Sb  Sb30  1  0.927502  0.506612  0.328890  1
  Sb  Sb31  1  0.428140  0.495069  0.169547  1
