# generated using pymatgen
data_Y3ErGa4NiRu3
_symmetry_space_group_name_H-M   'P 1'
_cell_length_a   4.46252700
_cell_length_b   7.10316793
_cell_length_c   7.17506456
_cell_angle_alpha   89.32141600
_cell_angle_beta   90.00000000
_cell_angle_gamma   90.00000000
_symmetry_Int_Tables_number   1
_chemical_formula_structural   Y3ErGa4NiRu3
_chemical_formula_sum   'Y3 Er1 Ga4 Ni1 Ru3'
_cell_volume   227.41980992
_cell_formula_units_Z   1
loop_
 _symmetry_equiv_pos_site_id
 _symmetry_equiv_pos_as_xyz
  1  'x, y, z'
loop_
 _atom_site_type_symbol
 _atom_site_label
 _atom_site_symmetry_multiplicity
 _atom_site_fract_x
 _atom_site_fract_y
 _atom_site_fract_z
 _atom_site_occupancy
  Y  Y0  1  0.250000  0.518869  0.693708  1
  Y  Y1  1  0.750000  0.985082  0.198043  1
  Y  Y2  1  0.750000  0.484331  0.302984  1
  Er  Er3  1  0.250000  0.019864  0.800685  1
  Ga  Ga4  1  0.250000  0.199725  0.400834  1
  Ga  Ga5  1  0.250000  0.694175  0.101905  1
  Ga  Ga6  1  0.750000  0.796164  0.605209  1
  Ga  Ga7  1  0.750000  0.308796  0.893727  1
  Ni  Ni8  1  0.750000  0.665067  0.933666  1
  Ru  Ru9  1  0.250000  0.838979  0.434476  1
  Ru  Ru10  1  0.250000  0.331584  0.064051  1
  Ru  Ru11  1  0.750000  0.157365  0.570714  1
