# generated using pymatgen
data_Ti14V5Si16Rh
_symmetry_space_group_name_H-M   'P 1'
_cell_length_a   6.59135357
_cell_length_b   6.58949310
_cell_length_c   12.05012667
_cell_angle_alpha   89.87478658
_cell_angle_beta   90.37449856
_cell_angle_gamma   89.83068163
_symmetry_Int_Tables_number   1
_chemical_formula_structural   Ti14V5Si16Rh
_chemical_formula_sum   'Ti14 V5 Si16 Rh1'
_cell_volume   523.36659498
_cell_formula_units_Z   1
loop_
 _symmetry_equiv_pos_site_id
 _symmetry_equiv_pos_as_xyz
  1  'x, y, z'
loop_
 _atom_site_type_symbol
 _atom_site_label
 _atom_site_symmetry_multiplicity
 _atom_site_fract_x
 _atom_site_fract_y
 _atom_site_fract_z
 _atom_site_occupancy
  Ti  Ti0  1  0.003804  0.842455  0.118889  1
  Ti  Ti1  1  0.153224  0.998816  0.376240  1
  Ti  Ti2  1  0.841638  0.001969  0.881889  1
  Ti  Ti3  1  0.003342  0.344863  0.220632  1
  Ti  Ti4  1  0.158426  0.502055  0.470049  1
  Ti  Ti5  1  0.834675  0.497902  0.969959  1
  Ti  Ti6  1  0.501316  0.159370  0.530889  1
  Ti  Ti7  1  0.499693  0.833855  0.028837  1
  Ti  Ti8  1  0.997919  0.658685  0.720193  1
  Ti  Ti9  1  0.345043  0.002429  0.778615  1
  Ti  Ti10  1  0.658542  0.997309  0.281033  1
  Ti  Ti11  1  0.331716  0.668478  0.247366  1
  Ti  Ti12  1  0.666851  0.329978  0.751781  1
  Ti  Ti13  1  0.831589  0.831614  0.500978  1
  V  V14  1  0.994558  0.152690  0.623682  1
  V  V15  1  0.351344  0.497240  0.867989  1
  V  V16  1  0.652934  0.505815  0.372798  1
  V  V17  1  0.499406  0.353869  0.130716  1
  V  V18  1  0.505272  0.650874  0.627914  1
  Si  Si19  1  0.047443  0.298949  0.815234  1
  Si  Si20  1  0.205958  0.534558  0.058586  1
  Si  Si21  1  0.797806  0.456766  0.564193  1
  Si  Si22  1  0.534910  0.205367  0.940775  1
  Si  Si23  1  0.457915  0.796561  0.437358  1
  Si  Si24  1  0.955817  0.698416  0.314426  1
  Si  Si25  1  0.302631  0.049628  0.182350  1
  Si  Si26  1  0.700895  0.956158  0.686097  1
  Si  Si27  1  0.290546  0.364437  0.672417  1
  Si  Si28  1  0.139060  0.784981  0.919449  1
  Si  Si29  1  0.860569  0.210978  0.424158  1
  Si  Si30  1  0.784363  0.138035  0.081040  1
  Si  Si31  1  0.209508  0.865193  0.578567  1
  Si  Si32  1  0.705849  0.636253  0.175090  1
  Si  Si33  1  0.367071  0.296451  0.326132  1
  Si  Si34  1  0.634812  0.704797  0.824809  1
  Rh  Rh35  1  0.173555  0.172207  0.998871  1
