# generated using pymatgen
data_Ho12Ga2Tc3
_symmetry_space_group_name_H-M   'P 1'
_cell_length_a   8.30055375
_cell_length_b   8.30055259
_cell_length_c   8.30055310
_cell_angle_alpha   109.82602033
_cell_angle_beta   109.82601094
_cell_angle_gamma   108.76394000
_symmetry_Int_Tables_number   1
_chemical_formula_structural   Ho12Ga2Tc3
_chemical_formula_sum   'Ho12 Ga2 Tc3'
_cell_volume   440.19959186
_cell_formula_units_Z   1
loop_
 _symmetry_equiv_pos_site_id
 _symmetry_equiv_pos_as_xyz
  1  'x, y, z'
loop_
 _atom_site_type_symbol
 _atom_site_label
 _atom_site_symmetry_multiplicity
 _atom_site_fract_x
 _atom_site_fract_y
 _atom_site_fract_z
 _atom_site_occupancy
  Ho  Ho0  1  0.184402  0.433528  0.249126  1
  Ho  Ho1  1  0.815598  0.566472  0.750874  1
  Ho  Ho2  1  0.184402  0.935278  0.750874  1
  Ho  Ho3  1  0.935278  0.184402  0.750874  1
  Ho  Ho4  1  0.815598  0.064722  0.249126  1
  Ho  Ho5  1  0.064722  0.815598  0.249126  1
  Ho  Ho6  1  0.433528  0.184402  0.249126  1
  Ho  Ho7  1  0.566472  0.815598  0.750874  1
  Ho  Ho8  1  0.316829  0.316829  0.633657  1
  Ho  Ho9  1  0.683171  0.683171  0.366343  1
  Ho  Ho10  1  0.683171  0.316829  0.000000  1
  Ho  Ho11  1  0.316829  0.683171  0.000000  1
  Ga  Ga12  1  0.000000  0.500000  0.500000  1
  Ga  Ga13  1  0.500000  0.000000  0.500000  1
  Tc  Tc14  1  0.337535  0.337535  0.000000  1
  Tc  Tc15  1  0.662465  0.662465  0.000000  1
  Tc  Tc16  1  0.000000  0.000000  0.000000  1
