# generated using pymatgen
data_La2Tb2DySi4
_symmetry_space_group_name_H-M   'P 1'
_cell_length_a   7.81481800
_cell_length_b   7.81481800
_cell_length_c   14.59907800
_cell_angle_alpha   90.00000000
_cell_angle_beta   90.00000000
_cell_angle_gamma   90.00000000
_symmetry_Int_Tables_number   1
_chemical_formula_structural   La2Tb2DySi4
_chemical_formula_sum   'La8 Tb8 Dy4 Si16'
_cell_volume   891.58584563
_cell_formula_units_Z   4
loop_
 _symmetry_equiv_pos_site_id
 _symmetry_equiv_pos_as_xyz
  1  'x, y, z'
loop_
 _atom_site_type_symbol
 _atom_site_label
 _atom_site_symmetry_multiplicity
 _atom_site_fract_x
 _atom_site_fract_y
 _atom_site_fract_z
 _atom_site_occupancy
  La  La0  1  0.988490  0.636064  0.044126  1
  La  La1  1  0.011510  0.363936  0.544126  1
  La  La2  1  0.636064  0.988490  0.955874  1
  La  La3  1  0.136064  0.511510  0.794126  1
  La  La4  1  0.863936  0.488490  0.294126  1
  La  La5  1  0.511510  0.136064  0.205874  1
  La  La6  1  0.488490  0.863936  0.705874  1
  La  La7  1  0.363936  0.011510  0.455874  1
  Tb  Tb8  1  0.364625  0.489125  0.374335  1
  Tb  Tb9  1  0.864625  0.010875  0.375665  1
  Tb  Tb10  1  0.989125  0.135375  0.124335  1
  Tb  Tb11  1  0.010875  0.864625  0.624335  1
  Tb  Tb12  1  0.635375  0.510875  0.874335  1
  Tb  Tb13  1  0.489125  0.364625  0.625665  1
  Tb  Tb14  1  0.510875  0.635375  0.125665  1
  Tb  Tb15  1  0.135375  0.989125  0.875665  1
  Dy  Dy16  1  0.685298  0.685298  0.500000  1
  Dy  Dy17  1  0.814702  0.185298  0.750000  1
  Dy  Dy18  1  0.185298  0.814702  0.250000  1
  Dy  Dy19  1  0.314702  0.314702  0.000000  1
  Si  Si20  1  0.069763  0.713855  0.437596  1
  Si  Si21  1  0.930237  0.286145  0.937596  1
  Si  Si22  1  0.713855  0.069763  0.562404  1
  Si  Si23  1  0.213856  0.430237  0.187596  1
  Si  Si24  1  0.786145  0.569763  0.687596  1
  Si  Si25  1  0.430237  0.213856  0.812404  1
  Si  Si26  1  0.569763  0.786145  0.312404  1
  Si  Si27  1  0.286145  0.930237  0.062404  1
  Si  Si28  1  0.841239  0.800420  0.805119  1
  Si  Si29  1  0.158761  0.199580  0.305119  1
  Si  Si30  1  0.800420  0.841239  0.194881  1
  Si  Si31  1  0.300420  0.658761  0.555119  1
  Si  Si32  1  0.699580  0.341239  0.055119  1
  Si  Si33  1  0.658761  0.300420  0.444881  1
  Si  Si34  1  0.341239  0.699580  0.944881  1
  Si  Si35  1  0.199580  0.158761  0.694881  1
