# generated using pymatgen
data_Zr3Zn2PdN
_symmetry_space_group_name_H-M   'P 1'
_cell_length_a   8.62280509
_cell_length_b   8.62280559
_cell_length_c   8.62280500
_cell_angle_alpha   59.99999842
_cell_angle_beta   59.99999652
_cell_angle_gamma   59.99999515
_symmetry_Int_Tables_number   1
_chemical_formula_structural   Zr3Zn2PdN
_chemical_formula_sum   'Zr12 Zn8 Pd4 N4'
_cell_volume   453.34695029
_cell_formula_units_Z   4
loop_
 _symmetry_equiv_pos_site_id
 _symmetry_equiv_pos_as_xyz
  1  'x, y, z'
loop_
 _atom_site_type_symbol
 _atom_site_label
 _atom_site_symmetry_multiplicity
 _atom_site_fract_x
 _atom_site_fract_y
 _atom_site_fract_z
 _atom_site_occupancy
  Zr  Zr0  1  0.813169  0.186831  0.186831  1
  Zr  Zr1  1  0.186831  0.813169  0.186831  1
  Zr  Zr2  1  0.813169  0.813169  0.186831  1
  Zr  Zr3  1  0.186831  0.813169  0.813169  1
  Zr  Zr4  1  0.813169  0.186831  0.813169  1
  Zr  Zr5  1  0.186831  0.186831  0.813169  1
  Zr  Zr6  1  0.436831  0.063169  0.063169  1
  Zr  Zr7  1  0.063169  0.436831  0.063169  1
  Zr  Zr8  1  0.436831  0.436831  0.063169  1
  Zr  Zr9  1  0.063169  0.436831  0.436831  1
  Zr  Zr10  1  0.436831  0.063169  0.436831  1
  Zr  Zr11  1  0.063169  0.063169  0.436831  1
  Zn  Zn12  1  0.418099  0.418099  0.745703  1
  Zn  Zn13  1  0.418099  0.418099  0.418099  1
  Zn  Zn14  1  0.745703  0.418099  0.418099  1
  Zn  Zn15  1  0.418099  0.745703  0.418099  1
  Zn  Zn16  1  0.831901  0.831901  0.504297  1
  Zn  Zn17  1  0.831901  0.831901  0.831901  1
  Zn  Zn18  1  0.504297  0.831901  0.831901  1
  Zn  Zn19  1  0.831901  0.504297  0.831901  1
  Pd  Pd20  1  0.625000  0.625000  0.125000  1
  Pd  Pd21  1  0.625000  0.625000  0.625000  1
  Pd  Pd22  1  0.125000  0.625000  0.625000  1
  Pd  Pd23  1  0.625000  0.125000  0.625000  1
  N  N24  1  0.125000  0.125000  0.625000  1
  N  N25  1  0.125000  0.125000  0.125000  1
  N  N26  1  0.625000  0.125000  0.125000  1
  N  N27  1  0.125000  0.625000  0.125000  1
