# generated using pymatgen
data_DyHo15In4PtRh3
_symmetry_space_group_name_H-M   'P 1'
_cell_length_a   9.62881423
_cell_length_b   9.64936142
_cell_length_c   9.61801900
_cell_angle_alpha   60.10739280
_cell_angle_beta   60.03708346
_cell_angle_gamma   60.09845491
_symmetry_Int_Tables_number   1
_chemical_formula_structural   DyHo15In4PtRh3
_chemical_formula_sum   'Dy1 Ho15 In4 Pt1 Rh3'
_cell_volume   633.04973780
_cell_formula_units_Z   1
loop_
 _symmetry_equiv_pos_site_id
 _symmetry_equiv_pos_as_xyz
  1  'x, y, z'
loop_
 _atom_site_type_symbol
 _atom_site_label
 _atom_site_symmetry_multiplicity
 _atom_site_fract_x
 _atom_site_fract_y
 _atom_site_fract_z
 _atom_site_occupancy
  Dy  Dy0  1  0.188086  0.187780  0.812068  1
  Ho  Ho1  1  0.601586  0.597811  0.200481  1
  Ho  Ho2  1  0.440122  0.062552  0.439920  1
  Ho  Ho3  1  0.439518  0.439349  0.060567  1
  Ho  Ho4  1  0.812352  0.187630  0.811996  1
  Ho  Ho5  1  0.188039  0.811312  0.188357  1
  Ho  Ho6  1  0.440122  0.062552  0.057406  1
  Ho  Ho7  1  0.188039  0.811312  0.812292  1
  Ho  Ho8  1  0.060090  0.439490  0.061045  1
  Ho  Ho9  1  0.813298  0.811614  0.187544  1
  Ho  Ho10  1  0.198447  0.598729  0.601413  1
  Ho  Ho11  1  0.060090  0.439490  0.439375  1
  Ho  Ho12  1  0.056642  0.063131  0.440114  1
  Ho  Ho13  1  0.812352  0.187630  0.188024  1
  Ho  Ho14  1  0.600678  0.201436  0.598944  1
  Ho  Ho15  1  0.601586  0.597811  0.600123  1
  In  In16  1  0.833037  0.833236  0.833215  1
  In  In17  1  0.833037  0.833236  0.500512  1
  In  In18  1  0.501166  0.832953  0.832940  1
  In  In19  1  0.832730  0.501344  0.832963  1
  Pt  Pt20  1  0.392286  0.822131  0.392792  1
  Rh  Rh21  1  0.391828  0.392656  0.392393  1
  Rh  Rh22  1  0.823043  0.392162  0.392397  1
  Rh  Rh23  1  0.391828  0.392656  0.823123  1
