# generated using pymatgen
data_Dy4GeAs5Rh7
_symmetry_space_group_name_H-M   'P 1'
_cell_length_a   7.28728022
_cell_length_b   7.28728044
_cell_length_c   7.28727979
_cell_angle_alpha   109.45631211
_cell_angle_beta   109.47867502
_cell_angle_gamma   109.47867724
_symmetry_Int_Tables_number   1
_chemical_formula_structural   Dy4GeAs5Rh7
_chemical_formula_sum   'Dy4 Ge1 As5 Rh7'
_cell_volume   297.90272548
_cell_formula_units_Z   1
loop_
 _symmetry_equiv_pos_site_id
 _symmetry_equiv_pos_as_xyz
  1  'x, y, z'
loop_
 _atom_site_type_symbol
 _atom_site_label
 _atom_site_symmetry_multiplicity
 _atom_site_fract_x
 _atom_site_fract_y
 _atom_site_fract_z
 _atom_site_occupancy
  Dy  Dy0  1  0.000000  0.000616  0.500047  1
  Dy  Dy1  1  0.000000  0.500047  0.000616  1
  Dy  Dy2  1  0.500570  0.000616  0.000616  1
  Dy  Dy3  1  0.499430  0.500047  0.500047  1
  Ge  Ge4  1  0.000000  0.680244  0.680244  1
  As  As5  1  0.681026  0.679717  0.998691  1
  As  As6  1  0.318974  0.998691  0.317665  1
  As  As7  1  0.000000  0.323632  0.323632  1
  As  As8  1  0.318974  0.317665  0.998691  1
  As  As9  1  0.681026  0.998691  0.679717  1
  Rh  Rh10  1  0.749291  0.250746  0.501455  1
  Rh  Rh11  1  0.749291  0.501455  0.250746  1
  Rh  Rh12  1  0.500000  0.249200  0.749200  1
  Rh  Rh13  1  0.250709  0.501455  0.752163  1
  Rh  Rh14  1  0.250709  0.752163  0.501455  1
  Rh  Rh15  1  0.500000  0.749200  0.249200  1
  Rh  Rh16  1  0.000000  0.995814  0.995814  1
