# generated using pymatgen
data_Mg4AlGa(Co5B2)2
_symmetry_space_group_name_H-M   'P 1'
_cell_length_a   8.82761100
_cell_length_b   8.82761100
_cell_length_c   2.78193100
_cell_angle_alpha   90.00000000
_cell_angle_beta   90.00000000
_cell_angle_gamma   90.00000000
_symmetry_Int_Tables_number   1
_chemical_formula_structural   Mg4AlGa(Co5B2)2
_chemical_formula_sum   'Mg4 Al1 Ga1 Co10 B4'
_cell_volume   216.78674688
_cell_formula_units_Z   1
loop_
 _symmetry_equiv_pos_site_id
 _symmetry_equiv_pos_as_xyz
  1  'x, y, z'
loop_
 _atom_site_type_symbol
 _atom_site_label
 _atom_site_symmetry_multiplicity
 _atom_site_fract_x
 _atom_site_fract_y
 _atom_site_fract_z
 _atom_site_occupancy
  Mg  Mg0  1  0.177430  0.676960  0.000000  1
  Mg  Mg1  1  0.323040  0.177430  0.000000  1
  Mg  Mg2  1  0.676960  0.822570  0.000000  1
  Mg  Mg3  1  0.822570  0.323040  0.000000  1
  Al  Al4  1  0.500000  0.500000  0.000000  1
  Ga  Ga5  1  0.000000  0.000000  0.000000  1
  Co  Co6  1  0.000000  0.500000  0.500000  1
  Co  Co7  1  0.068018  0.220990  0.500000  1
  Co  Co8  1  0.220990  0.931982  0.500000  1
  Co  Co9  1  0.279020  0.431918  0.500000  1
  Co  Co10  1  0.431918  0.720980  0.500000  1
  Co  Co11  1  0.500000  0.000000  0.500000  1
  Co  Co12  1  0.568082  0.279020  0.500000  1
  Co  Co13  1  0.720980  0.568082  0.500000  1
  Co  Co14  1  0.779010  0.068018  0.500000  1
  Co  Co15  1  0.931982  0.779010  0.500000  1
  B  B16  1  0.122193  0.377987  0.000000  1
  B  B17  1  0.377987  0.877807  0.000000  1
  B  B18  1  0.622013  0.122193  0.000000  1
  B  B19  1  0.877807  0.622013  0.000000  1
