# generated using pymatgen
data_Zr2Sc2TiRe7
_symmetry_space_group_name_H-M   'P 1'
_cell_length_a   5.31430948
_cell_length_b   5.28640609
_cell_length_c   8.69999369
_cell_angle_alpha   90.00000048
_cell_angle_beta   90.12365069
_cell_angle_gamma   119.82646371
_symmetry_Int_Tables_number   1
_chemical_formula_structural   Zr2Sc2TiRe7
_chemical_formula_sum   'Zr2 Sc2 Ti1 Re7'
_cell_volume   212.03735261
_cell_formula_units_Z   1
loop_
 _symmetry_equiv_pos_site_id
 _symmetry_equiv_pos_as_xyz
  1  'x, y, z'
loop_
 _atom_site_type_symbol
 _atom_site_label
 _atom_site_symmetry_multiplicity
 _atom_site_fract_x
 _atom_site_fract_y
 _atom_site_fract_z
 _atom_site_occupancy
  Zr  Zr0  1  0.333159  0.666580  0.435393  1
  Zr  Zr1  1  0.667258  0.333629  0.945068  1
  Sc  Sc2  1  0.667419  0.333709  0.556945  1
  Sc  Sc3  1  0.333972  0.666987  0.062713  1
  Ti  Ti4  1  0.656138  0.828070  0.749674  1
  Re  Re5  1  0.341495  0.170747  0.250231  1
  Re  Re6  1  0.830013  0.171799  0.249926  1
  Re  Re7  1  0.163414  0.340666  0.749883  1
  Re  Re8  1  0.163414  0.822748  0.749883  1
  Re  Re9  1  0.830013  0.658213  0.249926  1
  Re  Re10  1  0.007622  0.003811  0.500297  1
  Re  Re11  1  0.006082  0.003041  0.000063  1
