# generated using pymatgen
data_La4AlGa17Ir6
_symmetry_space_group_name_H-M   'P 1'
_cell_length_a   7.69973927
_cell_length_b   7.69971818
_cell_length_c   9.68222119
_cell_angle_alpha   89.98861901
_cell_angle_beta   89.98848285
_cell_angle_gamma   119.51722904
_symmetry_Int_Tables_number   1
_chemical_formula_structural   La4AlGa17Ir6
_chemical_formula_sum   'La4 Al1 Ga17 Ir6'
_cell_volume   499.51516543
_cell_formula_units_Z   1
loop_
 _symmetry_equiv_pos_site_id
 _symmetry_equiv_pos_as_xyz
  1  'x, y, z'
loop_
 _atom_site_type_symbol
 _atom_site_label
 _atom_site_symmetry_multiplicity
 _atom_site_fract_x
 _atom_site_fract_y
 _atom_site_fract_z
 _atom_site_occupancy
  La  La0  1  0.997343  0.669871  0.249748  1
  La  La1  1  0.001890  0.329646  0.749363  1
  La  La2  1  0.669871  0.997343  0.249749  1
  La  La3  1  0.329653  0.001898  0.749365  1
  Al  Al4  1  0.336265  0.336266  0.955797  1
  Ga  Ga5  1  0.130165  0.130165  0.249659  1
  Ga  Ga6  1  0.869480  0.869480  0.749828  1
  Ga  Ga7  1  0.003075  0.335284  0.076417  1
  Ga  Ga8  1  0.996717  0.664305  0.922422  1
  Ga  Ga9  1  0.996377  0.664269  0.577333  1
  Ga  Ga10  1  0.335605  0.003539  0.422168  1
  Ga  Ga11  1  0.003538  0.335604  0.422167  1
  Ga  Ga12  1  0.664268  0.996376  0.577333  1
  Ga  Ga13  1  0.664305  0.996715  0.922424  1
  Ga  Ga14  1  0.335288  0.003079  0.076419  1
  Ga  Ga15  1  0.333353  0.333354  0.554101  1
  Ga  Ga16  1  0.666184  0.666182  0.446819  1
  Ga  Ga17  1  0.668316  0.668316  0.053142  1
  Ga  Ga18  1  0.339946  0.544409  0.249885  1
  Ga  Ga19  1  0.657455  0.454738  0.750312  1
  Ga  Ga20  1  0.544411  0.339944  0.249885  1
  Ga  Ga21  1  0.454734  0.657453  0.750313  1
  Ir  Ir22  1  0.667925  0.329253  0.999192  1
  Ir  Ir23  1  0.329253  0.667928  0.999190  1
  Ir  Ir24  1  0.329734  0.670891  0.499608  1
  Ir  Ir25  1  0.670891  0.329735  0.499607  1
  Ir  Ir26  1  0.004158  0.004160  0.998273  1
  Ir  Ir27  1  0.999798  0.999799  0.499480  1
