# generated using pymatgen
data_Y13Tm3MgHg3Rh4
_symmetry_space_group_name_H-M   'P 1'
_cell_length_a   9.61470207
_cell_length_b   9.60641554
_cell_length_c   9.60641600
_cell_angle_alpha   60.00000529
_cell_angle_beta   60.02851132
_cell_angle_gamma   60.02851159
_symmetry_Int_Tables_number   1
_chemical_formula_structural   Y13Tm3MgHg3Rh4
_chemical_formula_sum   'Y13 Tm3 Mg1 Hg3 Rh4'
_cell_volume   627.66893415
_cell_formula_units_Z   1
loop_
 _symmetry_equiv_pos_site_id
 _symmetry_equiv_pos_as_xyz
  1  'x, y, z'
loop_
 _atom_site_type_symbol
 _atom_site_label
 _atom_site_symmetry_multiplicity
 _atom_site_fract_x
 _atom_site_fract_y
 _atom_site_fract_z
 _atom_site_occupancy
  Y  Y0  1  0.189867  0.603378  0.603378  1
  Y  Y1  1  0.059344  0.440271  0.440271  1
  Y  Y2  1  0.437131  0.062225  0.062225  1
  Y  Y3  1  0.437131  0.062225  0.438417  1
  Y  Y4  1  0.059344  0.440271  0.060115  1
  Y  Y5  1  0.437131  0.438417  0.062225  1
  Y  Y6  1  0.059344  0.060115  0.440271  1
  Y  Y7  1  0.185375  0.813841  0.813841  1
  Y  Y8  1  0.811992  0.187078  0.187078  1
  Y  Y9  1  0.811992  0.187078  0.813852  1
  Y  Y10  1  0.185375  0.813841  0.186944  1
  Y  Y11  1  0.811992  0.813852  0.187078  1
  Y  Y12  1  0.185375  0.186944  0.813841  1
  Tm  Tm13  1  0.600029  0.597878  0.597878  1
  Tm  Tm14  1  0.600029  0.597878  0.204216  1
  Tm  Tm15  1  0.600029  0.204216  0.597878  1
  Mg  Mg16  1  0.535794  0.821402  0.821402  1
  Hg  Hg17  1  0.831112  0.836163  0.836163  1
  Hg  Hg18  1  0.831112  0.836163  0.496560  1
  Hg  Hg19  1  0.831112  0.496560  0.836163  1
  Rh  Rh20  1  0.393918  0.394121  0.394121  1
  Rh  Rh21  1  0.393918  0.394121  0.817840  1
  Rh  Rh22  1  0.393918  0.817840  0.394121  1
  Rh  Rh23  1  0.817637  0.394121  0.394121  1
