# generated using pymatgen
data_Lu6Nb5Ga11Os7
_symmetry_space_group_name_H-M   'P 1'
_cell_length_a   9.05008862
_cell_length_b   9.05008914
_cell_length_c   8.96231903
_cell_angle_alpha   59.67551395
_cell_angle_beta   59.67551290
_cell_angle_gamma   60.00000137
_symmetry_Int_Tables_number   1
_chemical_formula_structural   Lu6Nb5Ga11Os7
_chemical_formula_sum   'Lu6 Nb5 Ga11 Os7'
_cell_volume   516.49193558
_cell_formula_units_Z   1
loop_
 _symmetry_equiv_pos_site_id
 _symmetry_equiv_pos_as_xyz
  1  'x, y, z'
loop_
 _atom_site_type_symbol
 _atom_site_label
 _atom_site_symmetry_multiplicity
 _atom_site_fract_x
 _atom_site_fract_y
 _atom_site_fract_z
 _atom_site_occupancy
  Lu  Lu0  1  0.707989  0.707989  0.294506  1
  Lu  Lu1  1  0.289516  0.707989  0.294506  1
  Lu  Lu2  1  0.707989  0.289516  0.294506  1
  Lu  Lu3  1  0.296416  0.296416  0.711681  1
  Lu  Lu4  1  0.695488  0.296416  0.711681  1
  Lu  Lu5  1  0.296416  0.695488  0.711681  1
  Nb  Nb6  1  0.878338  0.878338  0.364987  1
  Nb  Nb7  1  0.875406  0.369025  0.880163  1
  Nb  Nb8  1  0.369025  0.875406  0.880163  1
  Nb  Nb9  1  0.875406  0.875406  0.880163  1
  Nb  Nb10  1  0.127903  0.127903  0.616290  1
  Ga  Ga11  1  0.115957  0.647974  0.120112  1
  Ga  Ga12  1  0.647974  0.115957  0.120112  1
  Ga  Ga13  1  0.115957  0.115957  0.120112  1
  Ga  Ga14  1  0.660679  0.660679  0.017964  1
  Ga  Ga15  1  0.661865  0.016448  0.659821  1
  Ga  Ga16  1  0.016448  0.661865  0.659821  1
  Ga  Ga17  1  0.661865  0.661865  0.659821  1
  Ga  Ga18  1  0.334023  0.334023  0.997931  1
  Ga  Ga19  1  0.338951  0.988800  0.333297  1
  Ga  Ga20  1  0.988800  0.338951  0.333297  1
  Ga  Ga21  1  0.338951  0.338951  0.333297  1
  Os  Os22  1  0.007101  0.007101  0.978695  1
  Os  Os23  1  0.998439  0.998439  0.507387  1
  Os  Os24  1  0.495735  0.998439  0.507387  1
  Os  Os25  1  0.998439  0.495735  0.507387  1
  Os  Os26  1  0.501827  0.501827  0.001077  1
  Os  Os27  1  0.995268  0.501827  0.001077  1
  Os  Os28  1  0.501827  0.995268  0.001077  1
