# generated using pymatgen
data_NaTm6Co6Sn23
_symmetry_space_group_name_H-M   'P 1'
_cell_length_a   9.65183500
_cell_length_b   9.65183585
_cell_length_c   9.95126000
_cell_angle_alpha   90.00000000
_cell_angle_beta   90.00000000
_cell_angle_gamma   120.00000050
_symmetry_Int_Tables_number   1
_chemical_formula_structural   NaTm6Co6Sn23
_chemical_formula_sum   'Na1 Tm6 Co6 Sn23'
_cell_volume   802.83910692
_cell_formula_units_Z   1
loop_
 _symmetry_equiv_pos_site_id
 _symmetry_equiv_pos_as_xyz
  1  'x, y, z'
loop_
 _atom_site_type_symbol
 _atom_site_label
 _atom_site_symmetry_multiplicity
 _atom_site_fract_x
 _atom_site_fract_y
 _atom_site_fract_z
 _atom_site_occupancy
  Na  Na0  1  0.000000  0.000000  0.000000  1
  Tm  Tm1  1  0.480198  0.519802  0.305186  1
  Tm  Tm2  1  0.519802  0.480198  0.694814  1
  Tm  Tm3  1  0.480198  0.960398  0.305186  1
  Tm  Tm4  1  0.519802  0.039602  0.694814  1
  Tm  Tm5  1  0.039602  0.519802  0.305186  1
  Tm  Tm6  1  0.960398  0.480198  0.694814  1
  Co  Co7  1  0.829116  0.170884  0.201244  1
  Co  Co8  1  0.170884  0.829116  0.798756  1
  Co  Co9  1  0.829116  0.658230  0.201244  1
  Co  Co10  1  0.170884  0.341770  0.798756  1
  Co  Co11  1  0.341770  0.170884  0.201244  1
  Co  Co12  1  0.658230  0.829116  0.798756  1
  Sn  Sn13  1  0.344514  0.000000  0.000000  1
  Sn  Sn14  1  0.655486  0.000000  0.000000  1
  Sn  Sn15  1  0.000000  0.344514  0.000000  1
  Sn  Sn16  1  0.000000  0.655486  0.000000  1
  Sn  Sn17  1  0.655486  0.655486  0.000000  1
  Sn  Sn18  1  0.344514  0.344514  0.000000  1
  Sn  Sn19  1  0.333333  0.666667  0.816968  1
  Sn  Sn20  1  0.666667  0.333333  0.183032  1
  Sn  Sn21  1  0.000000  0.000000  0.500000  1
  Sn  Sn22  1  0.780983  0.219017  0.453856  1
  Sn  Sn23  1  0.219017  0.780983  0.546144  1
  Sn  Sn24  1  0.780983  0.561965  0.453856  1
  Sn  Sn25  1  0.219017  0.438035  0.546144  1
  Sn  Sn26  1  0.438035  0.219017  0.453856  1
  Sn  Sn27  1  0.561965  0.780983  0.546144  1
  Sn  Sn28  1  0.333333  0.666667  0.120390  1
  Sn  Sn29  1  0.666667  0.333333  0.879610  1
  Sn  Sn30  1  0.117754  0.882246  0.272939  1
  Sn  Sn31  1  0.882246  0.117754  0.727061  1
  Sn  Sn32  1  0.117754  0.235508  0.272939  1
  Sn  Sn33  1  0.882246  0.764492  0.727061  1
  Sn  Sn34  1  0.764492  0.882246  0.272939  1
  Sn  Sn35  1  0.235508  0.117754  0.727061  1
