# generated using pymatgen
data_Dy4Er2Al24GaOs7
_symmetry_space_group_name_H-M   'P 1'
_cell_length_a   8.87129641
_cell_length_b   8.87129493
_cell_length_c   9.55882963
_cell_angle_alpha   90.10233066
_cell_angle_beta   89.89767026
_cell_angle_gamma   119.89572584
_symmetry_Int_Tables_number   1
_chemical_formula_structural   Dy4Er2Al24GaOs7
_chemical_formula_sum   'Dy4 Er2 Al24 Ga1 Os7'
_cell_volume   652.17463925
_cell_formula_units_Z   1
loop_
 _symmetry_equiv_pos_site_id
 _symmetry_equiv_pos_as_xyz
  1  'x, y, z'
loop_
 _atom_site_type_symbol
 _atom_site_label
 _atom_site_symmetry_multiplicity
 _atom_site_fract_x
 _atom_site_fract_y
 _atom_site_fract_z
 _atom_site_occupancy
  Dy  Dy0  1  0.191256  0.385416  0.246290  1
  Dy  Dy1  1  0.808744  0.614584  0.753710  1
  Dy  Dy2  1  0.614584  0.808744  0.246290  1
  Dy  Dy3  1  0.385416  0.191256  0.753710  1
  Er  Er4  1  0.195289  0.804711  0.254796  1
  Er  Er5  1  0.804711  0.195289  0.745204  1
  Al  Al6  1  0.327416  0.672584  0.022802  1
  Al  Al7  1  0.672584  0.327416  0.977198  1
  Al  Al8  1  0.666085  0.333915  0.518982  1
  Al  Al9  1  0.333915  0.666085  0.481018  1
  Al  Al10  1  0.162356  0.325556  0.572320  1
  Al  Al11  1  0.837644  0.674444  0.427680  1
  Al  Al12  1  0.674444  0.837644  0.572320  1
  Al  Al13  1  0.852227  0.678688  0.082099  1
  Al  Al14  1  0.325556  0.162356  0.427680  1
  Al  Al15  1  0.147773  0.321312  0.917901  1
  Al  Al16  1  0.162981  0.837019  0.576034  1
  Al  Al17  1  0.321312  0.147773  0.082099  1
  Al  Al18  1  0.837019  0.162981  0.423966  1
  Al  Al19  1  0.678688  0.852227  0.917901  1
  Al  Al20  1  0.836712  0.163288  0.077218  1
  Al  Al21  1  0.163288  0.836712  0.922782  1
  Al  Al22  1  0.561749  0.121382  0.249470  1
  Al  Al23  1  0.438251  0.878618  0.750530  1
  Al  Al24  1  0.878618  0.438251  0.249470  1
  Al  Al25  1  0.121382  0.561749  0.750530  1
  Al  Al26  1  0.565539  0.434461  0.257861  1
  Al  Al27  1  0.434461  0.565539  0.742139  1
  Al  Al28  1  0.999179  0.000821  0.250703  1
  Al  Al29  1  0.000821  0.999179  0.749297  1
  Ga  Ga30  1  0.500000  0.500000  0.000000  1
  Os  Os31  1  0.500000  0.000000  0.000000  1
  Os  Os32  1  0.000000  0.500000  0.000000  1
  Os  Os33  1  0.500000  0.000000  0.500000  1
  Os  Os34  1  0.000000  0.500000  0.500000  1
  Os  Os35  1  0.500000  0.500000  0.500000  1
  Os  Os36  1  0.000000  0.000000  0.000000  1
  Os  Os37  1  0.000000  0.000000  0.500000  1
