# generated using pymatgen
data_Na4Nb5VSe12
_symmetry_space_group_name_H-M   'P 1'
_cell_length_a   15.74503593
_cell_length_b   15.74503613
_cell_length_c   15.74503658
_cell_angle_alpha   22.30765390
_cell_angle_beta   22.30765136
_cell_angle_gamma   22.30765491
_symmetry_Int_Tables_number   1
_chemical_formula_structural   Na4Nb5VSe12
_chemical_formula_sum   'Na4 Nb5 V1 Se12'
_cell_volume   493.19322025
_cell_formula_units_Z   1
loop_
 _symmetry_equiv_pos_site_id
 _symmetry_equiv_pos_as_xyz
  1  'x, y, z'
loop_
 _atom_site_type_symbol
 _atom_site_label
 _atom_site_symmetry_multiplicity
 _atom_site_fract_x
 _atom_site_fract_y
 _atom_site_fract_z
 _atom_site_occupancy
  Na  Na0  1  0.917083  0.917083  0.917083  1
  Na  Na1  1  0.583740  0.583740  0.583740  1
  Na  Na2  1  0.417078  0.417078  0.417078  1
  Na  Na3  1  0.082849  0.082849  0.082849  1
  Nb  Nb4  1  0.666627  0.666627  0.666627  1
  Nb  Nb5  1  0.999934  0.999934  0.999934  1
  Nb  Nb6  1  0.832970  0.167072  0.500002  1
  Nb  Nb7  1  0.500002  0.832970  0.167072  1
  Nb  Nb8  1  0.167072  0.500002  0.832970  1
  V  V9  1  0.333147  0.333147  0.333147  1
  Se  Se10  1  0.976430  0.619498  0.297952  1
  Se  Se11  1  0.297952  0.976430  0.619498  1
  Se  Se12  1  0.619498  0.297952  0.976430  1
  Se  Se13  1  0.691519  0.369990  0.043957  1
  Se  Se14  1  0.043957  0.691519  0.369990  1
  Se  Se15  1  0.369990  0.043957  0.691519  1
  Se  Se16  1  0.871029  0.535227  0.202621  1
  Se  Se17  1  0.202621  0.871029  0.535227  1
  Se  Se18  1  0.535227  0.202621  0.871029  1
  Se  Se19  1  0.797756  0.464826  0.128696  1
  Se  Se20  1  0.128696  0.797756  0.464826  1
  Se  Se21  1  0.464826  0.128696  0.797756  1
