# generated using pymatgen
data_BaU2N4
_symmetry_space_group_name_H-M   'P 1'
_cell_length_a   10.55059004
_cell_length_b   3.52871700
_cell_length_c   12.21885234
_cell_angle_alpha   90.00000000
_cell_angle_beta   90.01836458
_cell_angle_gamma   90.00000000
_symmetry_Int_Tables_number   1
_chemical_formula_structural   BaU2N4
_chemical_formula_sum   'Ba4 U8 N16'
_cell_volume   454.90841643
_cell_formula_units_Z   4
loop_
 _symmetry_equiv_pos_site_id
 _symmetry_equiv_pos_as_xyz
  1  'x, y, z'
loop_
 _atom_site_type_symbol
 _atom_site_label
 _atom_site_symmetry_multiplicity
 _atom_site_fract_x
 _atom_site_fract_y
 _atom_site_fract_z
 _atom_site_occupancy
  Ba  Ba0  1  0.748214  0.500001  0.147641  1
  Ba  Ba1  1  0.248054  0.500001  0.352435  1
  Ba  Ba2  1  0.751986  0.000000  0.647602  1
  Ba  Ba3  1  0.251757  0.000000  0.852333  1
  U  U4  1  0.072911  0.500001  0.113236  1
  U  U5  1  0.421404  0.000000  0.108686  1
  U  U6  1  0.921371  0.000000  0.391367  1
  U  U7  1  0.572836  0.500001  0.386790  1
  U  U8  1  0.427118  0.000000  0.613290  1
  U  U9  1  0.078644  0.500001  0.608690  1
  U  U10  1  0.578576  0.500001  0.891264  1
  U  U11  1  0.927212  0.000000  0.886721  1
  N  N12  1  0.604986  0.000000  0.007679  1
  N  N13  1  0.946479  0.000000  0.072913  1
  N  N14  1  0.204281  0.000000  0.150319  1
  N  N15  1  0.479778  0.500001  0.211365  1
  N  N16  1  0.979738  0.500001  0.288694  1
  N  N17  1  0.704451  0.000000  0.349659  1
  N  N18  1  0.446536  0.000000  0.427083  1
  N  N19  1  0.104955  0.000000  0.492290  1
  N  N20  1  0.894984  0.500001  0.507690  1
  N  N21  1  0.553588  0.500001  0.572981  1
  N  N22  1  0.295529  0.500001  0.650399  1
  N  N23  1  0.020248  0.000000  0.711375  1
  N  N24  1  0.520247  0.000000  0.788614  1
  N  N25  1  0.795715  0.500001  0.849626  1
  N  N26  1  0.053447  0.500001  0.927038  1
  N  N27  1  0.394967  0.500001  0.992232  1
