# generated using pymatgen
data_Dy2Y4Tm6Co5Sn
_symmetry_space_group_name_H-M   'P 1'
_cell_length_a   8.26991398
_cell_length_b   8.26991346
_cell_length_c   8.26576702
_cell_angle_alpha   107.08073953
_cell_angle_beta   110.78115282
_cell_angle_gamma   110.59786446
_symmetry_Int_Tables_number   1
_chemical_formula_structural   Dy2Y4Tm6Co5Sn
_chemical_formula_sum   'Dy2 Y4 Tm6 Co5 Sn1'
_cell_volume   434.49867101
_cell_formula_units_Z   1
loop_
 _symmetry_equiv_pos_site_id
 _symmetry_equiv_pos_as_xyz
  1  'x, y, z'
loop_
 _atom_site_type_symbol
 _atom_site_label
 _atom_site_symmetry_multiplicity
 _atom_site_fract_x
 _atom_site_fract_y
 _atom_site_fract_z
 _atom_site_occupancy
  Dy  Dy0  1  0.192137  0.791276  0.983412  1
  Dy  Dy1  1  0.807863  0.208724  0.016588  1
  Y  Y2  1  0.478098  0.291466  0.188048  1
  Y  Y3  1  0.103418  0.290051  0.811952  1
  Y  Y4  1  0.896582  0.709949  0.188048  1
  Y  Y5  1  0.521902  0.708534  0.811952  1
  Tm  Tm6  1  0.309868  0.622691  0.315327  1
  Tm  Tm7  1  0.307364  0.994542  0.684673  1
  Tm  Tm8  1  0.690132  0.377309  0.684673  1
  Tm  Tm9  1  0.692636  0.005458  0.315327  1
  Tm  Tm10  1  0.193163  0.209279  0.402444  1
  Tm  Tm11  1  0.806837  0.790721  0.597556  1
  Co  Co12  1  0.501855  0.612531  0.114385  1
  Co  Co13  1  0.498145  0.387469  0.885615  1
  Co  Co14  1  0.377870  0.000983  0.378851  1
  Co  Co15  1  0.622130  0.999017  0.621149  1
  Co  Co16  1  0.000000  0.000000  0.000000  1
  Sn  Sn17  1  0.000000  0.500000  0.500000  1
