# generated using pymatgen
data_Ca4LaSn3H
_symmetry_space_group_name_H-M   'P 1'
_cell_length_a   9.53644679
_cell_length_b   9.53644606
_cell_length_c   9.54886643
_cell_angle_alpha   128.86495762
_cell_angle_beta   128.86495554
_cell_angle_gamma   75.13108721
_symmetry_Int_Tables_number   1
_chemical_formula_structural   Ca4LaSn3H
_chemical_formula_sum   'Ca8 La2 Sn6 H2'
_cell_volume   512.83750144
_cell_formula_units_Z   2
loop_
 _symmetry_equiv_pos_site_id
 _symmetry_equiv_pos_as_xyz
  1  'x, y, z'
loop_
 _atom_site_type_symbol
 _atom_site_label
 _atom_site_symmetry_multiplicity
 _atom_site_fract_x
 _atom_site_fract_y
 _atom_site_fract_z
 _atom_site_occupancy
  Ca  Ca0  1  0.502836  0.502836  0.000000  1
  Ca  Ca1  1  0.002836  0.002836  0.000000  1
  Ca  Ca2  1  0.009110  0.187931  0.500000  1
  Ca  Ca3  1  0.687931  0.509110  0.500000  1
  Ca  Ca4  1  0.489178  0.989178  0.180775  1
  Ca  Ca5  1  0.808403  0.308403  0.819225  1
  Ca  Ca6  1  0.987947  0.811564  0.500000  1
  Ca  Ca7  1  0.311564  0.487947  0.500000  1
  La  La8  1  0.520981  0.020981  0.838714  1
  La  La9  1  0.182267  0.682267  0.161286  1
  Sn  Sn10  1  0.251695  0.251695  0.000000  1
  Sn  Sn11  1  0.751695  0.751695  0.000000  1
  Sn  Sn12  1  0.872941  0.372941  0.246685  1
  Sn  Sn13  1  0.126257  0.626257  0.753315  1
  Sn  Sn14  1  0.369645  0.126755  0.500000  1
  Sn  Sn15  1  0.626755  0.869645  0.500000  1
  H  H16  1  0.248795  0.748795  0.500000  1
  H  H17  1  0.749163  0.249163  0.500000  1
