# generated using pymatgen
data_Ce7ThZn3Si12Pd
_symmetry_space_group_name_H-M   'P 1'
_cell_length_a   8.19198700
_cell_length_b   8.19198775
_cell_length_c   8.42968400
_cell_angle_alpha   90.00000000
_cell_angle_beta   90.00000000
_cell_angle_gamma   119.99999295
_symmetry_Int_Tables_number   1
_chemical_formula_structural   Ce7ThZn3Si12Pd
_chemical_formula_sum   'Ce7 Th1 Zn3 Si12 Pd1'
_cell_volume   489.91473945
_cell_formula_units_Z   1
loop_
 _symmetry_equiv_pos_site_id
 _symmetry_equiv_pos_as_xyz
  1  'x, y, z'
loop_
 _atom_site_type_symbol
 _atom_site_label
 _atom_site_symmetry_multiplicity
 _atom_site_fract_x
 _atom_site_fract_y
 _atom_site_fract_z
 _atom_site_occupancy
  Ce  Ce0  1  0.499975  0.500025  0.749936  1
  Ce  Ce1  1  0.500511  0.499489  0.250032  1
  Ce  Ce2  1  0.000051  0.500025  0.749936  1
  Ce  Ce3  1  0.998978  0.499489  0.250032  1
  Ce  Ce4  1  0.499975  0.999949  0.749936  1
  Ce  Ce5  1  0.500511  0.001022  0.250032  1
  Ce  Ce6  1  0.000000  0.000000  0.750149  1
  Th  Th7  1  0.000000  0.000000  0.250159  1
  Zn  Zn8  1  0.666667  0.333333  0.998828  1
  Zn  Zn9  1  0.333333  0.666667  0.002298  1
  Zn  Zn10  1  0.333333  0.666667  0.498092  1
  Si  Si11  1  0.833722  0.166278  0.999055  1
  Si  Si12  1  0.166629  0.833371  0.998573  1
  Si  Si13  1  0.332555  0.166278  0.999055  1
  Si  Si14  1  0.165845  0.834155  0.501513  1
  Si  Si15  1  0.666743  0.833371  0.998573  1
  Si  Si16  1  0.834064  0.165936  0.501129  1
  Si  Si17  1  0.833722  0.667445  0.999055  1
  Si  Si18  1  0.668309  0.834155  0.501513  1
  Si  Si19  1  0.166629  0.333257  0.998573  1
  Si  Si20  1  0.331870  0.165936  0.501129  1
  Si  Si21  1  0.165845  0.331691  0.501513  1
  Si  Si22  1  0.834064  0.668130  0.501129  1
  Pd  Pd23  1  0.666667  0.333333  0.499755  1
