# generated using pymatgen
data_Er16In4Ni3Ru
_symmetry_space_group_name_H-M   'P 1'
_cell_length_a   9.47961749
_cell_length_b   9.52472368
_cell_length_c   9.47961800
_cell_angle_alpha   60.15653746
_cell_angle_beta   60.00000522
_cell_angle_gamma   60.15653574
_symmetry_Int_Tables_number   1
_chemical_formula_structural   Er16In4Ni3Ru
_chemical_formula_sum   'Er16 In4 Ni3 Ru1'
_cell_volume   606.65611002
_cell_formula_units_Z   1
loop_
 _symmetry_equiv_pos_site_id
 _symmetry_equiv_pos_as_xyz
  1  'x, y, z'
loop_
 _atom_site_type_symbol
 _atom_site_label
 _atom_site_symmetry_multiplicity
 _atom_site_fract_x
 _atom_site_fract_y
 _atom_site_fract_z
 _atom_site_occupancy
  Er  Er0  1  0.062567  0.062324  0.437554  1
  Er  Er1  1  0.652909  0.041272  0.652909  1
  Er  Er2  1  0.188175  0.811721  0.188175  1
  Er  Er3  1  0.437554  0.062324  0.437554  1
  Er  Er4  1  0.189132  0.187607  0.811630  1
  Er  Er5  1  0.651456  0.653404  0.651456  1
  Er  Er6  1  0.043683  0.653404  0.651456  1
  Er  Er7  1  0.437554  0.062324  0.062567  1
  Er  Er8  1  0.651456  0.653404  0.043683  1
  Er  Er9  1  0.188175  0.811721  0.811931  1
  Er  Er10  1  0.811630  0.187607  0.811630  1
  Er  Er11  1  0.811630  0.187607  0.189132  1
  Er  Er12  1  0.811931  0.811721  0.188175  1
  Er  Er13  1  0.060630  0.437125  0.441615  1
  Er  Er14  1  0.441615  0.437125  0.060630  1
  Er  Er15  1  0.060630  0.437125  0.060630  1
  In  In16  1  0.747945  0.416205  0.417925  1
  In  In17  1  0.417925  0.416205  0.747945  1
  In  In18  1  0.416280  0.751160  0.416280  1
  In  In19  1  0.417925  0.416205  0.417925  1
  Ni  Ni20  1  0.858036  0.858770  0.858036  1
  Ni  Ni21  1  0.425158  0.858770  0.858036  1
  Ni  Ni22  1  0.858036  0.858770  0.425158  1
  Ru  Ru23  1  0.857967  0.426098  0.857967  1
