# generated using pymatgen
data_Eu2GdY(GaIr)4
_symmetry_space_group_name_H-M   'P 1'
_cell_length_a   4.35872300
_cell_length_b   7.05571914
_cell_length_c   7.84034262
_cell_angle_alpha   89.95486575
_cell_angle_beta   90.00000000
_cell_angle_gamma   90.00000000
_symmetry_Int_Tables_number   1
_chemical_formula_structural   Eu2GdY(GaIr)4
_chemical_formula_sum   'Eu2 Gd1 Y1 Ga4 Ir4'
_cell_volume   241.12123627
_cell_formula_units_Z   1
loop_
 _symmetry_equiv_pos_site_id
 _symmetry_equiv_pos_as_xyz
  1  'x, y, z'
loop_
 _atom_site_type_symbol
 _atom_site_label
 _atom_site_symmetry_multiplicity
 _atom_site_fract_x
 _atom_site_fract_y
 _atom_site_fract_z
 _atom_site_occupancy
  Eu  Eu0  1  0.250000  0.983437  0.307511  1
  Eu  Eu1  1  0.250000  0.482960  0.190448  1
  Gd  Gd2  1  0.750000  0.020673  0.690602  1
  Y  Y3  1  0.750000  0.520898  0.809793  1
  Ga  Ga4  1  0.250000  0.339165  0.579204  1
  Ga  Ga5  1  0.250000  0.835928  0.921629  1
  Ga  Ga6  1  0.750000  0.659391  0.428785  1
  Ga  Ga7  1  0.750000  0.167140  0.071871  1
  Ir  Ir8  1  0.250000  0.212838  0.891447  1
  Ir  Ir9  1  0.250000  0.714264  0.608782  1
  Ir  Ir10  1  0.750000  0.782553  0.097516  1
  Ir  Ir11  1  0.750000  0.280754  0.402411  1
