# generated using pymatgen
data_Tb4Cr3GeF28
_symmetry_space_group_name_H-M   'P 1'
_cell_length_a   5.49327485
_cell_length_b   8.78833982
_cell_length_c   11.72453366
_cell_angle_alpha   62.69592879
_cell_angle_beta   90.09121949
_cell_angle_gamma   90.01692317
_symmetry_Int_Tables_number   1
_chemical_formula_structural   Tb4Cr3GeF28
_chemical_formula_sum   'Tb4 Cr3 Ge1 F28'
_cell_volume   502.95826320
_cell_formula_units_Z   1
loop_
 _symmetry_equiv_pos_site_id
 _symmetry_equiv_pos_as_xyz
  1  'x, y, z'
loop_
 _atom_site_type_symbol
 _atom_site_label
 _atom_site_symmetry_multiplicity
 _atom_site_fract_x
 _atom_site_fract_y
 _atom_site_fract_z
 _atom_site_occupancy
  Tb  Tb0  1  0.263915  0.810315  0.264823  1
  Tb  Tb1  1  0.734072  0.188199  0.736373  1
  Tb  Tb2  1  0.764856  0.192576  0.233857  1
  Tb  Tb3  1  0.236436  0.809182  0.765672  1
  Cr  Cr4  1  0.242461  0.274101  0.956681  1
  Cr  Cr5  1  0.257595  0.274265  0.456860  1
  Cr  Cr6  1  0.742541  0.725522  0.543394  1
  Ge  Ge7  1  0.757295  0.726103  0.043056  1
  F  F8  1  0.933733  0.707576  0.421587  1
  F  F9  1  0.065870  0.292679  0.578209  1
  F  F10  1  0.433263  0.292369  0.078485  1
  F  F11  1  0.565208  0.706302  0.923331  1
  F  F12  1  0.486309  0.729758  0.133058  1
  F  F13  1  0.523221  0.271575  0.864736  1
  F  F14  1  0.977109  0.270665  0.365173  1
  F  F15  1  0.023558  0.728971  0.635716  1
  F  F16  1  0.947944  0.742253  0.166818  1
  F  F17  1  0.052767  0.257328  0.831322  1
  F  F18  1  0.448007  0.256968  0.331405  1
  F  F19  1  0.552257  0.743232  0.668344  1
  F  F20  1  0.767627  0.493660  0.135982  1
  F  F21  1  0.231674  0.509469  0.863231  1
  F  F22  1  0.268694  0.509729  0.361688  1
  F  F23  1  0.732758  0.490583  0.637600  1
  F  F24  1  0.954698  0.281945  0.043191  1
  F  F25  1  0.037094  0.716687  0.959546  1
  F  F26  1  0.454323  0.718178  0.456041  1
  F  F27  1  0.545259  0.281704  0.543651  1
  F  F28  1  0.741767  0.959421  0.453391  1
  F  F29  1  0.259506  0.040049  0.546650  1
  F  F30  1  0.242756  0.039894  0.046669  1
  F  F31  1  0.760602  0.958668  0.953524  1
  F  F32  1  0.590564  0.972621  0.226782  1
  F  F33  1  0.404811  0.029193  0.772756  1
  F  F34  1  0.090586  0.027577  0.273368  1
  F  F35  1  0.908860  0.970684  0.727029  1
