# generated using pymatgen
data_Ba3Ga3Si2SbO14
_symmetry_space_group_name_H-M   'P 1'
_cell_length_a   8.60129400
_cell_length_b   8.60129460
_cell_length_c   5.27024800
_cell_angle_alpha   90.00000039
_cell_angle_beta   89.99991724
_cell_angle_gamma   119.99999507
_symmetry_Int_Tables_number   1
_chemical_formula_structural   Ba3Ga3Si2SbO14
_chemical_formula_sum   'Ba3 Ga3 Si2 Sb1 O14'
_cell_volume   337.66754532
_cell_formula_units_Z   1
loop_
 _symmetry_equiv_pos_site_id
 _symmetry_equiv_pos_as_xyz
  1  'x, y, z'
loop_
 _atom_site_type_symbol
 _atom_site_label
 _atom_site_symmetry_multiplicity
 _atom_site_fract_x
 _atom_site_fract_y
 _atom_site_fract_z
 _atom_site_occupancy
  Ba  Ba0  1  0.434681  0.000000  0.000001  1
  Ba  Ba1  1  0.000000  0.434683  0.000000  1
  Ba  Ba2  1  0.565319  0.565318  0.999999  1
  Ga  Ga3  1  0.748790  0.999999  0.500001  1
  Ga  Ga4  1  0.000000  0.748789  0.500001  1
  Ga  Ga5  1  0.251211  0.251212  0.500000  1
  Si  Si6  1  0.333335  0.666667  0.483646  1
  Si  Si7  1  0.666665  0.333331  0.516355  1
  Sb  Sb8  1  0.000000  0.000000  0.000000  1
  O  O9  1  0.666665  0.333332  0.210742  1
  O  O10  1  0.885023  0.781469  0.224857  1
  O  O11  1  0.896448  0.114979  0.224858  1
  O  O12  1  0.218531  0.103553  0.224857  1
  O  O13  1  0.526361  0.823642  0.358261  1
  O  O14  1  0.297285  0.473640  0.358261  1
  O  O15  1  0.176358  0.702717  0.358263  1
  O  O16  1  0.823643  0.526359  0.641738  1
  O  O17  1  0.702716  0.176357  0.641739  1
  O  O18  1  0.473639  0.297281  0.641740  1
  O  O19  1  0.781470  0.885022  0.775144  1
  O  O20  1  0.103552  0.218530  0.775143  1
  O  O21  1  0.114977  0.896446  0.775144  1
  O  O22  1  0.333336  0.666667  0.789258  1
