# generated using pymatgen
data_HoLu3V4F28
_symmetry_space_group_name_H-M   'P 1'
_cell_length_a   5.47563312
_cell_length_b   8.71222266
_cell_length_c   11.67730000
_cell_angle_alpha   64.30091599
_cell_angle_beta   90.01184499
_cell_angle_gamma   89.99948732
_symmetry_Int_Tables_number   1
_chemical_formula_structural   HoLu3V4F28
_chemical_formula_sum   'Ho1 Lu3 V4 F28'
_cell_volume   501.96217209
_cell_formula_units_Z   1
loop_
 _symmetry_equiv_pos_site_id
 _symmetry_equiv_pos_as_xyz
  1  'x, y, z'
loop_
 _atom_site_type_symbol
 _atom_site_label
 _atom_site_symmetry_multiplicity
 _atom_site_fract_x
 _atom_site_fract_y
 _atom_site_fract_z
 _atom_site_occupancy
  Ho  Ho0  1  0.243172  0.809740  0.773497  1
  Lu  Lu1  1  0.256860  0.807816  0.274037  1
  Lu  Lu2  1  0.742091  0.199960  0.722929  1
  Lu  Lu3  1  0.756907  0.194643  0.224236  1
  V  V4  1  0.753056  0.725380  0.051152  1
  V  V5  1  0.247483  0.271964  0.952487  1
  V  V6  1  0.253505  0.273495  0.451009  1
  V  V7  1  0.748667  0.727192  0.544799  1
  F  F8  1  0.961512  0.704575  0.424749  1
  F  F9  1  0.038754  0.295384  0.570894  1
  F  F10  1  0.462004  0.294886  0.071949  1
  F  F11  1  0.540179  0.704828  0.930165  1
  F  F12  1  0.481142  0.731605  0.151558  1
  F  F13  1  0.520636  0.269124  0.852058  1
  F  F14  1  0.983135  0.264191  0.351467  1
  F  F15  1  0.022100  0.731948  0.643310  1
  F  F16  1  0.966270  0.746576  0.174300  1
  F  F17  1  0.034139  0.249108  0.829499  1
  F  F18  1  0.466677  0.248963  0.329355  1
  F  F19  1  0.541127  0.746877  0.670043  1
  F  F20  1  0.762667  0.490422  0.142298  1
  F  F21  1  0.232779  0.505457  0.861065  1
  F  F22  1  0.263861  0.506274  0.359789  1
  F  F23  1  0.736358  0.492498  0.636605  1
  F  F24  1  0.967374  0.285072  0.047340  1
  F  F25  1  0.032118  0.712493  0.956632  1
  F  F26  1  0.466365  0.713959  0.451147  1
  F  F27  1  0.533869  0.287208  0.545234  1
  F  F28  1  0.746277  0.956355  0.456661  1
  F  F29  1  0.255544  0.043056  0.543283  1
  F  F30  1  0.246939  0.042320  0.041774  1
  F  F31  1  0.753394  0.954013  0.964038  1
  F  F32  1  0.559059  0.980673  0.235890  1
  F  F33  1  0.437317  0.029413  0.765891  1
  F  F34  1  0.058981  0.021537  0.263048  1
  F  F35  1  0.927681  0.980994  0.735815  1
