# generated using pymatgen
data_Y2Al3Ag4
_symmetry_space_group_name_H-M   'P 1'
_cell_length_a   5.41947923
_cell_length_b   5.41948060
_cell_length_c   13.84138400
_cell_angle_alpha   90.00000000
_cell_angle_beta   90.00000000
_cell_angle_gamma   120.26148362
_symmetry_Int_Tables_number   1
_chemical_formula_structural   Y2Al3Ag4
_chemical_formula_sum   'Y4 Al6 Ag8'
_cell_volume   351.13572357
_cell_formula_units_Z   2
loop_
 _symmetry_equiv_pos_site_id
 _symmetry_equiv_pos_as_xyz
  1  'x, y, z'
loop_
 _atom_site_type_symbol
 _atom_site_label
 _atom_site_symmetry_multiplicity
 _atom_site_fract_x
 _atom_site_fract_y
 _atom_site_fract_z
 _atom_site_occupancy
  Y  Y0  1  0.822026  0.822026  0.120961  1
  Y  Y1  1  0.177974  0.177974  0.879039  1
  Y  Y2  1  0.822026  0.822026  0.379039  1
  Y  Y3  1  0.177974  0.177974  0.620961  1
  Al  Al4  1  0.175667  0.677287  0.750000  1
  Al  Al5  1  0.677287  0.175667  0.750000  1
  Al  Al6  1  0.677189  0.677189  0.750000  1
  Al  Al7  1  0.322713  0.824333  0.250000  1
  Al  Al8  1  0.824333  0.322713  0.250000  1
  Al  Al9  1  0.322811  0.322811  0.250000  1
  Ag  Ag10  1  0.159529  0.486653  0.080091  1
  Ag  Ag11  1  0.513347  0.840471  0.919909  1
  Ag  Ag12  1  0.486653  0.159529  0.080091  1
  Ag  Ag13  1  0.840471  0.513347  0.580091  1
  Ag  Ag14  1  0.486653  0.159529  0.419909  1
  Ag  Ag15  1  0.840471  0.513347  0.919909  1
  Ag  Ag16  1  0.513347  0.840471  0.580091  1
  Ag  Ag17  1  0.159529  0.486653  0.419909  1
