# generated using pymatgen
data_Dy2AlZnIr2
_symmetry_space_group_name_H-M   'P 1'
_cell_length_a   4.12970800
_cell_length_b   6.94669003
_cell_length_c   8.07466525
_cell_angle_alpha   90.16912212
_cell_angle_beta   90.00000000
_cell_angle_gamma   90.00000000
_symmetry_Int_Tables_number   1
_chemical_formula_structural   Dy2AlZnIr2
_chemical_formula_sum   'Dy4 Al2 Zn2 Ir4'
_cell_volume   231.64338361
_cell_formula_units_Z   2
loop_
 _symmetry_equiv_pos_site_id
 _symmetry_equiv_pos_as_xyz
  1  'x, y, z'
loop_
 _atom_site_type_symbol
 _atom_site_label
 _atom_site_symmetry_multiplicity
 _atom_site_fract_x
 _atom_site_fract_y
 _atom_site_fract_z
 _atom_site_occupancy
  Dy  Dy0  1  0.250000  0.535322  0.184025  1
  Dy  Dy1  1  0.750000  0.464678  0.815975  1
  Dy  Dy2  1  0.250000  0.034515  0.321950  1
  Dy  Dy3  1  0.750000  0.965485  0.678050  1
  Al  Al4  1  0.250000  0.139398  0.938210  1
  Al  Al5  1  0.750000  0.860602  0.061790  1
  Zn  Zn6  1  0.250000  0.639760  0.564445  1
  Zn  Zn7  1  0.750000  0.360240  0.435555  1
  Ir  Ir8  1  0.750000  0.742546  0.370118  1
  Ir  Ir9  1  0.250000  0.257454  0.629882  1
  Ir  Ir10  1  0.750000  0.231704  0.110870  1
  Ir  Ir11  1  0.250000  0.768296  0.889130  1
