# generated using pymatgen
data_BeNb6Ga2As
_symmetry_space_group_name_H-M   'P 1'
_cell_length_a   6.84089409
_cell_length_b   6.84089437
_cell_length_c   3.48564800
_cell_angle_alpha   90.00000000
_cell_angle_beta   90.00000000
_cell_angle_gamma   89.58939869
_symmetry_Int_Tables_number   1
_chemical_formula_structural   BeNb6Ga2As
_chemical_formula_sum   'Be1 Nb6 Ga2 As1'
_cell_volume   163.11658733
_cell_formula_units_Z   1
loop_
 _symmetry_equiv_pos_site_id
 _symmetry_equiv_pos_as_xyz
  1  'x, y, z'
loop_
 _atom_site_type_symbol
 _atom_site_label
 _atom_site_symmetry_multiplicity
 _atom_site_fract_x
 _atom_site_fract_y
 _atom_site_fract_z
 _atom_site_occupancy
  Be  Be0  1  0.876015  0.376015  0.000000  1
  Nb  Nb1  1  0.998533  0.008777  0.000000  1
  Nb  Nb2  1  0.508777  0.498533  0.000000  1
  Nb  Nb3  1  0.690893  0.190893  0.500000  1
  Nb  Nb4  1  0.159828  0.323342  0.500000  1
  Nb  Nb5  1  0.823342  0.659828  0.500000  1
  Nb  Nb6  1  0.319431  0.819431  0.500000  1
  Ga  Ga7  1  0.377238  0.129304  0.000000  1
  Ga  Ga8  1  0.629304  0.877238  0.000000  1
  As  As9  1  0.116639  0.616639  0.000000  1
