# generated using pymatgen
data_ErZr(PPd)3
_symmetry_space_group_name_H-M   'P 1'
_cell_length_a   3.83500200
_cell_length_b   10.76035800
_cell_length_c   13.20628500
_cell_angle_alpha   90.00000000
_cell_angle_beta   90.00000000
_cell_angle_gamma   90.00000000
_symmetry_Int_Tables_number   1
_chemical_formula_structural   ErZr(PPd)3
_chemical_formula_sum   'Er4 Zr4 P12 Pd12'
_cell_volume   544.97048352
_cell_formula_units_Z   4
loop_
 _symmetry_equiv_pos_site_id
 _symmetry_equiv_pos_as_xyz
  1  'x, y, z'
loop_
 _atom_site_type_symbol
 _atom_site_label
 _atom_site_symmetry_multiplicity
 _atom_site_fract_x
 _atom_site_fract_y
 _atom_site_fract_z
 _atom_site_occupancy
  Er  Er0  1  0.250000  0.077236  0.213443  1
  Er  Er1  1  0.750000  0.922764  0.786557  1
  Er  Er2  1  0.750000  0.577236  0.286557  1
  Er  Er3  1  0.250000  0.422764  0.713443  1
  Zr  Zr4  1  0.250000  0.160296  0.496958  1
  Zr  Zr5  1  0.750000  0.839704  0.503042  1
  Zr  Zr6  1  0.750000  0.660296  0.003042  1
  Zr  Zr7  1  0.250000  0.339704  0.996958  1
  P  P8  1  0.250000  0.946363  0.614782  1
  P  P9  1  0.750000  0.053637  0.385218  1
  P  P10  1  0.750000  0.446363  0.885218  1
  P  P11  1  0.250000  0.553637  0.114782  1
  P  P12  1  0.250000  0.393918  0.397770  1
  P  P13  1  0.750000  0.606082  0.602230  1
  P  P14  1  0.750000  0.893918  0.102230  1
  P  P15  1  0.250000  0.106082  0.897770  1
  P  P16  1  0.250000  0.766758  0.363154  1
  P  P17  1  0.750000  0.233242  0.636846  1
  P  P18  1  0.750000  0.266758  0.136846  1
  P  P19  1  0.250000  0.733242  0.863154  1
  Pd  Pd20  1  0.250000  0.734677  0.662865  1
  Pd  Pd21  1  0.750000  0.265323  0.337135  1
  Pd  Pd22  1  0.750000  0.234677  0.837135  1
  Pd  Pd23  1  0.250000  0.765323  0.162865  1
  Pd  Pd24  1  0.250000  0.371696  0.215783  1
  Pd  Pd25  1  0.750000  0.628304  0.784217  1
  Pd  Pd26  1  0.750000  0.871696  0.284217  1
  Pd  Pd27  1  0.250000  0.128304  0.715783  1
  Pd  Pd28  1  0.250000  0.595449  0.477133  1
  Pd  Pd29  1  0.750000  0.404551  0.522867  1
  Pd  Pd30  1  0.750000  0.095449  0.022867  1
  Pd  Pd31  1  0.250000  0.904551  0.977133  1
