# generated using pymatgen
data_Ho7ErSe12
_symmetry_space_group_name_H-M   'P 1'
_cell_length_a   7.07447264
_cell_length_b   7.06971316
_cell_length_c   12.89367498
_cell_angle_alpha   100.66911145
_cell_angle_beta   100.68336397
_cell_angle_gamma   108.93408079
_symmetry_Int_Tables_number   1
_chemical_formula_structural   Ho7ErSe12
_chemical_formula_sum   'Ho7 Er1 Se12'
_cell_volume   578.15729325
_cell_formula_units_Z   1
loop_
 _symmetry_equiv_pos_site_id
 _symmetry_equiv_pos_as_xyz
  1  'x, y, z'
loop_
 _atom_site_type_symbol
 _atom_site_label
 _atom_site_symmetry_multiplicity
 _atom_site_fract_x
 _atom_site_fract_y
 _atom_site_fract_z
 _atom_site_occupancy
  Ho  Ho0  1  0.041142  0.791142  0.082285  1
  Ho  Ho1  1  0.622396  0.872396  0.244793  1
  Ho  Ho2  1  0.127339  0.377339  0.254677  1
  Ho  Ho3  1  0.208772  0.958772  0.417544  1
  Ho  Ho4  1  0.791263  0.041263  0.582527  1
  Ho  Ho5  1  0.872618  0.622617  0.745237  1
  Ho  Ho6  1  0.377530  0.127530  0.755060  1
  Er  Er7  1  0.958707  0.208706  0.917412  1
  Se  Se8  1  0.804944  0.049078  0.087351  1
  Se  Se9  1  0.282408  0.538272  0.087351  1
  Se  Se10  1  0.367221  0.117114  0.249996  1
  Se  Se11  1  0.882776  0.632882  0.249996  1
  Se  Se12  1  0.951245  0.195304  0.412084  1
  Se  Se13  1  0.460840  0.716780  0.412084  1
  Se  Se14  1  0.539241  0.283306  0.587911  1
  Se  Se15  1  0.048670  0.804606  0.587911  1
  Se  Se16  1  0.116789  0.366815  0.750670  1
  Se  Se17  1  0.633881  0.883856  0.750670  1
  Se  Se18  1  0.717732  0.459756  0.912219  1
  Se  Se19  1  0.194487  0.952463  0.912219  1
