# generated using pymatgen
data_Tb3DyErCoSb2
_symmetry_space_group_name_H-M   'P 1'
_cell_length_a   7.88588000
_cell_length_b   8.77005900
_cell_length_c   12.22624400
_cell_angle_alpha   90.00000000
_cell_angle_beta   90.00000000
_cell_angle_gamma   90.00000000
_symmetry_Int_Tables_number   1
_chemical_formula_structural   Tb3DyErCoSb2
_chemical_formula_sum   'Tb12 Dy4 Er4 Co4 Sb8'
_cell_volume   845.56254638
_cell_formula_units_Z   4
loop_
 _symmetry_equiv_pos_site_id
 _symmetry_equiv_pos_as_xyz
  1  'x, y, z'
loop_
 _atom_site_type_symbol
 _atom_site_label
 _atom_site_symmetry_multiplicity
 _atom_site_fract_x
 _atom_site_fract_y
 _atom_site_fract_z
 _atom_site_occupancy
  Tb  Tb0  1  0.153917  0.749886  0.203196  1
  Tb  Tb1  1  0.346083  0.750114  0.703196  1
  Tb  Tb2  1  0.846083  0.249886  0.796804  1
  Tb  Tb3  1  0.653917  0.250114  0.296804  1
  Tb  Tb4  1  0.454260  0.750160  0.997962  1
  Tb  Tb5  1  0.045740  0.749840  0.497962  1
  Tb  Tb6  1  0.545740  0.250160  0.002038  1
  Tb  Tb7  1  0.954260  0.249840  0.502038  1
  Tb  Tb8  1  0.622050  0.750272  0.307167  1
  Tb  Tb9  1  0.877950  0.749728  0.807167  1
  Tb  Tb10  1  0.377950  0.250272  0.692833  1
  Tb  Tb11  1  0.122050  0.249728  0.192833  1
  Dy  Dy12  1  0.178231  0.464535  0.934915  1
  Dy  Dy13  1  0.321769  0.035465  0.434915  1
  Dy  Dy14  1  0.821769  0.964535  0.065085  1
  Dy  Dy15  1  0.678231  0.535465  0.565085  1
  Er  Er16  1  0.822840  0.535373  0.065260  1
  Er  Er17  1  0.677160  0.964627  0.565260  1
  Er  Er18  1  0.177160  0.035373  0.934740  1
  Er  Er19  1  0.322840  0.464627  0.434740  1
  Co  Co20  1  0.435136  0.750215  0.491131  1
  Co  Co21  1  0.064864  0.749785  0.991131  1
  Co  Co22  1  0.564864  0.250215  0.508869  1
  Co  Co23  1  0.935136  0.249785  0.008869  1
  Sb  Sb24  1  0.928877  0.508150  0.326761  1
  Sb  Sb25  1  0.571123  0.991850  0.826761  1
  Sb  Sb26  1  0.071123  0.008150  0.673239  1
  Sb  Sb27  1  0.428877  0.491850  0.173239  1
  Sb  Sb28  1  0.071675  0.491658  0.673091  1
  Sb  Sb29  1  0.428325  0.008342  0.173091  1
  Sb  Sb30  1  0.928325  0.991658  0.326909  1
  Sb  Sb31  1  0.571675  0.508342  0.826909  1
