# generated using pymatgen
data_La2AgAs4Au
_symmetry_space_group_name_H-M   'P 1'
_cell_length_a   10.96626684
_cell_length_b   10.95902365
_cell_length_c   4.16501845
_cell_angle_alpha   79.05558583
_cell_angle_beta   78.95148888
_cell_angle_gamma   21.90135373
_symmetry_Int_Tables_number   1
_chemical_formula_structural   La2AgAs4Au
_chemical_formula_sum   'La2 Ag1 As4 Au1'
_cell_volume   183.15019370
_cell_formula_units_Z   1
loop_
 _symmetry_equiv_pos_site_id
 _symmetry_equiv_pos_as_xyz
  1  'x, y, z'
loop_
 _atom_site_type_symbol
 _atom_site_label
 _atom_site_symmetry_multiplicity
 _atom_site_fract_x
 _atom_site_fract_y
 _atom_site_fract_z
 _atom_site_occupancy
  La  La0  1  0.111042  0.124179  0.889269  1
  La  La1  1  0.875510  0.889269  0.124179  1
  Ag  Ag2  1  0.749199  0.750801  0.750801  1
  As  As3  1  0.330208  0.344940  0.669947  1
  As  As4  1  0.654905  0.669947  0.344940  1
  As  As5  1  0.508593  0.491077  0.062888  1
  As  As6  1  0.937442  0.062888  0.491077  1
  Au  Au7  1  0.249800  0.250200  0.250200  1
