# generated using pymatgen
data_GdB2C
_symmetry_space_group_name_H-M   'P 1'
_cell_length_a   6.80693800
_cell_length_b   6.80693800
_cell_length_c   7.63932200
_cell_angle_alpha   90.00000000
_cell_angle_beta   90.00000000
_cell_angle_gamma   90.00000000
_symmetry_Int_Tables_number   1
_chemical_formula_structural   GdB2C
_chemical_formula_sum   'Gd8 B16 C8'
_cell_volume   353.96343898
_cell_formula_units_Z   8
loop_
 _symmetry_equiv_pos_site_id
 _symmetry_equiv_pos_as_xyz
  1  'x, y, z'
loop_
 _atom_site_type_symbol
 _atom_site_label
 _atom_site_symmetry_multiplicity
 _atom_site_fract_x
 _atom_site_fract_y
 _atom_site_fract_z
 _atom_site_occupancy
  Gd  Gd0  1  0.309511  0.809511  0.750000  1
  Gd  Gd1  1  0.190489  0.309511  0.250000  1
  Gd  Gd2  1  0.809511  0.690489  0.250000  1
  Gd  Gd3  1  0.690489  0.190489  0.750000  1
  Gd  Gd4  1  0.690489  0.190489  0.250000  1
  Gd  Gd5  1  0.809511  0.690489  0.750000  1
  Gd  Gd6  1  0.190489  0.309511  0.750000  1
  Gd  Gd7  1  0.309511  0.809511  0.250000  1
  B  B8  1  0.150637  0.034579  0.000000  1
  B  B9  1  0.534579  0.650637  0.500000  1
  B  B10  1  0.849363  0.965421  0.000000  1
  B  B11  1  0.349363  0.534579  0.000000  1
  B  B12  1  0.650637  0.465421  0.000000  1
  B  B13  1  0.034579  0.849363  0.500000  1
  B  B14  1  0.965421  0.150637  0.500000  1
  B  B15  1  0.465421  0.349363  0.500000  1
  B  B16  1  0.097014  0.595270  0.000000  1
  B  B17  1  0.404730  0.097014  0.500000  1
  B  B18  1  0.595270  0.902986  0.500000  1
  B  B19  1  0.597014  0.904730  0.000000  1
  B  B20  1  0.402986  0.095270  0.000000  1
  B  B21  1  0.902986  0.404730  0.000000  1
  B  B22  1  0.095270  0.597014  0.500000  1
  B  B23  1  0.904730  0.402986  0.500000  1
  C  C24  1  0.178063  0.040960  0.500000  1
  C  C25  1  0.678063  0.459040  0.500000  1
  C  C26  1  0.321937  0.540960  0.500000  1
  C  C27  1  0.959040  0.178063  0.000000  1
  C  C28  1  0.040960  0.821937  0.000000  1
  C  C29  1  0.540960  0.678063  0.000000  1
  C  C30  1  0.821937  0.959040  0.500000  1
  C  C31  1  0.459040  0.321937  0.000000  1
