# generated using pymatgen
data_Er8Zr11Si16Ir
_symmetry_space_group_name_H-M   'P 1'
_cell_length_a   7.28641944
_cell_length_b   7.28641865
_cell_length_c   13.28939334
_cell_angle_alpha   90.17663888
_cell_angle_beta   89.82336139
_cell_angle_gamma   89.99431448
_symmetry_Int_Tables_number   1
_chemical_formula_structural   Er8Zr11Si16Ir
_chemical_formula_sum   'Er8 Zr11 Si16 Ir1'
_cell_volume   705.55246495
_cell_formula_units_Z   1
loop_
 _symmetry_equiv_pos_site_id
 _symmetry_equiv_pos_as_xyz
  1  'x, y, z'
loop_
 _atom_site_type_symbol
 _atom_site_label
 _atom_site_symmetry_multiplicity
 _atom_site_fract_x
 _atom_site_fract_y
 _atom_site_fract_z
 _atom_site_occupancy
  Er  Er0  1  0.346398  0.005202  0.464005  1
  Er  Er1  1  0.493932  0.848383  0.716919  1
  Er  Er2  1  0.501944  0.152509  0.209863  1
  Er  Er3  1  0.848383  0.493932  0.283081  1
  Er  Er4  1  0.152509  0.501944  0.790137  1
  Er  Er5  1  0.649560  0.997876  0.966346  1
  Er  Er6  1  0.005202  0.346398  0.535995  1
  Er  Er7  1  0.997876  0.649560  0.033654  1
  Zr  Zr8  1  0.177586  0.823169  0.247145  1
  Zr  Zr9  1  0.823169  0.177586  0.752855  1
  Zr  Zr10  1  0.676020  0.676020  0.500000  1
  Zr  Zr11  1  0.143485  0.000964  0.876221  1
  Zr  Zr12  1  0.496487  0.645482  0.121241  1
  Zr  Zr13  1  0.501312  0.357067  0.628257  1
  Zr  Zr14  1  0.645482  0.496487  0.878759  1
  Zr  Zr15  1  0.357067  0.501312  0.371743  1
  Zr  Zr16  1  0.855841  0.998616  0.373804  1
  Zr  Zr17  1  0.000964  0.143485  0.123779  1
  Zr  Zr18  1  0.998616  0.855841  0.626196  1
  Si  Si19  1  0.205555  0.144824  0.685329  1
  Si  Si20  1  0.360772  0.709172  0.931216  1
  Si  Si21  1  0.641698  0.293080  0.432969  1
  Si  Si22  1  0.709172  0.360772  0.068784  1
  Si  Si23  1  0.293080  0.641698  0.567031  1
  Si  Si24  1  0.794099  0.855753  0.181467  1
  Si  Si25  1  0.144824  0.205555  0.314671  1
  Si  Si26  1  0.855753  0.794099  0.818533  1
  Si  Si27  1  0.293070  0.948690  0.061352  1
  Si  Si28  1  0.552177  0.797536  0.312843  1
  Si  Si29  1  0.440414  0.207590  0.820825  1
  Si  Si30  1  0.797536  0.552177  0.687157  1
  Si  Si31  1  0.207590  0.440414  0.179175  1
  Si  Si32  1  0.702264  0.052949  0.564312  1
  Si  Si33  1  0.948690  0.293070  0.938648  1
  Si  Si34  1  0.052949  0.702264  0.435688  1
  Ir  Ir35  1  0.328523  0.328523  0.000000  1
