# generated using pymatgen
data_K2V5MoSe6
_symmetry_space_group_name_H-M   'P 1'
_cell_length_a   9.33790337
_cell_length_b   9.21488317
_cell_length_c   4.37290700
_cell_angle_alpha   90.00000000
_cell_angle_beta   90.00000000
_cell_angle_gamma   121.03445643
_symmetry_Int_Tables_number   1
_chemical_formula_structural   K2V5MoSe6
_chemical_formula_sum   'K2 V5 Mo1 Se6'
_cell_volume   322.41705623
_cell_formula_units_Z   1
loop_
 _symmetry_equiv_pos_site_id
 _symmetry_equiv_pos_as_xyz
  1  'x, y, z'
loop_
 _atom_site_type_symbol
 _atom_site_label
 _atom_site_symmetry_multiplicity
 _atom_site_fract_x
 _atom_site_fract_y
 _atom_site_fract_z
 _atom_site_occupancy
  K  K0  1  0.334114  0.657918  0.250000  1
  K  K1  1  0.668568  0.343302  0.750000  1
  V  V2  1  0.113498  0.137596  0.250000  1
  V  V3  1  0.033979  0.839275  0.250000  1
  V  V4  1  0.808128  0.969261  0.250000  1
  V  V5  1  0.194418  0.034641  0.750000  1
  V  V6  1  0.969459  0.164727  0.750000  1
  Mo  Mo7  1  0.880285  0.855029  0.750000  1
  Se  Se8  1  0.344755  0.057068  0.250000  1
  Se  Se9  1  0.940741  0.289020  0.250000  1
  Se  Se10  1  0.713254  0.654654  0.250000  1
  Se  Se11  1  0.282304  0.340644  0.750000  1
  Se  Se12  1  0.063661  0.710614  0.750000  1
  Se  Se13  1  0.652836  0.946250  0.750000  1
