# generated using pymatgen
data_ZrNp6VSb10
_symmetry_space_group_name_H-M   'P 1'
_cell_length_a   9.20858400
_cell_length_b   9.20858378
_cell_length_c   6.13245500
_cell_angle_alpha   90.00000000
_cell_angle_beta   90.00000000
_cell_angle_gamma   119.99999361
_symmetry_Int_Tables_number   1
_chemical_formula_structural   ZrNp6VSb10
_chemical_formula_sum   'Zr1 Np6 V1 Sb10'
_cell_volume   450.35058107
_cell_formula_units_Z   1
loop_
 _symmetry_equiv_pos_site_id
 _symmetry_equiv_pos_as_xyz
  1  'x, y, z'
loop_
 _atom_site_type_symbol
 _atom_site_label
 _atom_site_symmetry_multiplicity
 _atom_site_fract_x
 _atom_site_fract_y
 _atom_site_fract_z
 _atom_site_occupancy
  Zr  Zr0  1  0.000000  0.000000  0.500000  1
  Np  Np1  1  0.612187  0.000000  0.257479  1
  Np  Np2  1  0.387813  0.000000  0.742521  1
  Np  Np3  1  0.000000  0.612187  0.257479  1
  Np  Np4  1  0.000000  0.387813  0.742521  1
  Np  Np5  1  0.387813  0.387813  0.257479  1
  Np  Np6  1  0.612187  0.612187  0.742521  1
  V  V7  1  0.000000  0.000000  0.000000  1
  Sb  Sb8  1  0.262800  0.000000  0.235838  1
  Sb  Sb9  1  0.737200  0.000000  0.764162  1
  Sb  Sb10  1  0.000000  0.262800  0.235838  1
  Sb  Sb11  1  0.000000  0.737200  0.764162  1
  Sb  Sb12  1  0.737200  0.737200  0.235838  1
  Sb  Sb13  1  0.262800  0.262800  0.764162  1
  Sb  Sb14  1  0.333333  0.666667  0.000000  1
  Sb  Sb15  1  0.666667  0.333333  0.000000  1
  Sb  Sb16  1  0.666667  0.333333  0.500000  1
  Sb  Sb17  1  0.333333  0.666667  0.500000  1
