# generated using pymatgen
data_Th4Mg2Si3Ir
_symmetry_space_group_name_H-M   'P 1'
_cell_length_a   7.56916002
_cell_length_b   7.56916002
_cell_length_c   4.16507200
_cell_angle_alpha   90.00000000
_cell_angle_beta   90.00000000
_cell_angle_gamma   88.73113669
_symmetry_Int_Tables_number   1
_chemical_formula_structural   Th4Mg2Si3Ir
_chemical_formula_sum   'Th4 Mg2 Si3 Ir1'
_cell_volume   238.56755570
_cell_formula_units_Z   1
loop_
 _symmetry_equiv_pos_site_id
 _symmetry_equiv_pos_as_xyz
  1  'x, y, z'
loop_
 _atom_site_type_symbol
 _atom_site_label
 _atom_site_symmetry_multiplicity
 _atom_site_fract_x
 _atom_site_fract_y
 _atom_site_fract_z
 _atom_site_occupancy
  Th  Th0  1  0.678248  0.178248  0.500000  1
  Th  Th1  1  0.313340  0.813340  0.500000  1
  Th  Th2  1  0.178451  0.327967  0.500000  1
  Th  Th3  1  0.827967  0.678451  0.500000  1
  Mg  Mg4  1  0.495908  0.501582  0.000000  1
  Mg  Mg5  1  0.001582  0.995908  0.000000  1
  Si  Si6  1  0.880206  0.380206  0.000000  1
  Si  Si7  1  0.616818  0.887744  0.000000  1
  Si  Si8  1  0.387744  0.116818  0.000000  1
  Ir  Ir9  1  0.119735  0.619735  0.000000  1
