# generated using pymatgen
data_Ho8Ti7Si16Tc5
_symmetry_space_group_name_H-M   'P 1'
_cell_length_a   6.92347173
_cell_length_b   6.93254752
_cell_length_c   12.75668114
_cell_angle_alpha   89.80883171
_cell_angle_beta   89.91674111
_cell_angle_gamma   89.94167556
_symmetry_Int_Tables_number   1
_chemical_formula_structural   Ho8Ti7Si16Tc5
_chemical_formula_sum   'Ho8 Ti7 Si16 Tc5'
_cell_volume   612.28184127
_cell_formula_units_Z   1
loop_
 _symmetry_equiv_pos_site_id
 _symmetry_equiv_pos_as_xyz
  1  'x, y, z'
loop_
 _atom_site_type_symbol
 _atom_site_label
 _atom_site_symmetry_multiplicity
 _atom_site_fract_x
 _atom_site_fract_y
 _atom_site_fract_z
 _atom_site_occupancy
  Ho  Ho0  1  0.340388  0.000274  0.469967  1
  Ho  Ho1  1  0.498583  0.840321  0.719750  1
  Ho  Ho2  1  0.499654  0.159106  0.218677  1
  Ho  Ho3  1  0.839539  0.498465  0.279950  1
  Ho  Ho4  1  0.159725  0.499131  0.781970  1
  Ho  Ho5  1  0.658864  0.999576  0.968311  1
  Ho  Ho6  1  0.000758  0.340784  0.531223  1
  Ho  Ho7  1  0.997420  0.658331  0.029086  1
  Ti  Ti8  1  0.493470  0.657672  0.126821  1
  Ti  Ti9  1  0.501862  0.346258  0.628511  1
  Ti  Ti10  1  0.655660  0.496836  0.873439  1
  Ti  Ti11  1  0.346248  0.504961  0.373602  1
  Ti  Ti12  1  0.846286  0.996598  0.376623  1
  Ti  Ti13  1  0.004110  0.155372  0.125944  1
  Ti  Ti14  1  0.995885  0.846852  0.622933  1
  Si  Si15  1  0.196864  0.127881  0.687195  1
  Si  Si16  1  0.375183  0.702357  0.933855  1
  Si  Si17  1  0.628249  0.299716  0.434217  1
  Si  Si18  1  0.700414  0.371357  0.065697  1
  Si  Si19  1  0.300084  0.629306  0.566278  1
  Si  Si20  1  0.800318  0.870916  0.183422  1
  Si  Si21  1  0.129387  0.200490  0.317265  1
  Si  Si22  1  0.875255  0.805951  0.815897  1
  Si  Si23  1  0.289762  0.958736  0.062143  1
  Si  Si24  1  0.547036  0.790822  0.317512  1
  Si  Si25  1  0.446438  0.210688  0.819213  1
  Si  Si26  1  0.790388  0.548478  0.682933  1
  Si  Si27  1  0.209253  0.453573  0.182808  1
  Si  Si28  1  0.709458  0.046682  0.567180  1
  Si  Si29  1  0.961624  0.279750  0.931871  1
  Si  Si30  1  0.046338  0.710080  0.431886  1
  Tc  Tc31  1  0.328736  0.332091  0.001183  1
  Tc  Tc32  1  0.169966  0.830549  0.247468  1
  Tc  Tc33  1  0.825925  0.170064  0.748271  1
  Tc  Tc34  1  0.670346  0.669996  0.500483  1
  Tc  Tc35  1  0.160524  0.989980  0.876418  1
