# generated using pymatgen
data_Nd10Pb6N
_symmetry_space_group_name_H-M   'P 1'
_cell_length_a   9.36254800
_cell_length_b   9.36254851
_cell_length_c   6.86183400
_cell_angle_alpha   90.00000000
_cell_angle_beta   90.00000000
_cell_angle_gamma   119.99999820
_symmetry_Int_Tables_number   1
_chemical_formula_structural   Nd10Pb6N
_chemical_formula_sum   'Nd10 Pb6 N1'
_cell_volume   520.90555064
_cell_formula_units_Z   1
loop_
 _symmetry_equiv_pos_site_id
 _symmetry_equiv_pos_as_xyz
  1  'x, y, z'
loop_
 _atom_site_type_symbol
 _atom_site_label
 _atom_site_symmetry_multiplicity
 _atom_site_fract_x
 _atom_site_fract_y
 _atom_site_fract_z
 _atom_site_occupancy
  Nd  Nd0  1  0.333333  0.666667  0.500000  1
  Nd  Nd1  1  0.666667  0.333333  0.500000  1
  Nd  Nd2  1  0.666667  0.333333  0.000000  1
  Nd  Nd3  1  0.333333  0.666667  0.000000  1
  Nd  Nd4  1  0.000000  0.776579  0.273148  1
  Nd  Nd5  1  0.223421  0.223421  0.273148  1
  Nd  Nd6  1  0.776579  0.000000  0.273148  1
  Nd  Nd7  1  0.000000  0.223421  0.726852  1
  Nd  Nd8  1  0.776579  0.776579  0.726852  1
  Nd  Nd9  1  0.223421  0.000000  0.726852  1
  Pb  Pb10  1  0.000000  0.401125  0.249493  1
  Pb  Pb11  1  0.598875  0.598875  0.249493  1
  Pb  Pb12  1  0.401125  0.000000  0.249493  1
  Pb  Pb13  1  0.000000  0.598875  0.750507  1
  Pb  Pb14  1  0.401125  0.401125  0.750507  1
  Pb  Pb15  1  0.598875  0.000000  0.750507  1
  N  N16  1  0.000000  0.000000  0.500000  1
