# generated using pymatgen
data_Tb5Nd3(CdPt)2
_symmetry_space_group_name_H-M   'P 1'
_cell_length_a   9.84269979
_cell_length_b   9.84270016
_cell_length_c   9.84270000
_cell_angle_alpha   60.00000053
_cell_angle_beta   59.99999930
_cell_angle_gamma   59.99999882
_symmetry_Int_Tables_number   1
_chemical_formula_structural   Tb5Nd3(CdPt)2
_chemical_formula_sum   'Tb10 Nd6 Cd4 Pt4'
_cell_volume   674.26053399
_cell_formula_units_Z   2
loop_
 _symmetry_equiv_pos_site_id
 _symmetry_equiv_pos_as_xyz
  1  'x, y, z'
loop_
 _atom_site_type_symbol
 _atom_site_label
 _atom_site_symmetry_multiplicity
 _atom_site_fract_x
 _atom_site_fract_y
 _atom_site_fract_z
 _atom_site_occupancy
  Tb  Tb0  1  0.350348  0.350348  0.350348  1
  Tb  Tb1  1  0.350348  0.350348  0.948955  1
  Tb  Tb2  1  0.350348  0.948955  0.350348  1
  Tb  Tb3  1  0.948955  0.350348  0.350348  1
  Tb  Tb4  1  0.810589  0.189411  0.189411  1
  Tb  Tb5  1  0.189411  0.810589  0.810589  1
  Tb  Tb6  1  0.189411  0.810589  0.189411  1
  Tb  Tb7  1  0.810589  0.189411  0.810589  1
  Tb  Tb8  1  0.189411  0.189411  0.810589  1
  Tb  Tb9  1  0.810589  0.810589  0.189411  1
  Nd  Nd10  1  0.937740  0.562260  0.562260  1
  Nd  Nd11  1  0.562260  0.937740  0.937740  1
  Nd  Nd12  1  0.562260  0.937740  0.562260  1
  Nd  Nd13  1  0.937740  0.562260  0.937740  1
  Nd  Nd14  1  0.562260  0.562260  0.937740  1
  Nd  Nd15  1  0.937740  0.937740  0.562260  1
  Cd  Cd16  1  0.579919  0.579919  0.579919  1
  Cd  Cd17  1  0.579919  0.579919  0.260244  1
  Cd  Cd18  1  0.579919  0.260244  0.579919  1
  Cd  Cd19  1  0.260244  0.579919  0.579919  1
  Pt  Pt20  1  0.142890  0.142890  0.142890  1
  Pt  Pt21  1  0.142890  0.142890  0.571329  1
  Pt  Pt22  1  0.142890  0.571329  0.142890  1
  Pt  Pt23  1  0.571329  0.142890  0.142890  1
