# generated using pymatgen
data_NaNd3Y3CoI12
_symmetry_space_group_name_H-M   'P 1'
_cell_length_a   9.85781548
_cell_length_b   9.98154994
_cell_length_c   9.92229900
_cell_angle_alpha   106.59379043
_cell_angle_beta   107.17393422
_cell_angle_gamma   106.97261333
_symmetry_Int_Tables_number   1
_chemical_formula_structural   NaNd3Y3CoI12
_chemical_formula_sum   'Na1 Nd3 Y3 Co1 I12'
_cell_volume   814.98185971
_cell_formula_units_Z   1
loop_
 _symmetry_equiv_pos_site_id
 _symmetry_equiv_pos_as_xyz
  1  'x, y, z'
loop_
 _atom_site_type_symbol
 _atom_site_label
 _atom_site_symmetry_multiplicity
 _atom_site_fract_x
 _atom_site_fract_y
 _atom_site_fract_z
 _atom_site_occupancy
  Na  Na0  1  0.499758  0.500609  0.498903  1
  Nd  Nd1  1  0.274505  0.024952  0.090922  1
  Nd  Nd2  1  0.894774  0.685763  0.970908  1
  Nd  Nd3  1  0.725966  0.973948  0.909743  1
  Y  Y4  1  0.972309  0.899070  0.691828  1
  Y  Y5  1  0.029009  0.105145  0.309365  1
  Y  Y6  1  0.103166  0.306628  0.029294  1
  Co  Co7  1  0.000363  0.999830  0.000862  1
  I  I8  1  0.542795  0.624440  0.851313  1
  I  I9  1  0.447330  0.373490  0.142623  1
  I  I10  1  0.310204  0.926107  0.773877  1
  I  I11  1  0.369257  0.148214  0.453660  1
  I  I12  1  0.931521  0.787192  0.327578  1
  I  I13  1  0.690388  0.075239  0.227072  1
  I  I14  1  0.071709  0.221180  0.682768  1
  I  I15  1  0.780750  0.314674  0.926518  1
  I  I16  1  0.226074  0.678401  0.074259  1
  I  I17  1  0.857157  0.552683  0.622749  1
  I  I18  1  0.141889  0.448330  0.368443  1
  I  I19  1  0.631075  0.854103  0.547314  1
