# generated using pymatgen
data_RbSrLa2CuSe5
_symmetry_space_group_name_H-M   'P 1'
_cell_length_a   7.75898793
_cell_length_b   7.75898904
_cell_length_c   18.81635700
_cell_angle_alpha   90.00000000
_cell_angle_beta   90.00000000
_cell_angle_gamma   147.29893195
_symmetry_Int_Tables_number   1
_chemical_formula_structural   RbSrLa2CuSe5
_chemical_formula_sum   'Rb2 Sr2 La4 Cu2 Se10'
_cell_volume   611.99146249
_cell_formula_units_Z   2
loop_
 _symmetry_equiv_pos_site_id
 _symmetry_equiv_pos_as_xyz
  1  'x, y, z'
loop_
 _atom_site_type_symbol
 _atom_site_label
 _atom_site_symmetry_multiplicity
 _atom_site_fract_x
 _atom_site_fract_y
 _atom_site_fract_z
 _atom_site_occupancy
  Rb  Rb0  1  0.523502  0.476498  0.250000  1
  Rb  Rb1  1  0.476498  0.523502  0.750000  1
  Sr  Sr2  1  0.000000  0.000000  0.000000  1
  Sr  Sr3  1  0.000000  0.000000  0.500000  1
  La  La4  1  0.730498  0.269502  0.603803  1
  La  La5  1  0.269502  0.730498  0.396197  1
  La  La6  1  0.269502  0.730498  0.103803  1
  La  La7  1  0.730498  0.269502  0.896197  1
  Cu  Cu8  1  0.796706  0.203294  0.250000  1
  Cu  Cu9  1  0.203294  0.796706  0.750000  1
  Se  Se10  1  0.641229  0.358771  0.046568  1
  Se  Se11  1  0.358771  0.641229  0.953432  1
  Se  Se12  1  0.358771  0.641229  0.546568  1
  Se  Se13  1  0.641229  0.358771  0.453432  1
  Se  Se14  1  0.895142  0.104858  0.142804  1
  Se  Se15  1  0.104858  0.895142  0.857196  1
  Se  Se16  1  0.104858  0.895142  0.642804  1
  Se  Se17  1  0.895142  0.104858  0.357196  1
  Se  Se18  1  0.203501  0.796499  0.250000  1
  Se  Se19  1  0.796499  0.203501  0.750000  1
