# generated using pymatgen
data_Er2ThNi9
_symmetry_space_group_name_H-M   'P 1'
_cell_length_a   8.63431051
_cell_length_b   8.63431090
_cell_length_c   8.63431112
_cell_angle_alpha   33.43374215
_cell_angle_beta   33.43373584
_cell_angle_gamma   33.43375242
_symmetry_Int_Tables_number   1
_chemical_formula_structural   Er2ThNi9
_chemical_formula_sum   'Er2 Th1 Ni9'
_cell_volume   174.01930246
_cell_formula_units_Z   1
loop_
 _symmetry_equiv_pos_site_id
 _symmetry_equiv_pos_as_xyz
  1  'x, y, z'
loop_
 _atom_site_type_symbol
 _atom_site_label
 _atom_site_symmetry_multiplicity
 _atom_site_fract_x
 _atom_site_fract_y
 _atom_site_fract_z
 _atom_site_occupancy
  Er  Er0  1  0.859889  0.859889  0.859889  1
  Er  Er1  1  0.140111  0.140111  0.140111  1
  Th  Th2  1  0.000000  0.000000  0.000000  1
  Ni  Ni3  1  0.500000  0.500000  0.500000  1
  Ni  Ni4  1  0.415612  0.918550  0.415614  1
  Ni  Ni5  1  0.415615  0.415615  0.918547  1
  Ni  Ni6  1  0.918550  0.415612  0.415614  1
  Ni  Ni7  1  0.081450  0.584388  0.584385  1
  Ni  Ni8  1  0.584386  0.584386  0.081453  1
  Ni  Ni9  1  0.584388  0.081450  0.584385  1
  Ni  Ni10  1  0.666730  0.666730  0.666730  1
  Ni  Ni11  1  0.333271  0.333271  0.333271  1
