# generated using pymatgen
data_Sr3Y(Si3Pd5)4
_symmetry_space_group_name_H-M   'P 1'
_cell_length_a   4.06694000
_cell_length_b   19.95516307
_cell_length_c   7.34419865
_cell_angle_alpha   89.87465989
_cell_angle_beta   90.00000000
_cell_angle_gamma   90.00000000
_symmetry_Int_Tables_number   1
_chemical_formula_structural   Sr3Y(Si3Pd5)4
_chemical_formula_sum   'Sr3 Y1 Si12 Pd20'
_cell_volume   596.02767106
_cell_formula_units_Z   1
loop_
 _symmetry_equiv_pos_site_id
 _symmetry_equiv_pos_as_xyz
  1  'x, y, z'
loop_
 _atom_site_type_symbol
 _atom_site_label
 _atom_site_symmetry_multiplicity
 _atom_site_fract_x
 _atom_site_fract_y
 _atom_site_fract_z
 _atom_site_occupancy
  Sr  Sr0  1  0.750000  0.642631  0.122566  1
  Sr  Sr1  1  0.250000  0.356295  0.877342  1
  Sr  Sr2  1  0.250000  0.858308  0.624228  1
  Y  Y3  1  0.750000  0.144143  0.376904  1
  Si  Si4  1  0.750000  0.737116  0.628147  1
  Si  Si5  1  0.250000  0.259190  0.370667  1
  Si  Si6  1  0.250000  0.763584  0.128372  1
  Si  Si7  1  0.750000  0.236223  0.872541  1
  Si  Si8  1  0.750000  0.925389  0.343679  1
  Si  Si9  1  0.250000  0.076474  0.647699  1
  Si  Si10  1  0.250000  0.574306  0.844537  1
  Si  Si11  1  0.750000  0.424093  0.156803  1
  Si  Si12  1  0.750000  0.918523  0.915778  1
  Si  Si13  1  0.250000  0.085000  0.098287  1
  Si  Si14  1  0.250000  0.583497  0.414945  1
  Si  Si15  1  0.750000  0.414817  0.582677  1
  Pd  Pd16  1  0.750000  0.799737  0.324091  1
  Pd  Pd17  1  0.250000  0.198229  0.669517  1
  Pd  Pd18  1  0.250000  0.700422  0.824560  1
  Pd  Pd19  1  0.750000  0.298164  0.177399  1
  Pd  Pd20  1  0.750000  0.994368  0.625435  1
  Pd  Pd21  1  0.250000  0.008905  0.373147  1
  Pd  Pd22  1  0.250000  0.505251  0.127540  1
  Pd  Pd23  1  0.750000  0.493748  0.872743  1
  Pd  Pd24  1  0.750000  0.512732  0.379271  1
  Pd  Pd25  1  0.250000  0.486375  0.619854  1
  Pd  Pd26  1  0.250000  0.990588  0.879599  1
  Pd  Pd27  1  0.750000  0.014891  0.123799  1
  Pd  Pd28  1  0.750000  0.797124  0.932663  1
  Pd  Pd29  1  0.250000  0.202738  0.069251  1
  Pd  Pd30  1  0.250000  0.703958  0.433523  1
  Pd  Pd31  1  0.750000  0.294499  0.567622  1
  Pd  Pd32  1  0.750000  0.616090  0.641915  1
  Pd  Pd33  1  0.250000  0.381855  0.358443  1
  Pd  Pd34  1  0.250000  0.885027  0.141742  1
  Pd  Pd35  1  0.750000  0.115711  0.852718  1
