# generated using pymatgen
data_POs2Br9
_symmetry_space_group_name_H-M   'P 1'
_cell_length_a   8.60285509
_cell_length_b   10.43880500
_cell_length_c   9.72224120
_cell_angle_alpha   90.00000000
_cell_angle_beta   110.99022652
_cell_angle_gamma   90.00000000
_symmetry_Int_Tables_number   1
_chemical_formula_structural   POs2Br9
_chemical_formula_sum   'P2 Os4 Br18'
_cell_volume   815.15453926
_cell_formula_units_Z   2
loop_
 _symmetry_equiv_pos_site_id
 _symmetry_equiv_pos_as_xyz
  1  'x, y, z'
loop_
 _atom_site_type_symbol
 _atom_site_label
 _atom_site_symmetry_multiplicity
 _atom_site_fract_x
 _atom_site_fract_y
 _atom_site_fract_z
 _atom_site_occupancy
  P  P0  1  0.827781  0.250000  0.174666  1
  P  P1  1  0.172218  0.750000  0.825334  1
  Os  Os2  1  0.833000  0.118852  0.359698  1
  Os  Os3  1  0.833000  0.381147  0.359698  1
  Os  Os4  1  0.167000  0.618852  0.640302  1
  Os  Os5  1  0.167000  0.881148  0.640302  1
  Br  Br6  1  0.383534  0.750000  0.034191  1
  Br  Br7  1  0.041591  0.250000  0.101264  1
  Br  Br8  1  0.820338  0.952538  0.167774  1
  Br  Br9  1  0.820338  0.547462  0.167774  1
  Br  Br10  1  0.532291  0.103884  0.290391  1
  Br  Br11  1  0.532291  0.396116  0.290391  1
  Br  Br12  1  0.148833  0.750000  0.416903  1
  Br  Br13  1  0.148436  0.081667  0.461699  1
  Br  Br14  1  0.148436  0.418332  0.461699  1
  Br  Br15  1  0.851563  0.581667  0.538300  1
  Br  Br16  1  0.851563  0.918333  0.538300  1
  Br  Br17  1  0.851167  0.250000  0.583097  1
  Br  Br18  1  0.467709  0.603883  0.709609  1
  Br  Br19  1  0.467709  0.896117  0.709609  1
  Br  Br20  1  0.179662  0.452538  0.832226  1
  Br  Br21  1  0.179662  0.047463  0.832226  1
  Br  Br22  1  0.958408  0.750000  0.898736  1
  Br  Br23  1  0.616466  0.250000  0.965809  1
