# generated using pymatgen
data_Hf5Zr5Sn6As
_symmetry_space_group_name_H-M   'P 1'
_cell_length_a   5.87881707
_cell_length_b   8.57026711
_cell_length_c   8.57216882
_cell_angle_alpha   119.99267544
_cell_angle_beta   89.95194501
_cell_angle_gamma   90.09611597
_symmetry_Int_Tables_number   1
_chemical_formula_structural   Hf5Zr5Sn6As
_chemical_formula_sum   'Hf5 Zr5 Sn6 As1'
_cell_volume   374.05639998
_cell_formula_units_Z   1
loop_
 _symmetry_equiv_pos_site_id
 _symmetry_equiv_pos_as_xyz
  1  'x, y, z'
loop_
 _atom_site_type_symbol
 _atom_site_label
 _atom_site_symmetry_multiplicity
 _atom_site_fract_x
 _atom_site_fract_y
 _atom_site_fract_z
 _atom_site_occupancy
  Hf  Hf0  1  0.500018  0.333275  0.666792  1
  Hf  Hf1  1  0.500018  0.666483  0.333208  1
  Hf  Hf2  1  0.999772  0.666335  0.333133  1
  Hf  Hf3  1  0.999772  0.333202  0.666867  1
  Hf  Hf4  1  0.761397  0.256313  0.000000  1
  Zr  Zr5  1  0.761872  0.743830  0.743972  1
  Zr  Zr6  1  0.761872  0.999858  0.256028  1
  Zr  Zr7  1  0.239004  0.744089  0.000000  1
  Zr  Zr8  1  0.237711  0.256035  0.255574  1
  Zr  Zr9  1  0.237711  0.000460  0.744426  1
  Sn  Sn10  1  0.747992  0.606567  0.000000  1
  Sn  Sn11  1  0.747878  0.392302  0.392028  1
  Sn  Sn12  1  0.747878  0.000274  0.607972  1
  Sn  Sn13  1  0.251966  0.392723  0.000000  1
  Sn  Sn14  1  0.252057  0.607369  0.607376  1
  Sn  Sn15  1  0.252057  0.999994  0.392624  1
  As  As16  1  0.501030  0.000893  0.000000  1
