# generated using pymatgen
data_YErTc2C3
_symmetry_space_group_name_H-M   'P 1'
_cell_length_a   6.02581958
_cell_length_b   6.02581924
_cell_length_c   5.67312851
_cell_angle_alpha   67.40767606
_cell_angle_beta   67.40767582
_cell_angle_gamma   32.08615993
_symmetry_Int_Tables_number   1
_chemical_formula_structural   YErTc2C3
_chemical_formula_sum   'Y1 Er1 Tc2 C3'
_cell_volume   100.30010278
_cell_formula_units_Z   1
loop_
 _symmetry_equiv_pos_site_id
 _symmetry_equiv_pos_as_xyz
  1  'x, y, z'
loop_
 _atom_site_type_symbol
 _atom_site_label
 _atom_site_symmetry_multiplicity
 _atom_site_fract_x
 _atom_site_fract_y
 _atom_site_fract_z
 _atom_site_occupancy
  Y  Y0  1  0.608529  0.608529  0.178388  1
  Er  Er1  1  0.390118  0.390118  0.825103  1
  Tc  Tc2  1  0.841893  0.841893  0.320624  1
  Tc  Tc3  1  0.158068  0.158068  0.679341  1
  C  C4  1  0.247410  0.247410  0.270325  1
  C  C5  1  0.754714  0.754714  0.728431  1
  C  C6  1  0.999268  0.999268  0.997789  1
