# generated using pymatgen
data_Ac3Ag3Sn4Hg
_symmetry_space_group_name_H-M   'P 1'
_cell_length_a   9.28682347
_cell_length_b   9.26558110
_cell_length_c   9.26558048
_cell_angle_alpha   148.69218011
_cell_angle_beta   131.79746102
_cell_angle_gamma   58.58584932
_symmetry_Int_Tables_number   1
_chemical_formula_structural   Ac3Ag3Sn4Hg
_chemical_formula_sum   'Ac3 Ag3 Sn4 Hg1'
_cell_volume   306.45759415
_cell_formula_units_Z   1
loop_
 _symmetry_equiv_pos_site_id
 _symmetry_equiv_pos_as_xyz
  1  'x, y, z'
loop_
 _atom_site_type_symbol
 _atom_site_label
 _atom_site_symmetry_multiplicity
 _atom_site_fract_x
 _atom_site_fract_y
 _atom_site_fract_z
 _atom_site_occupancy
  Ac  Ac0  1  0.498495  0.999739  0.498756  1
  Ac  Ac1  1  0.132730  0.130086  0.002644  1
  Ac  Ac2  1  0.872277  0.868930  0.003347  1
  Ag  Ag3  1  0.476552  0.666923  0.809630  1
  Ag  Ag4  1  0.857707  0.669018  0.188690  1
  Ag  Ag5  1  0.135525  0.331998  0.803527  1
  Sn  Sn6  1  0.717995  0.214241  0.503754  1
  Sn  Sn7  1  0.276831  0.782645  0.494185  1
  Sn  Sn8  1  0.192456  0.499981  0.692475  1
  Sn  Sn9  1  0.814245  0.504057  0.310188  1
  Hg  Hg10  1  0.525186  0.332382  0.192803  1
