# generated using pymatgen
data_Rb2TaTe4Au
_symmetry_space_group_name_H-M   'P 1'
_cell_length_a   15.45051469
_cell_length_b   13.78019942
_cell_length_c   8.26956867
_cell_angle_alpha   85.07637251
_cell_angle_beta   62.69803555
_cell_angle_gamma   32.22560131
_symmetry_Int_Tables_number   1
_chemical_formula_structural   Rb2TaTe4Au
_chemical_formula_sum   'Rb4 Ta2 Te8 Au2'
_cell_volume   642.61972460
_cell_formula_units_Z   2
loop_
 _symmetry_equiv_pos_site_id
 _symmetry_equiv_pos_as_xyz
  1  'x, y, z'
loop_
 _atom_site_type_symbol
 _atom_site_label
 _atom_site_symmetry_multiplicity
 _atom_site_fract_x
 _atom_site_fract_y
 _atom_site_fract_z
 _atom_site_occupancy
  Rb  Rb0  1  0.429946  0.429946  0.070054  1
  Rb  Rb1  1  0.820054  0.820054  0.179946  1
  Rb  Rb2  1  0.070054  0.070054  0.429946  1
  Rb  Rb3  1  0.179946  0.179946  0.820054  1
  Ta  Ta4  1  0.000000  0.000000  0.000000  1
  Ta  Ta5  1  0.250000  0.250000  0.250000  1
  Te  Te6  1  0.723366  0.393440  0.070991  1
  Te  Te7  1  0.812201  0.070991  0.393440  1
  Te  Te8  1  0.070991  0.812201  0.723366  1
  Te  Te9  1  0.393440  0.723366  0.812201  1
  Te  Te10  1  0.526634  0.856560  0.179009  1
  Te  Te11  1  0.856560  0.526634  0.437799  1
  Te  Te12  1  0.179009  0.437799  0.526634  1
  Te  Te13  1  0.437799  0.179009  0.856560  1
  Au  Au14  1  0.500000  0.500000  0.500000  1
  Au  Au15  1  0.750000  0.750000  0.750000  1
