# generated using pymatgen
data_Yb8Si16Mo5W7
_symmetry_space_group_name_H-M   'P 1'
_cell_length_a   6.73198807
_cell_length_b   6.90053601
_cell_length_c   13.06596072
_cell_angle_alpha   89.98863816
_cell_angle_beta   90.00905503
_cell_angle_gamma   90.04233601
_symmetry_Int_Tables_number   1
_chemical_formula_structural   Yb8Si16Mo5W7
_chemical_formula_sum   'Yb8 Si16 Mo5 W7'
_cell_volume   606.97021459
_cell_formula_units_Z   1
loop_
 _symmetry_equiv_pos_site_id
 _symmetry_equiv_pos_as_xyz
  1  'x, y, z'
loop_
 _atom_site_type_symbol
 _atom_site_label
 _atom_site_symmetry_multiplicity
 _atom_site_fract_x
 _atom_site_fract_y
 _atom_site_fract_z
 _atom_site_occupancy
  Yb  Yb0  1  0.498464  0.332955  0.090532  1
  Yb  Yb1  1  0.998357  0.166669  0.409454  1
  Yb  Yb2  1  0.501712  0.667421  0.590305  1
  Yb  Yb3  1  0.001403  0.832806  0.909536  1
  Yb  Yb4  1  0.501365  0.666651  0.909594  1
  Yb  Yb5  1  0.001683  0.833411  0.590567  1
  Yb  Yb6  1  0.498806  0.333137  0.409554  1
  Yb  Yb7  1  0.998358  0.166476  0.090498  1
  Si  Si8  1  0.659517  0.043340  0.545039  1
  Si  Si9  1  0.159639  0.456934  0.955231  1
  Si  Si10  1  0.340183  0.957092  0.044581  1
  Si  Si11  1  0.841232  0.542980  0.454866  1
  Si  Si12  1  0.341233  0.957216  0.454204  1
  Si  Si13  1  0.840214  0.543034  0.045144  1
  Si  Si14  1  0.659529  0.043022  0.954841  1
  Si  Si15  1  0.159466  0.457043  0.545128  1
  Si  Si16  1  0.535214  0.378588  0.749397  1
  Si  Si17  1  0.035287  0.121758  0.750656  1
  Si  Si18  1  0.465360  0.622470  0.250146  1
  Si  Si19  1  0.963822  0.877691  0.250740  1
  Si  Si20  1  0.800162  0.635652  0.750150  1
  Si  Si21  1  0.300121  0.864398  0.749938  1
  Si  Si22  1  0.200227  0.364353  0.250093  1
  Si  Si23  1  0.698919  0.135036  0.249908  1
  Mo  Mo24  1  0.664487  0.831505  0.371795  1
  Mo  Mo25  1  0.164508  0.667740  0.372135  1
  Mo  Mo26  1  0.663984  0.831755  0.128034  1
  Mo  Mo27  1  0.835524  0.332368  0.872355  1
  Mo  Mo28  1  0.335395  0.167942  0.627757  1
  W  W29  1  0.836323  0.331502  0.628470  1
  W  W30  1  0.336446  0.168532  0.871577  1
  W  W31  1  0.163525  0.668592  0.128475  1
  W  W32  1  0.659833  0.011657  0.750287  1
  W  W33  1  0.160118  0.488767  0.749988  1
  W  W34  1  0.338974  0.988650  0.249461  1
  W  W35  1  0.840612  0.510851  0.249565  1
