# generated using pymatgen
data_Ac2GaIrI2
_symmetry_space_group_name_H-M   'P 1'
_cell_length_a   4.49097400
_cell_length_b   4.49097400
_cell_length_c   12.32932700
_cell_angle_alpha   90.00000000
_cell_angle_beta   90.00000000
_cell_angle_gamma   120.00001470
_symmetry_Int_Tables_number   1
_chemical_formula_structural   Ac2GaIrI2
_chemical_formula_sum   'Ac2 Ga1 Ir1 I2'
_cell_volume   215.35304682
_cell_formula_units_Z   1
loop_
 _symmetry_equiv_pos_site_id
 _symmetry_equiv_pos_as_xyz
  1  'x, y, z'
loop_
 _atom_site_type_symbol
 _atom_site_label
 _atom_site_symmetry_multiplicity
 _atom_site_fract_x
 _atom_site_fract_y
 _atom_site_fract_z
 _atom_site_occupancy
  Ac  Ac0  1  0.000000  0.000000  0.164154  1
  Ac  Ac1  1  0.000000  0.000000  0.835325  1
  Ga  Ga2  1  0.666667  0.333333  0.999070  1
  Ir  Ir3  1  0.333333  0.666667  0.001056  1
  I  I4  1  0.333333  0.666667  0.650246  1
  I  I5  1  0.666667  0.333333  0.350148  1
