# generated using pymatgen
data_Nd3Y2(Sn5Rh2)2
_symmetry_space_group_name_H-M   'P 1'
_cell_length_a   14.17344700
_cell_length_b   14.17344700
_cell_length_c   4.58838300
_cell_angle_alpha   90.00000000
_cell_angle_beta   90.00000000
_cell_angle_gamma   90.00000000
_symmetry_Int_Tables_number   1
_chemical_formula_structural   Nd3Y2(Sn5Rh2)2
_chemical_formula_sum   'Nd6 Y4 Sn20 Rh8'
_cell_volume   921.74465973
_cell_formula_units_Z   2
loop_
 _symmetry_equiv_pos_site_id
 _symmetry_equiv_pos_as_xyz
  1  'x, y, z'
loop_
 _atom_site_type_symbol
 _atom_site_label
 _atom_site_symmetry_multiplicity
 _atom_site_fract_x
 _atom_site_fract_y
 _atom_site_fract_z
 _atom_site_occupancy
  Nd  Nd0  1  0.500000  0.500000  0.000000  1
  Nd  Nd1  1  0.000000  0.000000  0.000000  1
  Nd  Nd2  1  0.888187  0.388187  0.500000  1
  Nd  Nd3  1  0.111813  0.611813  0.500000  1
  Nd  Nd4  1  0.388187  0.111813  0.500000  1
  Nd  Nd5  1  0.611813  0.888187  0.500000  1
  Y  Y6  1  0.677097  0.177097  0.500000  1
  Y  Y7  1  0.322903  0.822903  0.500000  1
  Y  Y8  1  0.177097  0.322903  0.500000  1
  Y  Y9  1  0.822903  0.677097  0.500000  1
  Sn  Sn10  1  0.570050  0.070050  0.000000  1
  Sn  Sn11  1  0.429950  0.929950  0.000000  1
  Sn  Sn12  1  0.070050  0.429950  0.000000  1
  Sn  Sn13  1  0.929950  0.570050  0.000000  1
  Sn  Sn14  1  0.654479  0.698119  0.000000  1
  Sn  Sn15  1  0.345521  0.301881  0.000000  1
  Sn  Sn16  1  0.154479  0.801881  0.000000  1
  Sn  Sn17  1  0.845521  0.198119  0.000000  1
  Sn  Sn18  1  0.301881  0.654479  0.000000  1
  Sn  Sn19  1  0.698119  0.345521  0.000000  1
  Sn  Sn20  1  0.198119  0.154479  0.000000  1
  Sn  Sn21  1  0.801881  0.845521  0.000000  1
  Sn  Sn22  1  0.663956  0.505743  0.500000  1
  Sn  Sn23  1  0.336044  0.494257  0.500000  1
  Sn  Sn24  1  0.163956  0.994257  0.500000  1
  Sn  Sn25  1  0.836044  0.005743  0.500000  1
  Sn  Sn26  1  0.494257  0.663956  0.500000  1
  Sn  Sn27  1  0.505743  0.336044  0.500000  1
  Sn  Sn28  1  0.005743  0.163956  0.500000  1
  Sn  Sn29  1  0.994257  0.836044  0.500000  1
  Rh  Rh30  1  0.747065  0.529087  0.000000  1
  Rh  Rh31  1  0.252935  0.470913  0.000000  1
  Rh  Rh32  1  0.247065  0.970913  0.000000  1
  Rh  Rh33  1  0.752935  0.029087  0.000000  1
  Rh  Rh34  1  0.470913  0.747065  0.000000  1
  Rh  Rh35  1  0.529087  0.252935  0.000000  1
  Rh  Rh36  1  0.029087  0.247065  0.000000  1
  Rh  Rh37  1  0.970913  0.752935  0.000000  1
