# generated using pymatgen
data_Dy3TmLu4In3Co
_symmetry_space_group_name_H-M   'P 1'
_cell_length_a   10.19200400
_cell_length_b   10.19178708
_cell_length_c   7.03109500
_cell_angle_alpha   90.00000000
_cell_angle_beta   90.00000000
_cell_angle_gamma   120.00005650
_symmetry_Int_Tables_number   1
_chemical_formula_structural   Dy3TmLu4In3Co
_chemical_formula_sum   'Dy6 Tm2 Lu8 In6 Co2'
_cell_volume   632.50400246
_cell_formula_units_Z   2
loop_
 _symmetry_equiv_pos_site_id
 _symmetry_equiv_pos_as_xyz
  1  'x, y, z'
loop_
 _atom_site_type_symbol
 _atom_site_label
 _atom_site_symmetry_multiplicity
 _atom_site_fract_x
 _atom_site_fract_y
 _atom_site_fract_z
 _atom_site_occupancy
  Dy  Dy0  1  0.465176  0.534822  0.483555  1
  Dy  Dy1  1  0.069646  0.534825  0.483551  1
  Dy  Dy2  1  0.465180  0.930362  0.483559  1
  Dy  Dy3  1  0.534824  0.465178  0.983555  1
  Dy  Dy4  1  0.930354  0.465175  0.983551  1
  Dy  Dy5  1  0.534820  0.069638  0.983559  1
  Tm  Tm6  1  0.999998  0.000001  0.495450  1
  Tm  Tm7  1  0.000002  0.999999  0.995450  1
  Lu  Lu8  1  0.820578  0.179424  0.278967  1
  Lu  Lu9  1  0.358835  0.179414  0.278967  1
  Lu  Lu10  1  0.820583  0.641161  0.278969  1
  Lu  Lu11  1  0.179422  0.820576  0.778967  1
  Lu  Lu12  1  0.641165  0.820586  0.778967  1
  Lu  Lu13  1  0.179417  0.358839  0.778969  1
  Lu  Lu14  1  0.333332  0.666661  0.087919  1
  Lu  Lu15  1  0.666668  0.333339  0.587919  1
  In  In16  1  0.162921  0.837077  0.230309  1
  In  In17  1  0.674168  0.837086  0.230304  1
  In  In18  1  0.162911  0.325831  0.230354  1
  In  In19  1  0.837079  0.162923  0.730309  1
  In  In20  1  0.325832  0.162914  0.730304  1
  In  In21  1  0.837089  0.674169  0.730354  1
  Co  Co22  1  0.333332  0.666666  0.710371  1
  Co  Co23  1  0.666668  0.333334  0.210371  1
