# generated using pymatgen
data_Gd4HoGa3
_symmetry_space_group_name_H-M   'P 1'
_cell_length_a   7.67199200
_cell_length_b   7.67199200
_cell_length_c   14.37643000
_cell_angle_alpha   90.00000000
_cell_angle_beta   90.00000000
_cell_angle_gamma   90.00000000
_symmetry_Int_Tables_number   1
_chemical_formula_structural   Gd4HoGa3
_chemical_formula_sum   'Gd16 Ho4 Ga12'
_cell_volume   846.18892447
_cell_formula_units_Z   4
loop_
 _symmetry_equiv_pos_site_id
 _symmetry_equiv_pos_as_xyz
  1  'x, y, z'
loop_
 _atom_site_type_symbol
 _atom_site_label
 _atom_site_symmetry_multiplicity
 _atom_site_fract_x
 _atom_site_fract_y
 _atom_site_fract_z
 _atom_site_occupancy
  Gd  Gd0  1  0.817504  0.842275  0.602474  1
  Gd  Gd1  1  0.182496  0.842275  0.102474  1
  Gd  Gd2  1  0.157725  0.817504  0.397526  1
  Gd  Gd3  1  0.842275  0.182496  0.397526  1
  Gd  Gd4  1  0.682496  0.657725  0.397526  1
  Gd  Gd5  1  0.657725  0.317504  0.602474  1
  Gd  Gd6  1  0.342275  0.682496  0.602474  1
  Gd  Gd7  1  0.657725  0.682496  0.102474  1
  Gd  Gd8  1  0.682496  0.342275  0.897526  1
  Gd  Gd9  1  0.842275  0.817504  0.897526  1
  Gd  Gd10  1  0.317504  0.342275  0.397526  1
  Gd  Gd11  1  0.182496  0.157725  0.602474  1
  Gd  Gd12  1  0.817504  0.157725  0.102474  1
  Gd  Gd13  1  0.317504  0.657725  0.897526  1
  Gd  Gd14  1  0.342275  0.317504  0.102474  1
  Gd  Gd15  1  0.157725  0.182496  0.897526  1
  Ho  Ho16  1  0.000000  0.500000  0.728835  1
  Ho  Ho17  1  0.000000  0.500000  0.228835  1
  Ho  Ho18  1  0.500000  0.000000  0.271165  1
  Ho  Ho19  1  0.500000  0.000000  0.771165  1
  Ga  Ga20  1  0.622511  0.377489  0.250000  1
  Ga  Ga21  1  0.122511  0.877489  0.750000  1
  Ga  Ga22  1  0.377489  0.377489  0.750000  1
  Ga  Ga23  1  0.377489  0.622511  0.250000  1
  Ga  Ga24  1  0.877489  0.877489  0.250000  1
  Ga  Ga25  1  0.622511  0.622511  0.750000  1
  Ga  Ga26  1  0.000000  0.500000  0.509447  1
  Ga  Ga27  1  0.877489  0.122511  0.750000  1
  Ga  Ga28  1  0.500000  0.000000  0.490553  1
  Ga  Ga29  1  0.500000  0.000000  0.990553  1
  Ga  Ga30  1  0.122511  0.122511  0.250000  1
  Ga  Ga31  1  0.000000  0.500000  0.009447  1
