# generated using pymatgen
data_Sm6ZnSi5Rh12
_symmetry_space_group_name_H-M   'P 1'
_cell_length_a   5.62698600
_cell_length_b   5.62698479
_cell_length_c   15.20328600
_cell_angle_alpha   90.00000000
_cell_angle_beta   90.00000000
_cell_angle_gamma   119.99999537
_symmetry_Int_Tables_number   1
_chemical_formula_structural   Sm6ZnSi5Rh12
_chemical_formula_sum   'Sm6 Zn1 Si5 Rh12'
_cell_volume   416.88828679
_cell_formula_units_Z   1
loop_
 _symmetry_equiv_pos_site_id
 _symmetry_equiv_pos_as_xyz
  1  'x, y, z'
loop_
 _atom_site_type_symbol
 _atom_site_label
 _atom_site_symmetry_multiplicity
 _atom_site_fract_x
 _atom_site_fract_y
 _atom_site_fract_z
 _atom_site_occupancy
  Sm  Sm0  1  0.333333  0.666667  0.538852  1
  Sm  Sm1  1  0.666667  0.333333  0.461148  1
  Sm  Sm2  1  0.666667  0.333333  0.037352  1
  Sm  Sm3  1  0.333333  0.666667  0.962648  1
  Sm  Sm4  1  0.333333  0.666667  0.750450  1
  Sm  Sm5  1  0.666667  0.333333  0.249550  1
  Zn  Zn6  1  0.000000  0.000000  0.000000  1
  Si  Si7  1  0.000000  0.000000  0.251909  1
  Si  Si8  1  0.000000  0.000000  0.748091  1
  Si  Si9  1  0.333333  0.666667  0.252072  1
  Si  Si10  1  0.666667  0.333333  0.747928  1
  Si  Si11  1  0.000000  0.000000  0.500000  1
  Rh  Rh12  1  0.167260  0.334521  0.136671  1
  Rh  Rh13  1  0.832740  0.665479  0.863329  1
  Rh  Rh14  1  0.665479  0.832740  0.136671  1
  Rh  Rh15  1  0.833469  0.666939  0.630801  1
  Rh  Rh16  1  0.334521  0.167260  0.863329  1
  Rh  Rh17  1  0.166531  0.333061  0.369199  1
  Rh  Rh18  1  0.167260  0.832740  0.136671  1
  Rh  Rh19  1  0.333061  0.166531  0.630801  1
  Rh  Rh20  1  0.832740  0.167260  0.863329  1
  Rh  Rh21  1  0.666939  0.833469  0.369199  1
  Rh  Rh22  1  0.833469  0.166531  0.630801  1
  Rh  Rh23  1  0.166531  0.833469  0.369199  1
