# generated using pymatgen
data_PrHoEr2(Ir2O7)2
_symmetry_space_group_name_H-M   'P 1'
_cell_length_a   7.30428108
_cell_length_b   7.24613391
_cell_length_c   7.23871800
_cell_angle_alpha   60.03384902
_cell_angle_beta   60.29648145
_cell_angle_gamma   60.32323570
_symmetry_Int_Tables_number   1
_chemical_formula_structural   PrHoEr2(Ir2O7)2
_chemical_formula_sum   'Pr1 Ho1 Er2 Ir4 O14'
_cell_volume   272.24547727
_cell_formula_units_Z   1
loop_
 _symmetry_equiv_pos_site_id
 _symmetry_equiv_pos_as_xyz
  1  'x, y, z'
loop_
 _atom_site_type_symbol
 _atom_site_label
 _atom_site_symmetry_multiplicity
 _atom_site_fract_x
 _atom_site_fract_y
 _atom_site_fract_z
 _atom_site_occupancy
  Pr  Pr0  1  0.625000  0.125000  0.125000  1
  Ho  Ho1  1  0.125000  0.625000  0.125000  1
  Er  Er2  1  0.125000  0.125000  0.625000  1
  Er  Er3  1  0.125000  0.125000  0.125000  1
  Ir  Ir4  1  0.625000  0.625000  0.625000  1
  Ir  Ir5  1  0.125000  0.625000  0.625000  1
  Ir  Ir6  1  0.625000  0.125000  0.625000  1
  Ir  Ir7  1  0.625000  0.625000  0.125000  1
  O  O8  1  0.962664  0.537599  0.538584  1
  O  O9  1  0.287087  0.288552  0.712181  1
  O  O10  1  0.962664  0.537599  0.961153  1
  O  O11  1  0.722603  0.288442  0.288497  1
  O  O12  1  0.528224  0.549264  0.961256  1
  O  O13  1  0.527397  0.961558  0.549542  1
  O  O14  1  0.527397  0.961558  0.961503  1
  O  O15  1  0.236402  0.252955  0.255322  1
  O  O16  1  0.287336  0.712401  0.711416  1
  O  O17  1  0.722603  0.288442  0.700458  1
  O  O18  1  0.013598  0.997045  0.994678  1
  O  O19  1  0.962913  0.961448  0.537819  1
  O  O20  1  0.287336  0.712401  0.288847  1
  O  O21  1  0.721776  0.700736  0.288744  1
