# generated using pymatgen
data_Zr3BeTc2P2Ir
_symmetry_space_group_name_H-M   'P 1'
_cell_length_a   6.50253600
_cell_length_b   6.50253624
_cell_length_c   3.75110100
_cell_angle_alpha   90.00000000
_cell_angle_beta   90.00000000
_cell_angle_gamma   120.14513111
_symmetry_Int_Tables_number   1
_chemical_formula_structural   Zr3BeTc2P2Ir
_chemical_formula_sum   'Zr3 Be1 Tc2 P2 Ir1'
_cell_volume   137.15699073
_cell_formula_units_Z   1
loop_
 _symmetry_equiv_pos_site_id
 _symmetry_equiv_pos_as_xyz
  1  'x, y, z'
loop_
 _atom_site_type_symbol
 _atom_site_label
 _atom_site_symmetry_multiplicity
 _atom_site_fract_x
 _atom_site_fract_y
 _atom_site_fract_z
 _atom_site_occupancy
  Zr  Zr0  1  0.409008  0.409008  0.500000  1
  Zr  Zr1  1  0.590954  0.003130  0.500000  1
  Zr  Zr2  1  0.003130  0.590954  0.500000  1
  Be  Be3  1  0.992763  0.992763  0.500000  1
  Tc  Tc4  1  0.243198  0.001540  0.000000  1
  Tc  Tc5  1  0.001540  0.243198  0.000000  1
  P  P6  1  0.667176  0.333066  0.000000  1
  P  P7  1  0.333066  0.667176  0.000000  1
  Ir  Ir8  1  0.759165  0.759165  0.000000  1
