# generated using pymatgen
data_Lu2Mn4SiGeC2
_symmetry_space_group_name_H-M   'P 1'
_cell_length_a   5.62340800
_cell_length_b   5.62340818
_cell_length_c   7.03398200
_cell_angle_alpha   90.00000000
_cell_angle_beta   90.00000000
_cell_angle_gamma   142.35758056
_symmetry_Int_Tables_number   1
_chemical_formula_structural   Lu2Mn4SiGeC2
_chemical_formula_sum   'Lu2 Mn4 Si1 Ge1 C2'
_cell_volume   135.84724315
_cell_formula_units_Z   1
loop_
 _symmetry_equiv_pos_site_id
 _symmetry_equiv_pos_as_xyz
  1  'x, y, z'
loop_
 _atom_site_type_symbol
 _atom_site_label
 _atom_site_symmetry_multiplicity
 _atom_site_fract_x
 _atom_site_fract_y
 _atom_site_fract_z
 _atom_site_occupancy
  Lu  Lu0  1  0.539169  0.460831  0.250000  1
  Lu  Lu1  1  0.459774  0.540226  0.750000  1
  Mn  Mn2  1  0.834203  0.165797  0.053777  1
  Mn  Mn3  1  0.166110  0.833890  0.934314  1
  Mn  Mn4  1  0.166110  0.833890  0.565686  1
  Mn  Mn5  1  0.834203  0.165797  0.446223  1
  Si  Si6  1  0.738429  0.261571  0.750000  1
  Ge  Ge7  1  0.260899  0.739101  0.250000  1
  C  C8  1  0.000552  0.999448  0.998285  1
  C  C9  1  0.000552  0.999448  0.501715  1
