# generated using pymatgen
data_ZnNiHg4(SeO6)2
_symmetry_space_group_name_H-M   'P 1'
_cell_length_a   6.74846449
_cell_length_b   7.13587121
_cell_length_c   7.45384115
_cell_angle_alpha   74.72435852
_cell_angle_beta   67.69623042
_cell_angle_gamma   64.83939711
_symmetry_Int_Tables_number   1
_chemical_formula_structural   ZnNiHg4(SeO6)2
_chemical_formula_sum   'Zn1 Ni1 Hg4 Se2 O12'
_cell_volume   298.34154239
_cell_formula_units_Z   1
loop_
 _symmetry_equiv_pos_site_id
 _symmetry_equiv_pos_as_xyz
  1  'x, y, z'
loop_
 _atom_site_type_symbol
 _atom_site_label
 _atom_site_symmetry_multiplicity
 _atom_site_fract_x
 _atom_site_fract_y
 _atom_site_fract_z
 _atom_site_occupancy
  Zn  Zn0  1  0.661250  0.869240  0.798320  1
  Ni  Ni1  1  0.341137  0.129657  0.200330  1
  Hg  Hg2  1  0.846045  0.638737  0.200501  1
  Hg  Hg3  1  0.152483  0.360058  0.804453  1
  Hg  Hg4  1  0.654195  0.363679  0.802768  1
  Hg  Hg5  1  0.344777  0.635006  0.199904  1
  Se  Se6  1  0.792475  0.125488  0.327832  1
  Se  Se7  1  0.208905  0.875307  0.668143  1
  O  O8  1  0.635054  0.174759  0.179495  1
  O  O9  1  0.451148  0.180960  0.881032  1
  O  O10  1  0.934869  0.927372  0.816931  1
  O  O11  1  0.779287  0.909901  0.484092  1
  O  O12  1  0.299844  0.663584  0.561877  1
  O  O13  1  0.165873  0.450956  0.226193  1
  O  O14  1  0.225429  0.088544  0.509204  1
  O  O15  1  0.543968  0.819340  0.130012  1
  O  O16  1  0.364949  0.826918  0.817485  1
  O  O17  1  0.835048  0.547446  0.772916  1
  O  O18  1  0.697811  0.334274  0.439463  1
  O  O19  1  0.065452  0.078773  0.179049  1
