# generated using pymatgen
data_Y2Er4Al24Ru7Au
_symmetry_space_group_name_H-M   'P 1'
_cell_length_a   8.83371074
_cell_length_b   8.82925741
_cell_length_c   9.54720135
_cell_angle_alpha   89.84372391
_cell_angle_beta   90.11520226
_cell_angle_gamma   119.90086595
_symmetry_Int_Tables_number   1
_chemical_formula_structural   Y2Er4Al24Ru7Au
_chemical_formula_sum   'Y2 Er4 Al24 Ru7 Au1'
_cell_volume   645.51345126
_cell_formula_units_Z   1
loop_
 _symmetry_equiv_pos_site_id
 _symmetry_equiv_pos_as_xyz
  1  'x, y, z'
loop_
 _atom_site_type_symbol
 _atom_site_label
 _atom_site_symmetry_multiplicity
 _atom_site_fract_x
 _atom_site_fract_y
 _atom_site_fract_z
 _atom_site_occupancy
  Y  Y0  1  0.192639  0.386703  0.249597  1
  Y  Y1  1  0.807361  0.613297  0.750403  1
  Er  Er2  1  0.612477  0.807543  0.250029  1
  Er  Er3  1  0.387523  0.192457  0.749971  1
  Er  Er4  1  0.195030  0.805255  0.253504  1
  Er  Er5  1  0.804970  0.194745  0.746496  1
  Al  Al6  1  0.328299  0.672320  0.023508  1
  Al  Al7  1  0.671701  0.327680  0.976492  1
  Al  Al8  1  0.666469  0.333007  0.517512  1
  Al  Al9  1  0.333531  0.666993  0.482488  1
  Al  Al10  1  0.162492  0.323966  0.578598  1
  Al  Al11  1  0.837508  0.676034  0.421402  1
  Al  Al12  1  0.675951  0.837785  0.578088  1
  Al  Al13  1  0.849077  0.678398  0.080752  1
  Al  Al14  1  0.324049  0.162215  0.421912  1
  Al  Al15  1  0.150923  0.321602  0.919248  1
  Al  Al16  1  0.162941  0.837609  0.578780  1
  Al  Al17  1  0.321682  0.150750  0.080269  1
  Al  Al18  1  0.837059  0.162391  0.421220  1
  Al  Al19  1  0.678318  0.849250  0.919731  1
  Al  Al20  1  0.837145  0.162303  0.078027  1
  Al  Al21  1  0.162855  0.837697  0.921973  1
  Al  Al22  1  0.560402  0.120733  0.248364  1
  Al  Al23  1  0.439598  0.879267  0.751636  1
  Al  Al24  1  0.878744  0.439728  0.248403  1
  Al  Al25  1  0.121256  0.560272  0.751597  1
  Al  Al26  1  0.563994  0.436770  0.255700  1
  Al  Al27  1  0.436006  0.563230  0.744300  1
  Al  Al28  1  0.998922  0.999735  0.250121  1
  Al  Al29  1  0.001078  0.000265  0.749879  1
  Ru  Ru30  1  0.500000  0.000000  0.000000  1
  Ru  Ru31  1  0.000000  0.500000  0.000000  1
  Ru  Ru32  1  0.500000  0.000000  0.500000  1
  Ru  Ru33  1  0.000000  0.500000  0.500000  1
  Ru  Ru34  1  0.500000  0.500000  0.500000  1
  Ru  Ru35  1  0.000000  0.000000  0.000000  1
  Ru  Ru36  1  0.000000  0.000000  0.500000  1
  Au  Au37  1  0.500000  0.500000  0.000000  1
