# generated using pymatgen
data_Rb4Cd4Si4SbAs7
_symmetry_space_group_name_H-M   'P 1'
_cell_length_a   8.56396012
_cell_length_b   8.63519823
_cell_length_c   8.81691767
_cell_angle_alpha   71.13510543
_cell_angle_beta   75.46854792
_cell_angle_gamma   72.95455886
_symmetry_Int_Tables_number   1
_chemical_formula_structural   Rb4Cd4Si4SbAs7
_chemical_formula_sum   'Rb4 Cd4 Si4 Sb1 As7'
_cell_volume   581.04605358
_cell_formula_units_Z   1
loop_
 _symmetry_equiv_pos_site_id
 _symmetry_equiv_pos_as_xyz
  1  'x, y, z'
loop_
 _atom_site_type_symbol
 _atom_site_label
 _atom_site_symmetry_multiplicity
 _atom_site_fract_x
 _atom_site_fract_y
 _atom_site_fract_z
 _atom_site_occupancy
  Rb  Rb0  1  0.439909  0.765888  0.318951  1
  Rb  Rb1  1  0.556881  0.238211  0.679047  1
  Rb  Rb2  1  0.428985  0.797695  0.821826  1
  Rb  Rb3  1  0.565221  0.207560  0.175982  1
  Cd  Cd4  1  0.000700  0.897313  0.689352  1
  Cd  Cd5  1  0.004659  0.109052  0.306518  1
  Cd  Cd6  1  0.964650  0.815858  0.164213  1
  Cd  Cd7  1  0.040639  0.180569  0.828579  1
  Si  Si8  1  0.966082  0.573325  0.603836  1
  Si  Si9  1  0.038436  0.414100  0.405107  1
  Si  Si10  1  0.145564  0.447627  0.979044  1
  Si  Si11  1  0.857512  0.551199  0.022879  1
  Sb  Sb12  1  0.792724  0.871661  0.470264  1
  As  As13  1  0.190937  0.135376  0.530117  1
  As  As14  1  0.789732  0.418209  0.311225  1
  As  As15  1  0.211738  0.584070  0.690751  1
  As  As16  1  0.767047  0.852781  0.960553  1
  As  As17  1  0.236470  0.146305  0.034818  1
  As  As18  1  0.776669  0.449546  0.832855  1
  As  As19  1  0.225447  0.543657  0.174084  1
