# generated using pymatgen
data_Dy2Ga2FeTc14C3
_symmetry_space_group_name_H-M   'P 1'
_cell_length_a   6.94257257
_cell_length_b   6.94257265
_cell_length_c   6.90821971
_cell_angle_alpha   82.38369951
_cell_angle_beta   82.38369026
_cell_angle_gamma   82.18053572
_symmetry_Int_Tables_number   1
_chemical_formula_structural   Dy2Ga2FeTc14C3
_chemical_formula_sum   'Dy2 Ga2 Fe1 Tc14 C3'
_cell_volume   324.73455387
_cell_formula_units_Z   1
loop_
 _symmetry_equiv_pos_site_id
 _symmetry_equiv_pos_as_xyz
  1  'x, y, z'
loop_
 _atom_site_type_symbol
 _atom_site_label
 _atom_site_symmetry_multiplicity
 _atom_site_fract_x
 _atom_site_fract_y
 _atom_site_fract_z
 _atom_site_occupancy
  Dy  Dy0  1  0.656486  0.656486  0.653754  1
  Dy  Dy1  1  0.343514  0.343514  0.346246  1
  Ga  Ga2  1  0.500000  0.000000  0.000000  1
  Ga  Ga3  1  0.000000  0.500000  0.000000  1
  Fe  Fe4  1  0.000000  0.000000  0.500000  1
  Tc  Tc5  1  0.722983  0.277017  0.000000  1
  Tc  Tc6  1  0.003196  0.727031  0.277824  1
  Tc  Tc7  1  0.272969  0.996804  0.722176  1
  Tc  Tc8  1  0.996804  0.272969  0.722176  1
  Tc  Tc9  1  0.727031  0.003196  0.277824  1
  Tc  Tc10  1  0.277017  0.722983  0.000000  1
  Tc  Tc11  1  0.350706  0.350706  0.847534  1
  Tc  Tc12  1  0.853182  0.349778  0.355494  1
  Tc  Tc13  1  0.349778  0.853182  0.355494  1
  Tc  Tc14  1  0.649294  0.649294  0.152466  1
  Tc  Tc15  1  0.146818  0.650222  0.644506  1
  Tc  Tc16  1  0.650222  0.146818  0.644506  1
  Tc  Tc17  1  0.906132  0.906132  0.895757  1
  Tc  Tc18  1  0.093868  0.093868  0.104243  1
  C  C19  1  0.500000  0.500000  0.000000  1
  C  C20  1  0.000000  0.500000  0.500000  1
  C  C21  1  0.500000  0.000000  0.500000  1
