# generated using pymatgen
data_TbYIrRhO7
_symmetry_space_group_name_H-M   'P 1'
_cell_length_a   7.27398043
_cell_length_b   7.26298546
_cell_length_c   7.26298553
_cell_angle_alpha   59.87527994
_cell_angle_beta   59.94990955
_cell_angle_gamma   59.94991209
_symmetry_Int_Tables_number   1
_chemical_formula_structural   TbYIrRhO7
_chemical_formula_sum   'Tb2 Y2 Ir2 Rh2 O14'
_cell_volume   270.86186151
_cell_formula_units_Z   2
loop_
 _symmetry_equiv_pos_site_id
 _symmetry_equiv_pos_as_xyz
  1  'x, y, z'
loop_
 _atom_site_type_symbol
 _atom_site_label
 _atom_site_symmetry_multiplicity
 _atom_site_fract_x
 _atom_site_fract_y
 _atom_site_fract_z
 _atom_site_occupancy
  Tb  Tb0  1  0.625000  0.125000  0.125000  1
  Tb  Tb1  1  0.125000  0.125000  0.125000  1
  Y  Y2  1  0.125000  0.625000  0.125000  1
  Y  Y3  1  0.125000  0.125000  0.625000  1
  Ir  Ir4  1  0.125000  0.625000  0.625000  1
  Ir  Ir5  1  0.625000  0.625000  0.625000  1
  Rh  Rh6  1  0.625000  0.125000  0.625000  1
  Rh  Rh7  1  0.625000  0.625000  0.125000  1
  O  O8  1  0.715000  0.708097  0.290721  1
  O  O9  1  0.286183  0.290721  0.708097  1
  O  O10  1  0.715000  0.290721  0.708097  1
  O  O11  1  0.286183  0.708097  0.290721  1
  O  O12  1  0.291696  0.708304  0.708304  1
  O  O13  1  0.715531  0.284469  0.284469  1
  O  O14  1  0.535000  0.541903  0.959279  1
  O  O15  1  0.963817  0.959279  0.541903  1
  O  O16  1  0.535000  0.959279  0.541903  1
  O  O17  1  0.963817  0.541903  0.959279  1
  O  O18  1  0.958304  0.541696  0.541696  1
  O  O19  1  0.534469  0.965531  0.965531  1
  O  O20  1  0.248308  0.251692  0.251692  1
  O  O21  1  0.001692  0.998308  0.998308  1
