# generated using pymatgen
data_EuCrSeO6
_symmetry_space_group_name_H-M   'P 1'
_cell_length_a   5.05621462
_cell_length_b   5.05908033
_cell_length_c   10.16800723
_cell_angle_alpha   90.24175935
_cell_angle_beta   89.79072165
_cell_angle_gamma   120.02091245
_symmetry_Int_Tables_number   1
_chemical_formula_structural   EuCrSeO6
_chemical_formula_sum   'Eu2 Cr2 Se2 O12'
_cell_volume   225.19951071
_cell_formula_units_Z   2
loop_
 _symmetry_equiv_pos_site_id
 _symmetry_equiv_pos_as_xyz
  1  'x, y, z'
loop_
 _atom_site_type_symbol
 _atom_site_label
 _atom_site_symmetry_multiplicity
 _atom_site_fract_x
 _atom_site_fract_y
 _atom_site_fract_z
 _atom_site_occupancy
  Eu  Eu0  1  0.000006  0.000004  0.000000  1
  Eu  Eu1  1  0.000001  0.999982  0.499997  1
  Cr  Cr2  1  0.333350  0.666595  0.249968  1
  Cr  Cr3  1  0.666656  0.333414  0.750032  1
  Se  Se4  1  0.666261  0.333049  0.249950  1
  Se  Se5  1  0.333739  0.666954  0.750048  1
  O  O6  1  0.384833  0.022121  0.146629  1
  O  O7  1  0.639212  0.614691  0.146763  1
  O  O8  1  0.977593  0.361151  0.146615  1
  O  O9  1  0.976487  0.616031  0.353239  1
  O  O10  1  0.638256  0.023906  0.353231  1
  O  O11  1  0.384183  0.362573  0.353363  1
  O  O12  1  0.615820  0.637430  0.646636  1
  O  O13  1  0.361736  0.976096  0.646773  1
  O  O14  1  0.023514  0.383967  0.646759  1
  O  O15  1  0.022403  0.638840  0.853389  1
  O  O16  1  0.360784  0.385308  0.853234  1
  O  O17  1  0.615163  0.977879  0.853371  1
