# generated using pymatgen
data_Tm6Al17Si7Ru8
_symmetry_space_group_name_H-M   'P 1'
_cell_length_a   8.63910127
_cell_length_b   8.63064325
_cell_length_c   9.46570000
_cell_angle_alpha   90.00000000
_cell_angle_beta   90.00000000
_cell_angle_gamma   120.11538798
_symmetry_Int_Tables_number   1
_chemical_formula_structural   Tm6Al17Si7Ru8
_chemical_formula_sum   'Tm6 Al17 Si7 Ru8'
_cell_volume   610.50462375
_cell_formula_units_Z   1
loop_
 _symmetry_equiv_pos_site_id
 _symmetry_equiv_pos_as_xyz
  1  'x, y, z'
loop_
 _atom_site_type_symbol
 _atom_site_label
 _atom_site_symmetry_multiplicity
 _atom_site_fract_x
 _atom_site_fract_y
 _atom_site_fract_z
 _atom_site_occupancy
  Tm  Tm0  1  0.192487  0.388713  0.250000  1
  Tm  Tm1  1  0.806468  0.613276  0.750000  1
  Tm  Tm2  1  0.610598  0.807463  0.250000  1
  Tm  Tm3  1  0.388788  0.191183  0.750000  1
  Tm  Tm4  1  0.195665  0.805125  0.250000  1
  Tm  Tm5  1  0.801984  0.191435  0.750000  1
  Al  Al6  1  0.164017  0.329207  0.579804  1
  Al  Al7  1  0.834692  0.671288  0.419156  1
  Al  Al8  1  0.671448  0.835536  0.579249  1
  Al  Al9  1  0.834692  0.671288  0.080844  1
  Al  Al10  1  0.329578  0.165407  0.420613  1
  Al  Al11  1  0.164017  0.329207  0.920196  1
  Al  Al12  1  0.163893  0.834755  0.578023  1
  Al  Al13  1  0.329578  0.165407  0.079387  1
  Al  Al14  1  0.835389  0.164112  0.419972  1
  Al  Al15  1  0.671448  0.835536  0.920751  1
  Al  Al16  1  0.835389  0.164112  0.080028  1
  Al  Al17  1  0.163893  0.834755  0.921977  1
  Al  Al18  1  0.124463  0.564819  0.750000  1
  Al  Al19  1  0.563961  0.435781  0.250000  1
  Al  Al20  1  0.439326  0.565556  0.750000  1
  Al  Al21  1  0.999766  0.999105  0.250000  1
  Al  Al22  1  0.999943  0.001128  0.750000  1
  Si  Si23  1  0.333474  0.664498  0.039951  1
  Si  Si24  1  0.666529  0.335853  0.958617  1
  Si  Si25  1  0.666529  0.335853  0.541383  1
  Si  Si26  1  0.333474  0.664498  0.460049  1
  Si  Si27  1  0.564286  0.123346  0.250000  1
  Si  Si28  1  0.437123  0.874484  0.750000  1
  Si  Si29  1  0.875903  0.435346  0.250000  1
  Ru  Ru30  1  0.500988  0.001227  0.000816  1
  Ru  Ru31  1  0.998421  0.499368  0.006264  1
  Ru  Ru32  1  0.500988  0.001227  0.499184  1
  Ru  Ru33  1  0.500659  0.500047  0.000133  1
  Ru  Ru34  1  0.998421  0.499368  0.493736  1
  Ru  Ru35  1  0.500659  0.500047  0.499867  1
  Ru  Ru36  1  0.000532  0.000323  0.999714  1
  Ru  Ru37  1  0.000532  0.000323  0.500286  1
