# generated using pymatgen
data_ErZn2CdCuIr
_symmetry_space_group_name_H-M   'P 1'
_cell_length_a   5.21114889
_cell_length_b   5.22155031
_cell_length_c   5.19457374
_cell_angle_alpha   61.24484729
_cell_angle_beta   59.89439147
_cell_angle_gamma   60.06587060
_symmetry_Int_Tables_number   1
_chemical_formula_structural   ErZn2CdCuIr
_chemical_formula_sum   'Er1 Zn2 Cd1 Cu1 Ir1'
_cell_volume   100.82142618
_cell_formula_units_Z   1
loop_
 _symmetry_equiv_pos_site_id
 _symmetry_equiv_pos_as_xyz
  1  'x, y, z'
loop_
 _atom_site_type_symbol
 _atom_site_label
 _atom_site_symmetry_multiplicity
 _atom_site_fract_x
 _atom_site_fract_y
 _atom_site_fract_z
 _atom_site_occupancy
  Er  Er0  1  0.744520  0.759523  0.751437  1
  Zn  Zn1  1  0.376740  0.373175  0.372321  1
  Zn  Zn2  1  0.877762  0.373175  0.372321  1
  Cd  Cd3  1  0.999880  0.996662  0.003577  1
  Cu  Cu4  1  0.375194  0.373541  0.876070  1
  Ir  Ir5  1  0.375903  0.873921  0.374272  1
