# generated using pymatgen
data_Tm5Ag4Hg
_symmetry_space_group_name_H-M   'P 1'
_cell_length_a   3.61834100
_cell_length_b   3.61834100
_cell_length_c   17.91511400
_cell_angle_alpha   90.00000000
_cell_angle_beta   90.00000000
_cell_angle_gamma   90.00000000
_symmetry_Int_Tables_number   1
_chemical_formula_structural   Tm5Ag4Hg
_chemical_formula_sum   'Tm5 Ag4 Hg1'
_cell_volume   234.55168791
_cell_formula_units_Z   1
loop_
 _symmetry_equiv_pos_site_id
 _symmetry_equiv_pos_as_xyz
  1  'x, y, z'
loop_
 _atom_site_type_symbol
 _atom_site_label
 _atom_site_symmetry_multiplicity
 _atom_site_fract_x
 _atom_site_fract_y
 _atom_site_fract_z
 _atom_site_occupancy
  Tm  Tm0  1  0.500000  0.500000  0.105463  1
  Tm  Tm1  1  0.500000  0.500000  0.302331  1
  Tm  Tm2  1  0.500000  0.500000  0.500000  1
  Tm  Tm3  1  0.500000  0.500000  0.697669  1
  Tm  Tm4  1  0.500000  0.500000  0.894537  1
  Ag  Ag5  1  0.000000  0.000000  0.204496  1
  Ag  Ag6  1  0.000000  0.000000  0.401917  1
  Ag  Ag7  1  0.000000  0.000000  0.598083  1
  Ag  Ag8  1  0.000000  0.000000  0.795504  1
  Hg  Hg9  1  0.000000  0.000000  0.000000  1
