# generated using pymatgen
data_Sr2LiZnPd2
_symmetry_space_group_name_H-M   'P 1'
_cell_length_a   7.47749819
_cell_length_b   4.39688800
_cell_length_c   8.53474276
_cell_angle_alpha   90.00000000
_cell_angle_beta   90.33077655
_cell_angle_gamma   90.00000000
_symmetry_Int_Tables_number   1
_chemical_formula_structural   Sr2LiZnPd2
_chemical_formula_sum   'Sr4 Li2 Zn2 Pd4'
_cell_volume   280.59822422
_cell_formula_units_Z   2
loop_
 _symmetry_equiv_pos_site_id
 _symmetry_equiv_pos_as_xyz
  1  'x, y, z'
loop_
 _atom_site_type_symbol
 _atom_site_label
 _atom_site_symmetry_multiplicity
 _atom_site_fract_x
 _atom_site_fract_y
 _atom_site_fract_z
 _atom_site_occupancy
  Sr  Sr0  1  0.474509  0.750000  0.815783  1
  Sr  Sr1  1  0.024857  0.250000  0.311707  1
  Sr  Sr2  1  0.525413  0.250000  0.189046  1
  Sr  Sr3  1  0.974564  0.750000  0.683437  1
  Li  Li4  1  0.366393  0.750000  0.444324  1
  Li  Li5  1  0.866244  0.750000  0.055850  1
  Zn  Zn6  1  0.636954  0.250000  0.564878  1
  Zn  Zn7  1  0.136694  0.250000  0.934716  1
  Pd  Pd8  1  0.279242  0.250000  0.622695  1
  Pd  Pd9  1  0.779226  0.250000  0.877336  1
  Pd  Pd10  1  0.718146  0.750000  0.398937  1
  Pd  Pd11  1  0.217756  0.750000  0.101291  1
