# generated using pymatgen
data_Zr6Ta2Fe3Co13P12
_symmetry_space_group_name_H-M   'P 1'
_cell_length_a   12.05840082
_cell_length_b   12.01721808
_cell_length_c   3.65249500
_cell_angle_alpha   90.00000000
_cell_angle_beta   90.00000000
_cell_angle_gamma   120.01579987
_symmetry_Int_Tables_number   1
_chemical_formula_structural   Zr6Ta2Fe3Co13P12
_chemical_formula_sum   'Zr6 Ta2 Fe3 Co13 P12'
_cell_volume   458.29461475
_cell_formula_units_Z   1
loop_
 _symmetry_equiv_pos_site_id
 _symmetry_equiv_pos_as_xyz
  1  'x, y, z'
loop_
 _atom_site_type_symbol
 _atom_site_label
 _atom_site_symmetry_multiplicity
 _atom_site_fract_x
 _atom_site_fract_y
 _atom_site_fract_z
 _atom_site_occupancy
  Zr  Zr0  1  0.999635  0.555949  0.000000  1
  Zr  Zr1  1  0.666165  0.334761  0.000000  1
  Zr  Zr2  1  0.332963  0.667566  0.000000  1
  Zr  Zr3  1  0.821764  0.820631  0.500000  1
  Zr  Zr4  1  0.178085  0.999257  0.500000  1
  Zr  Zr5  1  0.000728  0.178272  0.500000  1
  Ta  Ta6  1  0.444191  0.445145  0.000000  1
  Ta  Ta7  1  0.555021  0.000667  0.000000  1
  Fe  Fe8  1  0.198031  0.372382  0.000000  1
  Fe  Fe9  1  0.180857  0.807137  0.000000  1
  Fe  Fe10  1  0.818997  0.626299  0.000000  1
  Co  Co11  1  0.804251  0.175514  0.000000  1
  Co  Co12  1  0.373357  0.195230  0.000000  1
  Co  Co13  1  0.126706  0.479610  0.500000  1
  Co  Co14  1  0.359267  0.876316  0.500000  1
  Co  Co15  1  0.515687  0.644653  0.500000  1
  Co  Co16  1  0.640934  0.517254  0.500000  1
  Co  Co17  1  0.870521  0.351618  0.500000  1
  Co  Co18  1  0.484006  0.129066  0.500000  1
  Co  Co19  1  0.000028  0.999737  0.000000  1
  Co  Co20  1  0.720516  0.999516  0.500000  1
  Co  Co21  1  0.000009  0.722534  0.500000  1
  Co  Co22  1  0.626929  0.822570  0.000000  1
  Co  Co23  1  0.280905  0.278179  0.500000  1
  P  P24  1  0.649562  0.649491  0.000000  1
  P  P25  1  0.350512  0.999899  0.000000  1
  P  P26  1  0.002444  0.346547  0.000000  1
  P  P27  1  0.481766  0.312015  0.500000  1
  P  P28  1  0.688557  0.170184  0.500000  1
  P  P29  1  0.825638  0.520414  0.500000  1
  P  P30  1  0.518206  0.830002  0.500000  1
  P  P31  1  0.174295  0.694109  0.500000  1
  P  P32  1  0.824705  0.998865  0.000000  1
  P  P33  1  0.000301  0.823271  0.000000  1
  P  P34  1  0.309116  0.479808  0.500000  1
  P  P35  1  0.175346  0.175532  0.000000  1
