# generated using pymatgen
data_Lu16Zn3CdCo4
_symmetry_space_group_name_H-M   'P 1'
_cell_length_a   9.19528717
_cell_length_b   9.18620977
_cell_length_c   9.18701103
_cell_angle_alpha   60.00418718
_cell_angle_beta   60.03248344
_cell_angle_gamma   60.03349864
_symmetry_Int_Tables_number   1
_chemical_formula_structural   Lu16Zn3CdCo4
_chemical_formula_sum   'Lu16 Zn3 Cd1 Co4'
_cell_volume   549.02362795
_cell_formula_units_Z   1
loop_
 _symmetry_equiv_pos_site_id
 _symmetry_equiv_pos_as_xyz
  1  'x, y, z'
loop_
 _atom_site_type_symbol
 _atom_site_label
 _atom_site_symmetry_multiplicity
 _atom_site_fract_x
 _atom_site_fract_y
 _atom_site_fract_z
 _atom_site_occupancy
  Lu  Lu0  1  0.150530  0.545779  0.151778  1
  Lu  Lu1  1  0.690240  0.309695  0.690338  1
  Lu  Lu2  1  0.690378  0.309692  0.309672  1
  Lu  Lu3  1  0.938445  0.562220  0.562262  1
  Lu  Lu4  1  0.549859  0.150099  0.149961  1
  Lu  Lu5  1  0.150458  0.151806  0.545915  1
  Lu  Lu6  1  0.938490  0.937095  0.562193  1
  Lu  Lu7  1  0.310215  0.689309  0.311210  1
  Lu  Lu8  1  0.566299  0.937614  0.937675  1
  Lu  Lu9  1  0.566334  0.937615  0.558408  1
  Lu  Lu10  1  0.690343  0.690283  0.309660  1
  Lu  Lu11  1  0.566333  0.558440  0.937624  1
  Lu  Lu12  1  0.938428  0.562235  0.937093  1
  Lu  Lu13  1  0.310207  0.689178  0.689351  1
  Lu  Lu14  1  0.150513  0.151942  0.151801  1
  Lu  Lu15  1  0.310218  0.311228  0.689376  1
  Zn  Zn16  1  0.917081  0.237849  0.922522  1
  Zn  Zn17  1  0.917079  0.922541  0.922543  1
  Zn  Zn18  1  0.917071  0.922514  0.237874  1
  Cd  Cd19  1  0.229734  0.923419  0.923412  1
  Co  Co20  1  0.359147  0.357902  0.925042  1
  Co  Co21  1  0.359174  0.925025  0.357861  1
  Co  Co22  1  0.924246  0.358587  0.358551  1
  Co  Co23  1  0.359179  0.357931  0.357873  1
