# generated using pymatgen
data_NdRhI18
_symmetry_space_group_name_H-M   'P 1'
_cell_length_a   10.31492360
_cell_length_b   10.31492244
_cell_length_c   10.31492307
_cell_angle_alpha   94.31896697
_cell_angle_beta   94.31895845
_cell_angle_gamma   94.31894715
_symmetry_Int_Tables_number   1
_chemical_formula_structural   NdRhI18
_chemical_formula_sum   'Nd1 Rh1 I18'
_cell_volume   1087.63410926
_cell_formula_units_Z   1
loop_
 _symmetry_equiv_pos_site_id
 _symmetry_equiv_pos_as_xyz
  1  'x, y, z'
loop_
 _atom_site_type_symbol
 _atom_site_label
 _atom_site_symmetry_multiplicity
 _atom_site_fract_x
 _atom_site_fract_y
 _atom_site_fract_z
 _atom_site_occupancy
  Nd  Nd0  1  0.500000  0.500000  0.500000  1
  Rh  Rh1  1  0.000000  0.000000  0.000000  1
  I  I2  1  0.992757  0.972190  0.737307  1
  I  I3  1  0.972190  0.737307  0.992757  1
  I  I4  1  0.737307  0.992757  0.972190  1
  I  I5  1  0.007243  0.027810  0.262693  1
  I  I6  1  0.027810  0.262693  0.007243  1
  I  I7  1  0.262693  0.007243  0.027810  1
  I  I8  1  0.537270  0.802284  0.480048  1
  I  I9  1  0.802284  0.480048  0.537270  1
  I  I10  1  0.480048  0.537270  0.802284  1
  I  I11  1  0.462730  0.197716  0.519952  1
  I  I12  1  0.197716  0.519952  0.462730  1
  I  I13  1  0.519952  0.462730  0.197716  1
  I  I14  1  0.635073  0.222738  0.096328  1
  I  I15  1  0.222738  0.096328  0.635073  1
  I  I16  1  0.096328  0.635073  0.222738  1
  I  I17  1  0.364927  0.777262  0.903672  1
  I  I18  1  0.777262  0.903672  0.364927  1
  I  I19  1  0.903672  0.364927  0.777262  1
