# generated using pymatgen
data_CsNa(US6)2
_symmetry_space_group_name_H-M   'P 1'
_cell_length_a   8.33908611
_cell_length_b   8.06264330
_cell_length_c   7.77908366
_cell_angle_alpha   84.97638314
_cell_angle_beta   86.98585695
_cell_angle_gamma   119.31599253
_symmetry_Int_Tables_number   1
_chemical_formula_structural   CsNa(US6)2
_chemical_formula_sum   'Cs1 Na1 U2 S12'
_cell_volume   451.54094849
_cell_formula_units_Z   1
loop_
 _symmetry_equiv_pos_site_id
 _symmetry_equiv_pos_as_xyz
  1  'x, y, z'
loop_
 _atom_site_type_symbol
 _atom_site_label
 _atom_site_symmetry_multiplicity
 _atom_site_fract_x
 _atom_site_fract_y
 _atom_site_fract_z
 _atom_site_occupancy
  Cs  Cs0  1  0.668576  0.333394  0.006420  1
  Na  Na1  1  0.299375  0.638289  0.474945  1
  U  U2  1  0.993767  0.009939  0.744764  1
  U  U3  1  0.014596  0.001041  0.244103  1
  S  S4  1  0.926453  0.204268  0.480637  1
  S  S5  1  0.218503  0.952763  0.991067  1
  S  S6  1  0.282851  0.351911  0.782938  1
  S  S7  1  0.315886  0.329336  0.297178  1
  S  S8  1  0.065974  0.277817  0.969995  1
  S  S9  1  0.275177  0.101430  0.475167  1
  S  S10  1  0.699051  0.037427  0.661714  1
  S  S11  1  0.085908  0.720027  0.182144  1
  S  S12  1  0.016479  0.696990  0.692173  1
  S  S13  1  0.665682  0.920461  0.226439  1
  S  S14  1  0.834752  0.721105  0.534177  1
  S  S15  1  0.734447  0.801279  0.030898  1
