# generated using pymatgen
data_Yb(InN)2
_symmetry_space_group_name_H-M   'P 1'
_cell_length_a   3.45060280
_cell_length_b   3.45119683
_cell_length_c   8.18693761
_cell_angle_alpha   89.99999988
_cell_angle_beta   102.14812506
_cell_angle_gamma   120.00568456
_symmetry_Int_Tables_number   1
_chemical_formula_structural   Yb(InN)2
_chemical_formula_sum   'Yb1 In2 N2'
_cell_volume   81.89821675
_cell_formula_units_Z   1
loop_
 _symmetry_equiv_pos_site_id
 _symmetry_equiv_pos_as_xyz
  1  'x, y, z'
loop_
 _atom_site_type_symbol
 _atom_site_label
 _atom_site_symmetry_multiplicity
 _atom_site_fract_x
 _atom_site_fract_y
 _atom_site_fract_z
 _atom_site_occupancy
  Yb  Yb0  1  0.000000  0.000000  0.000000  1
  In  In1  1  0.880880  0.440440  0.322232  1
  In  In2  1  0.119120  0.559560  0.677768  1
  N  N3  1  0.544402  0.272201  0.816063  1
  N  N4  1  0.455598  0.727799  0.183937  1
