# generated using pymatgen
data_Tm16MgNi4Ag2Au
_symmetry_space_group_name_H-M   'P 1'
_cell_length_a   9.34408423
_cell_length_b   9.33206931
_cell_length_c   9.34208300
_cell_angle_alpha   59.96450129
_cell_angle_beta   60.00708799
_cell_angle_gamma   59.86989821
_symmetry_Int_Tables_number   1
_chemical_formula_structural   Tm16MgNi4Ag2Au
_chemical_formula_sum   'Tm16 Mg1 Ni4 Ag2 Au1'
_cell_volume   575.33575712
_cell_formula_units_Z   1
loop_
 _symmetry_equiv_pos_site_id
 _symmetry_equiv_pos_as_xyz
  1  'x, y, z'
loop_
 _atom_site_type_symbol
 _atom_site_label
 _atom_site_symmetry_multiplicity
 _atom_site_fract_x
 _atom_site_fract_y
 _atom_site_fract_z
 _atom_site_occupancy
  Tm  Tm0  1  0.599040  0.597152  0.597858  1
  Tm  Tm1  1  0.599040  0.597152  0.205951  1
  Tm  Tm2  1  0.597736  0.207976  0.597145  1
  Tm  Tm3  1  0.187816  0.602638  0.604774  1
  Tm  Tm4  1  0.057854  0.440626  0.441680  1
  Tm  Tm5  1  0.437114  0.063507  0.063041  1
  Tm  Tm6  1  0.437114  0.063507  0.436339  1
  Tm  Tm7  1  0.057854  0.440626  0.059841  1
  Tm  Tm8  1  0.438103  0.437773  0.062062  1
  Tm  Tm9  1  0.059140  0.061523  0.439669  1
  Tm  Tm10  1  0.184608  0.814484  0.813841  1
  Tm  Tm11  1  0.813328  0.189350  0.182845  1
  Tm  Tm12  1  0.813328  0.189350  0.814475  1
  Tm  Tm13  1  0.184608  0.814484  0.187066  1
  Tm  Tm14  1  0.813256  0.815211  0.185766  1
  Tm  Tm15  1  0.182179  0.189312  0.814254  1
  Mg  Mg16  1  0.545536  0.815873  0.819295  1
  Ni  Ni17  1  0.388515  0.395448  0.394974  1
  Ni  Ni18  1  0.388515  0.395448  0.821063  1
  Ni  Ni19  1  0.388619  0.820538  0.395422  1
  Ni  Ni20  1  0.822114  0.392824  0.392531  1
  Ag  Ag21  1  0.833950  0.835377  0.834670  1
  Ag  Ag22  1  0.833950  0.835377  0.496001  1
  Au  Au23  1  0.836681  0.484446  0.839435  1
