# generated using pymatgen
data_La9Nd7(CdIr)4
_symmetry_space_group_name_H-M   'P 1'
_cell_length_a   10.05453059
_cell_length_b   10.05453105
_cell_length_c   10.06013900
_cell_angle_alpha   59.98155125
_cell_angle_beta   59.98154973
_cell_angle_gamma   60.39247853
_symmetry_Int_Tables_number   1
_chemical_formula_structural   La9Nd7(CdIr)4
_chemical_formula_sum   'La9 Nd7 Cd4 Ir4'
_cell_volume   721.04498430
_cell_formula_units_Z   1
loop_
 _symmetry_equiv_pos_site_id
 _symmetry_equiv_pos_as_xyz
  1  'x, y, z'
loop_
 _atom_site_type_symbol
 _atom_site_label
 _atom_site_symmetry_multiplicity
 _atom_site_fract_x
 _atom_site_fract_y
 _atom_site_fract_z
 _atom_site_occupancy
  La  La0  1  0.347233  0.347233  0.347671  1
  La  La1  1  0.347233  0.347233  0.957862  1
  La  La2  1  0.349571  0.957283  0.346573  1
  La  La3  1  0.957283  0.349571  0.346573  1
  La  La4  1  0.808118  0.189140  0.192274  1
  La  La5  1  0.189140  0.808118  0.810469  1
  La  La6  1  0.189140  0.808118  0.192274  1
  La  La7  1  0.808118  0.189140  0.810469  1
  La  La8  1  0.190813  0.190813  0.809187  1
  Nd  Nd9  1  0.805957  0.805957  0.194043  1
  Nd  Nd10  1  0.936263  0.564228  0.563265  1
  Nd  Nd11  1  0.564228  0.936263  0.936244  1
  Nd  Nd12  1  0.564228  0.936263  0.563265  1
  Nd  Nd13  1  0.936263  0.564228  0.936244  1
  Nd  Nd14  1  0.563492  0.563492  0.936508  1
  Nd  Nd15  1  0.937305  0.937305  0.562695  1
  Cd  Cd16  1  0.581190  0.581190  0.579150  1
  Cd  Cd17  1  0.581190  0.581190  0.258469  1
  Cd  Cd18  1  0.581011  0.257784  0.580602  1
  Cd  Cd19  1  0.257784  0.581011  0.580602  1
  Ir  Ir20  1  0.140976  0.140976  0.140469  1
  Ir  Ir21  1  0.140976  0.140976  0.577579  1
  Ir  Ir22  1  0.145152  0.577336  0.138756  1
  Ir  Ir23  1  0.577336  0.145152  0.138756  1
