# generated using pymatgen
data_La2PrPCl3
_symmetry_space_group_name_H-M   'P 1'
_cell_length_a   10.19096044
_cell_length_b   10.19096053
_cell_length_c   10.19096000
_cell_angle_alpha   109.52812704
_cell_angle_beta   109.52812721
_cell_angle_gamma   109.35746604
_symmetry_Int_Tables_number   1
_chemical_formula_structural   La2PrPCl3
_chemical_formula_sum   'La8 Pr4 P4 Cl12'
_cell_volume   814.74586639
_cell_formula_units_Z   4
loop_
 _symmetry_equiv_pos_site_id
 _symmetry_equiv_pos_as_xyz
  1  'x, y, z'
loop_
 _atom_site_type_symbol
 _atom_site_label
 _atom_site_symmetry_multiplicity
 _atom_site_fract_x
 _atom_site_fract_y
 _atom_site_fract_z
 _atom_site_occupancy
  La  La0  1  0.483667  0.489906  0.240949  1
  La  La1  1  0.748958  0.242719  0.259051  1
  La  La2  1  0.751042  0.010094  0.493761  1
  La  La3  1  0.242719  0.483667  0.493761  1
  La  La4  1  0.257281  0.751042  0.240949  1
  La  La5  1  0.016333  0.257281  0.006239  1
  La  La6  1  0.010094  0.016333  0.259051  1
  La  La7  1  0.489906  0.748958  0.006239  1
  Pr  Pr8  1  0.489748  0.239748  0.479497  1
  Pr  Pr9  1  0.010252  0.489748  0.750000  1
  Pr  Pr10  1  0.260252  0.010252  0.020503  1
  Pr  Pr11  1  0.239748  0.260252  0.750000  1
  P  P12  1  0.249419  0.250581  0.250000  1
  P  P13  1  0.500581  0.999419  0.250000  1
  P  P14  1  0.999419  0.249419  0.498836  1
  P  P15  1  0.250581  0.500581  0.001164  1
  Cl  Cl16  1  0.246691  0.752155  0.747865  1
  Cl  Cl17  1  0.504288  0.498826  0.752135  1
  Cl  Cl18  1  0.995712  0.747845  0.994536  1
  Cl  Cl19  1  0.747845  0.253309  0.752135  1
  Cl  Cl20  1  0.001174  0.995712  0.747865  1
  Cl  Cl21  1  0.253309  0.001174  0.505464  1
  Cl  Cl22  1  0.752155  0.504288  0.505464  1
  Cl  Cl23  1  0.498826  0.246691  0.994536  1
  Cl  Cl24  1  0.752429  0.747571  0.250000  1
  Cl  Cl25  1  0.747571  0.997571  0.995143  1
  Cl  Cl26  1  0.997571  0.502429  0.250000  1
  Cl  Cl27  1  0.502429  0.752429  0.504857  1
