# generated using pymatgen
data_Na(UPd4)3
_symmetry_space_group_name_H-M   'P 1'
_cell_length_a   5.81048500
_cell_length_b   5.81048471
_cell_length_c   9.48110700
_cell_angle_alpha   90.00000000
_cell_angle_beta   90.00000000
_cell_angle_gamma   120.00000732
_symmetry_Int_Tables_number   1
_chemical_formula_structural   Na(UPd4)3
_chemical_formula_sum   'Na1 U3 Pd12'
_cell_volume   277.21351202
_cell_formula_units_Z   1
loop_
 _symmetry_equiv_pos_site_id
 _symmetry_equiv_pos_as_xyz
  1  'x, y, z'
loop_
 _atom_site_type_symbol
 _atom_site_label
 _atom_site_symmetry_multiplicity
 _atom_site_fract_x
 _atom_site_fract_y
 _atom_site_fract_z
 _atom_site_occupancy
  Na  Na0  1  0.333333  0.666667  0.750000  1
  U  U1  1  0.000000  0.000000  0.510263  1
  U  U2  1  0.000000  0.000000  0.989737  1
  U  U3  1  0.666667  0.333333  0.250000  1
  Pd  Pd4  1  0.500893  0.499107  0.498673  1
  Pd  Pd5  1  0.500893  0.001786  0.498673  1
  Pd  Pd6  1  0.998214  0.499107  0.498673  1
  Pd  Pd7  1  0.500893  0.499107  0.001327  1
  Pd  Pd8  1  0.500893  0.001786  0.001327  1
  Pd  Pd9  1  0.998214  0.499107  0.001327  1
  Pd  Pd10  1  0.168889  0.831111  0.250000  1
  Pd  Pd11  1  0.168889  0.337779  0.250000  1
  Pd  Pd12  1  0.662221  0.831111  0.250000  1
  Pd  Pd13  1  0.828332  0.171668  0.750000  1
  Pd  Pd14  1  0.828332  0.656663  0.750000  1
  Pd  Pd15  1  0.343337  0.171668  0.750000  1
