# generated using pymatgen
data_Pr2Ho6Si12Ir3Rh
_symmetry_space_group_name_H-M   'P 1'
_cell_length_a   8.20191700
_cell_length_b   8.20191683
_cell_length_c   8.03580900
_cell_angle_alpha   90.00000000
_cell_angle_beta   90.00000000
_cell_angle_gamma   120.00000471
_symmetry_Int_Tables_number   1
_chemical_formula_structural   Pr2Ho6Si12Ir3Rh
_chemical_formula_sum   'Pr2 Ho6 Si12 Ir3 Rh1'
_cell_volume   468.15638190
_cell_formula_units_Z   1
loop_
 _symmetry_equiv_pos_site_id
 _symmetry_equiv_pos_as_xyz
  1  'x, y, z'
loop_
 _atom_site_type_symbol
 _atom_site_label
 _atom_site_symmetry_multiplicity
 _atom_site_fract_x
 _atom_site_fract_y
 _atom_site_fract_z
 _atom_site_occupancy
  Pr  Pr0  1  0.000000  0.000000  0.249227  1
  Pr  Pr1  1  0.000000  0.000000  0.750221  1
  Ho  Ho2  1  0.509200  0.490800  0.250245  1
  Ho  Ho3  1  0.509200  0.018400  0.250245  1
  Ho  Ho4  1  0.981600  0.490800  0.250245  1
  Ho  Ho5  1  0.491307  0.508693  0.749819  1
  Ho  Ho6  1  0.491307  0.982616  0.749819  1
  Ho  Ho7  1  0.017384  0.508693  0.749819  1
  Si  Si8  1  0.168502  0.831498  0.500806  1
  Si  Si9  1  0.168502  0.337005  0.500806  1
  Si  Si10  1  0.662995  0.831498  0.500806  1
  Si  Si11  1  0.831547  0.168453  0.498780  1
  Si  Si12  1  0.831547  0.663095  0.498780  1
  Si  Si13  1  0.336905  0.168453  0.498780  1
  Si  Si14  1  0.831689  0.168311  0.001122  1
  Si  Si15  1  0.831689  0.663378  0.001122  1
  Si  Si16  1  0.336622  0.168311  0.001122  1
  Si  Si17  1  0.168957  0.831043  0.998440  1
  Si  Si18  1  0.168957  0.337913  0.998440  1
  Si  Si19  1  0.662087  0.831043  0.998440  1
  Ir  Ir20  1  0.333333  0.666667  0.466554  1
  Ir  Ir21  1  0.666667  0.333333  0.534706  1
  Ir  Ir22  1  0.666667  0.333333  0.964750  1
  Rh  Rh23  1  0.333333  0.666667  0.036906  1
