# generated using pymatgen
data_DyTa(NiSn)2
_symmetry_space_group_name_H-M   'P 1'
_cell_length_a   4.34708800
_cell_length_b   6.20487700
_cell_length_c   8.78265900
_cell_angle_alpha   90.00000000
_cell_angle_beta   90.00000000
_cell_angle_gamma   90.00000000
_symmetry_Int_Tables_number   1
_chemical_formula_structural   DyTa(NiSn)2
_chemical_formula_sum   'Dy2 Ta2 Ni4 Sn4'
_cell_volume   236.89594653
_cell_formula_units_Z   2
loop_
 _symmetry_equiv_pos_site_id
 _symmetry_equiv_pos_as_xyz
  1  'x, y, z'
loop_
 _atom_site_type_symbol
 _atom_site_label
 _atom_site_symmetry_multiplicity
 _atom_site_fract_x
 _atom_site_fract_y
 _atom_site_fract_z
 _atom_site_occupancy
  Dy  Dy0  1  0.000000  0.004183  0.378048  1
  Dy  Dy1  1  0.499999  0.504183  0.621950  1
  Ta  Ta2  1  0.499999  0.495256  0.123977  1
  Ta  Ta3  1  0.000000  0.995254  0.876023  1
  Ni  Ni4  1  0.000000  0.737494  0.111031  1
  Ni  Ni5  1  0.499999  0.267078  0.353073  1
  Ni  Ni6  1  0.000000  0.767078  0.646926  1
  Ni  Ni7  1  0.499999  0.237495  0.888969  1
  Sn  Sn8  1  0.499999  0.987793  0.119257  1
  Sn  Sn9  1  0.000000  0.508195  0.364756  1
  Sn  Sn10  1  0.499999  0.008194  0.635242  1
  Sn  Sn11  1  0.000000  0.487791  0.880742  1
