# generated using pymatgen
data_Y3Ho5Er2Cd3Ru
_symmetry_space_group_name_H-M   'P 1'
_cell_length_a   9.58213102
_cell_length_b   9.58213024
_cell_length_c   9.80796901
_cell_angle_alpha   90.00430209
_cell_angle_beta   89.99569770
_cell_angle_gamma   120.00691455
_symmetry_Int_Tables_number   1
_chemical_formula_structural   Y3Ho5Er2Cd3Ru
_chemical_formula_sum   'Y6 Ho10 Er4 Cd6 Ru2'
_cell_volume   779.83662070
_cell_formula_units_Z   2
loop_
 _symmetry_equiv_pos_site_id
 _symmetry_equiv_pos_as_xyz
  1  'x, y, z'
loop_
 _atom_site_type_symbol
 _atom_site_label
 _atom_site_symmetry_multiplicity
 _atom_site_fract_x
 _atom_site_fract_y
 _atom_site_fract_z
 _atom_site_occupancy
  Y  Y0  1  0.540863  0.459137  0.249874  1
  Y  Y1  1  0.540962  0.081881  0.249946  1
  Y  Y2  1  0.918119  0.459038  0.249946  1
  Y  Y3  1  0.459013  0.540987  0.750141  1
  Y  Y4  1  0.459094  0.918032  0.750091  1
  Y  Y5  1  0.081968  0.540906  0.750091  1
  Ho  Ho6  1  0.209727  0.790273  0.439963  1
  Ho  Ho7  1  0.209811  0.419564  0.439928  1
  Ho  Ho8  1  0.580436  0.790189  0.439928  1
  Ho  Ho9  1  0.790284  0.209716  0.560043  1
  Ho  Ho10  1  0.790237  0.580494  0.559978  1
  Ho  Ho11  1  0.419506  0.209763  0.559978  1
  Ho  Ho12  1  0.790311  0.209689  0.940025  1
  Ho  Ho13  1  0.790190  0.580515  0.940060  1
  Ho  Ho14  1  0.419485  0.209810  0.940060  1
  Ho  Ho15  1  0.209870  0.790130  0.060059  1
  Er  Er16  1  0.999983  0.000017  0.500025  1
  Er  Er17  1  0.999953  0.000047  0.000035  1
  Er  Er18  1  0.209968  0.419795  0.059979  1
  Er  Er19  1  0.580205  0.790032  0.059979  1
  Cd  Cd20  1  0.885660  0.114340  0.249952  1
  Cd  Cd21  1  0.885716  0.771365  0.249970  1
  Cd  Cd22  1  0.228635  0.114284  0.249970  1
  Cd  Cd23  1  0.114337  0.885663  0.750040  1
  Cd  Cd24  1  0.114278  0.228669  0.750066  1
  Cd  Cd25  1  0.771331  0.885722  0.750066  1
  Ru  Ru26  1  0.333421  0.666579  0.249817  1
  Ru  Ru27  1  0.666638  0.333362  0.749990  1
