# generated using pymatgen
data_Ga2Cu5S7
_symmetry_space_group_name_H-M   'P 1'
_cell_length_a   6.47928722
_cell_length_b   6.47928736
_cell_length_c   8.35186000
_cell_angle_alpha   82.85104333
_cell_angle_beta   82.85104317
_cell_angle_gamma   48.73024541
_symmetry_Int_Tables_number   1
_chemical_formula_structural   Ga2Cu5S7
_chemical_formula_sum   'Ga2 Cu5 S7'
_cell_volume   261.06006712
_cell_formula_units_Z   1
loop_
 _symmetry_equiv_pos_site_id
 _symmetry_equiv_pos_as_xyz
  1  'x, y, z'
loop_
 _atom_site_type_symbol
 _atom_site_label
 _atom_site_symmetry_multiplicity
 _atom_site_fract_x
 _atom_site_fract_y
 _atom_site_fract_z
 _atom_site_occupancy
  Ga  Ga0  1  0.154517  0.699409  0.218391  1
  Ga  Ga1  1  0.300591  0.845483  0.781609  1
  Cu  Cu2  1  0.733568  0.266432  0.500000  1
  Cu  Cu3  1  0.883257  0.404208  0.071856  1
  Cu  Cu4  1  0.595792  0.116743  0.928144  1
  Cu  Cu5  1  0.448284  0.978924  0.357288  1
  Cu  Cu6  1  0.021076  0.551716  0.642712  1
  S  S7  1  0.342133  0.369849  0.431125  1
  S  S8  1  0.630151  0.657867  0.568875  1
  S  S9  1  0.485775  0.514225  0.000000  1
  S  S10  1  0.053656  0.093557  0.287166  1
  S  S11  1  0.906443  0.946344  0.712834  1
  S  S12  1  0.764224  0.801866  0.142018  1
  S  S13  1  0.198134  0.235776  0.857982  1
