# generated using pymatgen
data_TaNb3Ni4MoP4
_symmetry_space_group_name_H-M   'P 1'
_cell_length_a   7.22558248
_cell_length_b   7.22558265
_cell_length_c   7.21746799
_cell_angle_alpha   93.28205453
_cell_angle_beta   93.61040489
_cell_angle_gamma   151.63174789
_symmetry_Int_Tables_number   1
_chemical_formula_structural   TaNb3Ni4MoP4
_chemical_formula_sum   'Ta1 Nb3 Ni4 Mo1 P4'
_cell_volume   173.56802419
_cell_formula_units_Z   1
loop_
 _symmetry_equiv_pos_site_id
 _symmetry_equiv_pos_as_xyz
  1  'x, y, z'
loop_
 _atom_site_type_symbol
 _atom_site_label
 _atom_site_symmetry_multiplicity
 _atom_site_fract_x
 _atom_site_fract_y
 _atom_site_fract_z
 _atom_site_occupancy
  Ta  Ta0  1  0.804421  0.129325  0.933746  1
  Nb  Nb1  1  0.129389  0.195712  0.325101  1
  Nb  Nb2  1  0.870628  0.804316  0.674944  1
  Nb  Nb3  1  0.194948  0.870566  0.065516  1
  Ni  Ni4  1  0.913061  0.389580  0.302639  1
  Ni  Ni5  1  0.087634  0.609458  0.697092  1
  Ni  Ni6  1  0.609658  0.915224  0.524882  1
  Ni  Ni7  1  0.390931  0.085070  0.476003  1
  Mo  Mo8  1  0.499188  0.500498  0.999686  1
  P  P9  1  0.556203  0.243295  0.799498  1
  P  P10  1  0.243549  0.443554  0.687102  1
  P  P11  1  0.756770  0.556623  0.313393  1
  P  P12  1  0.443621  0.756779  0.200399  1
