# generated using pymatgen
data_Nd2CrO6
_symmetry_space_group_name_H-M   'P 1'
_cell_length_a   4.39917900
_cell_length_b   7.43492091
_cell_length_c   8.37528083
_cell_angle_alpha   106.64716410
_cell_angle_beta   90.00000000
_cell_angle_gamma   107.20825309
_symmetry_Int_Tables_number   1
_chemical_formula_structural   Nd2CrO6
_chemical_formula_sum   'Nd4 Cr2 O12'
_cell_volume   249.62763246
_cell_formula_units_Z   2
loop_
 _symmetry_equiv_pos_site_id
 _symmetry_equiv_pos_as_xyz
  1  'x, y, z'
loop_
 _atom_site_type_symbol
 _atom_site_label
 _atom_site_symmetry_multiplicity
 _atom_site_fract_x
 _atom_site_fract_y
 _atom_site_fract_z
 _atom_site_occupancy
  Nd  Nd0  1  0.662791  0.342637  0.085523  1
  Nd  Nd1  1  0.320154  0.657364  0.414478  1
  Nd  Nd2  1  0.679845  0.342636  0.585522  1
  Nd  Nd3  1  0.337211  0.657364  0.914478  1
  Cr  Cr4  1  0.043097  0.000000  0.250000  1
  Cr  Cr5  1  0.956904  0.000001  0.750000  1
  O  O6  1  0.267559  0.997786  0.089026  1
  O  O7  1  0.222614  0.486240  0.121500  1
  O  O8  1  0.728863  0.798854  0.200608  1
  O  O9  1  0.930007  0.201145  0.299392  1
  O  O10  1  0.736373  0.513759  0.378499  1
  O  O11  1  0.269774  0.002214  0.410975  1
  O  O12  1  0.730228  0.997787  0.589026  1
  O  O13  1  0.263626  0.486241  0.621500  1
  O  O14  1  0.069992  0.798855  0.700608  1
  O  O15  1  0.271135  0.201145  0.799392  1
  O  O16  1  0.777387  0.513759  0.878500  1
  O  O17  1  0.732440  0.002214  0.910974  1
