# generated using pymatgen
data_Pr16Cd4RuPt3
_symmetry_space_group_name_H-M   'P 1'
_cell_length_a   10.09165668
_cell_length_b   10.09165738
_cell_length_c   10.09165680
_cell_angle_alpha   59.73712867
_cell_angle_beta   59.73712709
_cell_angle_gamma   59.73712896
_symmetry_Int_Tables_number   1
_chemical_formula_structural   Pr16Cd4RuPt3
_chemical_formula_sum   'Pr16 Cd4 Ru1 Pt3'
_cell_volume   722.39053278
_cell_formula_units_Z   1
loop_
 _symmetry_equiv_pos_site_id
 _symmetry_equiv_pos_as_xyz
  1  'x, y, z'
loop_
 _atom_site_type_symbol
 _atom_site_label
 _atom_site_symmetry_multiplicity
 _atom_site_fract_x
 _atom_site_fract_y
 _atom_site_fract_z
 _atom_site_occupancy
  Pr  Pr0  1  0.350894  0.350894  0.350894  1
  Pr  Pr1  1  0.347467  0.347467  0.952172  1
  Pr  Pr2  1  0.347467  0.952172  0.347467  1
  Pr  Pr3  1  0.952172  0.347467  0.347467  1
  Pr  Pr4  1  0.816232  0.189156  0.189156  1
  Pr  Pr5  1  0.189402  0.808230  0.808230  1
  Pr  Pr6  1  0.189156  0.816232  0.189156  1
  Pr  Pr7  1  0.808230  0.189402  0.808230  1
  Pr  Pr8  1  0.189156  0.189156  0.816232  1
  Pr  Pr9  1  0.808230  0.808230  0.189402  1
  Pr  Pr10  1  0.937763  0.563742  0.563742  1
  Pr  Pr11  1  0.558732  0.937444  0.937444  1
  Pr  Pr12  1  0.563742  0.937763  0.563742  1
  Pr  Pr13  1  0.937444  0.558732  0.937444  1
  Pr  Pr14  1  0.563742  0.563742  0.937763  1
  Pr  Pr15  1  0.937444  0.937444  0.558732  1
  Cd  Cd16  1  0.579720  0.579720  0.579720  1
  Cd  Cd17  1  0.580277  0.580277  0.258594  1
  Cd  Cd18  1  0.580277  0.258594  0.580277  1
  Cd  Cd19  1  0.258594  0.580277  0.580277  1
  Ru  Ru20  1  0.142537  0.142537  0.142537  1
  Pt  Pt21  1  0.144515  0.144515  0.572290  1
  Pt  Pt22  1  0.144515  0.572290  0.144515  1
  Pt  Pt23  1  0.572290  0.144515  0.144515  1
