# generated using pymatgen
data_Cs3RbF12
_symmetry_space_group_name_H-M   'P 1'
_cell_length_a   7.43398316
_cell_length_b   4.91298106
_cell_length_c   9.85327096
_cell_angle_alpha   89.67911240
_cell_angle_beta   90.03508194
_cell_angle_gamma   90.00881486
_symmetry_Int_Tables_number   1
_chemical_formula_structural   Cs3RbF12
_chemical_formula_sum   'Cs3 Rb1 F12'
_cell_volume   359.86548164
_cell_formula_units_Z   1
loop_
 _symmetry_equiv_pos_site_id
 _symmetry_equiv_pos_as_xyz
  1  'x, y, z'
loop_
 _atom_site_type_symbol
 _atom_site_label
 _atom_site_symmetry_multiplicity
 _atom_site_fract_x
 _atom_site_fract_y
 _atom_site_fract_z
 _atom_site_occupancy
  Cs  Cs0  1  0.241128  0.127290  0.370274  1
  Cs  Cs1  1  0.255846  0.368689  0.878757  1
  Cs  Cs2  1  0.741972  0.891313  0.626396  1
  Rb  Rb3  1  0.750495  0.631831  0.126516  1
  F  F4  1  0.034423  0.009600  0.075519  1
  F  F5  1  0.461793  0.457412  0.579250  1
  F  F6  1  0.548717  0.958152  0.933411  1
  F  F7  1  0.948930  0.551305  0.408912  1
  F  F8  1  0.646217  0.041411  0.320429  1
  F  F9  1  0.851133  0.471558  0.846747  1
  F  F10  1  0.146135  0.949317  0.666366  1
  F  F11  1  0.368818  0.549656  0.168626  1
  F  F12  1  0.199386  0.777543  0.119736  1
  F  F13  1  0.304980  0.706000  0.619643  1
  F  F14  1  0.698802  0.216517  0.892841  1
  F  F15  1  0.798801  0.292404  0.366579  1
