# generated using pymatgen
data_Ba2Dy2Si3Ge5N14
_symmetry_space_group_name_H-M   'P 1'
_cell_length_a   6.29292000
_cell_length_b   6.26474176
_cell_length_c   10.12516834
_cell_angle_alpha   89.66082238
_cell_angle_beta   90.00000000
_cell_angle_gamma   120.14890154
_symmetry_Int_Tables_number   1
_chemical_formula_structural   Ba2Dy2Si3Ge5N14
_chemical_formula_sum   'Ba2 Dy2 Si3 Ge5 N14'
_cell_volume   345.16321473
_cell_formula_units_Z   1
loop_
 _symmetry_equiv_pos_site_id
 _symmetry_equiv_pos_as_xyz
  1  'x, y, z'
loop_
 _atom_site_type_symbol
 _atom_site_label
 _atom_site_symmetry_multiplicity
 _atom_site_fract_x
 _atom_site_fract_y
 _atom_site_fract_z
 _atom_site_occupancy
  Ba  Ba0  1  0.332872  0.665745  0.361901  1
  Ba  Ba1  1  0.666429  0.332856  0.863210  1
  Dy  Dy2  1  0.332210  0.664422  0.740156  1
  Dy  Dy3  1  0.667569  0.335137  0.236039  1
  Si  Si4  1  0.172479  0.344961  0.046576  1
  Si  Si5  1  0.001463  0.002927  0.816569  1
  Si  Si6  1  0.001873  0.003746  0.312218  1
  Ge  Ge7  1  0.828534  0.657065  0.546941  1
  Ge  Ge8  1  0.172355  0.826353  0.046848  1
  Ge  Ge9  1  0.653996  0.826353  0.046848  1
  Ge  Ge10  1  0.343450  0.171340  0.546902  1
  Ge  Ge11  1  0.827891  0.171340  0.546902  1
  N  N12  1  0.001310  0.002620  0.630567  1
  N  N13  1  0.006446  0.012892  0.126589  1
  N  N14  1  0.150241  0.300482  0.877071  1
  N  N15  1  0.848743  0.151811  0.365812  1
  N  N16  1  0.303069  0.151811  0.365812  1
  N  N17  1  0.697845  0.848200  0.866146  1
  N  N18  1  0.150354  0.848200  0.866146  1
  N  N19  1  0.849517  0.699033  0.364784  1
  N  N20  1  0.989451  0.494858  0.603563  1
  N  N21  1  0.494464  0.988928  0.103426  1
  N  N22  1  0.477475  0.497013  0.099717  1
  N  N23  1  0.505405  0.494858  0.603563  1
  N  N24  1  0.019539  0.497013  0.099717  1
  N  N25  1  0.505018  0.010037  0.603779  1
