# generated using pymatgen
data_Er3Ag2Hg3Ir
_symmetry_space_group_name_H-M   'P 1'
_cell_length_a   8.12307400
_cell_length_b   8.12307398
_cell_length_c   3.52195900
_cell_angle_alpha   90.00000000
_cell_angle_beta   90.00000000
_cell_angle_gamma   119.99999192
_symmetry_Int_Tables_number   1
_chemical_formula_structural   Er3Ag2Hg3Ir
_chemical_formula_sum   'Er3 Ag2 Hg3 Ir1'
_cell_volume   201.25921822
_cell_formula_units_Z   1
loop_
 _symmetry_equiv_pos_site_id
 _symmetry_equiv_pos_as_xyz
  1  'x, y, z'
loop_
 _atom_site_type_symbol
 _atom_site_label
 _atom_site_symmetry_multiplicity
 _atom_site_fract_x
 _atom_site_fract_y
 _atom_site_fract_z
 _atom_site_occupancy
  Er  Er0  1  0.413138  0.375525  0.500000  1
  Er  Er1  1  0.624475  0.037613  0.500000  1
  Er  Er2  1  0.962387  0.586862  0.500000  1
  Ag  Ag3  1  0.333333  0.666667  0.000000  1
  Ag  Ag4  1  0.000000  0.000000  0.500000  1
  Hg  Hg5  1  0.708092  0.722043  0.000000  1
  Hg  Hg6  1  0.277957  0.986050  0.000000  1
  Hg  Hg7  1  0.013950  0.291908  0.000000  1
  Ir  Ir8  1  0.666667  0.333333  0.000000  1
