# generated using pymatgen
data_Tb9Nd6YCd4Pd3Pt
_symmetry_space_group_name_H-M   'P 1'
_cell_length_a   9.83403292
_cell_length_b   9.83403226
_cell_length_c   9.81764700
_cell_angle_alpha   60.05509813
_cell_angle_beta   60.05510033
_cell_angle_gamma   60.15489233
_symmetry_Int_Tables_number   1
_chemical_formula_structural   Tb9Nd6YCd4Pd3Pt
_chemical_formula_sum   'Tb9 Nd6 Y1 Cd4 Pd3 Pt1'
_cell_volume   672.70328033
_cell_formula_units_Z   1
loop_
 _symmetry_equiv_pos_site_id
 _symmetry_equiv_pos_as_xyz
  1  'x, y, z'
loop_
 _atom_site_type_symbol
 _atom_site_label
 _atom_site_symmetry_multiplicity
 _atom_site_fract_x
 _atom_site_fract_y
 _atom_site_fract_z
 _atom_site_occupancy
  Tb  Tb0  1  0.352424  0.350499  0.350409  1
  Tb  Tb1  1  0.352424  0.350499  0.946667  1
  Tb  Tb2  1  0.353803  0.944323  0.350937  1
  Tb  Tb3  1  0.942855  0.353007  0.352069  1
  Tb  Tb4  1  0.810236  0.188751  0.189198  1
  Tb  Tb5  1  0.189082  0.811222  0.810236  1
  Tb  Tb6  1  0.189082  0.811222  0.189460  1
  Tb  Tb7  1  0.810236  0.188751  0.811815  1
  Tb  Tb8  1  0.189586  0.189003  0.810706  1
  Nd  Nd9  1  0.937838  0.562159  0.563970  1
  Nd  Nd10  1  0.562921  0.937676  0.936238  1
  Nd  Nd11  1  0.562921  0.937676  0.563165  1
  Nd  Nd12  1  0.937838  0.562159  0.936033  1
  Nd  Nd13  1  0.563159  0.561797  0.937522  1
  Nd  Nd14  1  0.936682  0.937118  0.563100  1
  Y  Y15  1  0.808826  0.811603  0.189786  1
  Cd  Cd16  1  0.580282  0.580725  0.579577  1
  Cd  Cd17  1  0.580282  0.580725  0.259415  1
  Cd  Cd18  1  0.579906  0.259786  0.580153  1
  Cd  Cd19  1  0.260383  0.579855  0.579880  1
  Pd  Pd20  1  0.142989  0.143791  0.144332  1
  Pd  Pd21  1  0.142989  0.143791  0.568888  1
  Pd  Pd22  1  0.143455  0.569731  0.143407  1
  Pt  Pt23  1  0.569799  0.144132  0.143035  1
