# generated using pymatgen
data_Ho3AlCd2Pt3
_symmetry_space_group_name_H-M   'P 1'
_cell_length_a   7.57658106
_cell_length_b   7.47673372
_cell_length_c   3.85120000
_cell_angle_alpha   90.00000000
_cell_angle_beta   90.00000000
_cell_angle_gamma   119.56501596
_symmetry_Int_Tables_number   1
_chemical_formula_structural   Ho3AlCd2Pt3
_chemical_formula_sum   'Ho3 Al1 Cd2 Pt3'
_cell_volume   189.75745503
_cell_formula_units_Z   1
loop_
 _symmetry_equiv_pos_site_id
 _symmetry_equiv_pos_as_xyz
  1  'x, y, z'
loop_
 _atom_site_type_symbol
 _atom_site_label
 _atom_site_symmetry_multiplicity
 _atom_site_fract_x
 _atom_site_fract_y
 _atom_site_fract_z
 _atom_site_occupancy
  Ho  Ho0  1  0.404089  0.404634  0.500000  1
  Ho  Ho1  1  0.595911  0.000545  0.500000  1
  Ho  Ho2  1  0.000000  0.586039  0.500000  1
  Al  Al3  1  0.000000  0.257523  0.000000  1
  Cd  Cd4  1  0.748073  0.744289  0.000000  1
  Cd  Cd5  1  0.251927  0.996215  0.000000  1
  Pt  Pt6  1  0.680572  0.324809  0.000000  1
  Pt  Pt7  1  0.319428  0.644238  0.000000  1
  Pt  Pt8  1  0.000000  0.041708  0.500000  1
