# generated using pymatgen
data_Sr2YB2IO6
_symmetry_space_group_name_H-M   'P 1'
_cell_length_a   6.63853354
_cell_length_b   5.28704700
_cell_length_c   11.60583589
_cell_angle_alpha   90.00000000
_cell_angle_beta   86.23510932
_cell_angle_gamma   90.00000000
_symmetry_Int_Tables_number   1
_chemical_formula_structural   Sr2YB2IO6
_chemical_formula_sum   'Sr4 Y2 B4 I2 O12'
_cell_volume   406.46530669
_cell_formula_units_Z   2
loop_
 _symmetry_equiv_pos_site_id
 _symmetry_equiv_pos_as_xyz
  1  'x, y, z'
loop_
 _atom_site_type_symbol
 _atom_site_label
 _atom_site_symmetry_multiplicity
 _atom_site_fract_x
 _atom_site_fract_y
 _atom_site_fract_z
 _atom_site_occupancy
  Sr  Sr0  1  0.353381  0.250000  0.085839  1
  Sr  Sr1  1  0.968827  0.750001  0.338116  1
  Sr  Sr2  1  0.031172  0.250000  0.661884  1
  Sr  Sr3  1  0.646620  0.750001  0.914162  1
  Y  Y4  1  0.374190  0.250000  0.410566  1
  Y  Y5  1  0.625810  0.750001  0.589434  1
  B  B6  1  0.372248  0.750001  0.212694  1
  B  B7  1  0.801615  0.250000  0.432862  1
  B  B8  1  0.198385  0.750001  0.567138  1
  B  B9  1  0.627751  0.250000  0.787305  1
  I  I10  1  0.856090  0.250000  0.134915  1
  I  I11  1  0.143910  0.750001  0.865084  1
  O  O12  1  0.452235  0.750001  0.100974  1
  O  O13  1  0.315366  0.525467  0.269396  1
  O  O14  1  0.315366  0.974534  0.269396  1
  O  O15  1  0.007919  0.250000  0.433244  1
  O  O16  1  0.687573  0.027484  0.433759  1
  O  O17  1  0.687573  0.472517  0.433759  1
  O  O18  1  0.312426  0.527483  0.566240  1
  O  O19  1  0.312426  0.972516  0.566240  1
  O  O20  1  0.992082  0.750001  0.566756  1
  O  O21  1  0.684634  0.025466  0.730603  1
  O  O22  1  0.684634  0.474533  0.730603  1
  O  O23  1  0.547764  0.250000  0.899026  1
