# generated using pymatgen
data_ErMgGa3Ru
_symmetry_space_group_name_H-M   'P 1'
_cell_length_a   5.31379300
_cell_length_b   5.31379249
_cell_length_c   8.69695100
_cell_angle_alpha   90.00000000
_cell_angle_beta   90.00000000
_cell_angle_gamma   119.99998453
_symmetry_Int_Tables_number   1
_chemical_formula_structural   ErMgGa3Ru
_chemical_formula_sum   'Er2 Mg2 Ga6 Ru2'
_cell_volume   212.67034973
_cell_formula_units_Z   2
loop_
 _symmetry_equiv_pos_site_id
 _symmetry_equiv_pos_as_xyz
  1  'x, y, z'
loop_
 _atom_site_type_symbol
 _atom_site_label
 _atom_site_symmetry_multiplicity
 _atom_site_fract_x
 _atom_site_fract_y
 _atom_site_fract_z
 _atom_site_occupancy
  Er  Er0  1  0.333333  0.666667  0.551723  1
  Er  Er1  1  0.333333  0.666667  0.948278  1
  Mg  Mg2  1  0.666666  0.333333  0.049453  1
  Mg  Mg3  1  0.666666  0.333333  0.450548  1
  Ga  Ga4  1  0.164919  0.329839  0.249999  1
  Ga  Ga5  1  0.164920  0.835080  0.249999  1
  Ga  Ga6  1  0.670161  0.835080  0.249999  1
  Ga  Ga7  1  0.330762  0.165381  0.750000  1
  Ga  Ga8  1  0.834619  0.165381  0.750000  1
  Ga  Ga9  1  0.834618  0.669238  0.750000  1
  Ru  Ru10  1  0.000000  0.000000  0.008580  1
  Ru  Ru11  1  0.000000  0.000000  0.491420  1
