# generated using pymatgen
data_CeYNp8O20
_symmetry_space_group_name_H-M   'P 1'
_cell_length_a   6.60596310
_cell_length_b   7.64036238
_cell_length_c   8.53390302
_cell_angle_alpha   102.92697339
_cell_angle_beta   97.43640509
_cell_angle_gamma   106.80541810
_symmetry_Int_Tables_number   1
_chemical_formula_structural   CeYNp8O20
_chemical_formula_sum   'Ce1 Y1 Np8 O20'
_cell_volume   393.08477267
_cell_formula_units_Z   1
loop_
 _symmetry_equiv_pos_site_id
 _symmetry_equiv_pos_as_xyz
  1  'x, y, z'
loop_
 _atom_site_type_symbol
 _atom_site_label
 _atom_site_symmetry_multiplicity
 _atom_site_fract_x
 _atom_site_fract_y
 _atom_site_fract_z
 _atom_site_occupancy
  Ce  Ce0  1  0.000000  0.500000  0.000000  1
  Y  Y1  1  0.000000  0.000000  0.000000  1
  Np  Np2  1  0.800003  0.600810  0.600570  1
  Np  Np3  1  0.600575  0.199135  0.199568  1
  Np  Np4  1  0.799765  0.099394  0.601078  1
  Np  Np5  1  0.199997  0.399190  0.399430  1
  Np  Np6  1  0.602618  0.701723  0.200044  1
  Np  Np7  1  0.397382  0.298277  0.799956  1
  Np  Np8  1  0.200235  0.900606  0.398922  1
  Np  Np9  1  0.399425  0.800865  0.800432  1
  O  O10  1  0.850846  0.325719  0.452942  1
  O  O11  1  0.642544  0.923262  0.051632  1
  O  O12  1  0.445786  0.523055  0.648049  1
  O  O13  1  0.949095  0.776431  0.156288  1
  O  O14  1  0.851160  0.826096  0.452419  1
  O  O15  1  0.741101  0.371508  0.745386  1
  O  O16  1  0.259398  0.128297  0.254770  1
  O  O17  1  0.642848  0.423943  0.051526  1
  O  O18  1  0.948493  0.276289  0.156785  1
  O  O19  1  0.446048  0.023924  0.647837  1
  O  O20  1  0.553952  0.976076  0.352163  1
  O  O21  1  0.051507  0.723711  0.843215  1
  O  O22  1  0.740602  0.871703  0.745230  1
  O  O23  1  0.258899  0.628492  0.254614  1
  O  O24  1  0.357152  0.576057  0.948474  1
  O  O25  1  0.050905  0.223569  0.843712  1
  O  O26  1  0.554214  0.476945  0.351951  1
  O  O27  1  0.148840  0.173904  0.547581  1
  O  O28  1  0.357456  0.076738  0.948368  1
  O  O29  1  0.149154  0.674281  0.547058  1
