# generated using pymatgen
data_YEr15MgHg3Rh4
_symmetry_space_group_name_H-M   'P 1'
_cell_length_a   9.57088391
_cell_length_b   9.51885393
_cell_length_c   9.54940600
_cell_angle_alpha   59.89377608
_cell_angle_beta   60.07421302
_cell_angle_gamma   59.92742767
_symmetry_Int_Tables_number   1
_chemical_formula_structural   YEr15MgHg3Rh4
_chemical_formula_sum   'Y1 Er15 Mg1 Hg3 Rh4'
_cell_volume   614.68435317
_cell_formula_units_Z   1
loop_
 _symmetry_equiv_pos_site_id
 _symmetry_equiv_pos_as_xyz
  1  'x, y, z'
loop_
 _atom_site_type_symbol
 _atom_site_label
 _atom_site_symmetry_multiplicity
 _atom_site_fract_x
 _atom_site_fract_y
 _atom_site_fract_z
 _atom_site_occupancy
  Y  Y0  1  0.185944  0.185896  0.814080  1
  Er  Er1  1  0.601158  0.598624  0.596159  1
  Er  Er2  1  0.601158  0.598624  0.204061  1
  Er  Er3  1  0.602583  0.203662  0.596878  1
  Er  Er4  1  0.188853  0.604221  0.603464  1
  Er  Er5  1  0.058609  0.440304  0.440696  1
  Er  Er6  1  0.436448  0.062126  0.063655  1
  Er  Er7  1  0.436448  0.062126  0.437769  1
  Er  Er8  1  0.058609  0.440304  0.060392  1
  Er  Er9  1  0.436752  0.437848  0.062700  1
  Er  Er10  1  0.058517  0.060076  0.440704  1
  Er  Er11  1  0.186101  0.811612  0.813493  1
  Er  Er12  1  0.811664  0.187068  0.186026  1
  Er  Er13  1  0.811664  0.187068  0.815242  1
  Er  Er14  1  0.186101  0.811612  0.188794  1
  Er  Er15  1  0.813694  0.815251  0.185527  1
  Mg  Mg16  1  0.535082  0.821091  0.821913  1
  Hg  Hg17  1  0.832915  0.836714  0.837405  1
  Hg  Hg18  1  0.832915  0.836714  0.492964  1
  Hg  Hg19  1  0.831963  0.492795  0.837620  1
  Rh  Rh20  1  0.389278  0.396459  0.392283  1
  Rh  Rh21  1  0.389278  0.396459  0.821981  1
  Rh  Rh22  1  0.390031  0.820995  0.394488  1
  Rh  Rh23  1  0.824236  0.392350  0.391708  1
