# generated using pymatgen
data_TbLu2Pa(ReB6)2
_symmetry_space_group_name_H-M   'P 1'
_cell_length_a   3.67472500
_cell_length_b   9.11025498
_cell_length_c   11.49392200
_cell_angle_alpha   90.27995352
_cell_angle_beta   90.00000000
_cell_angle_gamma   90.00000000
_symmetry_Int_Tables_number   1
_chemical_formula_structural   TbLu2Pa(ReB6)2
_chemical_formula_sum   'Tb2 Lu4 Pa2 Re4 B24'
_cell_volume   384.78526932
_cell_formula_units_Z   2
loop_
 _symmetry_equiv_pos_site_id
 _symmetry_equiv_pos_as_xyz
  1  'x, y, z'
loop_
 _atom_site_type_symbol
 _atom_site_label
 _atom_site_symmetry_multiplicity
 _atom_site_fract_x
 _atom_site_fract_y
 _atom_site_fract_z
 _atom_site_occupancy
  Tb  Tb0  1  0.000000  0.823169  0.085651  1
  Tb  Tb1  1  0.000000  0.176831  0.914349  1
  Lu  Lu2  1  0.000000  0.945094  0.372475  1
  Lu  Lu3  1  0.000000  0.054906  0.627525  1
  Lu  Lu4  1  0.000000  0.444196  0.126564  1
  Lu  Lu5  1  0.000000  0.555804  0.873436  1
  Pa  Pa6  1  0.000000  0.320810  0.413394  1
  Pa  Pa7  1  0.000000  0.679190  0.586606  1
  Re  Re8  1  0.000000  0.635974  0.323867  1
  Re  Re9  1  0.000000  0.364026  0.676133  1
  Re  Re10  1  0.000000  0.141736  0.182893  1
  Re  Re11  1  0.000000  0.858264  0.817107  1
  B  B12  1  0.500000  0.554190  0.432807  1
  B  B13  1  0.500000  0.445810  0.567193  1
  B  B14  1  0.500000  0.054205  0.067868  1
  B  B15  1  0.500000  0.945795  0.932132  1
  B  B16  1  0.500000  0.750404  0.419269  1
  B  B17  1  0.500000  0.249596  0.580731  1
  B  B18  1  0.500000  0.249971  0.080891  1
  B  B19  1  0.500000  0.750029  0.919109  1
  B  B20  1  0.500000  0.792379  0.265446  1
  B  B21  1  0.500000  0.207621  0.734554  1
  B  B22  1  0.500000  0.293093  0.234186  1
  B  B23  1  0.500000  0.706907  0.765814  1
  B  B24  1  0.500000  0.630459  0.184819  1
  B  B25  1  0.500000  0.369541  0.815181  1
  B  B26  1  0.500000  0.131235  0.315055  1
  B  B27  1  0.500000  0.868765  0.684945  1
  B  B28  1  0.500000  0.982245  0.212974  1
  B  B29  1  0.500000  0.017755  0.787026  1
  B  B30  1  0.500000  0.482608  0.286022  1
  B  B31  1  0.500000  0.517392  0.713978  1
  B  B32  1  0.500000  0.601067  0.028094  1
  B  B33  1  0.500000  0.398933  0.971906  1
  B  B34  1  0.500000  0.105640  0.470904  1
  B  B35  1  0.500000  0.894360  0.529096  1
