# generated using pymatgen
data_YbHo4(PtPb2)2
_symmetry_space_group_name_H-M   'P 1'
_cell_length_a   3.74405500
_cell_length_b   8.25225600
_cell_length_c   18.28637200
_cell_angle_alpha   90.00000000
_cell_angle_beta   90.00000000
_cell_angle_gamma   90.00000000
_symmetry_Int_Tables_number   1
_chemical_formula_structural   YbHo4(PtPb2)2
_chemical_formula_sum   'Yb2 Ho8 Pt4 Pb8'
_cell_volume   564.99221323
_cell_formula_units_Z   2
loop_
 _symmetry_equiv_pos_site_id
 _symmetry_equiv_pos_as_xyz
  1  'x, y, z'
loop_
 _atom_site_type_symbol
 _atom_site_label
 _atom_site_symmetry_multiplicity
 _atom_site_fract_x
 _atom_site_fract_y
 _atom_site_fract_z
 _atom_site_occupancy
  Yb  Yb0  1  0.000000  0.000000  0.000000  1
  Yb  Yb1  1  0.000000  0.500000  0.500000  1
  Ho  Ho2  1  0.000000  0.116165  0.412877  1
  Ho  Ho3  1  0.000000  0.883835  0.587123  1
  Ho  Ho4  1  0.000000  0.383835  0.912877  1
  Ho  Ho5  1  0.000000  0.616165  0.087123  1
  Ho  Ho6  1  0.000000  0.241937  0.219549  1
  Ho  Ho7  1  0.000000  0.758063  0.780451  1
  Ho  Ho8  1  0.000000  0.258063  0.719549  1
  Ho  Ho9  1  0.000000  0.741937  0.280451  1
  Pt  Pt10  1  0.500000  0.029574  0.303300  1
  Pt  Pt11  1  0.500000  0.970426  0.696700  1
  Pt  Pt12  1  0.500000  0.470426  0.803300  1
  Pt  Pt13  1  0.500000  0.529574  0.196700  1
  Pb  Pb14  1  0.500000  0.420166  0.351275  1
  Pb  Pb15  1  0.500000  0.579834  0.648725  1
  Pb  Pb16  1  0.500000  0.079834  0.851275  1
  Pb  Pb17  1  0.500000  0.920166  0.148725  1
  Pb  Pb18  1  0.500000  0.292989  0.064611  1
  Pb  Pb19  1  0.500000  0.707011  0.935389  1
  Pb  Pb20  1  0.500000  0.207011  0.564611  1
  Pb  Pb21  1  0.500000  0.792989  0.435389  1
