# generated using pymatgen
data_Y4Lu6SiSb5
_symmetry_space_group_name_H-M   'P 1'
_cell_length_a   7.84307200
_cell_length_b   9.04825300
_cell_length_c   11.62847200
_cell_angle_alpha   90.00000000
_cell_angle_beta   90.00000000
_cell_angle_gamma   90.00000000
_symmetry_Int_Tables_number   1
_chemical_formula_structural   Y4Lu6SiSb5
_chemical_formula_sum   'Y8 Lu12 Si2 Sb10'
_cell_volume   825.22730393
_cell_formula_units_Z   2
loop_
 _symmetry_equiv_pos_site_id
 _symmetry_equiv_pos_as_xyz
  1  'x, y, z'
loop_
 _atom_site_type_symbol
 _atom_site_label
 _atom_site_symmetry_multiplicity
 _atom_site_fract_x
 _atom_site_fract_y
 _atom_site_fract_z
 _atom_site_occupancy
  Y  Y0  1  0.173030  0.750000  0.713901  1
  Y  Y1  1  0.673030  0.750000  0.786099  1
  Y  Y2  1  0.814524  0.250000  0.279299  1
  Y  Y3  1  0.314524  0.250000  0.220701  1
  Y  Y4  1  0.350515  0.750000  0.207175  1
  Y  Y5  1  0.850515  0.750000  0.292825  1
  Y  Y6  1  0.651760  0.250000  0.785002  1
  Y  Y7  1  0.151760  0.250000  0.714998  1
  Lu  Lu8  1  0.037738  0.750000  0.989072  1
  Lu  Lu9  1  0.537738  0.750000  0.510928  1
  Lu  Lu10  1  0.978155  0.250000  0.008493  1
  Lu  Lu11  1  0.478155  0.250000  0.491507  1
  Lu  Lu12  1  0.311352  0.451605  0.939543  1
  Lu  Lu13  1  0.811352  0.048395  0.560457  1
  Lu  Lu14  1  0.685645  0.931789  0.056428  1
  Lu  Lu15  1  0.185645  0.568211  0.443572  1
  Lu  Lu16  1  0.685645  0.568211  0.056428  1
  Lu  Lu17  1  0.185645  0.931789  0.443572  1
  Lu  Lu18  1  0.311352  0.048395  0.939543  1
  Lu  Lu19  1  0.811352  0.451605  0.560457  1
  Si  Si20  1  0.412773  0.750000  0.964026  1
  Si  Si21  1  0.912773  0.750000  0.535974  1
  Sb  Sb22  1  0.436336  0.001906  0.672059  1
  Sb  Sb23  1  0.936336  0.498094  0.827941  1
  Sb  Sb24  1  0.561557  0.503864  0.328101  1
  Sb  Sb25  1  0.061557  0.996136  0.171899  1
  Sb  Sb26  1  0.561557  0.996136  0.328101  1
  Sb  Sb27  1  0.061557  0.503864  0.171899  1
  Sb  Sb28  1  0.436336  0.498094  0.672059  1
  Sb  Sb29  1  0.936336  0.001906  0.827941  1
  Sb  Sb30  1  0.591725  0.250000  0.041002  1
  Sb  Sb31  1  0.091725  0.250000  0.458998  1
