# generated using pymatgen
data_Tb4Tm12MgNi4Ag2Hg
_symmetry_space_group_name_H-M   'P 1'
_cell_length_a   9.45402887
_cell_length_b   9.43563295
_cell_length_c   9.43563100
_cell_angle_alpha   60.00000334
_cell_angle_beta   60.06434996
_cell_angle_gamma   60.06435343
_symmetry_Int_Tables_number   1
_chemical_formula_structural   Tb4Tm12MgNi4Ag2Hg
_chemical_formula_sum   'Tb4 Tm12 Mg1 Ni4 Ag2 Hg1'
_cell_volume   595.75221761
_cell_formula_units_Z   1
loop_
 _symmetry_equiv_pos_site_id
 _symmetry_equiv_pos_as_xyz
  1  'x, y, z'
loop_
 _atom_site_type_symbol
 _atom_site_label
 _atom_site_symmetry_multiplicity
 _atom_site_fract_x
 _atom_site_fract_y
 _atom_site_fract_z
 _atom_site_occupancy
  Tb  Tb0  1  0.600313  0.598317  0.598622  1
  Tb  Tb1  1  0.600313  0.598317  0.202748  1
  Tb  Tb2  1  0.599454  0.203460  0.598543  1
  Tb  Tb3  1  0.191205  0.603242  0.602777  1
  Tm  Tm4  1  0.060541  0.438079  0.438791  1
  Tm  Tm5  1  0.434502  0.064493  0.064491  1
  Tm  Tm6  1  0.434502  0.064493  0.436515  1
  Tm  Tm7  1  0.060541  0.438079  0.062589  1
  Tm  Tm8  1  0.434436  0.436303  0.064631  1
  Tm  Tm9  1  0.061125  0.062883  0.437996  1
  Tm  Tm10  1  0.183260  0.815903  0.815611  1
  Tm  Tm11  1  0.815063  0.183196  0.186156  1
  Tm  Tm12  1  0.815063  0.183196  0.815585  1
  Tm  Tm13  1  0.183260  0.815903  0.185227  1
  Tm  Tm14  1  0.815381  0.816631  0.183994  1
  Tm  Tm15  1  0.183984  0.184173  0.815922  1
  Mg  Mg16  1  0.534063  0.823132  0.821402  1
  Ni  Ni17  1  0.389031  0.393254  0.392898  1
  Ni  Ni18  1  0.389031  0.393254  0.824818  1
  Ni  Ni19  1  0.388730  0.824959  0.393156  1
  Ni  Ni20  1  0.825113  0.391569  0.391659  1
  Ag  Ag21  1  0.833598  0.837719  0.835951  1
  Ag  Ag22  1  0.833598  0.837719  0.492733  1
  Hg  Hg23  1  0.833894  0.491728  0.837189  1
