# generated using pymatgen
data_Ta3Co4TcB4
_symmetry_space_group_name_H-M   'P 1'
_cell_length_a   3.28456200
_cell_length_b   5.80266811
_cell_length_c   6.73600526
_cell_angle_alpha   89.28698786
_cell_angle_beta   90.00000000
_cell_angle_gamma   90.00000000
_symmetry_Int_Tables_number   1
_chemical_formula_structural   Ta3Co4TcB4
_chemical_formula_sum   'Ta3 Co4 Tc1 B4'
_cell_volume   128.37308672
_cell_formula_units_Z   1
loop_
 _symmetry_equiv_pos_site_id
 _symmetry_equiv_pos_as_xyz
  1  'x, y, z'
loop_
 _atom_site_type_symbol
 _atom_site_label
 _atom_site_symmetry_multiplicity
 _atom_site_fract_x
 _atom_site_fract_y
 _atom_site_fract_z
 _atom_site_occupancy
  Ta  Ta0  1  0.250000  0.528073  0.678077  1
  Ta  Ta1  1  0.750000  0.473415  0.317110  1
  Ta  Ta2  1  0.250000  0.026478  0.826636  1
  Co  Co3  1  0.750000  0.858567  0.558380  1
  Co  Co4  1  0.250000  0.146513  0.443491  1
  Co  Co5  1  0.750000  0.351866  0.941247  1
  Co  Co6  1  0.250000  0.642080  0.056594  1
  Tc  Tc7  1  0.750000  0.973425  0.176728  1
  B  B8  1  0.250000  0.265254  0.126145  1
  B  B9  1  0.750000  0.725101  0.886220  1
  B  B10  1  0.250000  0.779005  0.370156  1
  B  B11  1  0.750000  0.230223  0.619217  1
