# generated using pymatgen
data_AsI10F
_symmetry_space_group_name_H-M   'P 1'
_cell_length_a   8.09308188
_cell_length_b   9.36921445
_cell_length_c   10.15877789
_cell_angle_alpha   96.10687429
_cell_angle_beta   98.76958509
_cell_angle_gamma   110.63643644
_symmetry_Int_Tables_number   1
_chemical_formula_structural   AsI10F
_chemical_formula_sum   'As1 I10 F1'
_cell_volume   701.68740424
_cell_formula_units_Z   1
loop_
 _symmetry_equiv_pos_site_id
 _symmetry_equiv_pos_as_xyz
  1  'x, y, z'
loop_
 _atom_site_type_symbol
 _atom_site_label
 _atom_site_symmetry_multiplicity
 _atom_site_fract_x
 _atom_site_fract_y
 _atom_site_fract_z
 _atom_site_occupancy
  As  As0  1  0.990353  0.501815  0.545190  1
  I  I1  1  0.004638  0.006625  0.032086  1
  I  I2  1  0.676144  0.778895  0.876714  1
  I  I3  1  0.334201  0.241830  0.227789  1
  I  I4  1  0.725371  0.268723  0.588134  1
  I  I5  1  0.245383  0.713952  0.297755  1
  I  I6  1  0.462085  0.745517  0.088218  1
  I  I7  1  0.543053  0.268115  0.993988  1
  I  I8  1  0.861722  0.722817  0.550284  1
  I  I9  1  0.143340  0.207791  0.441817  1
  I  I10  1  0.890957  0.485601  0.144261  1
  F  F11  1  0.122754  0.558320  0.713762  1
