# generated using pymatgen
data_U4Pa4B24Mo3W
_symmetry_space_group_name_H-M   'P 1'
_cell_length_a   3.74129400
_cell_length_b   9.30590404
_cell_length_c   11.40009905
_cell_angle_alpha   89.98920256
_cell_angle_beta   90.00000000
_cell_angle_gamma   90.00000000
_symmetry_Int_Tables_number   1
_chemical_formula_structural   U4Pa4B24Mo3W
_chemical_formula_sum   'U4 Pa4 B24 Mo3 W1'
_cell_volume   396.90724319
_cell_formula_units_Z   1
loop_
 _symmetry_equiv_pos_site_id
 _symmetry_equiv_pos_as_xyz
  1  'x, y, z'
loop_
 _atom_site_type_symbol
 _atom_site_label
 _atom_site_symmetry_multiplicity
 _atom_site_fract_x
 _atom_site_fract_y
 _atom_site_fract_z
 _atom_site_occupancy
  U  U0  1  0.000000  0.956342  0.395123  1
  U  U1  1  0.000000  0.043727  0.604976  1
  U  U2  1  0.000000  0.456171  0.104837  1
  U  U3  1  0.000000  0.543816  0.895063  1
  Pa  Pa4  1  0.000000  0.334184  0.407687  1
  Pa  Pa5  1  0.000000  0.665735  0.592330  1
  Pa  Pa6  1  0.000000  0.834273  0.092326  1
  Pa  Pa7  1  0.000000  0.165683  0.907672  1
  B  B8  1  0.500000  0.550731  0.432137  1
  B  B9  1  0.500000  0.449205  0.567945  1
  B  B10  1  0.500000  0.050834  0.067914  1
  B  B11  1  0.500000  0.949242  0.932068  1
  B  B12  1  0.500000  0.744042  0.423484  1
  B  B13  1  0.500000  0.256031  0.576594  1
  B  B14  1  0.500000  0.243924  0.076559  1
  B  B15  1  0.500000  0.756028  0.923402  1
  B  B16  1  0.500000  0.803081  0.273722  1
  B  B17  1  0.500000  0.196980  0.726303  1
  B  B18  1  0.500000  0.303009  0.226278  1
  B  B19  1  0.500000  0.696972  0.773700  1
  B  B20  1  0.500000  0.643698  0.187700  1
  B  B21  1  0.500000  0.356258  0.812233  1
  B  B22  1  0.500000  0.143719  0.312219  1
  B  B23  1  0.500000  0.856274  0.687760  1
  B  B24  1  0.500000  0.986797  0.219325  1
  B  B25  1  0.500000  0.013267  0.780706  1
  B  B26  1  0.500000  0.486681  0.280677  1
  B  B27  1  0.500000  0.513250  0.719310  1
  B  B28  1  0.500000  0.639716  0.038578  1
  B  B29  1  0.500000  0.360189  0.961332  1
  B  B30  1  0.500000  0.139767  0.461374  1
  B  B31  1  0.500000  0.860277  0.538687  1
  Mo  Mo32  1  0.000000  0.354458  0.680561  1
  Mo  Mo33  1  0.000000  0.145569  0.180540  1
  Mo  Mo34  1  0.000000  0.854457  0.819422  1
  W  W35  1  0.000000  0.645613  0.319456  1
