# generated using pymatgen
data_ZnGa2Pt5
_symmetry_space_group_name_H-M   'P 1'
_cell_length_a   5.54588603
_cell_length_b   5.54588489
_cell_length_c   3.97586800
_cell_angle_alpha   90.00000000
_cell_angle_beta   90.00000000
_cell_angle_gamma   95.82975937
_symmetry_Int_Tables_number   1
_chemical_formula_structural   ZnGa2Pt5
_chemical_formula_sum   'Zn1 Ga2 Pt5'
_cell_volume   121.65270962
_cell_formula_units_Z   1
loop_
 _symmetry_equiv_pos_site_id
 _symmetry_equiv_pos_as_xyz
  1  'x, y, z'
loop_
 _atom_site_type_symbol
 _atom_site_label
 _atom_site_symmetry_multiplicity
 _atom_site_fract_x
 _atom_site_fract_y
 _atom_site_fract_z
 _atom_site_occupancy
  Zn  Zn0  1  0.720119  0.279881  0.500000  1
  Ga  Ga1  1  0.990641  0.009359  0.000000  1
  Ga  Ga2  1  0.287153  0.712847  0.500000  1
  Pt  Pt3  1  0.501216  0.498784  0.000000  1
  Pt  Pt4  1  0.002008  0.504518  0.000000  1
  Pt  Pt5  1  0.495482  0.997992  0.000000  1
  Pt  Pt6  1  0.214306  0.210924  0.500000  1
  Pt  Pt7  1  0.789076  0.785694  0.500000  1
