# generated using pymatgen
data_Y10GaPb5S2
_symmetry_space_group_name_H-M   'P 1'
_cell_length_a   9.08184100
_cell_length_b   9.08184196
_cell_length_c   6.73619400
_cell_angle_alpha   90.00000000
_cell_angle_beta   90.00000000
_cell_angle_gamma   120.09405521
_symmetry_Int_Tables_number   1
_chemical_formula_structural   Y10GaPb5S2
_chemical_formula_sum   'Y10 Ga1 Pb5 S2'
_cell_volume   480.70724018
_cell_formula_units_Z   1
loop_
 _symmetry_equiv_pos_site_id
 _symmetry_equiv_pos_as_xyz
  1  'x, y, z'
loop_
 _atom_site_type_symbol
 _atom_site_label
 _atom_site_symmetry_multiplicity
 _atom_site_fract_x
 _atom_site_fract_y
 _atom_site_fract_z
 _atom_site_occupancy
  Y  Y0  1  0.752725  0.752725  0.750000  1
  Y  Y1  1  0.248104  0.012506  0.750000  1
  Y  Y2  1  0.012506  0.248104  0.750000  1
  Y  Y3  1  0.240689  0.240689  0.250000  1
  Y  Y4  1  0.756899  0.001239  0.250000  1
  Y  Y5  1  0.001239  0.756899  0.250000  1
  Y  Y6  1  0.658202  0.335515  0.996679  1
  Y  Y7  1  0.335515  0.658202  0.996679  1
  Y  Y8  1  0.335515  0.658202  0.503321  1
  Y  Y9  1  0.658202  0.335515  0.503321  1
  Ga  Ga10  1  0.399283  0.399283  0.750000  1
  Pb  Pb11  1  0.605067  0.002320  0.750000  1
  Pb  Pb12  1  0.002320  0.605067  0.750000  1
  Pb  Pb13  1  0.602268  0.602268  0.250000  1
  Pb  Pb14  1  0.397566  0.997262  0.250000  1
  Pb  Pb15  1  0.997262  0.397566  0.250000  1
  S  S16  1  0.998319  0.998319  0.999885  1
  S  S17  1  0.998319  0.998319  0.500115  1
