# generated using pymatgen
data_Pr4Tm4Re(TcB8)3
_symmetry_space_group_name_H-M   'P 1'
_cell_length_a   3.72747900
_cell_length_b   9.22353080
_cell_length_c   11.70091204
_cell_angle_alpha   90.01909117
_cell_angle_beta   90.00000000
_cell_angle_gamma   90.00000000
_symmetry_Int_Tables_number   1
_chemical_formula_structural   Pr4Tm4Re(TcB8)3
_chemical_formula_sum   'Pr4 Tm4 Re1 Tc3 B24'
_cell_volume   402.28338708
_cell_formula_units_Z   1
loop_
 _symmetry_equiv_pos_site_id
 _symmetry_equiv_pos_as_xyz
  1  'x, y, z'
loop_
 _atom_site_type_symbol
 _atom_site_label
 _atom_site_symmetry_multiplicity
 _atom_site_fract_x
 _atom_site_fract_y
 _atom_site_fract_z
 _atom_site_occupancy
  Pr  Pr0  1  0.000000  0.322817  0.414572  1
  Pr  Pr1  1  0.000000  0.677317  0.585237  1
  Pr  Pr2  1  0.000000  0.822721  0.085662  1
  Pr  Pr3  1  0.000000  0.177679  0.914736  1
  Tm  Tm4  1  0.000000  0.942704  0.368508  1
  Tm  Tm5  1  0.000000  0.057789  0.630623  1
  Tm  Tm6  1  0.000000  0.442725  0.131587  1
  Tm  Tm7  1  0.000000  0.556383  0.868954  1
  Re  Re8  1  0.000000  0.859842  0.818299  1
  Tc  Tc9  1  0.000000  0.640500  0.318228  1
  Tc  Tc10  1  0.000000  0.359489  0.681765  1
  Tc  Tc11  1  0.000000  0.140295  0.181759  1
  B  B12  1  0.500000  0.555929  0.429617  1
  B  B13  1  0.500000  0.444203  0.570406  1
  B  B14  1  0.500000  0.055896  0.070405  1
  B  B15  1  0.500000  0.944249  0.929821  1
  B  B16  1  0.500000  0.750866  0.415278  1
  B  B17  1  0.500000  0.249425  0.584666  1
  B  B18  1  0.500000  0.250900  0.084805  1
  B  B19  1  0.500000  0.748842  0.915435  1
  B  B20  1  0.500000  0.791750  0.265927  1
  B  B21  1  0.500000  0.208162  0.733991  1
  B  B22  1  0.500000  0.291682  0.234139  1
  B  B23  1  0.500000  0.707898  0.765912  1
  B  B24  1  0.500000  0.628878  0.186182  1
  B  B25  1  0.500000  0.370991  0.813843  1
  B  B26  1  0.500000  0.128983  0.313940  1
  B  B27  1  0.500000  0.871133  0.685869  1
  B  B28  1  0.500000  0.984052  0.213556  1
  B  B29  1  0.500000  0.016295  0.786306  1
  B  B30  1  0.500000  0.484054  0.286513  1
  B  B31  1  0.500000  0.515931  0.713610  1
  B  B32  1  0.500000  0.594644  0.026065  1
  B  B33  1  0.500000  0.404912  0.974153  1
  B  B34  1  0.500000  0.094859  0.473687  1
  B  B35  1  0.500000  0.905208  0.525947  1
