# generated using pymatgen
data_PrEu9Si5Rh
_symmetry_space_group_name_H-M   'P 1'
_cell_length_a   9.11852093
_cell_length_b   9.11852140
_cell_length_c   9.15025800
_cell_angle_alpha   129.01012793
_cell_angle_beta   129.01013032
_cell_angle_gamma   74.54496052
_symmetry_Int_Tables_number   1
_chemical_formula_structural   PrEu9Si5Rh
_chemical_formula_sum   'Pr1 Eu9 Si5 Rh1'
_cell_volume   448.64068026
_cell_formula_units_Z   1
loop_
 _symmetry_equiv_pos_site_id
 _symmetry_equiv_pos_as_xyz
  1  'x, y, z'
loop_
 _atom_site_type_symbol
 _atom_site_label
 _atom_site_symmetry_multiplicity
 _atom_site_fract_x
 _atom_site_fract_y
 _atom_site_fract_z
 _atom_site_occupancy
  Pr  Pr0  1  0.546204  0.046204  0.869487  1
  Eu  Eu1  1  0.176066  0.676066  0.142288  1
  Eu  Eu2  1  0.029867  0.179643  0.496996  1
  Eu  Eu3  1  0.679643  0.529867  0.496996  1
  Eu  Eu4  1  0.466425  0.966425  0.146712  1
  Eu  Eu5  1  0.821053  0.321053  0.858708  1
  Eu  Eu6  1  0.967922  0.817002  0.496134  1
  Eu  Eu7  1  0.317002  0.467922  0.496134  1
  Eu  Eu8  1  0.501331  0.504200  0.001281  1
  Eu  Eu9  1  0.004200  0.001331  0.001281  1
  Si  Si10  1  0.112303  0.612303  0.724309  1
  Si  Si11  1  0.388241  0.109183  0.502363  1
  Si  Si12  1  0.609183  0.888241  0.502363  1
  Si  Si13  1  0.251950  0.245354  0.994297  1
  Si  Si14  1  0.745354  0.751950  0.994297  1
  Rh  Rh15  1  0.883255  0.383255  0.276356  1
