# generated using pymatgen
data_Er6Zn17Pd6S
_symmetry_space_group_name_H-M   'P 1'
_cell_length_a   9.02854224
_cell_length_b   9.02862055
_cell_length_c   9.02860500
_cell_angle_alpha   59.99984082
_cell_angle_beta   60.00052115
_cell_angle_gamma   59.99938498
_symmetry_Int_Tables_number   1
_chemical_formula_structural   Er6Zn17Pd6S
_chemical_formula_sum   'Er6 Zn17 Pd6 S1'
_cell_volume   520.40787538
_cell_formula_units_Z   1
loop_
 _symmetry_equiv_pos_site_id
 _symmetry_equiv_pos_as_xyz
  1  'x, y, z'
loop_
 _atom_site_type_symbol
 _atom_site_label
 _atom_site_symmetry_multiplicity
 _atom_site_fract_x
 _atom_site_fract_y
 _atom_site_fract_z
 _atom_site_occupancy
  Er  Er0  1  0.714196  0.285709  0.286044  1
  Er  Er1  1  0.714292  0.285775  0.713972  1
  Er  Er2  1  0.714082  0.714142  0.285956  1
  Er  Er3  1  0.285804  0.714291  0.713956  1
  Er  Er4  1  0.285708  0.714225  0.286028  1
  Er  Er5  1  0.285918  0.285858  0.714044  1
  Zn  Zn6  1  0.629652  0.123454  0.123440  1
  Zn  Zn7  1  0.123451  0.629658  0.123441  1
  Zn  Zn8  1  0.123447  0.123451  0.629660  1
  Zn  Zn9  1  0.123456  0.123454  0.123438  1
  Zn  Zn10  1  0.370348  0.876546  0.876560  1
  Zn  Zn11  1  0.876549  0.370342  0.876559  1
  Zn  Zn12  1  0.876553  0.876549  0.370340  1
  Zn  Zn13  1  0.876544  0.876546  0.876562  1
  Zn  Zn14  1  0.000000  0.000000  0.000000  1
  Zn  Zn15  1  0.009561  0.330155  0.330137  1
  Zn  Zn16  1  0.330153  0.009562  0.330137  1
  Zn  Zn17  1  0.330147  0.330147  0.009568  1
  Zn  Zn18  1  0.330151  0.330153  0.330134  1
  Zn  Zn19  1  0.990439  0.669845  0.669863  1
  Zn  Zn20  1  0.669847  0.990438  0.669863  1
  Zn  Zn21  1  0.669853  0.669853  0.990432  1
  Zn  Zn22  1  0.669849  0.669847  0.669866  1
  Pd  Pd23  1  0.500000  0.000000  0.000000  1
  Pd  Pd24  1  0.500000  0.000000  0.500000  1
  Pd  Pd25  1  0.500000  0.500000  0.000000  1
  Pd  Pd26  1  0.000000  0.500000  0.500000  1
  Pd  Pd27  1  0.000000  0.500000  0.000000  1
  Pd  Pd28  1  0.000000  0.000000  0.500000  1
  S  S29  1  0.500000  0.500000  0.500000  1
