# generated using pymatgen
data_Er7TmRe2(OsC4)2
_symmetry_space_group_name_H-M   'P 1'
_cell_length_a   5.05462600
_cell_length_b   6.49694601
_cell_length_c   9.74445480
_cell_angle_alpha   89.78153449
_cell_angle_beta   90.00000000
_cell_angle_gamma   90.00000000
_symmetry_Int_Tables_number   1
_chemical_formula_structural   Er7TmRe2(OsC4)2
_chemical_formula_sum   'Er7 Tm1 Re2 Os2 C8'
_cell_volume   320.00198540
_cell_formula_units_Z   1
loop_
 _symmetry_equiv_pos_site_id
 _symmetry_equiv_pos_as_xyz
  1  'x, y, z'
loop_
 _atom_site_type_symbol
 _atom_site_label
 _atom_site_symmetry_multiplicity
 _atom_site_fract_x
 _atom_site_fract_y
 _atom_site_fract_z
 _atom_site_occupancy
  Er  Er0  1  0.250000  0.677746  0.555462  1
  Er  Er1  1  0.750000  0.322317  0.444395  1
  Er  Er2  1  0.750000  0.821078  0.056230  1
  Er  Er3  1  0.250000  0.178848  0.943978  1
  Er  Er4  1  0.250000  0.532195  0.216551  1
  Er  Er5  1  0.750000  0.467771  0.783575  1
  Er  Er6  1  0.750000  0.969469  0.714713  1
  Tm  Tm7  1  0.250000  0.030592  0.285138  1
  Re  Re8  1  0.250000  0.721281  0.866970  1
  Re  Re9  1  0.750000  0.278638  0.133072  1
  Os  Os10  1  0.750000  0.777578  0.366187  1
  Os  Os11  1  0.250000  0.222684  0.633676  1
  C  C12  1  0.250000  0.455587  0.759814  1
  C  C13  1  0.750000  0.544435  0.240192  1
  C  C14  1  0.750000  0.044245  0.258638  1
  C  C15  1  0.250000  0.955830  0.741472  1
  C  C16  1  0.250000  0.824758  0.053968  1
  C  C17  1  0.750000  0.175298  0.946255  1
  C  C18  1  0.750000  0.674235  0.552903  1
  C  C19  1  0.250000  0.325414  0.446812  1
