# generated using pymatgen
data_SrLa6Tm3Si8O3
_symmetry_space_group_name_H-M   'P 1'
_cell_length_a   10.76040614
_cell_length_b   10.76040673
_cell_length_c   4.52275200
_cell_angle_alpha   90.00000000
_cell_angle_beta   90.00000000
_cell_angle_gamma   120.01821535
_symmetry_Int_Tables_number   1
_chemical_formula_structural   SrLa6Tm3Si8O3
_chemical_formula_sum   'Sr1 La6 Tm3 Si8 O3'
_cell_volume   453.43079569
_cell_formula_units_Z   1
loop_
 _symmetry_equiv_pos_site_id
 _symmetry_equiv_pos_as_xyz
  1  'x, y, z'
loop_
 _atom_site_type_symbol
 _atom_site_label
 _atom_site_symmetry_multiplicity
 _atom_site_fract_x
 _atom_site_fract_y
 _atom_site_fract_z
 _atom_site_occupancy
  Sr  Sr0  1  0.212744  0.787256  0.000000  1
  La  La1  1  0.575541  0.788756  0.000000  1
  La  La2  1  0.788466  0.576064  0.000000  1
  La  La3  1  0.000298  0.999702  0.000000  1
  La  La4  1  0.211244  0.424459  0.000000  1
  La  La5  1  0.423936  0.211534  0.000000  1
  La  La6  1  0.787739  0.212261  0.000000  1
  Tm  Tm7  1  0.001239  0.500696  0.500000  1
  Tm  Tm8  1  0.500263  0.499737  0.500000  1
  Tm  Tm9  1  0.499304  0.998761  0.500000  1
  Si  Si10  1  0.997199  0.778236  0.500000  1
  Si  Si11  1  0.999572  0.223688  0.500000  1
  Si  Si12  1  0.223986  0.225383  0.500000  1
  Si  Si13  1  0.776312  0.000428  0.500000  1
  Si  Si14  1  0.336604  0.663396  0.500000  1
  Si  Si15  1  0.221764  0.002801  0.500000  1
  Si  Si16  1  0.667191  0.332809  0.500000  1
  Si  Si17  1  0.774617  0.776014  0.500000  1
  O  O18  1  0.996266  0.494892  0.000000  1
  O  O19  1  0.500609  0.499391  0.000000  1
  O  O20  1  0.505108  0.003734  0.000000  1
