# generated using pymatgen
data_PrSmB4Os3Rh
_symmetry_space_group_name_H-M   'P 1'
_cell_length_a   6.84816204
_cell_length_b   6.03901401
_cell_length_c   5.63668839
_cell_angle_alpha   71.72836117
_cell_angle_beta   56.86476286
_cell_angle_gamma   51.23171810
_symmetry_Int_Tables_number   1
_chemical_formula_structural   PrSmB4Os3Rh
_chemical_formula_sum   'Pr1 Sm1 B4 Os3 Rh1'
_cell_volume   152.04968245
_cell_formula_units_Z   1
loop_
 _symmetry_equiv_pos_site_id
 _symmetry_equiv_pos_as_xyz
  1  'x, y, z'
loop_
 _atom_site_type_symbol
 _atom_site_label
 _atom_site_symmetry_multiplicity
 _atom_site_fract_x
 _atom_site_fract_y
 _atom_site_fract_z
 _atom_site_occupancy
  Pr  Pr0  1  0.001649  0.001649  0.998351  1
  Sm  Sm1  1  0.246871  0.246871  0.253129  1
  B  B2  1  0.678552  0.318057  0.678619  1
  B  B3  1  0.318057  0.678552  0.324772  1
  B  B4  1  0.936979  0.571143  0.940591  1
  B  B5  1  0.571143  0.936979  0.551288  1
  Os  Os6  1  0.636052  0.636052  0.363948  1
  Os  Os7  1  0.362660  0.362660  0.637340  1
  Os  Os8  1  0.884055  0.884055  0.615945  1
  Rh  Rh9  1  0.613984  0.613984  0.886016  1
