# generated using pymatgen
data_Ta6Be3Ga
_symmetry_space_group_name_H-M   'P 1'
_cell_length_a   6.62770607
_cell_length_b   6.62770591
_cell_length_c   3.38667000
_cell_angle_alpha   90.00000000
_cell_angle_beta   90.00000000
_cell_angle_gamma   89.94628065
_symmetry_Int_Tables_number   1
_chemical_formula_structural   Ta6Be3Ga
_chemical_formula_sum   'Ta6 Be3 Ga1'
_cell_volume   148.76444930
_cell_formula_units_Z   1
loop_
 _symmetry_equiv_pos_site_id
 _symmetry_equiv_pos_as_xyz
  1  'x, y, z'
loop_
 _atom_site_type_symbol
 _atom_site_label
 _atom_site_symmetry_multiplicity
 _atom_site_fract_x
 _atom_site_fract_y
 _atom_site_fract_z
 _atom_site_occupancy
  Ta  Ta0  1  0.506339  0.497483  0.000000  1
  Ta  Ta1  1  0.997483  0.006339  0.000000  1
  Ta  Ta2  1  0.676910  0.176910  0.500000  1
  Ta  Ta3  1  0.334474  0.834474  0.500000  1
  Ta  Ta4  1  0.182264  0.305337  0.500000  1
  Ta  Ta5  1  0.805337  0.682264  0.500000  1
  Be  Be6  1  0.877654  0.377654  0.000000  1
  Be  Be7  1  0.615616  0.888003  0.000000  1
  Be  Be8  1  0.388003  0.115616  0.000000  1
  Ga  Ga9  1  0.115920  0.615920  0.000000  1
