# generated using pymatgen
data_Er4Al18NiIr5
_symmetry_space_group_name_H-M   'P 1'
_cell_length_a   7.51765721
_cell_length_b   7.51765878
_cell_length_c   9.40036803
_cell_angle_alpha   89.89833756
_cell_angle_beta   89.89832730
_cell_angle_gamma   119.38805892
_symmetry_Int_Tables_number   1
_chemical_formula_structural   Er4Al18NiIr5
_chemical_formula_sum   'Er4 Al18 Ni1 Ir5'
_cell_volume   462.89558677
_cell_formula_units_Z   1
loop_
 _symmetry_equiv_pos_site_id
 _symmetry_equiv_pos_as_xyz
  1  'x, y, z'
loop_
 _atom_site_type_symbol
 _atom_site_label
 _atom_site_symmetry_multiplicity
 _atom_site_fract_x
 _atom_site_fract_y
 _atom_site_fract_z
 _atom_site_occupancy
  Er  Er0  1  0.997527  0.675878  0.250332  1
  Er  Er1  1  0.007066  0.327731  0.749901  1
  Er  Er2  1  0.672269  0.992934  0.250099  1
  Er  Er3  1  0.324122  0.002473  0.749668  1
  Al  Al4  1  0.131167  0.130900  0.249332  1
  Al  Al5  1  0.869100  0.868833  0.750668  1
  Al  Al6  1  0.995381  0.336372  0.075490  1
  Al  Al7  1  0.996073  0.661907  0.924913  1
  Al  Al8  1  0.998589  0.662668  0.575423  1
  Al  Al9  1  0.337332  0.001411  0.424577  1
  Al  Al10  1  0.000461  0.335302  0.423968  1
  Al  Al11  1  0.664698  0.999539  0.576032  1
  Al  Al12  1  0.663628  0.004619  0.924510  1
  Al  Al13  1  0.338093  0.003927  0.075087  1
  Al  Al14  1  0.333709  0.332593  0.551112  1
  Al  Al15  1  0.667407  0.666291  0.448888  1
  Al  Al16  1  0.666639  0.666008  0.051735  1
  Al  Al17  1  0.333992  0.333361  0.948265  1
  Al  Al18  1  0.341149  0.548965  0.249440  1
  Al  Al19  1  0.658801  0.445043  0.753399  1
  Al  Al20  1  0.554957  0.341199  0.246601  1
  Al  Al21  1  0.451035  0.658851  0.750560  1
  Ni  Ni22  1  0.670093  0.329907  0.000000  1
  Ir  Ir23  1  0.327036  0.672964  0.000000  1
  Ir  Ir24  1  0.328386  0.671614  0.500000  1
  Ir  Ir25  1  0.672059  0.327941  0.500000  1
  Ir  Ir26  1  0.998793  0.001207  0.000000  1
  Ir  Ir27  1  0.000438  0.999562  0.500000  1
