# generated using pymatgen
data_TbPa3Ge4Ir3Rh
_symmetry_space_group_name_H-M   'P 1'
_cell_length_a   4.33116400
_cell_length_b   6.95821967
_cell_length_c   7.68205279
_cell_angle_alpha   90.47519727
_cell_angle_beta   90.00000000
_cell_angle_gamma   90.00000000
_symmetry_Int_Tables_number   1
_chemical_formula_structural   TbPa3Ge4Ir3Rh
_chemical_formula_sum   'Tb1 Pa3 Ge4 Ir3 Rh1'
_cell_volume   231.50752616
_cell_formula_units_Z   1
loop_
 _symmetry_equiv_pos_site_id
 _symmetry_equiv_pos_as_xyz
  1  'x, y, z'
loop_
 _atom_site_type_symbol
 _atom_site_label
 _atom_site_symmetry_multiplicity
 _atom_site_fract_x
 _atom_site_fract_y
 _atom_site_fract_z
 _atom_site_occupancy
  Tb  Tb0  1  0.250000  0.490379  0.203030  1
  Pa  Pa1  1  0.750000  0.505682  0.794698  1
  Pa  Pa2  1  0.250000  0.992076  0.300539  1
  Pa  Pa3  1  0.750000  0.006542  0.702146  1
  Ge  Ge4  1  0.250000  0.811338  0.920524  1
  Ge  Ge5  1  0.250000  0.321903  0.581222  1
  Ge  Ge6  1  0.750000  0.186219  0.085714  1
  Ge  Ge7  1  0.750000  0.680451  0.410027  1
  Ir  Ir8  1  0.250000  0.728794  0.590416  1
  Ir  Ir9  1  0.250000  0.221229  0.905712  1
  Ir  Ir10  1  0.750000  0.263970  0.417858  1
  Rh  Rh11  1  0.750000  0.791418  0.088112  1
