# generated using pymatgen
data_Y4TmLuRh18
_symmetry_space_group_name_H-M   'P 1'
_cell_length_a   5.26218100
_cell_length_b   5.26218211
_cell_length_c   17.56516900
_cell_angle_alpha   90.00000000
_cell_angle_beta   90.00000000
_cell_angle_gamma   119.99998671
_symmetry_Int_Tables_number   1
_chemical_formula_structural   Y4TmLuRh18
_chemical_formula_sum   'Y4 Tm1 Lu1 Rh18'
_cell_volume   421.22552352
_cell_formula_units_Z   1
loop_
 _symmetry_equiv_pos_site_id
 _symmetry_equiv_pos_as_xyz
  1  'x, y, z'
loop_
 _atom_site_type_symbol
 _atom_site_label
 _atom_site_symmetry_multiplicity
 _atom_site_fract_x
 _atom_site_fract_y
 _atom_site_fract_z
 _atom_site_occupancy
  Y  Y0  1  0.666667  0.333333  0.458023  1
  Y  Y1  1  0.333333  0.666667  0.541971  1
  Y  Y2  1  0.333333  0.666667  0.750497  1
  Y  Y3  1  0.666667  0.333333  0.249597  1
  Tm  Tm4  1  0.666667  0.333333  0.041676  1
  Lu  Lu5  1  0.333333  0.666667  0.958003  1
  Rh  Rh6  1  0.167233  0.832767  0.374023  1
  Rh  Rh7  1  0.167233  0.334467  0.374023  1
  Rh  Rh8  1  0.665533  0.832767  0.374023  1
  Rh  Rh9  1  0.832771  0.167229  0.625992  1
  Rh  Rh10  1  0.832771  0.665542  0.625992  1
  Rh  Rh11  1  0.334458  0.167229  0.625992  1
  Rh  Rh12  1  0.832514  0.167486  0.875178  1
  Rh  Rh13  1  0.832514  0.665029  0.875178  1
  Rh  Rh14  1  0.334971  0.167486  0.875178  1
  Rh  Rh15  1  0.167480  0.832520  0.124910  1
  Rh  Rh16  1  0.167480  0.334958  0.124910  1
  Rh  Rh17  1  0.665042  0.832520  0.124910  1
  Rh  Rh18  1  0.333333  0.666667  0.249794  1
  Rh  Rh19  1  0.666667  0.333333  0.750229  1
  Rh  Rh20  1  0.000000  0.000000  0.249559  1
  Rh  Rh21  1  0.000000  0.000000  0.750395  1
  Rh  Rh22  1  0.000000  0.000000  0.499987  1
  Rh  Rh23  1  0.000000  0.000000  0.999956  1
