# generated using pymatgen
data_GaAgCl4
_symmetry_space_group_name_H-M   'P 1'
_cell_length_a   7.04295200
_cell_length_b   7.28565300
_cell_length_c   14.00215800
_cell_angle_alpha   87.02240060
_cell_angle_beta   90.00000000
_cell_angle_gamma   90.00000000
_symmetry_Int_Tables_number   1
_chemical_formula_structural   GaAgCl4
_chemical_formula_sum   'Ga4 Ag4 Cl16'
_cell_volume   717.51578012
_cell_formula_units_Z   4
loop_
 _symmetry_equiv_pos_site_id
 _symmetry_equiv_pos_as_xyz
  1  'x, y, z'
loop_
 _atom_site_type_symbol
 _atom_site_label
 _atom_site_symmetry_multiplicity
 _atom_site_fract_x
 _atom_site_fract_y
 _atom_site_fract_z
 _atom_site_occupancy
  Ga  Ga0  1  0.178031  0.707788  0.602157  1
  Ga  Ga1  1  0.821969  0.292212  0.397843  1
  Ga  Ga2  1  0.678031  0.292212  0.897843  1
  Ga  Ga3  1  0.321969  0.707788  0.102157  1
  Ag  Ag4  1  0.483695  0.841456  0.862208  1
  Ag  Ag5  1  0.516305  0.158544  0.137792  1
  Ag  Ag6  1  0.983695  0.158544  0.637792  1
  Ag  Ag7  1  0.016305  0.841456  0.362208  1
  Cl  Cl8  1  0.195125  0.447341  0.687958  1
  Cl  Cl9  1  0.804875  0.552659  0.312042  1
  Cl  Cl10  1  0.695125  0.552659  0.812042  1
  Cl  Cl11  1  0.304875  0.447341  0.187958  1
  Cl  Cl12  1  0.314096  0.928300  0.683606  1
  Cl  Cl13  1  0.685904  0.071700  0.316394  1
  Cl  Cl14  1  0.814096  0.071700  0.816394  1
  Cl  Cl15  1  0.185904  0.928300  0.183606  1
  Cl  Cl16  1  0.186368  0.691733  0.961275  1
  Cl  Cl17  1  0.813632  0.308267  0.038725  1
  Cl  Cl18  1  0.686368  0.308267  0.538725  1
  Cl  Cl19  1  0.313632  0.691733  0.461275  1
  Cl  Cl20  1  0.883161  0.804857  0.576718  1
  Cl  Cl21  1  0.116839  0.195143  0.423282  1
  Cl  Cl22  1  0.383161  0.195143  0.923282  1
  Cl  Cl23  1  0.616839  0.804857  0.076718  1
