# generated using pymatgen
data_Nd3Cd(Mo2O7)2
_symmetry_space_group_name_H-M   'P 1'
_cell_length_a   7.38686930
_cell_length_b   7.58235732
_cell_length_c   7.55731338
_cell_angle_alpha   120.37798164
_cell_angle_beta   120.01926294
_cell_angle_gamma   90.31529065
_symmetry_Int_Tables_number   1
_chemical_formula_structural   Nd3Cd(Mo2O7)2
_chemical_formula_sum   'Nd3 Cd1 Mo4 O14'
_cell_volume   296.64926757
_cell_formula_units_Z   1
loop_
 _symmetry_equiv_pos_site_id
 _symmetry_equiv_pos_as_xyz
  1  'x, y, z'
loop_
 _atom_site_type_symbol
 _atom_site_label
 _atom_site_symmetry_multiplicity
 _atom_site_fract_x
 _atom_site_fract_y
 _atom_site_fract_z
 _atom_site_occupancy
  Nd  Nd0  1  0.375000  0.625000  0.750000  1
  Nd  Nd1  1  0.375000  0.625000  0.250000  1
  Nd  Nd2  1  0.375000  0.125000  0.750000  1
  Cd  Cd3  1  0.875000  0.625000  0.250000  1
  Mo  Mo4  1  0.875000  0.625000  0.750000  1
  Mo  Mo5  1  0.375000  0.125000  0.250000  1
  Mo  Mo6  1  0.875000  0.125000  0.250000  1
  Mo  Mo7  1  0.875000  0.125000  0.750000  1
  O  O8  1  0.789085  0.183521  0.984562  1
  O  O9  1  0.540048  0.462226  0.490696  1
  O  O10  1  0.204856  0.210266  0.000561  1
  O  O11  1  0.954880  0.450322  0.502411  1
  O  O12  1  0.801084  0.810168  0.602160  1
  O  O13  1  0.530051  0.038848  0.075356  1
  O  O14  1  0.237777  0.745793  0.492942  1
  O  O15  1  0.948916  0.439832  0.897840  1
  O  O16  1  0.960915  0.066479  0.515438  1
  O  O17  1  0.545144  0.039734  0.499439  1
  O  O18  1  0.219949  0.211152  0.424644  1
  O  O19  1  0.512223  0.504207  0.007058  1
  O  O20  1  0.795120  0.799678  0.997589  1
  O  O21  1  0.209952  0.787774  0.009304  1
