# generated using pymatgen
data_Rb3NaCoO4
_symmetry_space_group_name_H-M   'P 1'
_cell_length_a   6.44071700
_cell_length_b   10.72127728
_cell_length_c   10.95881616
_cell_angle_alpha   67.38312433
_cell_angle_beta   90.00000000
_cell_angle_gamma   90.00000000
_symmetry_Int_Tables_number   1
_chemical_formula_structural   Rb3NaCoO4
_chemical_formula_sum   'Rb12 Na4 Co4 O16'
_cell_volume   698.54070888
_cell_formula_units_Z   4
loop_
 _symmetry_equiv_pos_site_id
 _symmetry_equiv_pos_as_xyz
  1  'x, y, z'
loop_
 _atom_site_type_symbol
 _atom_site_label
 _atom_site_symmetry_multiplicity
 _atom_site_fract_x
 _atom_site_fract_y
 _atom_site_fract_z
 _atom_site_occupancy
  Rb  Rb0  1  0.650134  0.039797  0.331647  1
  Rb  Rb1  1  0.120736  0.318133  0.602423  1
  Rb  Rb2  1  0.385420  0.544132  0.312428  1
  Rb  Rb3  1  0.114580  0.544132  0.812428  1
  Rb  Rb4  1  0.849866  0.039797  0.831647  1
  Rb  Rb5  1  0.614580  0.455868  0.687572  1
  Rb  Rb6  1  0.879264  0.681867  0.397577  1
  Rb  Rb7  1  0.150134  0.960203  0.168353  1
  Rb  Rb8  1  0.620736  0.681867  0.897577  1
  Rb  Rb9  1  0.379264  0.318133  0.102423  1
  Rb  Rb10  1  0.349866  0.960203  0.668353  1
  Rb  Rb11  1  0.885420  0.455868  0.187572  1
  Na  Na12  1  0.612186  0.871980  0.108495  1
  Na  Na13  1  0.387814  0.128020  0.891505  1
  Na  Na14  1  0.887814  0.871980  0.608495  1
  Na  Na15  1  0.112186  0.128020  0.391505  1
  Co  Co16  1  0.365192  0.758525  0.484705  1
  Co  Co17  1  0.634808  0.241475  0.515295  1
  Co  Co18  1  0.865192  0.241475  0.015295  1
  Co  Co19  1  0.134808  0.758525  0.984705  1
  O  O20  1  0.980436  0.207178  0.177090  1
  O  O21  1  0.480436  0.792822  0.322910  1
  O  O22  1  0.250079  0.590965  0.045302  1
  O  O23  1  0.162706  0.886542  0.461643  1
  O  O24  1  0.749921  0.409035  0.954698  1
  O  O25  1  0.427992  0.235206  0.402884  1
  O  O26  1  0.662706  0.113458  0.038357  1
  O  O27  1  0.019564  0.792822  0.822910  1
  O  O28  1  0.750079  0.409035  0.454698  1
  O  O29  1  0.072008  0.235206  0.902884  1
  O  O30  1  0.337294  0.886542  0.961643  1
  O  O31  1  0.837294  0.113458  0.538357  1
  O  O32  1  0.572008  0.764794  0.597116  1
  O  O33  1  0.249921  0.590965  0.545302  1
  O  O34  1  0.519564  0.207178  0.677090  1
  O  O35  1  0.927992  0.764794  0.097116  1
