# generated using pymatgen
data_Zr4UMn7
_symmetry_space_group_name_H-M   'P 1'
_cell_length_a   4.94294176
_cell_length_b   4.94294065
_cell_length_c   8.37951900
_cell_angle_alpha   90.00000000
_cell_angle_beta   90.00000000
_cell_angle_gamma   116.81143393
_symmetry_Int_Tables_number   1
_chemical_formula_structural   Zr4UMn7
_chemical_formula_sum   'Zr4 U1 Mn7'
_cell_volume   182.72424293
_cell_formula_units_Z   1
loop_
 _symmetry_equiv_pos_site_id
 _symmetry_equiv_pos_as_xyz
  1  'x, y, z'
loop_
 _atom_site_type_symbol
 _atom_site_label
 _atom_site_symmetry_multiplicity
 _atom_site_fract_x
 _atom_site_fract_y
 _atom_site_fract_z
 _atom_site_occupancy
  Zr  Zr0  1  0.327561  0.672439  0.448796  1
  Zr  Zr1  1  0.660504  0.339496  0.569735  1
  Zr  Zr2  1  0.660504  0.339496  0.930265  1
  Zr  Zr3  1  0.327561  0.672439  0.051204  1
  U  U4  1  0.858204  0.141796  0.250000  1
  Mn  Mn5  1  0.990704  0.009296  0.502983  1
  Mn  Mn6  1  0.990704  0.009296  0.997017  1
  Mn  Mn7  1  0.835771  0.632622  0.250000  1
  Mn  Mn8  1  0.367378  0.164229  0.250000  1
  Mn  Mn9  1  0.162886  0.837114  0.750000  1
  Mn  Mn10  1  0.161359  0.343135  0.750000  1
  Mn  Mn11  1  0.656865  0.838641  0.750000  1
