# generated using pymatgen
data_DyHgIr2O7
_symmetry_space_group_name_H-M   'P 1'
_cell_length_a   7.27709321
_cell_length_b   7.27709464
_cell_length_c   7.17907200
_cell_angle_alpha   60.44458433
_cell_angle_beta   60.44457797
_cell_angle_gamma   61.48184904
_symmetry_Int_Tables_number   1
_chemical_formula_structural   DyHgIr2O7
_chemical_formula_sum   'Dy2 Hg2 Ir4 O14'
_cell_volume   273.55840454
_cell_formula_units_Z   2
loop_
 _symmetry_equiv_pos_site_id
 _symmetry_equiv_pos_as_xyz
  1  'x, y, z'
loop_
 _atom_site_type_symbol
 _atom_site_label
 _atom_site_symmetry_multiplicity
 _atom_site_fract_x
 _atom_site_fract_y
 _atom_site_fract_z
 _atom_site_occupancy
  Dy  Dy0  1  0.625000  0.125000  0.125000  1
  Dy  Dy1  1  0.125000  0.625000  0.125000  1
  Hg  Hg2  1  0.125000  0.125000  0.625000  1
  Hg  Hg3  1  0.125000  0.125000  0.125000  1
  Ir  Ir4  1  0.125000  0.625000  0.625000  1
  Ir  Ir5  1  0.625000  0.125000  0.625000  1
  Ir  Ir6  1  0.625000  0.625000  0.125000  1
  Ir  Ir7  1  0.625000  0.625000  0.625000  1
  O  O8  1  0.712439  0.712439  0.287561  1
  O  O9  1  0.305024  0.305024  0.694976  1
  O  O10  1  0.690798  0.299287  0.715188  1
  O  O11  1  0.299287  0.690798  0.294728  1
  O  O12  1  0.299287  0.690798  0.715188  1
  O  O13  1  0.690798  0.299287  0.294728  1
  O  O14  1  0.537561  0.537561  0.962439  1
  O  O15  1  0.944976  0.944976  0.555024  1
  O  O16  1  0.559202  0.950713  0.534812  1
  O  O17  1  0.950713  0.559202  0.955272  1
  O  O18  1  0.950713  0.559202  0.534812  1
  O  O19  1  0.559202  0.950713  0.955272  1
  O  O20  1  0.250357  0.250357  0.249643  1
  O  O21  1  0.999643  0.999643  0.000357  1
