# generated using pymatgen
data_Y2Ho3P12Ru9Rh10
_symmetry_space_group_name_H-M   'P 1'
_cell_length_a   12.62235700
_cell_length_b   12.62235691
_cell_length_c   3.93619200
_cell_angle_alpha   90.00000000
_cell_angle_beta   90.00000000
_cell_angle_gamma   119.99999762
_symmetry_Int_Tables_number   1
_chemical_formula_structural   Y2Ho3P12Ru9Rh10
_chemical_formula_sum   'Y2 Ho3 P12 Ru9 Rh10'
_cell_volume   543.11004056
_cell_formula_units_Z   1
loop_
 _symmetry_equiv_pos_site_id
 _symmetry_equiv_pos_as_xyz
  1  'x, y, z'
loop_
 _atom_site_type_symbol
 _atom_site_label
 _atom_site_symmetry_multiplicity
 _atom_site_fract_x
 _atom_site_fract_y
 _atom_site_fract_z
 _atom_site_occupancy
  Y  Y0  1  0.666667  0.333333  0.000000  1
  Y  Y1  1  0.333333  0.666667  0.000000  1
  Ho  Ho2  1  0.000000  0.185996  0.500000  1
  Ho  Ho3  1  0.814004  0.814004  0.500000  1
  Ho  Ho4  1  0.185996  0.000000  0.500000  1
  P  P5  1  0.000000  0.818343  0.000000  1
  P  P6  1  0.181657  0.181657  0.000000  1
  P  P7  1  0.818343  0.000000  0.000000  1
  P  P8  1  0.689507  0.171798  0.500000  1
  P  P9  1  0.828202  0.517709  0.500000  1
  P  P10  1  0.482291  0.310493  0.500000  1
  P  P11  1  0.171798  0.689507  0.500000  1
  P  P12  1  0.517709  0.828202  0.500000  1
  P  P13  1  0.310493  0.482291  0.500000  1
  P  P14  1  0.000000  0.370415  0.000000  1
  P  P15  1  0.629585  0.629585  0.000000  1
  P  P16  1  0.370415  0.000000  0.000000  1
  Ru  Ru17  1  0.000000  0.716397  0.500000  1
  Ru  Ru18  1  0.283603  0.283603  0.500000  1
  Ru  Ru19  1  0.716397  0.000000  0.500000  1
  Ru  Ru20  1  0.873373  0.362175  0.500000  1
  Ru  Ru21  1  0.637825  0.511199  0.500000  1
  Ru  Ru22  1  0.488801  0.126627  0.500000  1
  Ru  Ru23  1  0.362175  0.873373  0.500000  1
  Ru  Ru24  1  0.511199  0.637825  0.500000  1
  Ru  Ru25  1  0.126627  0.488801  0.500000  1
  Rh  Rh26  1  0.000000  0.551543  0.000000  1
  Rh  Rh27  1  0.448457  0.448457  0.000000  1
  Rh  Rh28  1  0.551543  0.000000  0.000000  1
  Rh  Rh29  1  0.808297  0.182897  0.000000  1
  Rh  Rh30  1  0.817103  0.625398  0.000000  1
  Rh  Rh31  1  0.374602  0.191703  0.000000  1
  Rh  Rh32  1  0.182897  0.808297  0.000000  1
  Rh  Rh33  1  0.625398  0.817103  0.000000  1
  Rh  Rh34  1  0.191703  0.374602  0.000000  1
  Rh  Rh35  1  0.000000  0.000000  0.000000  1
