# generated using pymatgen
data_UPa(PS3)4
_symmetry_space_group_name_H-M   'P 1'
_cell_length_a   7.08078200
_cell_length_b   7.08078200
_cell_length_c   9.74227300
_cell_angle_alpha   90.00000000
_cell_angle_beta   90.00000000
_cell_angle_gamma   90.00000000
_symmetry_Int_Tables_number   1
_chemical_formula_structural   UPa(PS3)4
_chemical_formula_sum   'U1 Pa1 P4 S12'
_cell_volume   488.45295662
_cell_formula_units_Z   1
loop_
 _symmetry_equiv_pos_site_id
 _symmetry_equiv_pos_as_xyz
  1  'x, y, z'
loop_
 _atom_site_type_symbol
 _atom_site_label
 _atom_site_symmetry_multiplicity
 _atom_site_fract_x
 _atom_site_fract_y
 _atom_site_fract_z
 _atom_site_occupancy
  U  U0  1  0.000000  0.000000  0.250000  1
  Pa  Pa1  1  0.000000  0.000000  0.750000  1
  P  P2  1  0.057788  0.346224  0.499371  1
  P  P3  1  0.942212  0.653776  0.499371  1
  P  P4  1  0.346224  0.942212  0.000629  1
  P  P5  1  0.653776  0.057788  0.000629  1
  S  S6  1  0.206683  0.313412  0.676180  1
  S  S7  1  0.684175  0.208063  0.175486  1
  S  S8  1  0.172048  0.174189  0.997995  1
  S  S9  1  0.825811  0.172048  0.502005  1
  S  S10  1  0.174189  0.827952  0.502005  1
  S  S11  1  0.827952  0.825811  0.997995  1
  S  S12  1  0.208063  0.315825  0.324514  1
  S  S13  1  0.686588  0.206683  0.823820  1
  S  S14  1  0.313412  0.793317  0.823820  1
  S  S15  1  0.791937  0.684175  0.324514  1
  S  S16  1  0.793317  0.686588  0.676180  1
  S  S17  1  0.315825  0.791937  0.175486  1
