# generated using pymatgen
data_Nd2ThMgIn2Au3
_symmetry_space_group_name_H-M   'P 1'
_cell_length_a   7.81939126
_cell_length_b   7.77046213
_cell_length_c   4.21930600
_cell_angle_alpha   90.00000000
_cell_angle_beta   90.00000000
_cell_angle_gamma   119.79322040
_symmetry_Int_Tables_number   1
_chemical_formula_structural   Nd2ThMgIn2Au3
_chemical_formula_sum   'Nd2 Th1 Mg1 In2 Au3'
_cell_volume   222.48083148
_cell_formula_units_Z   1
loop_
 _symmetry_equiv_pos_site_id
 _symmetry_equiv_pos_as_xyz
  1  'x, y, z'
loop_
 _atom_site_type_symbol
 _atom_site_label
 _atom_site_symmetry_multiplicity
 _atom_site_fract_x
 _atom_site_fract_y
 _atom_site_fract_z
 _atom_site_occupancy
  Nd  Nd0  1  0.590653  0.001683  0.500000  1
  Nd  Nd1  1  0.409347  0.411030  0.500000  1
  Th  Th2  1  0.000000  0.589105  0.500000  1
  Mg  Mg3  1  0.000000  0.240451  0.000000  1
  In  In4  1  0.255024  0.006231  0.000000  1
  In  In5  1  0.744976  0.751208  0.000000  1
  Au  Au6  1  0.000000  0.007069  0.500000  1
  Au  Au7  1  0.681450  0.337336  0.000000  1
  Au  Au8  1  0.318550  0.655886  0.000000  1
