# generated using pymatgen
data_Dy5Hf2Zr(Ni4P3)4
_symmetry_space_group_name_H-M   'P 1'
_cell_length_a   12.32122712
_cell_length_b   12.32424640
_cell_length_c   3.79555400
_cell_angle_alpha   90.00000000
_cell_angle_beta   90.00000000
_cell_angle_gamma   120.00810954
_symmetry_Int_Tables_number   1
_chemical_formula_structural   Dy5Hf2Zr(Ni4P3)4
_chemical_formula_sum   'Dy5 Hf2 Zr1 Ni16 P12'
_cell_volume   499.09664091
_cell_formula_units_Z   1
loop_
 _symmetry_equiv_pos_site_id
 _symmetry_equiv_pos_as_xyz
  1  'x, y, z'
loop_
 _atom_site_type_symbol
 _atom_site_label
 _atom_site_symmetry_multiplicity
 _atom_site_fract_x
 _atom_site_fract_y
 _atom_site_fract_z
 _atom_site_occupancy
  Dy  Dy0  1  0.185163  0.184758  0.500000  1
  Dy  Dy1  1  0.814837  0.999595  0.500000  1
  Dy  Dy2  1  0.000000  0.815657  0.500000  1
  Dy  Dy3  1  0.333594  0.666705  0.000000  1
  Dy  Dy4  1  0.666406  0.333110  0.000000  1
  Hf  Hf5  1  0.562141  0.562281  0.000000  1
  Hf  Hf6  1  0.437859  0.000139  0.000000  1
  Zr  Zr7  1  0.000000  0.438609  0.000000  1
  Ni  Ni8  1  0.725669  0.725561  0.500000  1
  Ni  Ni9  1  0.274331  0.999893  0.500000  1
  Ni  Ni10  1  0.000000  0.273052  0.500000  1
  Ni  Ni11  1  0.185821  0.376806  0.000000  1
  Ni  Ni12  1  0.622913  0.807769  0.000000  1
  Ni  Ni13  1  0.192411  0.815369  0.000000  1
  Ni  Ni14  1  0.807589  0.622958  0.000000  1
  Ni  Ni15  1  0.814179  0.190984  0.000000  1
  Ni  Ni16  1  0.377087  0.184856  0.000000  1
  Ni  Ni17  1  0.361972  0.485226  0.500000  1
  Ni  Ni18  1  0.514634  0.875957  0.500000  1
  Ni  Ni19  1  0.124748  0.640337  0.500000  1
  Ni  Ni20  1  0.875252  0.515587  0.500000  1
  Ni  Ni21  1  0.638028  0.123253  0.500000  1
  Ni  Ni22  1  0.485366  0.361321  0.500000  1
  Ni  Ni23  1  0.000000  0.000137  0.000000  1
  P  P24  1  0.822151  0.822368  0.000000  1
  P  P25  1  0.177849  0.000217  0.000000  1
  P  P26  1  0.000000  0.177931  0.000000  1
  P  P27  1  0.171220  0.476131  0.500000  1
  P  P28  1  0.523884  0.693966  0.500000  1
  P  P29  1  0.306284  0.829988  0.500000  1
  P  P30  1  0.693716  0.523704  0.500000  1
  P  P31  1  0.828780  0.304911  0.500000  1
  P  P32  1  0.476116  0.170082  0.500000  1
  P  P33  1  0.357457  0.357054  0.000000  1
  P  P34  1  0.642543  0.999597  0.000000  1
  P  P35  1  0.000000  0.644129  0.000000  1
