# generated using pymatgen
data_Cs4Li2SmInBi4
_symmetry_space_group_name_H-M   'P 1'
_cell_length_a   11.72983687
_cell_length_b   11.72983693
_cell_length_c   7.41987200
_cell_angle_alpha   90.00000000
_cell_angle_beta   90.00000000
_cell_angle_gamma   102.34284239
_symmetry_Int_Tables_number   1
_chemical_formula_structural   Cs4Li2SmInBi4
_chemical_formula_sum   'Cs8 Li4 Sm2 In2 Bi8'
_cell_volume   997.29639714
_cell_formula_units_Z   2
loop_
 _symmetry_equiv_pos_site_id
 _symmetry_equiv_pos_as_xyz
  1  'x, y, z'
loop_
 _atom_site_type_symbol
 _atom_site_label
 _atom_site_symmetry_multiplicity
 _atom_site_fract_x
 _atom_site_fract_y
 _atom_site_fract_z
 _atom_site_occupancy
  Cs  Cs0  1  0.072045  0.427955  0.250000  1
  Cs  Cs1  1  0.427955  0.072045  0.750000  1
  Cs  Cs2  1  0.921654  0.578346  0.750000  1
  Cs  Cs3  1  0.578346  0.921654  0.250000  1
  Cs  Cs4  1  0.677442  0.331887  0.220676  1
  Cs  Cs5  1  0.822558  0.168113  0.720676  1
  Cs  Cs6  1  0.331887  0.677442  0.779324  1
  Cs  Cs7  1  0.168113  0.822558  0.279324  1
  Li  Li8  1  0.380240  0.380240  0.000000  1
  Li  Li9  1  0.119760  0.119760  0.500000  1
  Li  Li10  1  0.625175  0.625175  0.000000  1
  Li  Li11  1  0.874825  0.874825  0.500000  1
  Sm  Sm12  1  0.125324  0.125324  0.000000  1
  Sm  Sm13  1  0.374676  0.374676  0.500000  1
  In  In14  1  0.871293  0.871293  0.000000  1
  In  In15  1  0.628707  0.628707  0.500000  1
  Bi  Bi16  1  0.841401  0.658598  0.250000  1
  Bi  Bi17  1  0.658598  0.841401  0.750000  1
  Bi  Bi18  1  0.155587  0.344412  0.750000  1
  Bi  Bi19  1  0.344412  0.155587  0.250000  1
  Bi  Bi20  1  0.901333  0.088500  0.238938  1
  Bi  Bi21  1  0.598667  0.411500  0.738938  1
  Bi  Bi22  1  0.088500  0.901333  0.761062  1
  Bi  Bi23  1  0.411500  0.598667  0.261062  1
