# generated using pymatgen
data_Dy2Tm3Hf3(Co4P3)4
_symmetry_space_group_name_H-M   'P 1'
_cell_length_a   12.23087300
_cell_length_b   12.23087199
_cell_length_c   3.68594800
_cell_angle_alpha   90.00000000
_cell_angle_beta   90.00000000
_cell_angle_gamma   119.99998922
_symmetry_Int_Tables_number   1
_chemical_formula_structural   Dy2Tm3Hf3(Co4P3)4
_chemical_formula_sum   'Dy2 Tm3 Hf3 Co16 P12'
_cell_volume   477.52351230
_cell_formula_units_Z   1
loop_
 _symmetry_equiv_pos_site_id
 _symmetry_equiv_pos_as_xyz
  1  'x, y, z'
loop_
 _atom_site_type_symbol
 _atom_site_label
 _atom_site_symmetry_multiplicity
 _atom_site_fract_x
 _atom_site_fract_y
 _atom_site_fract_z
 _atom_site_occupancy
  Dy  Dy0  1  0.666667  0.333333  0.000000  1
  Dy  Dy1  1  0.333333  0.666667  0.000000  1
  Tm  Tm2  1  0.182180  0.182180  0.500000  1
  Tm  Tm3  1  0.817820  0.000000  0.500000  1
  Tm  Tm4  1  0.000000  0.817820  0.500000  1
  Hf  Hf5  1  0.558382  0.558382  0.000000  1
  Hf  Hf6  1  0.441618  0.000000  0.000000  1
  Hf  Hf7  1  0.000000  0.441618  0.000000  1
  Co  Co8  1  0.822349  0.194660  0.000000  1
  Co  Co9  1  0.805340  0.627689  0.000000  1
  Co  Co10  1  0.372311  0.177651  0.000000  1
  Co  Co11  1  0.194660  0.822349  0.000000  1
  Co  Co12  1  0.627689  0.805340  0.000000  1
  Co  Co13  1  0.177651  0.372311  0.000000  1
  Co  Co14  1  0.644305  0.124137  0.500000  1
  Co  Co15  1  0.875863  0.520168  0.500000  1
  Co  Co16  1  0.479832  0.355695  0.500000  1
  Co  Co17  1  0.124137  0.644305  0.500000  1
  Co  Co18  1  0.520168  0.875863  0.500000  1
  Co  Co19  1  0.355695  0.479832  0.500000  1
  Co  Co20  1  0.722487  0.722487  0.500000  1
  Co  Co21  1  0.277513  0.000000  0.500000  1
  Co  Co22  1  0.000000  0.277513  0.500000  1
  Co  Co23  1  0.000000  0.000000  0.000000  1
  P  P24  1  0.350589  0.350589  0.000000  1
  P  P25  1  0.649411  0.000000  0.000000  1
  P  P26  1  0.000000  0.649411  0.000000  1
  P  P27  1  0.828856  0.307368  0.500000  1
  P  P28  1  0.692632  0.521488  0.500000  1
  P  P29  1  0.478512  0.171144  0.500000  1
  P  P30  1  0.307368  0.828856  0.500000  1
  P  P31  1  0.521488  0.692632  0.500000  1
  P  P32  1  0.171144  0.478512  0.500000  1
  P  P33  1  0.823193  0.823193  0.000000  1
  P  P34  1  0.176807  0.000000  0.000000  1
  P  P35  1  0.000000  0.176807  0.000000  1
