# generated using pymatgen
data_Pr3NdIrRh3O14
_symmetry_space_group_name_H-M   'P 1'
_cell_length_a   7.42331493
_cell_length_b   7.42179605
_cell_length_c   7.42407905
_cell_angle_alpha   59.98085123
_cell_angle_beta   60.00339885
_cell_angle_gamma   59.99323297
_symmetry_Int_Tables_number   1
_chemical_formula_structural   Pr3NdIrRh3O14
_chemical_formula_sum   'Pr3 Nd1 Ir1 Rh3 O14'
_cell_volume   289.17486607
_cell_formula_units_Z   1
loop_
 _symmetry_equiv_pos_site_id
 _symmetry_equiv_pos_as_xyz
  1  'x, y, z'
loop_
 _atom_site_type_symbol
 _atom_site_label
 _atom_site_symmetry_multiplicity
 _atom_site_fract_x
 _atom_site_fract_y
 _atom_site_fract_z
 _atom_site_occupancy
  Pr  Pr0  1  0.625000  0.125000  0.125000  1
  Pr  Pr1  1  0.125000  0.625000  0.125000  1
  Pr  Pr2  1  0.125000  0.125000  0.125000  1
  Nd  Nd3  1  0.125000  0.125000  0.625000  1
  Ir  Ir4  1  0.625000  0.125000  0.625000  1
  Rh  Rh5  1  0.125000  0.625000  0.625000  1
  Rh  Rh6  1  0.625000  0.625000  0.125000  1
  Rh  Rh7  1  0.625000  0.625000  0.625000  1
  O  O8  1  0.704853  0.710034  0.292524  1
  O  O9  1  0.298952  0.292521  0.703192  1
  O  O10  1  0.705335  0.292521  0.703192  1
  O  O11  1  0.292588  0.710034  0.292524  1
  O  O12  1  0.292223  0.711591  0.703961  1
  O  O13  1  0.704057  0.292822  0.299063  1
  O  O14  1  0.545147  0.539966  0.957476  1
  O  O15  1  0.951048  0.957479  0.546808  1
  O  O16  1  0.544665  0.957479  0.546808  1
  O  O17  1  0.957412  0.539966  0.957476  1
  O  O18  1  0.957777  0.538409  0.546039  1
  O  O19  1  0.545943  0.957178  0.950937  1
  O  O20  1  0.249743  0.247536  0.252979  1
  O  O21  1  0.000257  0.002464  0.997021  1
