# generated using pymatgen
data_Dy3TmGa5Tc3
_symmetry_space_group_name_H-M   'P 1'
_cell_length_a   5.46713618
_cell_length_b   5.53479381
_cell_length_c   8.69298301
_cell_angle_alpha   90.00002233
_cell_angle_beta   89.99538352
_cell_angle_gamma   120.41027377
_symmetry_Int_Tables_number   1
_chemical_formula_structural   Dy3TmGa5Tc3
_chemical_formula_sum   'Dy3 Tm1 Ga5 Tc3'
_cell_volume   226.85609703
_cell_formula_units_Z   1
loop_
 _symmetry_equiv_pos_site_id
 _symmetry_equiv_pos_as_xyz
  1  'x, y, z'
loop_
 _atom_site_type_symbol
 _atom_site_label
 _atom_site_symmetry_multiplicity
 _atom_site_fract_x
 _atom_site_fract_y
 _atom_site_fract_z
 _atom_site_occupancy
  Dy  Dy0  1  0.335524  0.667761  0.443264  1
  Dy  Dy1  1  0.661916  0.330958  0.552533  1
  Dy  Dy2  1  0.661990  0.330995  0.947561  1
  Tm  Tm3  1  0.335909  0.667954  0.056336  1
  Ga  Ga4  1  0.836385  0.164724  0.249784  1
  Ga  Ga5  1  0.836385  0.671661  0.249784  1
  Ga  Ga6  1  0.327288  0.163644  0.249897  1
  Ga  Ga7  1  0.187193  0.839546  0.750267  1
  Ga  Ga8  1  0.187193  0.347647  0.750268  1
  Tc  Tc9  1  0.975919  0.987959  0.510042  1
  Tc  Tc10  1  0.975645  0.987823  0.990204  1
  Tc  Tc11  1  0.678657  0.839329  0.750060  1
