# generated using pymatgen
data_Pr2NdEr(CuP2)4
_symmetry_space_group_name_H-M   'P 1'
_cell_length_a   3.77062500
_cell_length_b   3.86498075
_cell_length_c   20.00093068
_cell_angle_alpha   89.96035410
_cell_angle_beta   90.00000000
_cell_angle_gamma   90.00000000
_symmetry_Int_Tables_number   1
_chemical_formula_structural   Pr2NdEr(CuP2)4
_chemical_formula_sum   'Pr2 Nd1 Er1 Cu4 P8'
_cell_volume   291.48135430
_cell_formula_units_Z   1
loop_
 _symmetry_equiv_pos_site_id
 _symmetry_equiv_pos_as_xyz
  1  'x, y, z'
loop_
 _atom_site_type_symbol
 _atom_site_label
 _atom_site_symmetry_multiplicity
 _atom_site_fract_x
 _atom_site_fract_y
 _atom_site_fract_z
 _atom_site_occupancy
  Pr  Pr0  1  0.250000  0.713681  0.378463  1
  Pr  Pr1  1  0.250000  0.785172  0.885968  1
  Nd  Nd2  1  0.750000  0.287063  0.619404  1
  Er  Er3  1  0.750000  0.212937  0.119303  1
  Cu  Cu4  1  0.250000  0.219492  0.243954  1
  Cu  Cu5  1  0.750000  0.781558  0.752987  1
  Cu  Cu6  1  0.250000  0.282261  0.751142  1
  Cu  Cu7  1  0.750000  0.718534  0.244764  1
  P  P8  1  0.750000  0.817186  0.501998  1
  P  P9  1  0.750000  0.683055  0.009229  1
  P  P10  1  0.250000  0.183615  0.497129  1
  P  P11  1  0.250000  0.315173  0.004252  1
  P  P12  1  0.250000  0.714625  0.169838  1
  P  P13  1  0.750000  0.214480  0.318020  1
  P  P14  1  0.750000  0.285306  0.825032  1
  P  P15  1  0.250000  0.785862  0.678517  1
