# generated using pymatgen
data_Ac8Sb2Se15
_symmetry_space_group_name_H-M   'P 1'
_cell_length_a   16.18005071
_cell_length_b   16.18005069
_cell_length_c   16.18005000
_cell_angle_alpha   96.57757131
_cell_angle_beta   116.27793202
_cell_angle_gamma   116.27793100
_symmetry_Int_Tables_number   1
_chemical_formula_structural   Ac8Sb2Se15
_chemical_formula_sum   'Ac32 Sb8 Se60'
_cell_volume   3141.27491582
_cell_formula_units_Z   4
loop_
 _symmetry_equiv_pos_site_id
 _symmetry_equiv_pos_as_xyz
  1  'x, y, z'
loop_
 _atom_site_type_symbol
 _atom_site_label
 _atom_site_symmetry_multiplicity
 _atom_site_fract_x
 _atom_site_fract_y
 _atom_site_fract_z
 _atom_site_occupancy
  Ac  Ac0  1  0.632603  0.469345  0.800299  1
  Ac  Ac1  1  0.367397  0.167697  0.836744  1
  Ac  Ac2  1  0.169047  0.586744  0.719345  1
  Ac  Ac3  1  0.669047  0.969345  0.336744  1
  Ac  Ac4  1  0.830953  0.550299  0.417697  1
  Ac  Ac5  1  0.330953  0.667697  0.300299  1
  Ac  Ac6  1  0.867397  0.086744  0.917697  1
  Ac  Ac7  1  0.132603  0.050299  0.219345  1
  Ac  Ac8  1  0.825609  0.781696  0.917408  1
  Ac  Ac9  1  0.174391  0.091799  0.956087  1
  Ac  Ac10  1  0.364288  0.706087  0.031696  1
  Ac  Ac11  1  0.864288  0.281696  0.456087  1
  Ac  Ac12  1  0.635712  0.667408  0.341799  1
  Ac  Ac13  1  0.135712  0.591799  0.417408  1
  Ac  Ac14  1  0.674391  0.206087  0.841799  1
  Ac  Ac15  1  0.325609  0.167408  0.531696  1
  Ac  Ac16  1  0.345371  0.458041  0.528018  1
  Ac  Ac17  1  0.654629  0.182647  0.112670  1
  Ac  Ac18  1  0.430022  0.862670  0.708041  1
  Ac  Ac19  1  0.930022  0.958041  0.612670  1
  Ac  Ac20  1  0.569978  0.278018  0.432647  1
  Ac  Ac21  1  0.069978  0.682647  0.028018  1
  Ac  Ac22  1  0.154629  0.362669  0.932647  1
  Ac  Ac23  1  0.845371  0.778018  0.208041  1
  Ac  Ac24  1  0.707659  0.601811  0.608523  1
  Ac  Ac25  1  0.292341  0.900864  0.894151  1
  Ac  Ac26  1  0.493287  0.644151  0.851811  1
  Ac  Ac27  1  0.993287  0.101811  0.394151  1
  Ac  Ac28  1  0.506713  0.358523  0.150864  1
  Ac  Ac29  1  0.006713  0.400864  0.108523  1
  Ac  Ac30  1  0.792341  0.144151  0.650864  1
  Ac  Ac31  1  0.207659  0.858523  0.351811  1
  Sb  Sb32  1  0.614857  0.799185  0.616867  1
  Sb  Sb33  1  0.385143  0.002010  0.184328  1
  Sb  Sb34  1  0.682318  0.934328  0.049185  1
  Sb  Sb35  1  0.182318  0.299185  0.684328  1
  Sb  Sb36  1  0.317682  0.366867  0.252010  1
  Sb  Sb37  1  0.817682  0.502010  0.116867  1
  Sb  Sb38  1  0.885143  0.434328  0.752010  1
  Sb  Sb39  1  0.114857  0.866867  0.549185  1
  Se  Se40  1  0.587519  0.624303  0.717914  1
  Se  Se41  1  0.412481  0.130394  0.036784  1
  Se  Se42  1  0.406389  0.786784  0.874303  1
  Se  Se43  1  0.906389  0.124303  0.536784  1
  Se  Se44  1  0.593611  0.467914  0.380394  1
  Se  Se45  1  0.093611  0.630394  0.217914  1
  Se  Se46  1  0.912481  0.286784  0.880394  1
  Se  Se47  1  0.087519  0.967914  0.374303  1
  Se  Se48  1  0.512936  0.629540  0.463655  1
  Se  Se49  1  0.487064  0.950721  0.116605  1
  Se  Se50  1  0.665884  0.866605  0.879540  1
  Se  Se51  1  0.165884  0.129540  0.616605  1
  Se  Se52  1  0.334116  0.213655  0.200721  1
  Se  Se53  1  0.834116  0.450721  0.963656  1
  Se  Se54  1  0.987064  0.366605  0.700721  1
  Se  Se55  1  0.012936  0.713656  0.379540  1
  Se  Se56  1  0.201012  0.472321  0.327859  1
  Se  Se57  1  0.798988  0.126847  0.271309  1
  Se  Se58  1  0.644461  0.021309  0.722321  1
  Se  Se59  1  0.144461  0.972321  0.771309  1
  Se  Se60  1  0.355539  0.077859  0.376847  1
  Se  Se61  1  0.855539  0.626847  0.827859  1
  Se  Se62  1  0.298988  0.521309  0.876847  1
  Se  Se63  1  0.701012  0.577859  0.222321  1
  Se  Se64  1  0.814416  0.835418  0.725484  1
  Se  Se65  1  0.185584  0.911067  0.021002  1
  Se  Se66  1  0.609934  0.771002  0.085418  1
  Se  Se67  1  0.109934  0.335418  0.521002  1
  Se  Se68  1  0.390066  0.475484  0.161067  1
  Se  Se69  1  0.890066  0.411067  0.225484  1
  Se  Se70  1  0.685584  0.271002  0.661067  1
  Se  Se71  1  0.314416  0.975484  0.585418  1
  Se  Se72  1  0.000000  0.999398  0.999398  1
  Se  Se73  1  0.500000  0.749398  0.249398  1
  Se  Se74  1  0.000000  0.499398  0.499398  1
  Se  Se75  1  0.500000  0.249398  0.749398  1
  Se  Se76  1  0.811069  0.475593  0.590705  1
  Se  Se77  1  0.188931  0.779637  0.664524  1
  Se  Se78  1  0.384887  0.414524  0.725593  1
  Se  Se79  1  0.884887  0.975593  0.164524  1
  Se  Se80  1  0.615113  0.340705  0.029637  1
  Se  Se81  1  0.115113  0.279637  0.090705  1
  Se  Se82  1  0.688931  0.914524  0.529637  1
  Se  Se83  1  0.311069  0.840705  0.225593  1
  Se  Se84  1  0.510471  0.383709  0.560857  1
  Se  Se85  1  0.489529  0.050386  0.873238  1
  Se  Se86  1  0.322853  0.623238  0.633709  1
  Se  Se87  1  0.822853  0.883709  0.373238  1
  Se  Se88  1  0.677147  0.310857  0.300386  1
  Se  Se89  1  0.177147  0.550386  0.060857  1
  Se  Se90  1  0.989529  0.123238  0.800386  1
  Se  Se91  1  0.010471  0.810857  0.133709  1
  Se  Se92  1  0.354886  0.786470  0.482387  1
  Se  Se93  1  0.645114  0.127501  0.431584  1
  Se  Se94  1  0.804083  0.181584  0.036470  1
  Se  Se95  1  0.304083  0.286470  0.931584  1
  Se  Se96  1  0.195917  0.232387  0.377501  1
  Se  Se97  1  0.695917  0.627501  0.982387  1
  Se  Se98  1  0.145114  0.681584  0.877501  1
  Se  Se99  1  0.854886  0.732387  0.536470  1
