# generated using pymatgen
data_Ni4Sn8PdRh7
_symmetry_space_group_name_H-M   'P 1'
_cell_length_a   5.62530091
_cell_length_b   7.22422342
_cell_length_c   8.36377228
_cell_angle_alpha   89.91490525
_cell_angle_beta   90.17643989
_cell_angle_gamma   90.03803263
_symmetry_Int_Tables_number   1
_chemical_formula_structural   Ni4Sn8PdRh7
_chemical_formula_sum   'Ni4 Sn8 Pd1 Rh7'
_cell_volume   339.88851877
_cell_formula_units_Z   1
loop_
 _symmetry_equiv_pos_site_id
 _symmetry_equiv_pos_as_xyz
  1  'x, y, z'
loop_
 _atom_site_type_symbol
 _atom_site_label
 _atom_site_symmetry_multiplicity
 _atom_site_fract_x
 _atom_site_fract_y
 _atom_site_fract_z
 _atom_site_occupancy
  Ni  Ni0  1  0.247940  0.910693  0.373080  1
  Ni  Ni1  1  0.749618  0.091528  0.626374  1
  Ni  Ni2  1  0.249652  0.411829  0.127097  1
  Ni  Ni3  1  0.751777  0.588529  0.873459  1
  Sn  Sn4  1  0.253333  0.562522  0.402632  1
  Sn  Sn5  1  0.249160  0.095823  0.639706  1
  Sn  Sn6  1  0.746626  0.905521  0.363107  1
  Sn  Sn7  1  0.747873  0.399538  0.138509  1
  Sn  Sn8  1  0.251886  0.592914  0.857729  1
  Sn  Sn9  1  0.256150  0.066757  0.100972  1
  Sn  Sn10  1  0.751265  0.437611  0.599299  1
  Sn  Sn11  1  0.744050  0.936161  0.896611  1
  Pd  Pd12  1  0.002188  0.739870  0.124803  1
  Rh  Rh13  1  0.496889  0.240624  0.376341  1
  Rh  Rh14  1  0.998174  0.759617  0.623527  1
  Rh  Rh15  1  0.502289  0.260765  0.875561  1
  Rh  Rh16  1  0.997311  0.256210  0.877398  1
  Rh  Rh17  1  0.502603  0.759924  0.624074  1
  Rh  Rh18  1  0.001819  0.241604  0.376683  1
  Rh  Rh19  1  0.499397  0.741960  0.123038  1
