# generated using pymatgen
data_Y12Tc3Rh
_symmetry_space_group_name_H-M   'P 1'
_cell_length_a   6.32142117
_cell_length_b   7.45500034
_cell_length_c   9.23363100
_cell_angle_alpha   90.00000000
_cell_angle_beta   90.00000000
_cell_angle_gamma   90.03042645
_symmetry_Int_Tables_number   1
_chemical_formula_structural   Y12Tc3Rh
_chemical_formula_sum   'Y12 Tc3 Rh1'
_cell_volume   435.14585159
_cell_formula_units_Z   1
loop_
 _symmetry_equiv_pos_site_id
 _symmetry_equiv_pos_as_xyz
  1  'x, y, z'
loop_
 _atom_site_type_symbol
 _atom_site_label
 _atom_site_symmetry_multiplicity
 _atom_site_fract_x
 _atom_site_fract_y
 _atom_site_fract_z
 _atom_site_occupancy
  Y  Y0  1  0.632478  0.045072  0.250000  1
  Y  Y1  1  0.373128  0.956747  0.750000  1
  Y  Y2  1  0.125055  0.459282  0.750000  1
  Y  Y3  1  0.870898  0.542165  0.250000  1
  Y  Y4  1  0.162931  0.177601  0.061117  1
  Y  Y5  1  0.833555  0.824130  0.934265  1
  Y  Y6  1  0.661761  0.323980  0.936609  1
  Y  Y7  1  0.833555  0.824130  0.565735  1
  Y  Y8  1  0.338176  0.673733  0.061213  1
  Y  Y9  1  0.162931  0.177601  0.438883  1
  Y  Y10  1  0.338176  0.673733  0.438787  1
  Y  Y11  1  0.661761  0.323980  0.563391  1
  Tc  Tc12  1  0.458932  0.383513  0.250000  1
  Tc  Tc13  1  0.539721  0.615986  0.750000  1
  Tc  Tc14  1  0.962458  0.114222  0.750000  1
  Rh  Rh15  1  0.044483  0.884124  0.250000  1
