# generated using pymatgen
data_Sr2In2Au3
_symmetry_space_group_name_H-M   'P 1'
_cell_length_a   4.57804500
_cell_length_b   8.37415200
_cell_length_c   9.67971400
_cell_angle_alpha   90.00000000
_cell_angle_beta   90.00000000
_cell_angle_gamma   90.00000000
_symmetry_Int_Tables_number   1
_chemical_formula_structural   Sr2In2Au3
_chemical_formula_sum   'Sr4 In4 Au6'
_cell_volume   371.09356417
_cell_formula_units_Z   2
loop_
 _symmetry_equiv_pos_site_id
 _symmetry_equiv_pos_as_xyz
  1  'x, y, z'
loop_
 _atom_site_type_symbol
 _atom_site_label
 _atom_site_symmetry_multiplicity
 _atom_site_fract_x
 _atom_site_fract_y
 _atom_site_fract_z
 _atom_site_occupancy
  Sr  Sr0  1  0.500000  0.000000  0.724192  1
  Sr  Sr1  1  0.000000  0.500000  0.275808  1
  Sr  Sr2  1  0.000000  0.000000  0.338270  1
  Sr  Sr3  1  0.500000  0.500000  0.661730  1
  In  In4  1  0.000000  0.308505  0.889504  1
  In  In5  1  0.500000  0.191495  0.110496  1
  In  In6  1  0.000000  0.691495  0.889504  1
  In  In7  1  0.500000  0.808505  0.110496  1
  Au  Au8  1  0.000000  0.749808  0.592708  1
  Au  Au9  1  0.500000  0.750192  0.407292  1
  Au  Au10  1  0.500000  0.500000  0.994306  1
  Au  Au11  1  0.000000  0.000000  0.005694  1
  Au  Au12  1  0.500000  0.249808  0.407292  1
  Au  Au13  1  0.000000  0.250192  0.592708  1
