# generated using pymatgen
data_PrP12OsRu3
_symmetry_space_group_name_H-M   'P 1'
_cell_length_a   7.03012612
_cell_length_b   7.03064562
_cell_length_c   7.03012700
_cell_angle_alpha   109.47272175
_cell_angle_beta   109.46972416
_cell_angle_gamma   109.47271381
_symmetry_Int_Tables_number   1
_chemical_formula_structural   PrP12OsRu3
_chemical_formula_sum   'Pr1 P12 Os1 Ru3'
_cell_volume   267.48016079
_cell_formula_units_Z   1
loop_
 _symmetry_equiv_pos_site_id
 _symmetry_equiv_pos_as_xyz
  1  'x, y, z'
loop_
 _atom_site_type_symbol
 _atom_site_label
 _atom_site_symmetry_multiplicity
 _atom_site_fract_x
 _atom_site_fract_y
 _atom_site_fract_z
 _atom_site_occupancy
  Pr  Pr0  1  0.000000  0.000000  0.000000  1
  P  P1  1  0.785520  0.143276  0.641768  1
  P  P2  1  0.214480  0.856724  0.358232  1
  P  P3  1  0.498450  0.856375  0.642124  1
  P  P4  1  0.856248  0.357756  0.214480  1
  P  P5  1  0.641768  0.498493  0.856248  1
  P  P6  1  0.357876  0.214251  0.856326  1
  P  P7  1  0.143752  0.642244  0.785520  1
  P  P8  1  0.642124  0.785749  0.143674  1
  P  P9  1  0.856326  0.642075  0.498450  1
  P  P10  1  0.143674  0.357925  0.501550  1
  P  P11  1  0.501550  0.143625  0.357876  1
  P  P12  1  0.358232  0.501507  0.143752  1
  Os  Os13  1  0.000000  0.500000  0.000000  1
  Ru  Ru14  1  0.500000  0.000000  0.000000  1
  Ru  Ru15  1  0.000000  0.000000  0.500000  1
  Ru  Ru16  1  0.500000  0.500000  0.500000  1
