# generated using pymatgen
data_Li2PaV3O8
_symmetry_space_group_name_H-M   'P 1'
_cell_length_a   6.08618078
_cell_length_b   6.08736301
_cell_length_c   10.16799646
_cell_angle_alpha   90.01273465
_cell_angle_beta   89.99381617
_cell_angle_gamma   120.00771117
_symmetry_Int_Tables_number   1
_chemical_formula_structural   Li2PaV3O8
_chemical_formula_sum   'Li4 Pa2 V6 O16'
_cell_volume   326.21678652
_cell_formula_units_Z   2
loop_
 _symmetry_equiv_pos_site_id
 _symmetry_equiv_pos_as_xyz
  1  'x, y, z'
loop_
 _atom_site_type_symbol
 _atom_site_label
 _atom_site_symmetry_multiplicity
 _atom_site_fract_x
 _atom_site_fract_y
 _atom_site_fract_z
 _atom_site_occupancy
  Li  Li0  1  0.334336  0.667077  0.900879  1
  Li  Li1  1  0.665654  0.332786  0.400841  1
  Li  Li2  1  0.000370  0.000041  0.992736  1
  Li  Li3  1  0.999674  0.999755  0.492744  1
  Pa  Pa4  1  0.332953  0.666474  0.487372  1
  Pa  Pa5  1  0.667042  0.333484  0.987359  1
  V  V6  1  0.664044  0.832570  0.214561  1
  V  V7  1  0.833021  0.664737  0.714633  1
  V  V8  1  0.832060  0.167426  0.714618  1
  V  V9  1  0.166966  0.831694  0.214633  1
  V  V10  1  0.167939  0.335353  0.214617  1
  V  V11  1  0.335954  0.168533  0.714571  1
  O  O12  1  0.332883  0.666393  0.111402  1
  O  O13  1  0.667106  0.333505  0.611411  1
  O  O14  1  0.999430  0.999861  0.311134  1
  O  O15  1  0.000561  0.000439  0.811132  1
  O  O16  1  0.162798  0.849912  0.598225  1
  O  O17  1  0.150523  0.312876  0.598157  1
  O  O18  1  0.313479  0.150519  0.098457  1
  O  O19  1  0.686549  0.837070  0.598458  1
  O  O20  1  0.837199  0.687080  0.098221  1
  O  O21  1  0.849505  0.162333  0.098127  1
  O  O22  1  0.028284  0.521506  0.337230  1
  O  O23  1  0.492327  0.971019  0.337279  1
  O  O24  1  0.477981  0.506979  0.337277  1
  O  O25  1  0.507645  0.478672  0.837288  1
  O  O26  1  0.522000  0.028962  0.837264  1
  O  O27  1  0.971715  0.493249  0.837211  1
