# generated using pymatgen
data_Tb4Ho4Ti9Si16Tc3
_symmetry_space_group_name_H-M   'P 1'
_cell_length_a   6.98281932
_cell_length_b   6.98347990
_cell_length_c   12.83424436
_cell_angle_alpha   90.07507466
_cell_angle_beta   89.92720273
_cell_angle_gamma   90.03692712
_symmetry_Int_Tables_number   1
_chemical_formula_structural   Tb4Ho4Ti9Si16Tc3
_chemical_formula_sum   'Tb4 Ho4 Ti9 Si16 Tc3'
_cell_volume   625.85277660
_cell_formula_units_Z   1
loop_
 _symmetry_equiv_pos_site_id
 _symmetry_equiv_pos_as_xyz
  1  'x, y, z'
loop_
 _atom_site_type_symbol
 _atom_site_label
 _atom_site_symmetry_multiplicity
 _atom_site_fract_x
 _atom_site_fract_y
 _atom_site_fract_z
 _atom_site_occupancy
  Tb  Tb0  1  0.340280  0.002135  0.467366  1
  Tb  Tb1  1  0.498103  0.841722  0.719432  1
  Tb  Tb2  1  0.500726  0.158738  0.217540  1
  Tb  Tb3  1  0.841890  0.498035  0.280600  1
  Ho  Ho4  1  0.158132  0.500006  0.782542  1
  Ho  Ho5  1  0.658630  0.999813  0.968085  1
  Ho  Ho6  1  0.001521  0.340986  0.533148  1
  Ho  Ho7  1  0.999814  0.658619  0.031437  1
  Ti  Ti8  1  0.674216  0.673833  0.500185  1
  Ti  Ti9  1  0.152100  0.005623  0.877407  1
  Ti  Ti10  1  0.494623  0.653967  0.124554  1
  Ti  Ti11  1  0.504947  0.347696  0.628166  1
  Ti  Ti12  1  0.653929  0.494789  0.875209  1
  Ti  Ti13  1  0.347364  0.504648  0.372169  1
  Ti  Ti14  1  0.847023  0.992063  0.376004  1
  Ti  Ti15  1  0.005543  0.152080  0.122471  1
  Ti  Ti16  1  0.992405  0.846776  0.624199  1
  Si  Si17  1  0.198226  0.130133  0.684819  1
  Si  Si18  1  0.370399  0.699743  0.933592  1
  Si  Si19  1  0.631715  0.297819  0.435939  1
  Si  Si20  1  0.700489  0.371218  0.065567  1
  Si  Si21  1  0.296615  0.629869  0.565040  1
  Si  Si22  1  0.800202  0.870200  0.183435  1
  Si  Si23  1  0.128460  0.199412  0.315355  1
  Si  Si24  1  0.871118  0.799267  0.816487  1
  Si  Si25  1  0.289937  0.951368  0.066297  1
  Si  Si26  1  0.547298  0.789313  0.315766  1
  Si  Si27  1  0.451417  0.211915  0.817240  1
  Si  Si28  1  0.790763  0.546628  0.684294  1
  Si  Si29  1  0.211138  0.452532  0.182588  1
  Si  Si30  1  0.709605  0.050085  0.567737  1
  Si  Si31  1  0.952241  0.290445  0.933208  1
  Si  Si32  1  0.049046  0.707754  0.432770  1
  Tc  Tc33  1  0.327840  0.328342  0.999581  1
  Tc  Tc34  1  0.173677  0.827971  0.248068  1
  Tc  Tc35  1  0.828568  0.174454  0.751702  1
