# generated using pymatgen
data_Cs3Li2TiAs3
_symmetry_space_group_name_H-M   'P 1'
_cell_length_a   10.43680786
_cell_length_b   10.43680680
_cell_length_c   16.94305000
_cell_angle_alpha   90.00000000
_cell_angle_beta   90.00000000
_cell_angle_gamma   142.97336947
_symmetry_Int_Tables_number   1
_chemical_formula_structural   Cs3Li2TiAs3
_chemical_formula_sum   'Cs12 Li8 Ti4 As12'
_cell_volume   1111.36749828
_cell_formula_units_Z   4
loop_
 _symmetry_equiv_pos_site_id
 _symmetry_equiv_pos_as_xyz
  1  'x, y, z'
loop_
 _atom_site_type_symbol
 _atom_site_label
 _atom_site_symmetry_multiplicity
 _atom_site_fract_x
 _atom_site_fract_y
 _atom_site_fract_z
 _atom_site_occupancy
  Cs  Cs0  1  0.948768  0.606648  0.830886  1
  Cs  Cs1  1  0.551232  0.893352  0.330886  1
  Cs  Cs2  1  0.393352  0.051232  0.169114  1
  Cs  Cs3  1  0.051232  0.393352  0.169114  1
  Cs  Cs4  1  0.893352  0.551232  0.330886  1
  Cs  Cs5  1  0.448768  0.106648  0.669114  1
  Cs  Cs6  1  0.606648  0.948768  0.830886  1
  Cs  Cs7  1  0.285664  0.285664  0.321864  1
  Cs  Cs8  1  0.785664  0.785664  0.178136  1
  Cs  Cs9  1  0.214336  0.214336  0.821864  1
  Cs  Cs10  1  0.714336  0.714336  0.678136  1
  Cs  Cs11  1  0.106648  0.448768  0.669114  1
  Li  Li12  1  0.918716  0.081284  0.000000  1
  Li  Li13  1  0.581284  0.418716  0.500000  1
  Li  Li14  1  0.081284  0.918716  0.000000  1
  Li  Li15  1  0.418716  0.581284  0.500000  1
  Li  Li16  1  0.748317  0.251683  0.000000  1
  Li  Li17  1  0.751683  0.248317  0.500000  1
  Li  Li18  1  0.251683  0.748317  0.000000  1
  Li  Li19  1  0.248317  0.751683  0.500000  1
  Ti  Ti20  1  0.586017  0.413983  0.000000  1
  Ti  Ti21  1  0.913983  0.086017  0.500000  1
  Ti  Ti22  1  0.413983  0.586017  0.000000  1
  Ti  Ti23  1  0.086017  0.913983  0.500000  1
  As  As24  1  0.887404  0.569021  0.077588  1
  As  As25  1  0.430979  0.112596  0.922412  1
  As  As26  1  0.612596  0.930979  0.577588  1
  As  As27  1  0.930979  0.612596  0.577588  1
  As  As28  1  0.112596  0.430979  0.922412  1
  As  As29  1  0.569021  0.887404  0.077588  1
  As  As30  1  0.387404  0.069021  0.422412  1
  As  As31  1  0.214589  0.214589  0.575314  1
  As  As32  1  0.714589  0.714589  0.924686  1
  As  As33  1  0.285411  0.285411  0.075314  1
  As  As34  1  0.069021  0.387404  0.422412  1
  As  As35  1  0.785411  0.785411  0.424686  1
