# generated using pymatgen
data_Dy5CoNiO12
_symmetry_space_group_name_H-M   'P 1'
_cell_length_a   6.76635257
_cell_length_b   6.76640125
_cell_length_c   7.22509300
_cell_angle_alpha   74.50061584
_cell_angle_beta   74.50043121
_cell_angle_gamma   50.54222614
_symmetry_Int_Tables_number   1
_chemical_formula_structural   Dy5CoNiO12
_chemical_formula_sum   'Dy5 Co1 Ni1 O12'
_cell_volume   243.99629872
_cell_formula_units_Z   1
loop_
 _symmetry_equiv_pos_site_id
 _symmetry_equiv_pos_as_xyz
  1  'x, y, z'
loop_
 _atom_site_type_symbol
 _atom_site_label
 _atom_site_symmetry_multiplicity
 _atom_site_fract_x
 _atom_site_fract_y
 _atom_site_fract_z
 _atom_site_occupancy
  Dy  Dy0  1  0.309653  0.301084  0.356157  1
  Dy  Dy1  1  0.698914  0.690344  0.643845  1
  Dy  Dy2  1  0.308792  0.305872  0.835490  1
  Dy  Dy3  1  0.694126  0.691209  0.164510  1
  Dy  Dy4  1  0.001037  0.998962  0.500001  1
  Co  Co5  1  0.237345  0.762655  0.000001  1
  Ni  Ni6  1  0.749907  0.250105  0.999993  1
  O  O7  1  0.902788  0.420207  0.920952  1
  O  O8  1  0.415426  0.896874  0.922304  1
  O  O9  1  0.103124  0.584576  0.077698  1
  O  O10  1  0.579792  0.097215  0.079048  1
  O  O11  1  0.099303  0.598258  0.574888  1
  O  O12  1  0.597717  0.094736  0.577957  1
  O  O13  1  0.905261  0.402280  0.422044  1
  O  O14  1  0.401741  0.900697  0.425113  1
  O  O15  1  0.998347  0.003188  0.829247  1
  O  O16  1  0.996811  0.001655  0.170754  1
  O  O17  1  0.500121  0.500206  0.825791  1
  O  O18  1  0.499793  0.499879  0.174211  1
