# generated using pymatgen
data_Yb2Tm2Os5Ru3
_symmetry_space_group_name_H-M   'P 1'
_cell_length_a   5.27877128
_cell_length_b   5.17493879
_cell_length_c   8.94643513
_cell_angle_alpha   90.03457370
_cell_angle_beta   89.78296892
_cell_angle_gamma   119.68267520
_symmetry_Int_Tables_number   1
_chemical_formula_structural   Yb2Tm2Os5Ru3
_chemical_formula_sum   'Yb2 Tm2 Os5 Ru3'
_cell_volume   212.32198078
_cell_formula_units_Z   1
loop_
 _symmetry_equiv_pos_site_id
 _symmetry_equiv_pos_as_xyz
  1  'x, y, z'
loop_
 _atom_site_type_symbol
 _atom_site_label
 _atom_site_symmetry_multiplicity
 _atom_site_fract_x
 _atom_site_fract_y
 _atom_site_fract_z
 _atom_site_occupancy
  Yb  Yb0  1  0.329992  0.665188  0.060650  1
  Yb  Yb1  1  0.664488  0.332143  0.940589  1
  Tm  Tm2  1  0.669092  0.334394  0.570823  1
  Tm  Tm3  1  0.333339  0.666932  0.428389  1
  Os  Os4  1  0.173524  0.341822  0.747457  1
  Os  Os5  1  0.173567  0.830847  0.747289  1
  Os  Os6  1  0.661312  0.830004  0.749688  1
  Os  Os7  1  0.835078  0.661923  0.250671  1
  Os  Os8  1  0.837099  0.173876  0.250687  1
  Ru  Ru9  1  0.989160  0.995044  0.499228  1
  Ru  Ru10  1  0.982804  0.991646  0.000598  1
  Ru  Ru11  1  0.350544  0.176183  0.253931  1
