# generated using pymatgen
data_CaEr3Tc3B16Mo
_symmetry_space_group_name_H-M   'P 1'
_cell_length_a   3.58661400
_cell_length_b   5.97718266
_cell_length_c   11.55792526
_cell_angle_alpha   89.94881951
_cell_angle_beta   90.00000000
_cell_angle_gamma   90.00000000
_symmetry_Int_Tables_number   1
_chemical_formula_structural   CaEr3Tc3B16Mo
_chemical_formula_sum   'Ca1 Er3 Tc3 B16 Mo1'
_cell_volume   247.77693464
_cell_formula_units_Z   1
loop_
 _symmetry_equiv_pos_site_id
 _symmetry_equiv_pos_as_xyz
  1  'x, y, z'
loop_
 _atom_site_type_symbol
 _atom_site_label
 _atom_site_symmetry_multiplicity
 _atom_site_fract_x
 _atom_site_fract_y
 _atom_site_fract_z
 _atom_site_occupancy
  Ca  Ca0  1  0.000000  0.626469  0.348551  1
  Er  Er1  1  0.000000  0.371527  0.650806  1
  Er  Er2  1  0.000000  0.127676  0.150138  1
  Er  Er3  1  0.000000  0.873106  0.851028  1
  Tc  Tc4  1  0.000000  0.634577  0.085274  1
  Tc  Tc5  1  0.000000  0.366957  0.913983  1
  Tc  Tc6  1  0.000000  0.130722  0.415947  1
  B  B7  1  0.500000  0.786612  0.184620  1
  B  B8  1  0.500000  0.214065  0.815563  1
  B  B9  1  0.500000  0.285812  0.314252  1
  B  B10  1  0.500000  0.709541  0.686871  1
  B  B11  1  0.500000  0.864590  0.031224  1
  B  B12  1  0.500000  0.135788  0.968818  1
  B  B13  1  0.500000  0.365140  0.467322  1
  B  B14  1  0.500000  0.631776  0.532195  1
  B  B15  1  0.500000  0.887202  0.451230  1
  B  B16  1  0.500000  0.115973  0.546626  1
  B  B17  1  0.500000  0.386778  0.047473  1
  B  B18  1  0.500000  0.613239  0.952593  1
  B  B19  1  0.500000  0.979691  0.306260  1
  B  B20  1  0.500000  0.024594  0.694431  1
  B  B21  1  0.500000  0.476393  0.191903  1
  B  B22  1  0.500000  0.521800  0.808047  1
  Mo  Mo23  1  0.000000  0.869973  0.584843  1
