# generated using pymatgen
data_Li3TiPd4
_symmetry_space_group_name_H-M   'P 1'
_cell_length_a   7.37362391
_cell_length_b   7.37362549
_cell_length_c   7.37362509
_cell_angle_alpha   34.15566405
_cell_angle_beta   34.15564521
_cell_angle_gamma   34.15566916
_symmetry_Int_Tables_number   1
_chemical_formula_structural   Li3TiPd4
_chemical_formula_sum   'Li3 Ti1 Pd4'
_cell_volume   112.67522032
_cell_formula_units_Z   1
loop_
 _symmetry_equiv_pos_site_id
 _symmetry_equiv_pos_as_xyz
  1  'x, y, z'
loop_
 _atom_site_type_symbol
 _atom_site_label
 _atom_site_symmetry_multiplicity
 _atom_site_fract_x
 _atom_site_fract_y
 _atom_site_fract_z
 _atom_site_occupancy
  Li  Li0  1  0.251938  0.251938  0.251938  1
  Li  Li1  1  0.748062  0.748062  0.748062  1
  Li  Li2  1  0.000000  0.000000  0.000000  1
  Ti  Ti3  1  0.500000  0.500000  0.500000  1
  Pd  Pd4  1  0.624184  0.624184  0.624184  1
  Pd  Pd5  1  0.124865  0.124865  0.124865  1
  Pd  Pd6  1  0.875135  0.875135  0.875135  1
  Pd  Pd7  1  0.375816  0.375816  0.375816  1
