# generated using pymatgen
data_Yb3Th3(ZrSb5)2
_symmetry_space_group_name_H-M   'P 1'
_cell_length_a   9.25082300
_cell_length_b   9.35486634
_cell_length_c   6.30896400
_cell_angle_alpha   90.00000000
_cell_angle_beta   90.00000000
_cell_angle_gamma   119.84390358
_symmetry_Int_Tables_number   1
_chemical_formula_structural   Yb3Th3(ZrSb5)2
_chemical_formula_sum   'Yb3 Th3 Zr2 Sb10'
_cell_volume   473.57373490
_cell_formula_units_Z   1
loop_
 _symmetry_equiv_pos_site_id
 _symmetry_equiv_pos_as_xyz
  1  'x, y, z'
loop_
 _atom_site_type_symbol
 _atom_site_label
 _atom_site_symmetry_multiplicity
 _atom_site_fract_x
 _atom_site_fract_y
 _atom_site_fract_z
 _atom_site_occupancy
  Yb  Yb0  1  0.611376  0.997896  0.250000  1
  Yb  Yb1  1  0.386200  0.000850  0.750000  1
  Yb  Yb2  1  0.999580  0.621427  0.250000  1
  Th  Th3  1  0.999695  0.384966  0.750000  1
  Th  Th4  1  0.384911  0.377895  0.250000  1
  Th  Th5  1  0.619212  0.621106  0.750000  1
  Zr  Zr6  1  0.999641  0.998111  0.003036  1
  Zr  Zr7  1  0.999641  0.998111  0.496964  1
  Sb  Sb8  1  0.264876  0.996216  0.250000  1
  Sb  Sb9  1  0.734450  0.002588  0.750000  1
  Sb  Sb10  1  0.996028  0.266619  0.250000  1
  Sb  Sb11  1  0.006218  0.738900  0.750000  1
  Sb  Sb12  1  0.729905  0.733537  0.250000  1
  Sb  Sb13  1  0.267671  0.264807  0.750000  1
  Sb  Sb14  1  0.332261  0.661968  0.002106  1
  Sb  Sb15  1  0.668037  0.336517  0.999147  1
  Sb  Sb16  1  0.668037  0.336517  0.500853  1
  Sb  Sb17  1  0.332261  0.661968  0.497894  1
