# generated using pymatgen
data_Ho4Ga5Ir9
_symmetry_space_group_name_H-M   'P 1'
_cell_length_a   5.57248400
_cell_length_b   5.57248375
_cell_length_c   23.69106000
_cell_angle_alpha   90.00000000
_cell_angle_beta   90.00000000
_cell_angle_gamma   119.99998959
_symmetry_Int_Tables_number   1
_chemical_formula_structural   Ho4Ga5Ir9
_chemical_formula_sum   'Ho8 Ga10 Ir18'
_cell_volume   637.10763721
_cell_formula_units_Z   2
loop_
 _symmetry_equiv_pos_site_id
 _symmetry_equiv_pos_as_xyz
  1  'x, y, z'
loop_
 _atom_site_type_symbol
 _atom_site_label
 _atom_site_symmetry_multiplicity
 _atom_site_fract_x
 _atom_site_fract_y
 _atom_site_fract_z
 _atom_site_occupancy
  Ho  Ho0  1  0.333333  0.666667  0.529722  1
  Ho  Ho1  1  0.666667  0.333333  0.470278  1
  Ho  Ho2  1  0.666667  0.333333  0.029722  1
  Ho  Ho3  1  0.333333  0.666667  0.970278  1
  Ho  Ho4  1  0.333333  0.666667  0.677965  1
  Ho  Ho5  1  0.666667  0.333333  0.322035  1
  Ho  Ho6  1  0.666667  0.333333  0.177965  1
  Ho  Ho7  1  0.333333  0.666667  0.822035  1
  Ga  Ga8  1  0.000000  0.000000  0.000000  1
  Ga  Ga9  1  0.000000  0.000000  0.500000  1
  Ga  Ga10  1  0.333333  0.666667  0.167948  1
  Ga  Ga11  1  0.666667  0.333333  0.832052  1
  Ga  Ga12  1  0.666667  0.333333  0.667948  1
  Ga  Ga13  1  0.333333  0.666667  0.332052  1
  Ga  Ga14  1  0.000000  0.000000  0.165208  1
  Ga  Ga15  1  0.000000  0.000000  0.834792  1
  Ga  Ga16  1  0.000000  0.000000  0.665208  1
  Ga  Ga17  1  0.000000  0.000000  0.334792  1
  Ir  Ir18  1  0.170660  0.341318  0.083182  1
  Ir  Ir19  1  0.829340  0.658682  0.916818  1
  Ir  Ir20  1  0.658682  0.829340  0.083182  1
  Ir  Ir21  1  0.829340  0.658682  0.583182  1
  Ir  Ir22  1  0.341318  0.170660  0.916818  1
  Ir  Ir23  1  0.170660  0.341318  0.416818  1
  Ir  Ir24  1  0.170660  0.829340  0.083182  1
  Ir  Ir25  1  0.341318  0.170660  0.583182  1
  Ir  Ir26  1  0.829340  0.170660  0.916818  1
  Ir  Ir27  1  0.658682  0.829340  0.416818  1
  Ir  Ir28  1  0.829340  0.170660  0.583182  1
  Ir  Ir29  1  0.170660  0.829340  0.416818  1
  Ir  Ir30  1  0.165268  0.330534  0.250000  1
  Ir  Ir31  1  0.834732  0.669466  0.750000  1
  Ir  Ir32  1  0.669466  0.834732  0.250000  1
  Ir  Ir33  1  0.330534  0.165268  0.750000  1
  Ir  Ir34  1  0.165268  0.834732  0.250000  1
  Ir  Ir35  1  0.834732  0.165268  0.750000  1
