# generated using pymatgen
data_EuTm3(Ga2Ag)4
_symmetry_space_group_name_H-M   'P 1'
_cell_length_a   4.36578000
_cell_length_b   7.03480398
_cell_length_c   10.32073480
_cell_angle_alpha   90.42606531
_cell_angle_beta   90.00000000
_cell_angle_gamma   90.00000000
_symmetry_Int_Tables_number   1
_chemical_formula_structural   EuTm3(Ga2Ag)4
_chemical_formula_sum   'Eu1 Tm3 Ga8 Ag4'
_cell_volume   316.96583870
_cell_formula_units_Z   1
loop_
 _symmetry_equiv_pos_site_id
 _symmetry_equiv_pos_as_xyz
  1  'x, y, z'
loop_
 _atom_site_type_symbol
 _atom_site_label
 _atom_site_symmetry_multiplicity
 _atom_site_fract_x
 _atom_site_fract_y
 _atom_site_fract_z
 _atom_site_occupancy
  Eu  Eu0  1  0.250000  0.278093  0.675056  1
  Tm  Tm1  1  0.250000  0.779243  0.828049  1
  Tm  Tm2  1  0.750000  0.222070  0.173723  1
  Tm  Tm3  1  0.750000  0.722250  0.325652  1
  Ga  Ga4  1  0.250000  0.926577  0.156083  1
  Ga  Ga5  1  0.750000  0.067380  0.848409  1
  Ga  Ga6  1  0.750000  0.577653  0.653468  1
  Ga  Ga7  1  0.250000  0.430323  0.343212  1
  Ga  Ga8  1  0.250000  0.707121  0.534688  1
  Ga  Ga9  1  0.750000  0.299619  0.461622  1
  Ga  Ga10  1  0.750000  0.797888  0.037652  1
  Ga  Ga11  1  0.250000  0.194995  0.967887  1
  Ag  Ag12  1  0.250000  0.543378  0.095721  1
  Ag  Ag13  1  0.750000  0.456624  0.906191  1
  Ag  Ag14  1  0.750000  0.953222  0.593406  1
  Ag  Ag15  1  0.250000  0.043564  0.399183  1
