# generated using pymatgen
data_Tb3YbHo4(B6Os)4
_symmetry_space_group_name_H-M   'P 1'
_cell_length_a   3.65579900
_cell_length_b   9.15738935
_cell_length_c   11.55033696
_cell_angle_alpha   89.91795437
_cell_angle_beta   90.00000000
_cell_angle_gamma   90.00000000
_symmetry_Int_Tables_number   1
_chemical_formula_structural   Tb3YbHo4(B6Os)4
_chemical_formula_sum   'Tb3 Yb1 Ho4 B24 Os4'
_cell_volume   386.67687332
_cell_formula_units_Z   1
loop_
 _symmetry_equiv_pos_site_id
 _symmetry_equiv_pos_as_xyz
  1  'x, y, z'
loop_
 _atom_site_type_symbol
 _atom_site_label
 _atom_site_symmetry_multiplicity
 _atom_site_fract_x
 _atom_site_fract_y
 _atom_site_fract_z
 _atom_site_occupancy
  Tb  Tb0  1  0.000000  0.676093  0.585229  1
  Tb  Tb1  1  0.000000  0.822415  0.086801  1
  Tb  Tb2  1  0.000000  0.178109  0.914259  1
  Yb  Yb3  1  0.000000  0.323194  0.413445  1
  Ho  Ho4  1  0.000000  0.944373  0.371983  1
  Ho  Ho5  1  0.000000  0.057698  0.627136  1
  Ho  Ho6  1  0.000000  0.443278  0.128911  1
  Ho  Ho7  1  0.000000  0.555836  0.872503  1
  B  B8  1  0.500000  0.553396  0.432304  1
  B  B9  1  0.500000  0.445611  0.567157  1
  B  B10  1  0.500000  0.053638  0.067228  1
  B  B11  1  0.500000  0.945810  0.932282  1
  B  B12  1  0.500000  0.748065  0.418988  1
  B  B13  1  0.500000  0.252242  0.580576  1
  B  B14  1  0.500000  0.247866  0.081091  1
  B  B15  1  0.500000  0.751536  0.919302  1
  B  B16  1  0.500000  0.791240  0.266705  1
  B  B17  1  0.500000  0.209676  0.733393  1
  B  B18  1  0.500000  0.290396  0.233768  1
  B  B19  1  0.500000  0.709223  0.766636  1
  B  B20  1  0.500000  0.631608  0.186296  1
  B  B21  1  0.500000  0.368530  0.814644  1
  B  B22  1  0.500000  0.131757  0.314224  1
  B  B23  1  0.500000  0.868611  0.685354  1
  B  B24  1  0.500000  0.983776  0.212632  1
  B  B25  1  0.500000  0.016507  0.786701  1
  B  B26  1  0.500000  0.483396  0.287620  1
  B  B27  1  0.500000  0.516084  0.712862  1
  B  B28  1  0.500000  0.606889  0.029822  1
  B  B29  1  0.500000  0.393161  0.970754  1
  B  B30  1  0.500000  0.104933  0.470824  1
  B  B31  1  0.500000  0.894630  0.529134  1
  Os  Os32  1  0.000000  0.639063  0.320710  1
  Os  Os33  1  0.000000  0.362016  0.679719  1
  Os  Os34  1  0.000000  0.137071  0.178029  1
  Os  Os35  1  0.000000  0.862273  0.820977  1
