# generated using pymatgen
data_Er16Cd4TcNi3
_symmetry_space_group_name_H-M   'P 1'
_cell_length_a   9.51591955
_cell_length_b   9.51591937
_cell_length_c   9.51592003
_cell_angle_alpha   59.43089244
_cell_angle_beta   59.43089632
_cell_angle_gamma   59.43089325
_symmetry_Int_Tables_number   1
_chemical_formula_structural   Er16Cd4TcNi3
_chemical_formula_sum   'Er16 Cd4 Tc1 Ni3'
_cell_volume   601.41901318
_cell_formula_units_Z   1
loop_
 _symmetry_equiv_pos_site_id
 _symmetry_equiv_pos_as_xyz
  1  'x, y, z'
loop_
 _atom_site_type_symbol
 _atom_site_label
 _atom_site_symmetry_multiplicity
 _atom_site_fract_x
 _atom_site_fract_y
 _atom_site_fract_z
 _atom_site_occupancy
  Er  Er0  1  0.346571  0.346571  0.346571  1
  Er  Er1  1  0.352342  0.352342  0.953610  1
  Er  Er2  1  0.352342  0.953610  0.352342  1
  Er  Er3  1  0.953610  0.352342  0.352342  1
  Er  Er4  1  0.810589  0.187421  0.187421  1
  Er  Er5  1  0.186701  0.811138  0.811138  1
  Er  Er6  1  0.187421  0.810589  0.187421  1
  Er  Er7  1  0.811138  0.186701  0.811138  1
  Er  Er8  1  0.187421  0.187421  0.810589  1
  Er  Er9  1  0.811138  0.811138  0.186701  1
  Er  Er10  1  0.935691  0.565872  0.565872  1
  Er  Er11  1  0.555801  0.939753  0.939753  1
  Er  Er12  1  0.565872  0.935691  0.565872  1
  Er  Er13  1  0.939753  0.555801  0.939753  1
  Er  Er14  1  0.565872  0.565872  0.935691  1
  Er  Er15  1  0.939753  0.939753  0.555801  1
  Cd  Cd16  1  0.579874  0.579874  0.579874  1
  Cd  Cd17  1  0.579669  0.579669  0.255648  1
  Cd  Cd18  1  0.579669  0.255648  0.579669  1
  Cd  Cd19  1  0.255648  0.579669  0.579669  1
  Tc  Tc20  1  0.144245  0.144245  0.144245  1
  Ni  Ni21  1  0.141667  0.141667  0.575546  1
  Ni  Ni22  1  0.141667  0.575546  0.141667  1
  Ni  Ni23  1  0.575546  0.141667  0.141667  1
