# generated using pymatgen
data_Sr4In2IrPt3
_symmetry_space_group_name_H-M   'P 1'
_cell_length_a   6.04484007
_cell_length_b   6.00034247
_cell_length_c   8.39964555
_cell_angle_alpha   78.45616631
_cell_angle_beta   78.14023716
_cell_angle_gamma   60.33590682
_symmetry_Int_Tables_number   1
_chemical_formula_structural   Sr4In2IrPt3
_chemical_formula_sum   'Sr4 In2 Ir1 Pt3'
_cell_volume   257.34409326
_cell_formula_units_Z   1
loop_
 _symmetry_equiv_pos_site_id
 _symmetry_equiv_pos_as_xyz
  1  'x, y, z'
loop_
 _atom_site_type_symbol
 _atom_site_label
 _atom_site_symmetry_multiplicity
 _atom_site_fract_x
 _atom_site_fract_y
 _atom_site_fract_z
 _atom_site_occupancy
  Sr  Sr0  1  0.504076  0.789453  0.351069  1
  Sr  Sr1  1  0.210309  0.497900  0.144581  1
  Sr  Sr2  1  0.490957  0.210946  0.648582  1
  Sr  Sr3  1  0.792724  0.502303  0.855503  1
  In  In4  1  0.878599  0.125489  0.243534  1
  In  In5  1  0.131114  0.872645  0.755643  1
  Ir  Ir6  1  0.282951  0.997615  0.994551  1
  Pt  Pt7  1  0.001554  0.725024  0.507197  1
  Pt  Pt8  1  0.710423  0.001516  0.003903  1
  Pt  Pt9  1  0.997292  0.277110  0.495437  1
