# generated using pymatgen
data_Nd2DyY5(Si3Rh)4
_symmetry_space_group_name_H-M   'P 1'
_cell_length_a   8.21148025
_cell_length_b   8.21496169
_cell_length_c   8.04976200
_cell_angle_alpha   90.00000000
_cell_angle_beta   90.00000000
_cell_angle_gamma   120.01401802
_symmetry_Int_Tables_number   1
_chemical_formula_structural   Nd2DyY5(Si3Rh)4
_chemical_formula_sum   'Nd2 Dy1 Y5 Si12 Rh4'
_cell_volume   470.19640373
_cell_formula_units_Z   1
loop_
 _symmetry_equiv_pos_site_id
 _symmetry_equiv_pos_as_xyz
  1  'x, y, z'
loop_
 _atom_site_type_symbol
 _atom_site_label
 _atom_site_symmetry_multiplicity
 _atom_site_fract_x
 _atom_site_fract_y
 _atom_site_fract_z
 _atom_site_occupancy
  Nd  Nd0  1  0.000040  0.000020  0.250000  1
  Nd  Nd1  1  0.999990  0.999995  0.750000  1
  Dy  Dy2  1  0.017170  0.508585  0.750000  1
  Y  Y3  1  0.508658  0.491324  0.250000  1
  Y  Y4  1  0.508658  0.017335  0.250000  1
  Y  Y5  1  0.982658  0.491329  0.250000  1
  Y  Y6  1  0.491319  0.508669  0.750000  1
  Y  Y7  1  0.491319  0.982649  0.750000  1
  Si  Si8  1  0.168152  0.831757  0.500464  1
  Si  Si9  1  0.168152  0.336397  0.500464  1
  Si  Si10  1  0.663608  0.831805  0.500405  1
  Si  Si11  1  0.831858  0.168257  0.499664  1
  Si  Si12  1  0.831858  0.663600  0.499664  1
  Si  Si13  1  0.336366  0.168182  0.499585  1
  Si  Si14  1  0.831858  0.168257  0.000336  1
  Si  Si15  1  0.831858  0.663600  0.000336  1
  Si  Si16  1  0.336366  0.168182  0.000415  1
  Si  Si17  1  0.168152  0.831757  0.999536  1
  Si  Si18  1  0.168152  0.336397  0.999536  1
  Si  Si19  1  0.663608  0.831805  0.999595  1
  Rh  Rh20  1  0.333215  0.666608  0.466683  1
  Rh  Rh21  1  0.666885  0.333442  0.533590  1
  Rh  Rh22  1  0.666885  0.333442  0.966410  1
  Rh  Rh23  1  0.333215  0.666608  0.033317  1
