# generated using pymatgen
data_YbGa3SiNi
_symmetry_space_group_name_H-M   'P 1'
_cell_length_a   7.82458397
_cell_length_b   7.82458384
_cell_length_c   6.59300562
_cell_angle_alpha   90.75829075
_cell_angle_beta   89.24170965
_cell_angle_gamma   150.20564021
_symmetry_Int_Tables_number   1
_chemical_formula_structural   YbGa3SiNi
_chemical_formula_sum   'Yb2 Ga6 Si2 Ni2'
_cell_volume   200.55070733
_cell_formula_units_Z   2
loop_
 _symmetry_equiv_pos_site_id
 _symmetry_equiv_pos_as_xyz
  1  'x, y, z'
loop_
 _atom_site_type_symbol
 _atom_site_label
 _atom_site_symmetry_multiplicity
 _atom_site_fract_x
 _atom_site_fract_y
 _atom_site_fract_z
 _atom_site_occupancy
  Yb  Yb0  1  0.623494  0.376506  0.744871  1
  Yb  Yb1  1  0.376506  0.623494  0.255129  1
  Ga  Ga2  1  0.000000  0.000000  0.000000  1
  Ga  Ga3  1  0.000000  0.000000  0.500000  1
  Ga  Ga4  1  0.567479  0.432521  0.249168  1
  Ga  Ga5  1  0.432521  0.567479  0.750832  1
  Ga  Ga6  1  0.186794  0.813206  0.046981  1
  Ga  Ga7  1  0.813206  0.186794  0.953019  1
  Si  Si8  1  0.188109  0.811891  0.445027  1
  Si  Si9  1  0.811891  0.188109  0.554973  1
  Ni  Ni10  1  0.722570  0.277430  0.271408  1
  Ni  Ni11  1  0.277430  0.722570  0.728592  1
