# generated using pymatgen
data_Ho8Si(PdPt3)6
_symmetry_space_group_name_H-M   'P 1'
_cell_length_a   8.31480900
_cell_length_b   8.31031700
_cell_length_c   8.35007400
_cell_angle_alpha   90.00000000
_cell_angle_beta   90.00000000
_cell_angle_gamma   90.00000000
_symmetry_Int_Tables_number   1
_chemical_formula_structural   Ho8Si(PdPt3)6
_chemical_formula_sum   'Ho8 Si1 Pd6 Pt18'
_cell_volume   576.97924648
_cell_formula_units_Z   1
loop_
 _symmetry_equiv_pos_site_id
 _symmetry_equiv_pos_as_xyz
  1  'x, y, z'
loop_
 _atom_site_type_symbol
 _atom_site_label
 _atom_site_symmetry_multiplicity
 _atom_site_fract_x
 _atom_site_fract_y
 _atom_site_fract_z
 _atom_site_occupancy
  Ho  Ho0  1  0.252768  0.252323  0.253146  1
  Ho  Ho1  1  0.746857  0.746660  0.746126  1
  Ho  Ho2  1  0.747232  0.747677  0.253146  1
  Ho  Ho3  1  0.746857  0.253340  0.746126  1
  Ho  Ho4  1  0.253143  0.253340  0.746126  1
  Ho  Ho5  1  0.252768  0.747677  0.253146  1
  Ho  Ho6  1  0.253143  0.746660  0.746126  1
  Ho  Ho7  1  0.747232  0.252323  0.253146  1
  Si  Si8  1  0.000000  0.000000  0.005887  1
  Pd  Pd9  1  0.257655  0.000000  0.500511  1
  Pd  Pd10  1  0.500000  0.000000  0.740826  1
  Pd  Pd11  1  0.742345  0.000000  0.500511  1
  Pd  Pd12  1  0.000000  0.500000  0.257270  1
  Pd  Pd13  1  0.000000  0.500000  0.741303  1
  Pd  Pd14  1  0.000000  0.000000  0.721655  1
  Pt  Pt15  1  0.257041  0.500000  0.999891  1
  Pt  Pt16  1  0.742959  0.500000  0.999891  1
  Pt  Pt17  1  0.000000  0.257775  0.500054  1
  Pt  Pt18  1  0.500000  0.257232  0.999962  1
  Pt  Pt19  1  0.000000  0.742225  0.500054  1
  Pt  Pt20  1  0.500000  0.742768  0.999962  1
  Pt  Pt21  1  0.500000  0.000000  0.257798  1
  Pt  Pt22  1  0.251578  0.500000  0.499719  1
  Pt  Pt23  1  0.748422  0.500000  0.499719  1
  Pt  Pt24  1  0.500000  0.251878  0.499399  1
  Pt  Pt25  1  0.500000  0.748122  0.499399  1
  Pt  Pt26  1  0.500000  0.500000  0.252140  1
  Pt  Pt27  1  0.500000  0.500000  0.747505  1
  Pt  Pt28  1  0.280845  0.000000  0.998036  1
  Pt  Pt29  1  0.719155  0.000000  0.998036  1
  Pt  Pt30  1  0.000000  0.281068  0.998643  1
  Pt  Pt31  1  0.000000  0.718932  0.998643  1
  Pt  Pt32  1  0.000000  0.000000  0.286095  1
