# generated using pymatgen
data_Dy5ErInSi2
_symmetry_space_group_name_H-M   'P 1'
_cell_length_a   8.52099656
_cell_length_b   8.51425129
_cell_length_c   8.51425106
_cell_angle_alpha   112.20272383
_cell_angle_beta   110.92728425
_cell_angle_gamma   105.33367090
_symmetry_Int_Tables_number   1
_chemical_formula_structural   Dy5ErInSi2
_chemical_formula_sum   'Dy10 Er2 In2 Si4'
_cell_volume   473.79061357
_cell_formula_units_Z   2
loop_
 _symmetry_equiv_pos_site_id
 _symmetry_equiv_pos_as_xyz
  1  'x, y, z'
loop_
 _atom_site_type_symbol
 _atom_site_label
 _atom_site_symmetry_multiplicity
 _atom_site_fract_x
 _atom_site_fract_y
 _atom_site_fract_z
 _atom_site_occupancy
  Dy  Dy0  1  0.034705  0.238792  0.795914  1
  Dy  Dy1  1  0.965295  0.761208  0.204086  1
  Dy  Dy2  1  0.186099  0.278151  0.463830  1
  Dy  Dy3  1  0.813901  0.721849  0.536170  1
  Dy  Dy4  1  0.186099  0.722270  0.907948  1
  Dy  Dy5  1  0.813901  0.277730  0.092052  1
  Dy  Dy6  1  0.320083  0.616555  0.297028  1
  Dy  Dy7  1  0.679917  0.383445  0.702972  1
  Dy  Dy8  1  0.320083  0.023056  0.703528  1
  Dy  Dy9  1  0.679917  0.976944  0.296472  1
  Er  Er10  1  0.443077  0.238529  0.204549  1
  Er  Er11  1  0.556923  0.761471  0.795451  1
  In  In12  1  0.500000  0.500000  0.000000  1
  In  In13  1  0.000000  0.000000  0.000000  1
  Si  Si14  1  0.369160  0.000351  0.368808  1
  Si  Si15  1  0.630840  0.999649  0.631192  1
  Si  Si16  1  0.115481  0.615448  0.500033  1
  Si  Si17  1  0.884519  0.384552  0.499967  1
