# generated using pymatgen
data_Dy4Al4CuRu3
_symmetry_space_group_name_H-M   'P 1'
_cell_length_a   4.13020700
_cell_length_b   6.94162011
_cell_length_c   8.04221961
_cell_angle_alpha   90.40589200
_cell_angle_beta   90.00000000
_cell_angle_gamma   90.00000000
_symmetry_Int_Tables_number   1
_chemical_formula_structural   Dy4Al4CuRu3
_chemical_formula_sum   'Dy4 Al4 Cu1 Ru3'
_cell_volume   230.56728821
_cell_formula_units_Z   1
loop_
 _symmetry_equiv_pos_site_id
 _symmetry_equiv_pos_as_xyz
  1  'x, y, z'
loop_
 _atom_site_type_symbol
 _atom_site_label
 _atom_site_symmetry_multiplicity
 _atom_site_fract_x
 _atom_site_fract_y
 _atom_site_fract_z
 _atom_site_occupancy
  Dy  Dy0  1  0.250000  0.470722  0.183836  1
  Dy  Dy1  1  0.750000  0.537811  0.819326  1
  Dy  Dy2  1  0.750000  0.028855  0.677132  1
  Dy  Dy3  1  0.250000  0.967177  0.321174  1
  Al  Al4  1  0.250000  0.855229  0.941796  1
  Al  Al5  1  0.750000  0.139784  0.058695  1
  Al  Al6  1  0.750000  0.638338  0.441038  1
  Al  Al7  1  0.250000  0.362869  0.557914  1
  Cu  Cu8  1  0.250000  0.226632  0.876148  1
  Ru  Ru9  1  0.250000  0.735222  0.624788  1
  Ru  Ru10  1  0.750000  0.267604  0.377420  1
  Ru  Ru11  1  0.750000  0.769756  0.120733  1
