# generated using pymatgen
data_SmPa(PS3)4
_symmetry_space_group_name_H-M   'P 1'
_cell_length_a   7.08078200
_cell_length_b   7.08078200
_cell_length_c   9.74227300
_cell_angle_alpha   90.00000000
_cell_angle_beta   90.00000000
_cell_angle_gamma   90.00000000
_symmetry_Int_Tables_number   1
_chemical_formula_structural   SmPa(PS3)4
_chemical_formula_sum   'Sm1 Pa1 P4 S12'
_cell_volume   488.45295662
_cell_formula_units_Z   1
loop_
 _symmetry_equiv_pos_site_id
 _symmetry_equiv_pos_as_xyz
  1  'x, y, z'
loop_
 _atom_site_type_symbol
 _atom_site_label
 _atom_site_symmetry_multiplicity
 _atom_site_fract_x
 _atom_site_fract_y
 _atom_site_fract_z
 _atom_site_occupancy
  Sm  Sm0  1  0.000000  0.000000  0.250000  1
  Pa  Pa1  1  0.000000  0.000000  0.750000  1
  P  P2  1  0.058098  0.347816  0.499469  1
  P  P3  1  0.941902  0.652184  0.499469  1
  P  P4  1  0.347816  0.941902  0.000531  1
  P  P5  1  0.652184  0.058098  0.000531  1
  S  S6  1  0.204284  0.310657  0.678454  1
  S  S7  1  0.677951  0.210811  0.171350  1
  S  S8  1  0.173216  0.173800  0.992429  1
  S  S9  1  0.826200  0.173216  0.507571  1
  S  S10  1  0.173800  0.826784  0.507571  1
  S  S11  1  0.826784  0.826200  0.992429  1
  S  S12  1  0.210811  0.322049  0.328650  1
  S  S13  1  0.689343  0.204284  0.821546  1
  S  S14  1  0.310657  0.795716  0.821546  1
  S  S15  1  0.789189  0.677951  0.328650  1
  S  S16  1  0.795716  0.689343  0.678454  1
  S  S17  1  0.322049  0.789189  0.171350  1
