# generated using pymatgen
data_TbScMo3P7Rh9
_symmetry_space_group_name_H-M   'P 1'
_cell_length_a   3.91881168
_cell_length_b   9.51080409
_cell_length_c   9.51140030
_cell_angle_alpha   120.00461543
_cell_angle_beta   89.98832968
_cell_angle_gamma   90.01581815
_symmetry_Int_Tables_number   1
_chemical_formula_structural   TbScMo3P7Rh9
_chemical_formula_sum   'Tb1 Sc1 Mo3 P7 Rh9'
_cell_volume   306.99160818
_cell_formula_units_Z   1
loop_
 _symmetry_equiv_pos_site_id
 _symmetry_equiv_pos_as_xyz
  1  'x, y, z'
loop_
 _atom_site_type_symbol
 _atom_site_label
 _atom_site_symmetry_multiplicity
 _atom_site_fract_x
 _atom_site_fract_y
 _atom_site_fract_z
 _atom_site_occupancy
  Tb  Tb0  1  0.261763  0.666654  0.333307  1
  Sc  Sc1  1  0.762191  0.333351  0.666690  1
  Mo  Mo2  1  0.761886  0.091879  0.871086  1
  Mo  Mo3  1  0.761925  0.128959  0.220882  1
  Mo  Mo4  1  0.761903  0.779153  0.908067  1
  P  P5  1  0.261921  0.000026  0.999994  1
  P  P6  1  0.761859  0.881377  0.594294  1
  P  P7  1  0.761871  0.405692  0.287088  1
  P  P8  1  0.761860  0.712900  0.118600  1
  P  P9  1  0.261894  0.119313  0.415047  1
  P  P10  1  0.261924  0.584968  0.704252  1
  P  P11  1  0.261895  0.295756  0.880695  1
  Rh  Rh12  1  0.261878  0.884114  0.160555  1
  Rh  Rh13  1  0.261905  0.839434  0.723516  1
  Rh  Rh14  1  0.261914  0.276448  0.115920  1
  Rh  Rh15  1  0.761874  0.610253  0.559071  1
  Rh  Rh16  1  0.761868  0.440906  0.051143  1
  Rh  Rh17  1  0.761903  0.948783  0.389711  1
  Rh  Rh18  1  0.261945  0.368785  0.441086  1
  Rh  Rh19  1  0.261905  0.558969  0.927759  1
  Rh  Rh20  1  0.261915  0.072280  0.631238  1
