# generated using pymatgen
data_Tm2Cu2P6N13
_symmetry_space_group_name_H-M   'P 1'
_cell_length_a   7.04769910
_cell_length_b   7.04769936
_cell_length_c   7.05123900
_cell_angle_alpha   109.75864292
_cell_angle_beta   109.75864368
_cell_angle_gamma   108.87732273
_symmetry_Int_Tables_number   1
_chemical_formula_structural   Tm2Cu2P6N13
_chemical_formula_sum   'Tm2 Cu2 P6 N13'
_cell_volume   269.65887209
_cell_formula_units_Z   1
loop_
 _symmetry_equiv_pos_site_id
 _symmetry_equiv_pos_as_xyz
  1  'x, y, z'
loop_
 _atom_site_type_symbol
 _atom_site_label
 _atom_site_symmetry_multiplicity
 _atom_site_fract_x
 _atom_site_fract_y
 _atom_site_fract_z
 _atom_site_occupancy
  Tm  Tm0  1  0.009857  0.712030  0.000000  1
  Tm  Tm1  1  0.712030  0.009857  0.000000  1
  Cu  Cu2  1  0.987861  0.987861  0.711355  1
  Cu  Cu3  1  0.276506  0.276506  0.288645  1
  P  P4  1  0.492170  0.248516  0.744997  1
  P  P5  1  0.503519  0.747174  0.255003  1
  P  P6  1  0.747174  0.503519  0.255003  1
  P  P7  1  0.246044  0.746044  0.500000  1
  P  P8  1  0.746044  0.246044  0.500000  1
  P  P9  1  0.248516  0.492170  0.744997  1
  N  N10  1  0.998670  0.737244  0.445660  1
  N  N11  1  0.291582  0.553010  0.554340  1
  N  N12  1  0.730335  0.438203  0.000000  1
  N  N13  1  0.277300  0.724433  0.278097  1
  N  N14  1  0.446335  0.999203  0.721903  1
  N  N15  1  0.724433  0.277300  0.278097  1
  N  N16  1  0.553010  0.291582  0.554340  1
  N  N17  1  0.737244  0.998670  0.445660  1
  N  N18  1  0.266468  0.266468  0.722212  1
  N  N19  1  0.438203  0.730335  0.000000  1
  N  N20  1  0.544257  0.544257  0.277788  1
  N  N21  1  0.999203  0.446335  0.721903  1
  N  N22  1  0.023239  0.023239  0.000000  1
