# generated using pymatgen
data_Ba5Sr3Ga8(BO4)8
_symmetry_space_group_name_H-M   'P 1'
_cell_length_a   6.06995600
_cell_length_b   9.41441282
_cell_length_c   15.90058070
_cell_angle_alpha   89.81078655
_cell_angle_beta   90.00000000
_cell_angle_gamma   90.00000000
_symmetry_Int_Tables_number   1
_chemical_formula_structural   Ba5Sr3Ga8(BO4)8
_chemical_formula_sum   'Ba5 Sr3 Ga8 B8 O32'
_cell_volume   908.63486757
_cell_formula_units_Z   1
loop_
 _symmetry_equiv_pos_site_id
 _symmetry_equiv_pos_as_xyz
  1  'x, y, z'
loop_
 _atom_site_type_symbol
 _atom_site_label
 _atom_site_symmetry_multiplicity
 _atom_site_fract_x
 _atom_site_fract_y
 _atom_site_fract_z
 _atom_site_occupancy
  Ba  Ba0  1  0.000000  0.711807  0.478851  1
  Ba  Ba1  1  0.500000  0.922792  0.123733  1
  Ba  Ba2  1  0.500000  0.077364  0.877774  1
  Ba  Ba3  1  0.500000  0.423721  0.375377  1
  Ba  Ba4  1  0.500000  0.574831  0.625345  1
  Sr  Sr5  1  0.000000  0.214854  0.021105  1
  Sr  Sr6  1  0.000000  0.280162  0.520050  1
  Sr  Sr7  1  0.000000  0.786015  0.979627  1
  Ga  Ga8  1  0.248843  0.532585  0.149678  1
  Ga  Ga9  1  0.249042  0.467268  0.851495  1
  Ga  Ga10  1  0.751157  0.532585  0.149678  1
  Ga  Ga11  1  0.249033  0.037040  0.346149  1
  Ga  Ga12  1  0.750967  0.037040  0.346149  1
  Ga  Ga13  1  0.249933  0.969412  0.653735  1
  Ga  Ga14  1  0.750958  0.467268  0.851495  1
  Ga  Ga15  1  0.750067  0.969412  0.653735  1
  B  B16  1  0.500000  0.798509  0.420394  1
  B  B17  1  0.000000  0.477386  0.306915  1
  B  B18  1  0.500000  0.205514  0.576167  1
  B  B19  1  0.000000  0.016476  0.811052  1
  B  B20  1  0.000000  0.507476  0.693348  1
  B  B21  1  0.000000  0.989615  0.188588  1
  B  B22  1  0.500000  0.704819  0.925573  1
  B  B23  1  0.500000  0.295401  0.075261  1
  O  O24  1  0.500000  0.145529  0.353100  1
  O  O25  1  0.000000  0.616644  0.103968  1
  O  O26  1  0.000000  0.025583  0.897888  1
  O  O27  1  0.801329  0.011611  0.767358  1
  O  O28  1  0.801713  0.997660  0.232175  1
  O  O29  1  0.702491  0.357913  0.095186  1
  O  O30  1  0.702545  0.642708  0.905224  1
  O  O31  1  0.000000  0.886930  0.609592  1
  O  O32  1  0.800991  0.506343  0.737041  1
  O  O33  1  0.198671  0.011611  0.767358  1
  O  O34  1  0.000000  0.975155  0.102051  1
  O  O35  1  0.297455  0.642708  0.905224  1
  O  O36  1  0.300117  0.860900  0.398176  1
  O  O37  1  0.500000  0.358874  0.858278  1
  O  O38  1  0.198287  0.997660  0.232175  1
  O  O39  1  0.801419  0.488722  0.263527  1
  O  O40  1  0.000000  0.458373  0.393145  1
  O  O41  1  0.500000  0.332684  0.534024  1
  O  O42  1  0.701970  0.143134  0.597185  1
  O  O43  1  0.699883  0.860900  0.398176  1
  O  O44  1  0.500000  0.167149  0.034946  1
  O  O45  1  0.000000  0.511803  0.606567  1
  O  O46  1  0.500000  0.672145  0.464074  1
  O  O47  1  0.298030  0.143134  0.597185  1
  O  O48  1  0.198581  0.488722  0.263527  1
  O  O49  1  0.000000  0.114749  0.394590  1
  O  O50  1  0.000000  0.383991  0.897357  1
  O  O51  1  0.500000  0.859287  0.646889  1
  O  O52  1  0.500000  0.641203  0.144069  1
  O  O53  1  0.500000  0.832567  0.966448  1
  O  O54  1  0.297509  0.357913  0.095186  1
  O  O55  1  0.199009  0.506343  0.737041  1
