# generated using pymatgen
data_Sm3CdCu(PtPb)2
_symmetry_space_group_name_H-M   'P 1'
_cell_length_a   7.90915383
_cell_length_b   7.81711323
_cell_length_c   3.87572800
_cell_angle_alpha   90.00000000
_cell_angle_beta   90.00000000
_cell_angle_gamma   119.61577934
_symmetry_Int_Tables_number   1
_chemical_formula_structural   Sm3CdCu(PtPb)2
_chemical_formula_sum   'Sm3 Cd1 Cu1 Pt2 Pb2'
_cell_volume   208.31896179
_cell_formula_units_Z   1
loop_
 _symmetry_equiv_pos_site_id
 _symmetry_equiv_pos_as_xyz
  1  'x, y, z'
loop_
 _atom_site_type_symbol
 _atom_site_label
 _atom_site_symmetry_multiplicity
 _atom_site_fract_x
 _atom_site_fract_y
 _atom_site_fract_z
 _atom_site_occupancy
  Sm  Sm0  1  0.404444  0.410156  0.500000  1
  Sm  Sm1  1  0.595556  0.005713  0.500000  1
  Sm  Sm2  1  0.000000  0.579533  0.500000  1
  Cd  Cd3  1  0.000000  0.252171  0.000000  1
  Cu  Cu4  1  0.000000  0.005317  0.500000  1
  Pt  Pt5  1  0.671507  0.332035  0.000000  1
  Pt  Pt6  1  0.328493  0.660528  0.000000  1
  Pb  Pb7  1  0.748409  0.751478  0.000000  1
  Pb  Pb8  1  0.251591  0.003069  0.000000  1
