# generated using pymatgen
data_U3CuPd12
_symmetry_space_group_name_H-M   'P 1'
_cell_length_a   5.75971600
_cell_length_b   5.75971601
_cell_length_c   9.43148600
_cell_angle_alpha   90.00000000
_cell_angle_beta   90.00000000
_cell_angle_gamma   119.99980860
_symmetry_Int_Tables_number   1
_chemical_formula_structural   U3CuPd12
_chemical_formula_sum   'U3 Cu1 Pd12'
_cell_volume   270.96533451
_cell_formula_units_Z   1
loop_
 _symmetry_equiv_pos_site_id
 _symmetry_equiv_pos_as_xyz
  1  'x, y, z'
loop_
 _atom_site_type_symbol
 _atom_site_label
 _atom_site_symmetry_multiplicity
 _atom_site_fract_x
 _atom_site_fract_y
 _atom_site_fract_z
 _atom_site_occupancy
  U  U0  1  0.000000  0.000000  0.510151  1
  U  U1  1  0.000000  0.000000  0.989849  1
  U  U2  1  0.666666  0.333334  0.250000  1
  Cu  Cu3  1  0.333333  0.666667  0.750000  1
  Pd  Pd4  1  0.498802  0.501198  0.503163  1
  Pd  Pd5  1  0.498801  0.997603  0.503162  1
  Pd  Pd6  1  0.002397  0.501199  0.503162  1
  Pd  Pd7  1  0.498802  0.501198  0.996837  1
  Pd  Pd8  1  0.498801  0.997603  0.996838  1
  Pd  Pd9  1  0.002397  0.501199  0.996838  1
  Pd  Pd10  1  0.169162  0.830838  0.250000  1
  Pd  Pd11  1  0.169163  0.338323  0.250000  1
  Pd  Pd12  1  0.661677  0.830837  0.250000  1
  Pd  Pd13  1  0.829162  0.170838  0.750000  1
  Pd  Pd14  1  0.829163  0.658325  0.750000  1
  Pd  Pd15  1  0.341675  0.170837  0.750000  1
