# generated using pymatgen
data_HoThMn6Co6P7
_symmetry_space_group_name_H-M   'P 1'
_cell_length_a   9.14144500
_cell_length_b   9.14144387
_cell_length_c   3.66652900
_cell_angle_alpha   90.00000000
_cell_angle_beta   90.00000000
_cell_angle_gamma   120.00000772
_symmetry_Int_Tables_number   1
_chemical_formula_structural   HoThMn6Co6P7
_chemical_formula_sum   'Ho1 Th1 Mn6 Co6 P7'
_cell_volume   265.34772575
_cell_formula_units_Z   1
loop_
 _symmetry_equiv_pos_site_id
 _symmetry_equiv_pos_as_xyz
  1  'x, y, z'
loop_
 _atom_site_type_symbol
 _atom_site_label
 _atom_site_symmetry_multiplicity
 _atom_site_fract_x
 _atom_site_fract_y
 _atom_site_fract_z
 _atom_site_occupancy
  Ho  Ho0  1  0.666667  0.333333  0.000000  1
  Th  Th1  1  0.333333  0.666667  0.500000  1
  Mn  Mn2  1  0.276536  0.153185  0.000000  1
  Mn  Mn3  1  0.846815  0.123351  0.000000  1
  Mn  Mn4  1  0.876649  0.723464  0.000000  1
  Mn  Mn5  1  0.105561  0.225677  0.500000  1
  Mn  Mn6  1  0.774323  0.879885  0.500000  1
  Mn  Mn7  1  0.120115  0.894439  0.500000  1
  Co  Co8  1  0.060276  0.430821  0.000000  1
  Co  Co9  1  0.569179  0.629457  0.000000  1
  Co  Co10  1  0.370543  0.939724  0.000000  1
  Co  Co11  1  0.438864  0.386452  0.500000  1
  Co  Co12  1  0.613548  0.052411  0.500000  1
  Co  Co13  1  0.947589  0.561136  0.500000  1
  P  P14  1  0.300824  0.404370  0.000000  1
  P  P15  1  0.595630  0.896453  0.000000  1
  P  P16  1  0.103547  0.699176  0.000000  1
  P  P17  1  0.407438  0.118761  0.500000  1
  P  P18  1  0.881239  0.288677  0.500000  1
  P  P19  1  0.711323  0.592562  0.500000  1
  P  P20  1  0.000000  0.000000  0.000000  1
