# generated using pymatgen
data_TbEu3H10
_symmetry_space_group_name_H-M   'P 1'
_cell_length_a   6.61498368
_cell_length_b   6.61498465
_cell_length_c   6.61498353
_cell_angle_alpha   131.17185057
_cell_angle_beta   131.05268682
_cell_angle_gamma   71.63481498
_symmetry_Int_Tables_number   1
_chemical_formula_structural   TbEu3H10
_chemical_formula_sum   'Tb1 Eu3 H10'
_cell_volume   160.76433403
_cell_formula_units_Z   1
loop_
 _symmetry_equiv_pos_site_id
 _symmetry_equiv_pos_as_xyz
  1  'x, y, z'
loop_
 _atom_site_type_symbol
 _atom_site_label
 _atom_site_symmetry_multiplicity
 _atom_site_fract_x
 _atom_site_fract_y
 _atom_site_fract_z
 _atom_site_occupancy
  Tb  Tb0  1  0.516350  0.016350  0.500000  1
  Eu  Eu1  1  0.764812  0.764812  0.000000  1
  Eu  Eu2  1  0.986184  0.486184  0.500000  1
  Eu  Eu3  1  0.237294  0.237294  0.000000  1
  H  H4  1  0.380190  0.393290  0.531868  1
  H  H5  1  0.861422  0.848322  0.468132  1
  H  H6  1  0.592395  0.120463  0.954701  1
  H  H7  1  0.165762  0.637694  0.045299  1
  H  H8  1  0.380190  0.848322  0.986900  1
  H  H9  1  0.861422  0.393290  0.013100  1
  H  H10  1  0.592395  0.637694  0.471932  1
  H  H11  1  0.165762  0.120463  0.528068  1
  H  H12  1  0.744800  0.244800  0.500000  1
  H  H13  1  0.001023  0.001023  0.000000  1
