# generated using pymatgen
data_Pr4Ga9Cu6Sn
_symmetry_space_group_name_H-M   'P 1'
_cell_length_a   8.61730243
_cell_length_b   8.61106848
_cell_length_c   8.61106800
_cell_angle_alpha   138.29571408
_cell_angle_beta   105.02730857
_cell_angle_gamma   89.65328161
_symmetry_Int_Tables_number   1
_chemical_formula_structural   Pr4Ga9Cu6Sn
_chemical_formula_sum   'Pr4 Ga9 Cu6 Sn1'
_cell_volume   392.69094626
_cell_formula_units_Z   1
loop_
 _symmetry_equiv_pos_site_id
 _symmetry_equiv_pos_as_xyz
  1  'x, y, z'
loop_
 _atom_site_type_symbol
 _atom_site_label
 _atom_site_symmetry_multiplicity
 _atom_site_fract_x
 _atom_site_fract_y
 _atom_site_fract_z
 _atom_site_occupancy
  Pr  Pr0  1  0.870404  0.627506  0.242798  1
  Pr  Pr1  1  0.124219  0.368024  0.756134  1
  Pr  Pr2  1  0.389364  0.127946  0.261250  1
  Pr  Pr3  1  0.618595  0.873719  0.744809  1
  Ga  Ga4  1  0.501137  0.750231  0.253294  1
  Ga  Ga5  1  0.501203  0.247843  0.750890  1
  Ga  Ga6  1  0.244280  0.010685  0.755970  1
  Ga  Ga7  1  0.761936  0.508565  0.750788  1
  Ga  Ga8  1  0.761944  0.011110  0.253298  1
  Ga  Ga9  1  0.244277  0.488292  0.233490  1
  Ga  Ga10  1  0.032872  0.884829  0.147977  1
  Ga  Ga11  1  0.966474  0.113200  0.853210  1
  Ga  Ga12  1  0.743491  0.387150  0.356451  1
  Cu  Cu13  1  0.985514  0.761579  0.763142  1
  Cu  Cu14  1  0.985252  0.222179  0.223848  1
  Cu  Cu15  1  0.252890  0.873105  0.380325  1
  Cu  Cu16  1  0.748311  0.129258  0.619233  1
  Cu  Cu17  1  0.496870  0.373450  0.123350  1
  Cu  Cu18  1  0.520101  0.630638  0.889852  1
  Sn  Sn19  1  0.250866  0.610691  0.639889  1
