# generated using pymatgen
data_Eu2MgIn7Ir2
_symmetry_space_group_name_H-M   'P 1'
_cell_length_a   4.38101400
_cell_length_b   7.69116934
_cell_length_c   8.57563153
_cell_angle_alpha   89.81014017
_cell_angle_beta   90.00000000
_cell_angle_gamma   90.00000000
_symmetry_Int_Tables_number   1
_chemical_formula_structural   Eu2MgIn7Ir2
_chemical_formula_sum   'Eu2 Mg1 In7 Ir2'
_cell_volume   288.95535165
_cell_formula_units_Z   1
loop_
 _symmetry_equiv_pos_site_id
 _symmetry_equiv_pos_as_xyz
  1  'x, y, z'
loop_
 _atom_site_type_symbol
 _atom_site_label
 _atom_site_symmetry_multiplicity
 _atom_site_fract_x
 _atom_site_fract_y
 _atom_site_fract_z
 _atom_site_occupancy
  Eu  Eu0  1  0.000000  0.396708  0.248146  1
  Eu  Eu1  1  0.000000  0.603292  0.751854  1
  Mg  Mg2  1  0.000000  0.000000  0.000000  1
  In  In3  1  0.500000  0.312716  0.562841  1
  In  In4  1  0.500000  0.057664  0.243940  1
  In  In5  1  0.000000  0.000000  0.500000  1
  In  In6  1  0.500000  0.942336  0.756060  1
  In  In7  1  0.500000  0.308335  0.935223  1
  In  In8  1  0.500000  0.691665  0.064777  1
  In  In9  1  0.500000  0.687284  0.437159  1
  Ir  Ir10  1  0.000000  0.803016  0.249733  1
  Ir  Ir11  1  0.000000  0.196984  0.750267  1
