# generated using pymatgen
data_PuCoNi4P3
_symmetry_space_group_name_H-M   'P 1'
_cell_length_a   3.70098500
_cell_length_b   10.37899700
_cell_length_c   11.90596900
_cell_angle_alpha   90.00000000
_cell_angle_beta   90.00000000
_cell_angle_gamma   90.00000000
_symmetry_Int_Tables_number   1
_chemical_formula_structural   PuCoNi4P3
_chemical_formula_sum   'Pu4 Co4 Ni16 P12'
_cell_volume   457.33817961
_cell_formula_units_Z   4
loop_
 _symmetry_equiv_pos_site_id
 _symmetry_equiv_pos_as_xyz
  1  'x, y, z'
loop_
 _atom_site_type_symbol
 _atom_site_label
 _atom_site_symmetry_multiplicity
 _atom_site_fract_x
 _atom_site_fract_y
 _atom_site_fract_z
 _atom_site_occupancy
  Pu  Pu0  1  0.250000  0.583476  0.703770  1
  Pu  Pu1  1  0.250000  0.916524  0.203770  1
  Pu  Pu2  1  0.750000  0.416524  0.296230  1
  Pu  Pu3  1  0.750000  0.083476  0.796230  1
  Co  Co4  1  0.250000  0.464960  0.933571  1
  Co  Co5  1  0.250000  0.035040  0.433571  1
  Co  Co6  1  0.750000  0.535040  0.066429  1
  Co  Co7  1  0.750000  0.964960  0.566429  1
  Ni  Ni8  1  0.250000  0.712101  0.987704  1
  Ni  Ni9  1  0.250000  0.787899  0.487704  1
  Ni  Ni10  1  0.750000  0.287899  0.012296  1
  Ni  Ni11  1  0.750000  0.212101  0.512296  1
  Ni  Ni12  1  0.250000  0.406380  0.489913  1
  Ni  Ni13  1  0.250000  0.093620  0.989913  1
  Ni  Ni14  1  0.750000  0.593620  0.510087  1
  Ni  Ni15  1  0.750000  0.906380  0.010087  1
  Ni  Ni16  1  0.250000  0.220511  0.177344  1
  Ni  Ni17  1  0.250000  0.279489  0.677344  1
  Ni  Ni18  1  0.750000  0.779489  0.822656  1
  Ni  Ni19  1  0.750000  0.720511  0.322656  1
  Ni  Ni20  1  0.250000  0.878839  0.696706  1
  Ni  Ni21  1  0.250000  0.621161  0.196706  1
  Ni  Ni22  1  0.750000  0.121161  0.303294  1
  Ni  Ni23  1  0.750000  0.378839  0.803294  1
  P  P24  1  0.250000  0.421907  0.113423  1
  P  P25  1  0.250000  0.078093  0.613423  1
  P  P26  1  0.750000  0.578093  0.886577  1
  P  P27  1  0.750000  0.921907  0.386577  1
  P  P28  1  0.250000  0.269336  0.870396  1
  P  P29  1  0.250000  0.230664  0.370396  1
  P  P30  1  0.750000  0.730664  0.129604  1
  P  P31  1  0.750000  0.769336  0.629604  1
  P  P32  1  0.250000  0.601389  0.390856  1
  P  P33  1  0.250000  0.898611  0.890856  1
  P  P34  1  0.750000  0.398611  0.609144  1
  P  P35  1  0.750000  0.101389  0.109144  1
