# generated using pymatgen
data_Ho6Sc8Al8Ru7
_symmetry_space_group_name_H-M   'P 1'
_cell_length_a   9.26192136
_cell_length_b   9.26192131
_cell_length_c   9.26192100
_cell_angle_alpha   59.99999752
_cell_angle_beta   59.99999771
_cell_angle_gamma   60.00000034
_symmetry_Int_Tables_number   1
_chemical_formula_structural   Ho6Sc8Al8Ru7
_chemical_formula_sum   'Ho6 Sc8 Al8 Ru7'
_cell_volume   561.80840964
_cell_formula_units_Z   1
loop_
 _symmetry_equiv_pos_site_id
 _symmetry_equiv_pos_as_xyz
  1  'x, y, z'
loop_
 _atom_site_type_symbol
 _atom_site_label
 _atom_site_symmetry_multiplicity
 _atom_site_fract_x
 _atom_site_fract_y
 _atom_site_fract_z
 _atom_site_occupancy
  Ho  Ho0  1  0.691711  0.691711  0.308289  1
  Ho  Ho1  1  0.308289  0.691711  0.308289  1
  Ho  Ho2  1  0.691711  0.308289  0.308289  1
  Ho  Ho3  1  0.308289  0.308289  0.691711  1
  Ho  Ho4  1  0.691711  0.308289  0.691711  1
  Ho  Ho5  1  0.308289  0.691711  0.691711  1
  Sc  Sc6  1  0.876950  0.876950  0.369153  1
  Sc  Sc7  1  0.876950  0.369153  0.876950  1
  Sc  Sc8  1  0.369153  0.876950  0.876950  1
  Sc  Sc9  1  0.876950  0.876950  0.876950  1
  Sc  Sc10  1  0.123050  0.123050  0.630847  1
  Sc  Sc11  1  0.123050  0.630847  0.123050  1
  Sc  Sc12  1  0.630847  0.123050  0.123050  1
  Sc  Sc13  1  0.123050  0.123050  0.123050  1
  Al  Al14  1  0.668613  0.668613  0.994160  1
  Al  Al15  1  0.668613  0.994160  0.668613  1
  Al  Al16  1  0.994160  0.668613  0.668613  1
  Al  Al17  1  0.668613  0.668613  0.668613  1
  Al  Al18  1  0.331387  0.331387  0.005840  1
  Al  Al19  1  0.331387  0.005840  0.331387  1
  Al  Al20  1  0.005840  0.331387  0.331387  1
  Al  Al21  1  0.331387  0.331387  0.331387  1
  Ru  Ru22  1  0.000000  0.000000  0.000000  1
  Ru  Ru23  1  0.000000  0.000000  0.500000  1
  Ru  Ru24  1  0.500000  0.000000  0.500000  1
  Ru  Ru25  1  0.000000  0.500000  0.500000  1
  Ru  Ru26  1  0.500000  0.500000  0.000000  1
  Ru  Ru27  1  0.000000  0.500000  0.000000  1
  Ru  Ru28  1  0.500000  0.000000  0.000000  1
