# generated using pymatgen
data_Pr16InHg3Ir4
_symmetry_space_group_name_H-M   'P 1'
_cell_length_a   10.07501792
_cell_length_b   10.07501778
_cell_length_c   10.01537342
_cell_angle_alpha   59.80280381
_cell_angle_beta   59.80280963
_cell_angle_gamma   59.99999641
_symmetry_Int_Tables_number   1
_chemical_formula_structural   Pr16InHg3Ir4
_chemical_formula_sum   'Pr16 In1 Hg3 Ir4'
_cell_volume   716.70904750
_cell_formula_units_Z   1
loop_
 _symmetry_equiv_pos_site_id
 _symmetry_equiv_pos_as_xyz
  1  'x, y, z'
loop_
 _atom_site_type_symbol
 _atom_site_label
 _atom_site_symmetry_multiplicity
 _atom_site_fract_x
 _atom_site_fract_y
 _atom_site_fract_z
 _atom_site_occupancy
  Pr  Pr0  1  0.098185  0.705732  0.097900  1
  Pr  Pr1  1  0.939606  0.939606  0.560288  1
  Pr  Pr2  1  0.941459  0.559178  0.940185  1
  Pr  Pr3  1  0.310533  0.690182  0.309102  1
  Pr  Pr4  1  0.939606  0.560500  0.560288  1
  Pr  Pr5  1  0.310635  0.310635  0.687051  1
  Pr  Pr6  1  0.098185  0.098185  0.097900  1
  Pr  Pr7  1  0.559178  0.559178  0.940185  1
  Pr  Pr8  1  0.098344  0.098344  0.704969  1
  Pr  Pr9  1  0.691678  0.310635  0.687051  1
  Pr  Pr10  1  0.690182  0.690182  0.309102  1
  Pr  Pr11  1  0.690182  0.310533  0.309102  1
  Pr  Pr12  1  0.310635  0.691678  0.687051  1
  Pr  Pr13  1  0.560500  0.939606  0.560288  1
  Pr  Pr14  1  0.705732  0.098185  0.097900  1
  Pr  Pr15  1  0.559178  0.941459  0.940185  1
  In  In16  1  0.328243  0.328243  0.015270  1
  Hg  Hg17  1  0.333137  0.333137  0.332157  1
  Hg  Hg18  1  0.001570  0.333137  0.332157  1
  Hg  Hg19  1  0.333137  0.001570  0.332157  1
  Ir  Ir20  1  0.891969  0.891969  0.891774  1
  Ir  Ir21  1  0.891871  0.891871  0.324389  1
  Ir  Ir22  1  0.324287  0.891969  0.891774  1
  Ir  Ir23  1  0.891969  0.324287  0.891774  1
