# generated using pymatgen
data_Er9TmCd3Pd
_symmetry_space_group_name_H-M   'P 1'
_cell_length_a   9.57344200
_cell_length_b   9.57372605
_cell_length_c   9.76633900
_cell_angle_alpha   90.00000000
_cell_angle_beta   90.00000000
_cell_angle_gamma   120.00098112
_symmetry_Int_Tables_number   1
_chemical_formula_structural   Er9TmCd3Pd
_chemical_formula_sum   'Er18 Tm2 Cd6 Pd2'
_cell_volume   775.18835440
_cell_formula_units_Z   2
loop_
 _symmetry_equiv_pos_site_id
 _symmetry_equiv_pos_as_xyz
  1  'x, y, z'
loop_
 _atom_site_type_symbol
 _atom_site_label
 _atom_site_symmetry_multiplicity
 _atom_site_fract_x
 _atom_site_fract_y
 _atom_site_fract_z
 _atom_site_occupancy
  Er  Er0  1  0.208427  0.791767  0.943288  1
  Er  Er1  1  0.208427  0.416661  0.943288  1
  Er  Er2  1  0.583296  0.791648  0.943280  1
  Er  Er3  1  0.791563  0.208322  0.056409  1
  Er  Er4  1  0.791563  0.583240  0.056409  1
  Er  Er5  1  0.416735  0.208367  0.056380  1
  Er  Er6  1  0.791563  0.208322  0.443591  1
  Er  Er7  1  0.791563  0.583240  0.443591  1
  Er  Er8  1  0.416735  0.208367  0.443620  1
  Er  Er9  1  0.208427  0.791767  0.556712  1
  Er  Er10  1  0.208427  0.416661  0.556712  1
  Er  Er11  1  0.583296  0.791648  0.556720  1
  Er  Er12  1  0.914056  0.457027  0.750000  1
  Er  Er13  1  0.457135  0.542832  0.250000  1
  Er  Er14  1  0.457135  0.914304  0.250000  1
  Er  Er15  1  0.085674  0.542838  0.250000  1
  Er  Er16  1  0.999989  0.999995  0.000046  1
  Er  Er17  1  0.999989  0.999995  0.499954  1
  Tm  Tm18  1  0.542849  0.457086  0.750000  1
  Tm  Tm19  1  0.542849  0.085761  0.750000  1
  Cd  Cd20  1  0.885111  0.114377  0.750000  1
  Cd  Cd21  1  0.885111  0.770735  0.750000  1
  Cd  Cd22  1  0.229803  0.114902  0.750000  1
  Cd  Cd23  1  0.114361  0.885832  0.250000  1
  Cd  Cd24  1  0.114361  0.228529  0.250000  1
  Cd  Cd25  1  0.771239  0.885620  0.250000  1
  Pd  Pd26  1  0.333594  0.666797  0.750000  1
  Pd  Pd27  1  0.666724  0.333361  0.250000  1
