# generated using pymatgen
data_CaDy3Er4(B6Os)4
_symmetry_space_group_name_H-M   'P 1'
_cell_length_a   3.64098600
_cell_length_b   9.13502548
_cell_length_c   11.52833639
_cell_angle_alpha   89.89995700
_cell_angle_beta   90.00000000
_cell_angle_gamma   90.00000000
_symmetry_Int_Tables_number   1
_chemical_formula_structural   CaDy3Er4(B6Os)4
_chemical_formula_sum   'Ca1 Dy3 Er4 B24 Os4'
_cell_volume   383.43764680
_cell_formula_units_Z   1
loop_
 _symmetry_equiv_pos_site_id
 _symmetry_equiv_pos_as_xyz
  1  'x, y, z'
loop_
 _atom_site_type_symbol
 _atom_site_label
 _atom_site_symmetry_multiplicity
 _atom_site_fract_x
 _atom_site_fract_y
 _atom_site_fract_z
 _atom_site_occupancy
  Ca  Ca0  1  0.000000  0.322263  0.413596  1
  Dy  Dy1  1  0.000000  0.676394  0.585337  1
  Dy  Dy2  1  0.000000  0.822328  0.086720  1
  Dy  Dy3  1  0.000000  0.178283  0.914283  1
  Er  Er4  1  0.000000  0.944267  0.371993  1
  Er  Er5  1  0.000000  0.057376  0.627300  1
  Er  Er6  1  0.000000  0.443452  0.128589  1
  Er  Er7  1  0.000000  0.555813  0.872712  1
  B  B8  1  0.500000  0.554253  0.432487  1
  B  B9  1  0.500000  0.446195  0.567670  1
  B  B10  1  0.500000  0.053439  0.066853  1
  B  B11  1  0.500000  0.945856  0.932449  1
  B  B12  1  0.500000  0.748718  0.419177  1
  B  B13  1  0.500000  0.251606  0.581223  1
  B  B14  1  0.500000  0.248155  0.080618  1
  B  B15  1  0.500000  0.751307  0.919428  1
  B  B16  1  0.500000  0.791760  0.266413  1
  B  B17  1  0.500000  0.209178  0.733875  1
  B  B18  1  0.500000  0.290552  0.233098  1
  B  B19  1  0.500000  0.708871  0.766625  1
  B  B20  1  0.500000  0.631914  0.185867  1
  B  B21  1  0.500000  0.368544  0.814949  1
  B  B22  1  0.500000  0.131055  0.313850  1
  B  B23  1  0.500000  0.868553  0.685280  1
  B  B24  1  0.500000  0.983245  0.212402  1
  B  B25  1  0.500000  0.016735  0.786819  1
  B  B26  1  0.500000  0.483754  0.287055  1
  B  B27  1  0.500000  0.516628  0.713229  1
  B  B28  1  0.500000  0.606754  0.029620  1
  B  B29  1  0.500000  0.393434  0.970810  1
  B  B30  1  0.500000  0.103458  0.471290  1
  B  B31  1  0.500000  0.895150  0.528960  1
  Os  Os32  1  0.000000  0.639870  0.320290  1
  Os  Os33  1  0.000000  0.361922  0.680579  1
  Os  Os34  1  0.000000  0.136741  0.177543  1
  Os  Os35  1  0.000000  0.862175  0.821015  1
