# generated using pymatgen
data_Sr3Li11Pd
_symmetry_space_group_name_H-M   'P 1'
_cell_length_a   10.27677500
_cell_length_b   10.27677679
_cell_length_c   8.53857400
_cell_angle_alpha   90.00000000
_cell_angle_beta   90.00000000
_cell_angle_gamma   119.99999745
_symmetry_Int_Tables_number   1
_chemical_formula_structural   Sr3Li11Pd
_chemical_formula_sum   'Sr6 Li22 Pd2'
_cell_volume   780.96174654
_cell_formula_units_Z   2
loop_
 _symmetry_equiv_pos_site_id
 _symmetry_equiv_pos_as_xyz
  1  'x, y, z'
loop_
 _atom_site_type_symbol
 _atom_site_label
 _atom_site_symmetry_multiplicity
 _atom_site_fract_x
 _atom_site_fract_y
 _atom_site_fract_z
 _atom_site_occupancy
  Sr  Sr0  1  0.527080  0.054159  0.250000  1
  Sr  Sr1  1  0.472920  0.945841  0.750000  1
  Sr  Sr2  1  0.945841  0.472920  0.250000  1
  Sr  Sr3  1  0.054159  0.527080  0.750000  1
  Sr  Sr4  1  0.527080  0.472920  0.250000  1
  Sr  Sr5  1  0.472920  0.527080  0.750000  1
  Li  Li6  1  0.156748  0.313495  0.058837  1
  Li  Li7  1  0.843252  0.686505  0.941163  1
  Li  Li8  1  0.686505  0.843252  0.058837  1
  Li  Li9  1  0.843252  0.686505  0.558837  1
  Li  Li10  1  0.313495  0.156748  0.941163  1
  Li  Li11  1  0.156748  0.313495  0.441163  1
  Li  Li12  1  0.156748  0.843252  0.058837  1
  Li  Li13  1  0.313495  0.156748  0.558837  1
  Li  Li14  1  0.843252  0.156748  0.941163  1
  Li  Li15  1  0.686505  0.843252  0.441163  1
  Li  Li16  1  0.843252  0.156748  0.558837  1
  Li  Li17  1  0.156748  0.843252  0.441163  1
  Li  Li18  1  0.909303  0.818607  0.250000  1
  Li  Li19  1  0.090697  0.181393  0.750000  1
  Li  Li20  1  0.181393  0.090697  0.250000  1
  Li  Li21  1  0.818607  0.909303  0.750000  1
  Li  Li22  1  0.909303  0.090697  0.250000  1
  Li  Li23  1  0.090697  0.909303  0.750000  1
  Li  Li24  1  0.333333  0.666667  0.081910  1
  Li  Li25  1  0.666667  0.333333  0.918090  1
  Li  Li26  1  0.666667  0.333333  0.581910  1
  Li  Li27  1  0.333333  0.666667  0.418090  1
  Pd  Pd28  1  0.000000  0.000000  0.000000  1
  Pd  Pd29  1  0.000000  0.000000  0.500000  1
