# generated using pymatgen
data_Tm18Lu2GaBi11
_symmetry_space_group_name_H-M   'P 1'
_cell_length_a   8.11351740
_cell_length_b   9.40067700
_cell_length_c   11.86444714
_cell_angle_alpha   90.00000000
_cell_angle_beta   89.69399330
_cell_angle_gamma   90.00000000
_symmetry_Int_Tables_number   1
_chemical_formula_structural   Tm18Lu2GaBi11
_chemical_formula_sum   'Tm18 Lu2 Ga1 Bi11'
_cell_volume   904.91880758
_cell_formula_units_Z   1
loop_
 _symmetry_equiv_pos_site_id
 _symmetry_equiv_pos_as_xyz
  1  'x, y, z'
loop_
 _atom_site_type_symbol
 _atom_site_label
 _atom_site_symmetry_multiplicity
 _atom_site_fract_x
 _atom_site_fract_y
 _atom_site_fract_z
 _atom_site_occupancy
  Tm  Tm0  1  0.978605  0.750000  0.489868  1
  Tm  Tm1  1  0.475228  0.750000  0.010981  1
  Tm  Tm2  1  0.356127  0.250000  0.293885  1
  Tm  Tm3  1  0.646780  0.750000  0.716611  1
  Tm  Tm4  1  0.147765  0.750000  0.782565  1
  Tm  Tm5  1  0.853839  0.250000  0.216256  1
  Tm  Tm6  1  0.192796  0.250000  0.777216  1
  Tm  Tm7  1  0.810416  0.750000  0.218020  1
  Tm  Tm8  1  0.312714  0.750000  0.281234  1
  Tm  Tm9  1  0.674401  0.250000  0.710550  1
  Tm  Tm10  1  0.193881  0.065979  0.060618  1
  Tm  Tm11  1  0.806415  0.934749  0.940587  1
  Tm  Tm12  1  0.308545  0.949590  0.559211  1
  Tm  Tm13  1  0.806415  0.565251  0.940587  1
  Tm  Tm14  1  0.684624  0.072427  0.444849  1
  Tm  Tm15  1  0.193881  0.434021  0.060618  1
  Tm  Tm16  1  0.684624  0.427573  0.444849  1
  Tm  Tm17  1  0.308545  0.550410  0.559211  1
  Lu  Lu18  1  0.037858  0.250000  0.509878  1
  Lu  Lu19  1  0.525625  0.250000  0.988894  1
  Ga  Ga20  1  0.408130  0.250000  0.539734  1
  Bi  Bi21  1  0.593593  0.750000  0.457460  1
  Bi  Bi22  1  0.093918  0.750000  0.042597  1
  Bi  Bi23  1  0.907360  0.250000  0.954808  1
  Bi  Bi24  1  0.063948  0.002913  0.324708  1
  Bi  Bi25  1  0.934745  0.997913  0.674851  1
  Bi  Bi26  1  0.435161  0.996439  0.825460  1
  Bi  Bi27  1  0.934745  0.502087  0.674851  1
  Bi  Bi28  1  0.565102  0.004579  0.174436  1
  Bi  Bi29  1  0.063948  0.497087  0.324708  1
  Bi  Bi30  1  0.565102  0.495421  0.174436  1
  Bi  Bi31  1  0.435161  0.503561  0.825460  1
