# generated using pymatgen
data_Ca4CoCuH12
_symmetry_space_group_name_H-M   'P 1'
_cell_length_a   7.04888326
_cell_length_b   7.04888288
_cell_length_c   5.09208914
_cell_angle_alpha   90.05819922
_cell_angle_beta   90.05819409
_cell_angle_gamma   137.68469727
_symmetry_Int_Tables_number   1
_chemical_formula_structural   Ca4CoCuH12
_chemical_formula_sum   'Ca4 Co1 Cu1 H12'
_cell_volume   170.32777381
_cell_formula_units_Z   1
loop_
 _symmetry_equiv_pos_site_id
 _symmetry_equiv_pos_as_xyz
  1  'x, y, z'
loop_
 _atom_site_type_symbol
 _atom_site_label
 _atom_site_symmetry_multiplicity
 _atom_site_fract_x
 _atom_site_fract_y
 _atom_site_fract_z
 _atom_site_occupancy
  Ca  Ca0  1  0.147520  0.852480  0.500000  1
  Ca  Ca1  1  0.647931  0.352069  0.000000  1
  Ca  Ca2  1  0.852480  0.147520  0.500000  1
  Ca  Ca3  1  0.352069  0.647931  0.000000  1
  Co  Co4  1  0.500000  0.500000  0.500000  1
  Cu  Cu5  1  0.000000  0.000000  0.000000  1
  H  H6  1  0.999628  0.500054  0.749732  1
  H  H7  1  0.499946  0.000372  0.250268  1
  H  H8  1  0.000372  0.499946  0.250268  1
  H  H9  1  0.500054  0.999628  0.749732  1
  H  H10  1  0.382215  0.617785  0.500000  1
  H  H11  1  0.880069  0.119931  0.000000  1
  H  H12  1  0.617785  0.382215  0.500000  1
  H  H13  1  0.119931  0.880069  0.000000  1
  H  H14  1  0.279681  0.279681  0.721274  1
  H  H15  1  0.720319  0.720319  0.278726  1
  H  H16  1  0.277932  0.277932  0.278446  1
  H  H17  1  0.722068  0.722068  0.721554  1
