# generated using pymatgen
data_NdTh9(Pb3Se)2
_symmetry_space_group_name_H-M   'P 1'
_cell_length_a   9.55041700
_cell_length_b   9.58915939
_cell_length_c   6.70523300
_cell_angle_alpha   90.00000000
_cell_angle_beta   90.00000000
_cell_angle_gamma   120.13549549
_symmetry_Int_Tables_number   1
_chemical_formula_structural   NdTh9(Pb3Se)2
_chemical_formula_sum   'Nd1 Th9 Pb6 Se2'
_cell_volume   531.07125638
_cell_formula_units_Z   1
loop_
 _symmetry_equiv_pos_site_id
 _symmetry_equiv_pos_as_xyz
  1  'x, y, z'
loop_
 _atom_site_type_symbol
 _atom_site_label
 _atom_site_symmetry_multiplicity
 _atom_site_fract_x
 _atom_site_fract_y
 _atom_site_fract_z
 _atom_site_occupancy
  Nd  Nd0  1  0.000023  0.738807  0.250000  1
  Th  Th1  1  0.739277  0.739451  0.750000  1
  Th  Th2  1  0.260718  0.000147  0.750000  1
  Th  Th3  1  0.000010  0.262538  0.750000  1
  Th  Th4  1  0.261809  0.261507  0.250000  1
  Th  Th5  1  0.738169  0.999679  0.250000  1
  Th  Th6  1  0.665224  0.331467  0.998789  1
  Th  Th7  1  0.334775  0.666250  0.998791  1
  Th  Th8  1  0.334775  0.666250  0.501209  1
  Th  Th9  1  0.665224  0.331467  0.501211  1
  Pb  Pb10  1  0.389494  0.389265  0.750000  1
  Pb  Pb11  1  0.610509  0.999775  0.750000  1
  Pb  Pb12  1  0.999990  0.611410  0.750000  1
  Pb  Pb13  1  0.613115  0.610981  0.250000  1
  Pb  Pb14  1  0.386895  0.997869  0.250000  1
  Pb  Pb15  1  0.999993  0.390324  0.250000  1
  Se  Se16  1  0.000001  0.001404  0.999575  1
  Se  Se17  1  0.000001  0.001404  0.500425  1
