# generated using pymatgen
data_MnNb6Al4CoC2
_symmetry_space_group_name_H-M   'P 1'
_cell_length_a   8.24794653
_cell_length_b   8.24794684
_cell_length_c   8.27374200
_cell_angle_alpha   59.89649027
_cell_angle_beta   59.89648903
_cell_angle_gamma   59.85402638
_symmetry_Int_Tables_number   1
_chemical_formula_structural   MnNb6Al4CoC2
_chemical_formula_sum   'Mn2 Nb12 Al8 Co2 C4'
_cell_volume   396.93327781
_cell_formula_units_Z   2
loop_
 _symmetry_equiv_pos_site_id
 _symmetry_equiv_pos_as_xyz
  1  'x, y, z'
loop_
 _atom_site_type_symbol
 _atom_site_label
 _atom_site_symmetry_multiplicity
 _atom_site_fract_x
 _atom_site_fract_y
 _atom_site_fract_z
 _atom_site_occupancy
  Mn  Mn0  1  0.125000  0.125000  0.125000  1
  Mn  Mn1  1  0.125000  0.125000  0.625000  1
  Nb  Nb2  1  0.700140  0.305152  0.688852  1
  Nb  Nb3  1  0.944848  0.549860  0.561148  1
  Nb  Nb4  1  0.549860  0.944848  0.944145  1
  Nb  Nb5  1  0.944848  0.549860  0.944145  1
  Nb  Nb6  1  0.559026  0.559026  0.940974  1
  Nb  Nb7  1  0.948231  0.948231  0.551769  1
  Nb  Nb8  1  0.690974  0.690974  0.309026  1
  Nb  Nb9  1  0.305152  0.700140  0.688852  1
  Nb  Nb10  1  0.700140  0.305152  0.305855  1
  Nb  Nb11  1  0.301769  0.301769  0.698231  1
  Nb  Nb12  1  0.549860  0.944848  0.561148  1
  Nb  Nb13  1  0.305152  0.700140  0.305855  1
  Al  Al14  1  0.334893  0.334893  0.329467  1
  Al  Al15  1  0.243937  0.914655  0.920704  1
  Al  Al16  1  0.914655  0.243937  0.920704  1
  Al  Al17  1  0.915107  0.915107  0.249251  1
  Al  Al18  1  0.335345  0.006063  0.329296  1
  Al  Al19  1  0.334893  0.334893  0.000749  1
  Al  Al20  1  0.006063  0.335345  0.329296  1
  Al  Al21  1  0.915107  0.915107  0.920533  1
  Co  Co22  1  0.625000  0.125000  0.125000  1
  Co  Co23  1  0.125000  0.625000  0.125000  1
  C  C24  1  0.625000  0.625000  0.625000  1
  C  C25  1  0.125000  0.625000  0.625000  1
  C  C26  1  0.625000  0.125000  0.625000  1
  C  C27  1  0.625000  0.625000  0.125000  1
