# generated using pymatgen
data_ErLu7B24Ru3W
_symmetry_space_group_name_H-M   'P 1'
_cell_length_a   3.59122300
_cell_length_b   9.07294474
_cell_length_c   11.44984103
_cell_angle_alpha   89.88129934
_cell_angle_beta   90.00000000
_cell_angle_gamma   90.00000000
_symmetry_Int_Tables_number   1
_chemical_formula_structural   ErLu7B24Ru3W
_chemical_formula_sum   'Er1 Lu7 B24 Ru3 W1'
_cell_volume   373.06900101
_cell_formula_units_Z   1
loop_
 _symmetry_equiv_pos_site_id
 _symmetry_equiv_pos_as_xyz
  1  'x, y, z'
loop_
 _atom_site_type_symbol
 _atom_site_label
 _atom_site_symmetry_multiplicity
 _atom_site_fract_x
 _atom_site_fract_y
 _atom_site_fract_z
 _atom_site_occupancy
  Er  Er0  1  0.000000  0.321351  0.413601  1
  Lu  Lu1  1  0.000000  0.678453  0.585674  1
  Lu  Lu2  1  0.000000  0.819616  0.087502  1
  Lu  Lu3  1  0.000000  0.178310  0.915181  1
  Lu  Lu4  1  0.000000  0.946293  0.373074  1
  Lu  Lu5  1  0.000000  0.057410  0.629447  1
  Lu  Lu6  1  0.000000  0.443002  0.125475  1
  Lu  Lu7  1  0.000000  0.556356  0.871091  1
  B  B8  1  0.500000  0.550663  0.437031  1
  B  B9  1  0.500000  0.446125  0.568422  1
  B  B10  1  0.500000  0.053265  0.065875  1
  B  B11  1  0.500000  0.946235  0.933799  1
  B  B12  1  0.500000  0.752582  0.423324  1
  B  B13  1  0.500000  0.251023  0.581276  1
  B  B14  1  0.500000  0.248800  0.078871  1
  B  B15  1  0.500000  0.750532  0.919710  1
  B  B16  1  0.500000  0.796559  0.263396  1
  B  B17  1  0.500000  0.207753  0.735295  1
  B  B18  1  0.500000  0.290892  0.232458  1
  B  B19  1  0.500000  0.708517  0.765063  1
  B  B20  1  0.500000  0.631170  0.181346  1
  B  B21  1  0.500000  0.368592  0.815884  1
  B  B22  1  0.500000  0.130971  0.314353  1
  B  B23  1  0.500000  0.869808  0.684747  1
  B  B24  1  0.500000  0.982441  0.212125  1
  B  B25  1  0.500000  0.018279  0.787993  1
  B  B26  1  0.500000  0.476631  0.285702  1
  B  B27  1  0.500000  0.517934  0.713126  1
  B  B28  1  0.500000  0.604973  0.027058  1
  B  B29  1  0.500000  0.393704  0.969688  1
  B  B30  1  0.500000  0.105436  0.471788  1
  B  B31  1  0.500000  0.897486  0.530445  1
  Ru  Ru32  1  0.000000  0.360928  0.680873  1
  Ru  Ru33  1  0.000000  0.137599  0.177890  1
  Ru  Ru34  1  0.000000  0.862066  0.820568  1
  W  W35  1  0.000000  0.638247  0.320847  1
