# generated using pymatgen
data_Nb6Co6Os
_symmetry_space_group_name_H-M   'P 1'
_cell_length_a   9.29315394
_cell_length_b   9.29315418
_cell_length_c   9.29315439
_cell_angle_alpha   30.59066302
_cell_angle_beta   30.59065985
_cell_angle_gamma   30.59066566
_symmetry_Int_Tables_number   1
_chemical_formula_structural   Nb6Co6Os
_chemical_formula_sum   'Nb6 Co6 Os1'
_cell_volume   184.27519482
_cell_formula_units_Z   1
loop_
 _symmetry_equiv_pos_site_id
 _symmetry_equiv_pos_as_xyz
  1  'x, y, z'
loop_
 _atom_site_type_symbol
 _atom_site_label
 _atom_site_symmetry_multiplicity
 _atom_site_fract_x
 _atom_site_fract_y
 _atom_site_fract_z
 _atom_site_occupancy
  Nb  Nb0  1  0.835052  0.835052  0.835052  1
  Nb  Nb1  1  0.164948  0.164948  0.164948  1
  Nb  Nb2  1  0.654466  0.654466  0.654466  1
  Nb  Nb3  1  0.345534  0.345534  0.345534  1
  Nb  Nb4  1  0.550214  0.550214  0.550214  1
  Nb  Nb5  1  0.449786  0.449786  0.449786  1
  Co  Co6  1  0.909222  0.413577  0.909222  1
  Co  Co7  1  0.909222  0.909222  0.413577  1
  Co  Co8  1  0.413577  0.909222  0.909222  1
  Co  Co9  1  0.090778  0.586423  0.090778  1
  Co  Co10  1  0.090778  0.090778  0.586423  1
  Co  Co11  1  0.586423  0.090778  0.090778  1
  Os  Os12  1  0.000000  0.000000  0.000000  1
