# generated using pymatgen
data_SmY3(In2Pd3)4
_symmetry_space_group_name_H-M   'P 1'
_cell_length_a   4.64729100
_cell_length_b   9.84938207
_cell_length_c   10.37763411
_cell_angle_alpha   89.94679265
_cell_angle_beta   90.00000000
_cell_angle_gamma   90.00000000
_symmetry_Int_Tables_number   1
_chemical_formula_structural   SmY3(In2Pd3)4
_chemical_formula_sum   'Sm1 Y3 In8 Pd12'
_cell_volume   475.01466689
_cell_formula_units_Z   1
loop_
 _symmetry_equiv_pos_site_id
 _symmetry_equiv_pos_as_xyz
  1  'x, y, z'
loop_
 _atom_site_type_symbol
 _atom_site_label
 _atom_site_symmetry_multiplicity
 _atom_site_fract_x
 _atom_site_fract_y
 _atom_site_fract_z
 _atom_site_occupancy
  Sm  Sm0  1  0.250000  0.446301  0.726003  1
  Y  Y1  1  0.250000  0.053979  0.224510  1
  Y  Y2  1  0.750000  0.553978  0.275141  1
  Y  Y3  1  0.750000  0.945947  0.775354  1
  In  In4  1  0.250000  0.886694  0.513331  1
  In  In5  1  0.250000  0.613710  0.014517  1
  In  In6  1  0.750000  0.113487  0.486153  1
  In  In7  1  0.750000  0.386557  0.986482  1
  In  In8  1  0.250000  0.161998  0.894923  1
  In  In9  1  0.250000  0.336941  0.394275  1
  In  In10  1  0.750000  0.837115  0.105557  1
  In  In11  1  0.750000  0.663653  0.604862  1
  Pd  Pd12  1  0.250000  0.143734  0.623529  1
  Pd  Pd13  1  0.250000  0.355344  0.123889  1
  Pd  Pd14  1  0.750000  0.855521  0.376043  1
  Pd  Pd15  1  0.750000  0.645363  0.876706  1
  Pd  Pd16  1  0.250000  0.745161  0.740696  1
  Pd  Pd17  1  0.250000  0.756412  0.240684  1
  Pd  Pd18  1  0.750000  0.256041  0.259289  1
  Pd  Pd19  1  0.750000  0.242099  0.759220  1
  Pd  Pd20  1  0.250000  0.895649  0.973406  1
  Pd  Pd21  1  0.250000  0.604472  0.472377  1
  Pd  Pd22  1  0.750000  0.103895  0.027043  1
  Pd  Pd23  1  0.750000  0.395948  0.526010  1
