# generated using pymatgen
data_YbTm(MnB4)2
_symmetry_space_group_name_H-M   'P 1'
_cell_length_a   3.36626400
_cell_length_b   5.89009776
_cell_length_c   11.38778140
_cell_angle_alpha   89.91142965
_cell_angle_beta   90.00000000
_cell_angle_gamma   90.00000000
_symmetry_Int_Tables_number   1
_chemical_formula_structural   YbTm(MnB4)2
_chemical_formula_sum   'Yb2 Tm2 Mn4 B16'
_cell_volume   225.79237854
_cell_formula_units_Z   2
loop_
 _symmetry_equiv_pos_site_id
 _symmetry_equiv_pos_as_xyz
  1  'x, y, z'
loop_
 _atom_site_type_symbol
 _atom_site_label
 _atom_site_symmetry_multiplicity
 _atom_site_fract_x
 _atom_site_fract_y
 _atom_site_fract_z
 _atom_site_occupancy
  Yb  Yb0  1  0.500000  0.374547  0.150282  1
  Yb  Yb1  1  0.500000  0.625452  0.849718  1
  Tm  Tm2  1  0.500000  0.126761  0.651215  1
  Tm  Tm3  1  0.500000  0.873240  0.348785  1
  Mn  Mn4  1  0.500000  0.373064  0.417444  1
  Mn  Mn5  1  0.500000  0.626936  0.582556  1
  Mn  Mn6  1  0.500000  0.122589  0.919769  1
  Mn  Mn7  1  0.500000  0.877411  0.080231  1
  B  B8  1  0.000000  0.113398  0.046670  1
  B  B9  1  0.000000  0.886602  0.953330  1
  B  B10  1  0.000000  0.387334  0.546958  1
  B  B11  1  0.000000  0.612666  0.453042  1
  B  B12  1  0.000000  0.137301  0.467956  1
  B  B13  1  0.000000  0.862699  0.532045  1
  B  B14  1  0.000000  0.362076  0.967242  1
  B  B15  1  0.000000  0.637924  0.032757  1
  B  B16  1  0.000000  0.023562  0.191100  1
  B  B17  1  0.000000  0.976438  0.808900  1
  B  B18  1  0.000000  0.474702  0.691471  1
  B  B19  1  0.000000  0.525298  0.308529  1
  B  B20  1  0.000000  0.219070  0.316184  1
  B  B21  1  0.000000  0.780930  0.683816  1
  B  B22  1  0.000000  0.280534  0.816822  1
  B  B23  1  0.000000  0.719466  0.183178  1
