# generated using pymatgen
data_LiU2(SnIr)3
_symmetry_space_group_name_H-M   'P 1'
_cell_length_a   7.44147196
_cell_length_b   7.44171631
_cell_length_c   3.96102300
_cell_angle_alpha   90.00000000
_cell_angle_beta   90.00000000
_cell_angle_gamma   122.47977369
_symmetry_Int_Tables_number   1
_chemical_formula_structural   LiU2(SnIr)3
_chemical_formula_sum   'Li1 U2 Sn3 Ir3'
_cell_volume   185.04022534
_cell_formula_units_Z   1
loop_
 _symmetry_equiv_pos_site_id
 _symmetry_equiv_pos_as_xyz
  1  'x, y, z'
loop_
 _atom_site_type_symbol
 _atom_site_label
 _atom_site_symmetry_multiplicity
 _atom_site_fract_x
 _atom_site_fract_y
 _atom_site_fract_z
 _atom_site_occupancy
  Li  Li0  1  0.395482  0.395475  0.500000  1
  U  U1  1  0.590608  0.002508  0.500000  1
  U  U2  1  0.002503  0.590597  0.500000  1
  Sn  Sn3  1  0.712107  0.712106  0.000000  1
  Sn  Sn4  1  0.261310  0.026453  0.000000  1
  Sn  Sn5  1  0.026435  0.261324  0.000000  1
  Ir  Ir6  1  0.697644  0.330810  0.000000  1
  Ir  Ir7  1  0.330812  0.697622  0.000000  1
  Ir  Ir8  1  0.983099  0.983105  0.500000  1
