# generated using pymatgen
data_Lu4Hf3PtF28
_symmetry_space_group_name_H-M   'P 1'
_cell_length_a   5.58595195
_cell_length_b   8.85596582
_cell_length_c   11.91369401
_cell_angle_alpha   62.50604452
_cell_angle_beta   89.91673229
_cell_angle_gamma   89.98021602
_symmetry_Int_Tables_number   1
_chemical_formula_structural   Lu4Hf3PtF28
_chemical_formula_sum   'Lu4 Hf3 Pt1 F28'
_cell_volume   522.79551472
_cell_formula_units_Z   1
loop_
 _symmetry_equiv_pos_site_id
 _symmetry_equiv_pos_as_xyz
  1  'x, y, z'
loop_
 _atom_site_type_symbol
 _atom_site_label
 _atom_site_symmetry_multiplicity
 _atom_site_fract_x
 _atom_site_fract_y
 _atom_site_fract_z
 _atom_site_occupancy
  Lu  Lu0  1  0.757750  0.816609  0.765469  1
  Lu  Lu1  1  0.258016  0.183585  0.732401  1
  Lu  Lu2  1  0.241129  0.182971  0.238572  1
  Lu  Lu3  1  0.743650  0.814824  0.267280  1
  Hf  Hf4  1  0.756025  0.273426  0.956248  1
  Hf  Hf5  1  0.256362  0.725074  0.544572  1
  Hf  Hf6  1  0.244814  0.725099  0.045623  1
  Pt  Pt7  1  0.740200  0.272081  0.455602  1
  F  F8  1  0.466215  0.709220  0.919518  1
  F  F9  1  0.939106  0.296625  0.582554  1
  F  F10  1  0.531030  0.289481  0.080775  1
  F  F11  1  0.036195  0.710459  0.418356  1
  F  F12  1  0.442704  0.280988  0.542542  1
  F  F13  1  0.948734  0.722593  0.949422  1
  F  F14  1  0.553951  0.718444  0.451281  1
  F  F15  1  0.050202  0.277384  0.052903  1
  F  F16  1  0.772558  0.526892  0.858581  1
  F  F17  1  0.267388  0.470842  0.640651  1
  F  F18  1  0.226532  0.471689  0.144244  1
  F  F19  1  0.730463  0.521649  0.355890  1
  F  F20  1  0.758740  0.020184  0.059596  1
  F  F21  1  0.260807  0.978497  0.443085  1
  F  F22  1  0.243111  0.978307  0.939891  1
  F  F23  1  0.742246  0.021786  0.550202  1
  F  F24  1  0.979737  0.732528  0.649111  1
  F  F25  1  0.484011  0.266875  0.848932  1
  F  F26  1  0.029367  0.272403  0.360877  1
  F  F27  1  0.520166  0.733176  0.149781  1
  F  F28  1  0.034338  0.748618  0.174138  1
  F  F29  1  0.546997  0.256706  0.322262  1
  F  F30  1  0.971504  0.252384  0.827582  1
  F  F31  1  0.468351  0.745164  0.674453  1
  F  F32  1  0.425106  0.972937  0.235882  1
  F  F33  1  0.924415  0.027514  0.268265  1
  F  F34  1  0.573941  0.028505  0.762847  1
  F  F35  1  0.074137  0.974481  0.730610  1
