# generated using pymatgen
data_MgZrMn2Ni10P7
_symmetry_space_group_name_H-M   'P 1'
_cell_length_a   9.03831317
_cell_length_b   9.03468557
_cell_length_c   3.59222200
_cell_angle_alpha   90.00000000
_cell_angle_beta   90.00000000
_cell_angle_gamma   119.99121116
_symmetry_Int_Tables_number   1
_chemical_formula_structural   MgZrMn2Ni10P7
_chemical_formula_sum   'Mg1 Zr1 Mn2 Ni10 P7'
_cell_volume   254.05788783
_cell_formula_units_Z   1
loop_
 _symmetry_equiv_pos_site_id
 _symmetry_equiv_pos_as_xyz
  1  'x, y, z'
loop_
 _atom_site_type_symbol
 _atom_site_label
 _atom_site_symmetry_multiplicity
 _atom_site_fract_x
 _atom_site_fract_y
 _atom_site_fract_z
 _atom_site_occupancy
  Mg  Mg0  1  0.333406  0.666637  0.500000  1
  Zr  Zr1  1  0.998780  0.000513  0.000000  1
  Mn  Mn2  1  0.883698  0.457838  0.500000  1
  Mn  Mn3  1  0.541808  0.424629  0.500000  1
  Ni  Ni4  1  0.292358  0.396412  0.000000  1
  Ni  Ni5  1  0.105302  0.709313  0.000000  1
  Ni  Ni6  1  0.386130  0.173986  0.000000  1
  Ni  Ni7  1  0.790394  0.615154  0.000000  1
  Ni  Ni8  1  0.822736  0.209501  0.000000  1
  Ni  Ni9  1  0.233505  0.948099  0.500000  1
  Ni  Ni10  1  0.052005  0.284202  0.500000  1
  Ni  Ni11  1  0.716065  0.767708  0.500000  1
  Ni  Ni12  1  0.575932  0.116501  0.500000  1
  Ni  Ni13  1  0.602341  0.895013  0.000000  1
  P  P14  1  0.666299  0.333181  0.000000  1
  P  P15  1  0.077685  0.452730  0.000000  1
  P  P16  1  0.254037  0.213397  0.500000  1
  P  P17  1  0.786615  0.042133  0.500000  1
  P  P18  1  0.958383  0.745854  0.500000  1
  P  P19  1  0.546939  0.625431  0.000000  1
  P  P20  1  0.375579  0.921769  0.000000  1
