# generated using pymatgen
data_Dy2Mg(AsRh2)6
_symmetry_space_group_name_H-M   'P 1'
_cell_length_a   9.98748000
_cell_length_b   9.98748052
_cell_length_c   3.97923400
_cell_angle_alpha   90.00000000
_cell_angle_beta   90.00000000
_cell_angle_gamma   119.99999828
_symmetry_Int_Tables_number   1
_chemical_formula_structural   Dy2Mg(AsRh2)6
_chemical_formula_sum   'Dy2 Mg1 As6 Rh12'
_cell_volume   343.74942931
_cell_formula_units_Z   1
loop_
 _symmetry_equiv_pos_site_id
 _symmetry_equiv_pos_as_xyz
  1  'x, y, z'
loop_
 _atom_site_type_symbol
 _atom_site_label
 _atom_site_symmetry_multiplicity
 _atom_site_fract_x
 _atom_site_fract_y
 _atom_site_fract_z
 _atom_site_occupancy
  Dy  Dy0  1  0.333333  0.666667  0.752640  1
  Dy  Dy1  1  0.666667  0.333333  0.246484  1
  Mg  Mg2  1  0.000000  0.000000  0.616989  1
  As  As3  1  0.882302  0.596704  0.747727  1
  As  As4  1  0.403296  0.285598  0.747727  1
  As  As5  1  0.714402  0.117698  0.747727  1
  As  As6  1  0.115959  0.403536  0.251109  1
  As  As7  1  0.596464  0.712423  0.251109  1
  As  As8  1  0.287577  0.884041  0.251109  1
  Rh  Rh9  1  0.616124  0.550650  0.748839  1
  Rh  Rh10  1  0.449350  0.065474  0.748839  1
  Rh  Rh11  1  0.934526  0.383876  0.748839  1
  Rh  Rh12  1  0.387143  0.449319  0.249808  1
  Rh  Rh13  1  0.550681  0.937823  0.249808  1
  Rh  Rh14  1  0.062177  0.612857  0.249808  1
  Rh  Rh15  1  0.128877  0.837216  0.751209  1
  Rh  Rh16  1  0.162784  0.291660  0.751209  1
  Rh  Rh17  1  0.708340  0.871123  0.751209  1
  Rh  Rh18  1  0.877216  0.152078  0.247363  1
  Rh  Rh19  1  0.847922  0.725138  0.247363  1
  Rh  Rh20  1  0.274862  0.122784  0.247363  1
