# generated using pymatgen
data_Yb3Al9Re3Os4
_symmetry_space_group_name_H-M   'P 1'
_cell_length_a   8.86168800
_cell_length_b   8.86168806
_cell_length_c   9.58103500
_cell_angle_alpha   90.00000000
_cell_angle_beta   90.00000000
_cell_angle_gamma   119.99999977
_symmetry_Int_Tables_number   1
_chemical_formula_structural   Yb3Al9Re3Os4
_chemical_formula_sum   'Yb6 Al18 Re6 Os8'
_cell_volume   651.59234467
_cell_formula_units_Z   2
loop_
 _symmetry_equiv_pos_site_id
 _symmetry_equiv_pos_as_xyz
  1  'x, y, z'
loop_
 _atom_site_type_symbol
 _atom_site_label
 _atom_site_symmetry_multiplicity
 _atom_site_fract_x
 _atom_site_fract_y
 _atom_site_fract_z
 _atom_site_occupancy
  Yb  Yb0  1  0.196930  0.393860  0.250000  1
  Yb  Yb1  1  0.803070  0.606140  0.750000  1
  Yb  Yb2  1  0.606140  0.803070  0.250000  1
  Yb  Yb3  1  0.393860  0.196930  0.750000  1
  Yb  Yb4  1  0.196930  0.803070  0.250000  1
  Yb  Yb5  1  0.803070  0.196930  0.750000  1
  Al  Al6  1  0.333333  0.666667  0.001145  1
  Al  Al7  1  0.666667  0.333333  0.998855  1
  Al  Al8  1  0.666667  0.333333  0.501145  1
  Al  Al9  1  0.333333  0.666667  0.498855  1
  Al  Al10  1  0.164401  0.328800  0.579407  1
  Al  Al11  1  0.835599  0.671200  0.420593  1
  Al  Al12  1  0.671200  0.835599  0.579407  1
  Al  Al13  1  0.835599  0.671200  0.079407  1
  Al  Al14  1  0.328800  0.164401  0.420593  1
  Al  Al15  1  0.164401  0.328800  0.920593  1
  Al  Al16  1  0.164401  0.835599  0.579407  1
  Al  Al17  1  0.328800  0.164401  0.079407  1
  Al  Al18  1  0.835599  0.164401  0.420593  1
  Al  Al19  1  0.671200  0.835599  0.920593  1
  Al  Al20  1  0.835599  0.164401  0.079407  1
  Al  Al21  1  0.164401  0.835599  0.920593  1
  Al  Al22  1  0.000000  0.000000  0.250000  1
  Al  Al23  1  0.000000  0.000000  0.750000  1
  Re  Re24  1  0.568929  0.137859  0.250000  1
  Re  Re25  1  0.431071  0.862141  0.750000  1
  Re  Re26  1  0.862141  0.431071  0.250000  1
  Re  Re27  1  0.137859  0.568929  0.750000  1
  Re  Re28  1  0.568929  0.431071  0.250000  1
  Re  Re29  1  0.431071  0.568929  0.750000  1
  Os  Os30  1  0.500000  0.000000  0.000000  1
  Os  Os31  1  0.000000  0.500000  0.000000  1
  Os  Os32  1  0.500000  0.000000  0.500000  1
  Os  Os33  1  0.500000  0.500000  0.000000  1
  Os  Os34  1  0.000000  0.500000  0.500000  1
  Os  Os35  1  0.500000  0.500000  0.500000  1
  Os  Os36  1  0.000000  0.000000  0.000000  1
  Os  Os37  1  0.000000  0.000000  0.500000  1
