# generated using pymatgen
data_Pu3Np(WN2)4
_symmetry_space_group_name_H-M   'P 1'
_cell_length_a   3.21141100
_cell_length_b   5.62536139
_cell_length_c   10.84323854
_cell_angle_alpha   89.96069318
_cell_angle_beta   90.00000000
_cell_angle_gamma   90.00000000
_symmetry_Int_Tables_number   1
_chemical_formula_structural   Pu3Np(WN2)4
_chemical_formula_sum   'Pu3 Np1 W4 N8'
_cell_volume   195.88682544
_cell_formula_units_Z   1
loop_
 _symmetry_equiv_pos_site_id
 _symmetry_equiv_pos_as_xyz
  1  'x, y, z'
loop_
 _atom_site_type_symbol
 _atom_site_label
 _atom_site_symmetry_multiplicity
 _atom_site_fract_x
 _atom_site_fract_y
 _atom_site_fract_z
 _atom_site_occupancy
  Pu  Pu0  1  0.250000  0.576080  0.642557  1
  Pu  Pu1  1  0.750000  0.922765  0.143180  1
  Pu  Pu2  1  0.750000  0.423642  0.357662  1
  Np  Np3  1  0.250000  0.076123  0.857393  1
  W  W4  1  0.250000  0.430247  0.102356  1
  W  W5  1  0.250000  0.930067  0.397394  1
  W  W6  1  0.750000  0.570247  0.897276  1
  W  W7  1  0.750000  0.070247  0.601747  1
  N  N8  1  0.250000  0.164641  0.244525  1
  N  N9  1  0.250000  0.664074  0.254934  1
  N  N10  1  0.750000  0.837825  0.756144  1
  N  N11  1  0.750000  0.332683  0.745687  1
  N  N12  1  0.250000  0.754831  0.994662  1
  N  N13  1  0.250000  0.252715  0.504666  1
  N  N14  1  0.750000  0.246693  0.004362  1
  N  N15  1  0.750000  0.747119  0.495456  1
