# generated using pymatgen
data_Ho13Er3(TmPt4)4
_symmetry_space_group_name_H-M   'P 1'
_cell_length_a   7.42975301
_cell_length_b   7.52908602
_cell_length_c   14.66034303
_cell_angle_alpha   90.00730696
_cell_angle_beta   89.99931661
_cell_angle_gamma   90.00487208
_symmetry_Int_Tables_number   1
_chemical_formula_structural   Ho13Er3(TmPt4)4
_chemical_formula_sum   'Ho13 Er3 Tm4 Pt16'
_cell_volume   820.08857699
_cell_formula_units_Z   1
loop_
 _symmetry_equiv_pos_site_id
 _symmetry_equiv_pos_as_xyz
  1  'x, y, z'
loop_
 _atom_site_type_symbol
 _atom_site_label
 _atom_site_symmetry_multiplicity
 _atom_site_fract_x
 _atom_site_fract_y
 _atom_site_fract_z
 _atom_site_occupancy
  Ho  Ho0  1  0.843343  0.668054  0.377476  1
  Ho  Ho1  1  0.343361  0.831975  0.377470  1
  Ho  Ho2  1  0.843365  0.668057  0.122499  1
  Ho  Ho3  1  0.656625  0.168059  0.877468  1
  Ho  Ho4  1  0.156664  0.331917  0.622531  1
  Ho  Ho5  1  0.501952  0.679887  0.593116  1
  Ho  Ho6  1  0.001979  0.820123  0.906891  1
  Ho  Ho7  1  0.498028  0.320109  0.093106  1
  Ho  Ho8  1  0.998076  0.179863  0.406893  1
  Ho  Ho9  1  0.498118  0.320100  0.406918  1
  Ho  Ho10  1  0.998185  0.179818  0.093086  1
  Ho  Ho11  1  0.501798  0.679842  0.906908  1
  Ho  Ho12  1  0.001863  0.820224  0.593138  1
  Er  Er13  1  0.656647  0.168125  0.622565  1
  Er  Er14  1  0.156646  0.331927  0.877422  1
  Er  Er15  1  0.343373  0.831964  0.122575  1
  Tm  Tm16  1  0.818983  0.512020  0.750001  1
  Tm  Tm17  1  0.318991  0.987979  0.750003  1
  Tm  Tm18  1  0.181107  0.487910  0.249963  1
  Tm  Tm19  1  0.680962  0.012120  0.249962  1
  Pt  Pt20  1  0.683835  0.968401  0.458062  1
  Pt  Pt21  1  0.183971  0.531889  0.042019  1
  Pt  Pt22  1  0.316033  0.031864  0.957982  1
  Pt  Pt23  1  0.815993  0.467946  0.542138  1
  Pt  Pt24  1  0.316341  0.031843  0.542114  1
  Pt  Pt25  1  0.816364  0.468136  0.957891  1
  Pt  Pt26  1  0.683648  0.968139  0.042108  1
  Pt  Pt27  1  0.183839  0.531771  0.457951  1
  Pt  Pt28  1  0.454259  0.388046  0.749988  1
  Pt  Pt29  1  0.954257  0.111945  0.750000  1
  Pt  Pt30  1  0.545561  0.611909  0.249913  1
  Pt  Pt31  1  0.045849  0.888186  0.249916  1
  Pt  Pt32  1  0.681672  0.855655  0.749932  1
  Pt  Pt33  1  0.181667  0.644320  0.750059  1
  Pt  Pt34  1  0.318338  0.144361  0.249943  1
  Pt  Pt35  1  0.818305  0.355517  0.249993  1
