# generated using pymatgen
data_LiTa5Re5Si6W
_symmetry_space_group_name_H-M   'P 1'
_cell_length_a   7.63822748
_cell_length_b   7.58893539
_cell_length_c   7.63670547
_cell_angle_alpha   126.06544079
_cell_angle_beta   128.97656119
_cell_angle_gamma   77.56511797
_symmetry_Int_Tables_number   1
_chemical_formula_structural   LiTa5Re5Si6W
_chemical_formula_sum   'Li1 Ta5 Re5 Si6 W1'
_cell_volume   269.58669260
_cell_formula_units_Z   1
loop_
 _symmetry_equiv_pos_site_id
 _symmetry_equiv_pos_as_xyz
  1  'x, y, z'
loop_
 _atom_site_type_symbol
 _atom_site_label
 _atom_site_symmetry_multiplicity
 _atom_site_fract_x
 _atom_site_fract_y
 _atom_site_fract_z
 _atom_site_occupancy
  Li  Li0  1  0.556020  0.107213  0.052107  1
  Ta  Ta1  1  0.448476  0.489768  0.541979  1
  Ta  Ta2  1  0.948508  0.488877  0.038797  1
  Ta  Ta3  1  0.050963  0.093067  0.544865  1
  Ta  Ta4  1  0.752918  0.908893  0.654169  1
  Ta  Ta5  1  0.242926  0.891003  0.149248  1
  Re  Re6  1  0.003817  0.238456  0.237966  1
  Re  Re7  1  0.122793  0.752984  0.619307  1
  Re  Re8  1  0.874666  0.500182  0.634525  1
  Re  Re9  1  0.633286  0.754720  0.130326  1
  Re  Re10  1  0.365710  0.500570  0.126166  1
  Si  Si11  1  0.746430  0.492406  0.247024  1
  Si  Si12  1  0.250283  0.499278  0.747681  1
  Si  Si13  1  0.342541  0.833464  0.514944  1
  Si  Si14  1  0.658377  0.158716  0.475177  1
  Si  Si15  1  0.819086  0.836169  0.992659  1
  Si  Si16  1  0.183044  0.159226  0.001474  1
  W  W17  1  0.500156  0.237205  0.733784  1
