# generated using pymatgen
data_Tb5Th(Si2Ni)2
_symmetry_space_group_name_H-M   'P 1'
_cell_length_a   4.16904600
_cell_length_b   11.38625900
_cell_length_c   11.29089500
_cell_angle_alpha   90.00000000
_cell_angle_beta   90.00000000
_cell_angle_gamma   90.00000000
_symmetry_Int_Tables_number   1
_chemical_formula_structural   Tb5Th(Si2Ni)2
_chemical_formula_sum   'Tb10 Th2 Si8 Ni4'
_cell_volume   535.97695132
_cell_formula_units_Z   2
loop_
 _symmetry_equiv_pos_site_id
 _symmetry_equiv_pos_as_xyz
  1  'x, y, z'
loop_
 _atom_site_type_symbol
 _atom_site_label
 _atom_site_symmetry_multiplicity
 _atom_site_fract_x
 _atom_site_fract_y
 _atom_site_fract_z
 _atom_site_occupancy
  Tb  Tb0  1  0.750000  0.939318  0.118244  1
  Tb  Tb1  1  0.750000  0.560682  0.618244  1
  Tb  Tb2  1  0.250000  0.120543  0.558677  1
  Tb  Tb3  1  0.250000  0.379457  0.058677  1
  Tb  Tb4  1  0.750000  0.876111  0.438896  1
  Tb  Tb5  1  0.750000  0.623889  0.938896  1
  Tb  Tb6  1  0.250000  0.804516  0.712005  1
  Tb  Tb7  1  0.250000  0.695484  0.212005  1
  Tb  Tb8  1  0.750000  0.192848  0.289570  1
  Tb  Tb9  1  0.750000  0.307152  0.789570  1
  Th  Th10  1  0.250000  0.060747  0.884690  1
  Th  Th11  1  0.250000  0.439253  0.384690  1
  Si  Si12  1  0.250000  0.809327  0.974126  1
  Si  Si13  1  0.250000  0.690673  0.474126  1
  Si  Si14  1  0.750000  0.191634  0.029929  1
  Si  Si15  1  0.750000  0.308366  0.529929  1
  Si  Si16  1  0.250000  0.492596  0.802898  1
  Si  Si17  1  0.250000  0.007404  0.302898  1
  Si  Si18  1  0.750000  0.510055  0.192636  1
  Si  Si19  1  0.750000  0.989945  0.692636  1
  Ni  Ni20  1  0.250000  0.363966  0.628124  1
  Ni  Ni21  1  0.250000  0.136034  0.128124  1
  Ni  Ni22  1  0.750000  0.632170  0.370205  1
  Ni  Ni23  1  0.750000  0.867830  0.870205  1
