# generated using pymatgen
data_KMnAlF6
_symmetry_space_group_name_H-M   'P 1'
_cell_length_a   7.19693100
_cell_length_b   7.27038500
_cell_length_c   9.95845900
_cell_angle_alpha   90.00000000
_cell_angle_beta   90.00000000
_cell_angle_gamma   90.00000000
_symmetry_Int_Tables_number   1
_chemical_formula_structural   KMnAlF6
_chemical_formula_sum   'K4 Mn4 Al4 F24'
_cell_volume   521.07098153
_cell_formula_units_Z   4
loop_
 _symmetry_equiv_pos_site_id
 _symmetry_equiv_pos_as_xyz
  1  'x, y, z'
loop_
 _atom_site_type_symbol
 _atom_site_label
 _atom_site_symmetry_multiplicity
 _atom_site_fract_x
 _atom_site_fract_y
 _atom_site_fract_z
 _atom_site_occupancy
  K  K0  1  0.250000  0.494709  0.877853  1
  K  K1  1  0.750000  0.005291  0.377853  1
  K  K2  1  0.750000  0.505291  0.122147  1
  K  K3  1  0.250000  0.994709  0.622147  1
  Mn  Mn4  1  0.750000  0.205551  0.740005  1
  Mn  Mn5  1  0.750000  0.705551  0.759995  1
  Mn  Mn6  1  0.250000  0.294449  0.240005  1
  Mn  Mn7  1  0.250000  0.794449  0.259995  1
  Al  Al8  1  0.000000  0.500000  0.500000  1
  Al  Al9  1  0.500000  0.500000  0.500000  1
  Al  Al10  1  0.500000  0.000000  0.000000  1
  Al  Al11  1  0.000000  0.000000  0.000000  1
  F  F12  1  0.550826  0.786433  0.912952  1
  F  F13  1  0.050826  0.213567  0.087048  1
  F  F14  1  0.949174  0.286433  0.587048  1
  F  F15  1  0.449174  0.713567  0.412952  1
  F  F16  1  0.449174  0.213567  0.087048  1
  F  F17  1  0.949174  0.786433  0.912952  1
  F  F18  1  0.050826  0.713567  0.412952  1
  F  F19  1  0.550826  0.286433  0.587048  1
  F  F20  1  0.013225  0.621674  0.659496  1
  F  F21  1  0.513225  0.378326  0.340504  1
  F  F22  1  0.486775  0.121674  0.840504  1
  F  F23  1  0.986775  0.878326  0.159496  1
  F  F24  1  0.750000  0.946129  0.647799  1
  F  F25  1  0.250000  0.053871  0.352201  1
  F  F26  1  0.750000  0.446129  0.852201  1
  F  F27  1  0.250000  0.553871  0.147799  1
  F  F28  1  0.750000  0.059722  0.008865  1
  F  F29  1  0.250000  0.940278  0.991135  1
  F  F30  1  0.750000  0.559722  0.491135  1
  F  F31  1  0.250000  0.440278  0.508865  1
  F  F32  1  0.013225  0.121674  0.840504  1
  F  F33  1  0.513225  0.878326  0.159496  1
  F  F34  1  0.486775  0.621674  0.659496  1
  F  F35  1  0.986775  0.378326  0.340504  1
