# generated using pymatgen
data_GdHo3Al8
_symmetry_space_group_name_H-M   'P 1'
_cell_length_a   9.65889994
_cell_length_b   9.65915683
_cell_length_c   9.66079891
_cell_angle_alpha   33.40814852
_cell_angle_beta   33.38743170
_cell_angle_gamma   33.42676971
_symmetry_Int_Tables_number   1
_chemical_formula_structural   GdHo3Al8
_chemical_formula_sum   'Gd1 Ho3 Al8'
_cell_volume   243.31632794
_cell_formula_units_Z   1
loop_
 _symmetry_equiv_pos_site_id
 _symmetry_equiv_pos_as_xyz
  1  'x, y, z'
loop_
 _atom_site_type_symbol
 _atom_site_label
 _atom_site_symmetry_multiplicity
 _atom_site_fract_x
 _atom_site_fract_y
 _atom_site_fract_z
 _atom_site_occupancy
  Gd  Gd0  1  0.124351  0.125016  0.124461  1
  Ho  Ho1  1  0.625175  0.625240  0.624981  1
  Ho  Ho2  1  0.000208  0.000176  0.000159  1
  Ho  Ho3  1  0.500366  0.499445  0.500065  1
  Al  Al4  1  0.562298  0.562438  0.062172  1
  Al  Al5  1  0.062932  0.062770  0.562481  1
  Al  Al6  1  0.562180  0.062307  0.562488  1
  Al  Al7  1  0.062772  0.562488  0.062919  1
  Al  Al8  1  0.812519  0.812618  0.812596  1
  Al  Al9  1  0.312450  0.312430  0.312328  1
  Al  Al10  1  0.062262  0.562290  0.562385  1
  Al  Al11  1  0.562490  0.062783  0.062966  1
