# generated using pymatgen
data_ErTmTh2B3C4
_symmetry_space_group_name_H-M   'P 1'
_cell_length_a   3.59281107
_cell_length_b   3.74183981
_cell_length_c   11.85377679
_cell_angle_alpha   94.01789105
_cell_angle_beta   96.13183716
_cell_angle_gamma   90.22579862
_symmetry_Int_Tables_number   1
_chemical_formula_structural   ErTmTh2B3C4
_chemical_formula_sum   'Er1 Tm1 Th2 B3 C4'
_cell_volume   158.04724889
_cell_formula_units_Z   1
loop_
 _symmetry_equiv_pos_site_id
 _symmetry_equiv_pos_as_xyz
  1  'x, y, z'
loop_
 _atom_site_type_symbol
 _atom_site_label
 _atom_site_symmetry_multiplicity
 _atom_site_fract_x
 _atom_site_fract_y
 _atom_site_fract_z
 _atom_site_occupancy
  Er  Er0  1  0.385316  0.575061  0.864275  1
  Tm  Tm1  1  0.615167  0.424846  0.136491  1
  Th  Th2  1  0.802318  0.031047  0.647860  1
  Th  Th3  1  0.197578  0.968835  0.351826  1
  B  B4  1  0.999647  0.000847  0.000136  1
  B  B5  1  0.262235  0.508001  0.538681  1
  B  B6  1  0.737594  0.491984  0.460977  1
  C  C7  1  0.880886  0.088320  0.882961  1
  C  C8  1  0.119387  0.911250  0.117124  1
  C  C9  1  0.312963  0.535002  0.672513  1
  C  C10  1  0.686909  0.464807  0.327156  1
