# generated using pymatgen
data_NaCa2NpO6
_symmetry_space_group_name_H-M   'P 1'
_cell_length_a   5.70321112
_cell_length_b   5.92861100
_cell_length_c   8.45885991
_cell_angle_alpha   90.00000000
_cell_angle_beta   92.02500460
_cell_angle_gamma   90.00000000
_symmetry_Int_Tables_number   1
_chemical_formula_structural   NaCa2NpO6
_chemical_formula_sum   'Na2 Ca4 Np2 O12'
_cell_volume   285.83337386
_cell_formula_units_Z   2
loop_
 _symmetry_equiv_pos_site_id
 _symmetry_equiv_pos_as_xyz
  1  'x, y, z'
loop_
 _atom_site_type_symbol
 _atom_site_label
 _atom_site_symmetry_multiplicity
 _atom_site_fract_x
 _atom_site_fract_y
 _atom_site_fract_z
 _atom_site_occupancy
  Na  Na0  1  0.500000  0.500000  0.000000  1
  Na  Na1  1  0.000000  0.000000  0.500000  1
  Ca  Ca2  1  0.474150  0.944766  0.764876  1
  Ca  Ca3  1  0.025850  0.444766  0.735124  1
  Ca  Ca4  1  0.525850  0.055234  0.235124  1
  Ca  Ca5  1  0.974150  0.555234  0.264876  1
  Np  Np6  1  0.500000  0.500000  0.500000  1
  Np  Np7  1  0.000000  0.000000  0.000000  1
  O  O8  1  0.327856  0.231339  0.595123  1
  O  O9  1  0.172144  0.731339  0.904877  1
  O  O10  1  0.672144  0.768661  0.404877  1
  O  O11  1  0.827856  0.268661  0.095123  1
  O  O12  1  0.639098  0.582559  0.715851  1
  O  O13  1  0.860902  0.082559  0.784149  1
  O  O14  1  0.360902  0.417441  0.284149  1
  O  O15  1  0.139098  0.917441  0.215851  1
  O  O16  1  0.215147  0.681375  0.550104  1
  O  O17  1  0.284853  0.181375  0.949896  1
  O  O18  1  0.784853  0.318625  0.449896  1
  O  O19  1  0.715147  0.818625  0.050104  1
