# generated using pymatgen
data_Sr4Yb2SbRuO12
_symmetry_space_group_name_H-M   'P 1'
_cell_length_a   5.81820755
_cell_length_b   5.93162824
_cell_length_c   8.22773677
_cell_angle_alpha   90.08853495
_cell_angle_beta   90.39759431
_cell_angle_gamma   90.19445363
_symmetry_Int_Tables_number   1
_chemical_formula_structural   Sr4Yb2SbRuO12
_chemical_formula_sum   'Sr4 Yb2 Sb1 Ru1 O12'
_cell_volume   283.94225697
_cell_formula_units_Z   1
loop_
 _symmetry_equiv_pos_site_id
 _symmetry_equiv_pos_as_xyz
  1  'x, y, z'
loop_
 _atom_site_type_symbol
 _atom_site_label
 _atom_site_symmetry_multiplicity
 _atom_site_fract_x
 _atom_site_fract_y
 _atom_site_fract_z
 _atom_site_occupancy
  Sr  Sr0  1  0.010895  0.043689  0.243807  1
  Sr  Sr1  1  0.489990  0.542710  0.243789  1
  Sr  Sr2  1  0.510008  0.457284  0.756210  1
  Sr  Sr3  1  0.989111  0.956314  0.756192  1
  Yb  Yb4  1  0.499998  0.000000  0.999991  1
  Yb  Yb5  1  0.000004  0.500005  0.500001  1
  Sb  Sb6  1  0.999997  0.500004  0.999996  1
  Ru  Ru7  1  0.500012  0.000001  0.499984  1
  O  O8  1  0.273873  0.301205  0.042854  1
  O  O9  1  0.194373  0.775011  0.048915  1
  O  O10  1  0.913430  0.472549  0.236184  1
  O  O11  1  0.575391  0.979677  0.275609  1
  O  O12  1  0.313862  0.265292  0.456896  1
  O  O13  1  0.235454  0.810374  0.460997  1
  O  O14  1  0.764536  0.189621  0.539006  1
  O  O15  1  0.686140  0.734698  0.543110  1
  O  O16  1  0.424599  0.020324  0.724406  1
  O  O17  1  0.086567  0.527454  0.763818  1
  O  O18  1  0.805629  0.224992  0.951087  1
  O  O19  1  0.726128  0.698795  0.957147  1
