# generated using pymatgen
data_Pr3Y5Cd2PdRu
_symmetry_space_group_name_H-M   'P 1'
_cell_length_a   9.82582800
_cell_length_b   9.82582868
_cell_length_c   9.85893200
_cell_angle_alpha   59.88849132
_cell_angle_beta   59.88848902
_cell_angle_gamma   59.99854363
_symmetry_Int_Tables_number   1
_chemical_formula_structural   Pr3Y5Cd2PdRu
_chemical_formula_sum   'Pr6 Y10 Cd4 Pd2 Ru2'
_cell_volume   671.91510465
_cell_formula_units_Z   2
loop_
 _symmetry_equiv_pos_site_id
 _symmetry_equiv_pos_as_xyz
  1  'x, y, z'
loop_
 _atom_site_type_symbol
 _atom_site_label
 _atom_site_symmetry_multiplicity
 _atom_site_fract_x
 _atom_site_fract_y
 _atom_site_fract_z
 _atom_site_occupancy
  Pr  Pr0  1  0.938213  0.556746  0.564251  1
  Pr  Pr1  1  0.556746  0.938213  0.940791  1
  Pr  Pr2  1  0.556746  0.938213  0.564251  1
  Pr  Pr3  1  0.938213  0.556746  0.940791  1
  Pr  Pr4  1  0.561192  0.561192  0.938808  1
  Pr  Pr5  1  0.939912  0.939912  0.560088  1
  Y  Y6  1  0.348374  0.348374  0.355246  1
  Y  Y7  1  0.348374  0.348374  0.948006  1
  Y  Y8  1  0.343780  0.957559  0.349331  1
  Y  Y9  1  0.957559  0.343780  0.349331  1
  Y  Y10  1  0.818849  0.185689  0.188245  1
  Y  Y11  1  0.185689  0.818849  0.807217  1
  Y  Y12  1  0.185689  0.818849  0.188245  1
  Y  Y13  1  0.818849  0.185689  0.807217  1
  Y  Y14  1  0.185629  0.185629  0.814371  1
  Y  Y15  1  0.811120  0.811120  0.188880  1
  Cd  Cd16  1  0.578970  0.578970  0.579190  1
  Cd  Cd17  1  0.578970  0.578970  0.262868  1
  Cd  Cd18  1  0.579595  0.260799  0.579803  1
  Cd  Cd19  1  0.260799  0.579595  0.579803  1
  Pd  Pd20  1  0.146109  0.572577  0.140657  1
  Pd  Pd21  1  0.572577  0.146109  0.140657  1
  Ru  Ru22  1  0.144022  0.144022  0.137997  1
  Ru  Ru23  1  0.144022  0.144022  0.573960  1
