# generated using pymatgen
data_CePa3Ge4(IrRh)2
_symmetry_space_group_name_H-M   'P 1'
_cell_length_a   4.35348600
_cell_length_b   7.00144076
_cell_length_c   7.65080358
_cell_angle_alpha   90.08082980
_cell_angle_beta   90.00000000
_cell_angle_gamma   90.00000000
_symmetry_Int_Tables_number   1
_chemical_formula_structural   CePa3Ge4(IrRh)2
_chemical_formula_sum   'Ce1 Pa3 Ge4 Ir2 Rh2'
_cell_volume   233.20142016
_cell_formula_units_Z   1
loop_
 _symmetry_equiv_pos_site_id
 _symmetry_equiv_pos_as_xyz
  1  'x, y, z'
loop_
 _atom_site_type_symbol
 _atom_site_label
 _atom_site_symmetry_multiplicity
 _atom_site_fract_x
 _atom_site_fract_y
 _atom_site_fract_z
 _atom_site_occupancy
  Ce  Ce0  1  0.750000  0.511386  0.290498  1
  Pa  Pa1  1  0.250000  0.993594  0.796503  1
  Pa  Pa2  1  0.250000  0.492953  0.706995  1
  Pa  Pa3  1  0.750000  0.009323  0.205371  1
  Ge  Ge4  1  0.250000  0.810026  0.415372  1
  Ge  Ge5  1  0.250000  0.308540  0.089001  1
  Ge  Ge6  1  0.750000  0.190706  0.582173  1
  Ge  Ge7  1  0.750000  0.682455  0.915127  1
  Ir  Ir8  1  0.750000  0.780300  0.590799  1
  Ir  Ir9  1  0.750000  0.267576  0.912280  1
  Rh  Rh10  1  0.250000  0.212557  0.415679  1
  Rh  Rh11  1  0.250000  0.740585  0.080201  1
