# generated using pymatgen
data_Lu3Sc2Sn3N
_symmetry_space_group_name_H-M   'P 1'
_cell_length_a   8.61765713
_cell_length_b   8.61802074
_cell_length_c   6.10989009
_cell_angle_alpha   89.99938392
_cell_angle_beta   90.00136444
_cell_angle_gamma   119.99674716
_symmetry_Int_Tables_number   1
_chemical_formula_structural   Lu3Sc2Sn3N
_chemical_formula_sum   'Lu6 Sc4 Sn6 N2'
_cell_volume   392.98412721
_cell_formula_units_Z   2
loop_
 _symmetry_equiv_pos_site_id
 _symmetry_equiv_pos_as_xyz
  1  'x, y, z'
loop_
 _atom_site_type_symbol
 _atom_site_label
 _atom_site_symmetry_multiplicity
 _atom_site_fract_x
 _atom_site_fract_y
 _atom_site_fract_z
 _atom_site_occupancy
  Lu  Lu0  1  0.784818  0.784836  0.749877  1
  Lu  Lu1  1  0.215307  0.000141  0.749845  1
  Lu  Lu2  1  0.999930  0.215310  0.749857  1
  Lu  Lu3  1  0.215302  0.215162  0.249834  1
  Lu  Lu4  1  0.784813  0.000021  0.249845  1
  Lu  Lu5  1  0.999985  0.784714  0.249879  1
  Sc  Sc6  1  0.666928  0.333578  0.000211  1
  Sc  Sc7  1  0.333034  0.666236  0.000020  1
  Sc  Sc8  1  0.332992  0.666716  0.500268  1
  Sc  Sc9  1  0.666572  0.332992  0.499981  1
  Sn  Sn10  1  0.407324  0.407522  0.749755  1
  Sn  Sn11  1  0.592384  0.999873  0.750374  1
  Sn  Sn12  1  0.000079  0.592725  0.750300  1
  Sn  Sn13  1  0.592604  0.592657  0.250443  1
  Sn  Sn14  1  0.407682  0.000029  0.249879  1
  Sn  Sn15  1  0.000099  0.407372  0.249976  1
  N  N16  1  0.000112  0.000065  0.000012  1
  N  N17  1  0.000035  0.000049  0.499644  1
