# generated using pymatgen
data_Tb5Tm11In4Ru3Rh
_symmetry_space_group_name_H-M   'P 1'
_cell_length_a   9.60683986
_cell_length_b   9.58351395
_cell_length_c   9.60502042
_cell_angle_alpha   59.80949892
_cell_angle_beta   59.71422845
_cell_angle_gamma   59.57965922
_symmetry_Int_Tables_number   1
_chemical_formula_structural   Tb5Tm11In4Ru3Rh
_chemical_formula_sum   'Tb5 Tm11 In4 Ru3 Rh1'
_cell_volume   621.05016806
_cell_formula_units_Z   1
loop_
 _symmetry_equiv_pos_site_id
 _symmetry_equiv_pos_as_xyz
  1  'x, y, z'
loop_
 _atom_site_type_symbol
 _atom_site_label
 _atom_site_symmetry_multiplicity
 _atom_site_fract_x
 _atom_site_fract_y
 _atom_site_fract_z
 _atom_site_occupancy
  Tb  Tb0  1  0.059316  0.060216  0.441352  1
  Tb  Tb1  1  0.441103  0.060909  0.439852  1
  Tb  Tb2  1  0.060764  0.442206  0.060921  1
  Tb  Tb3  1  0.044644  0.653371  0.651014  1
  Tb  Tb4  1  0.437691  0.439647  0.062271  1
  Tm  Tm5  1  0.653199  0.043534  0.650404  1
  Tm  Tm6  1  0.190796  0.812308  0.190062  1
  Tm  Tm7  1  0.192970  0.189057  0.811025  1
  Tm  Tm8  1  0.808620  0.809470  0.191201  1
  Tm  Tm9  1  0.447020  0.054086  0.053302  1
  Tm  Tm10  1  0.811394  0.188739  0.193304  1
  Tm  Tm11  1  0.058823  0.444354  0.439822  1
  Tm  Tm12  1  0.809028  0.189590  0.809613  1
  Tm  Tm13  1  0.191049  0.810462  0.810055  1
  Tm  Tm14  1  0.651411  0.650249  0.044724  1
  Tm  Tm15  1  0.649338  0.653005  0.651534  1
  In  In16  1  0.417621  0.418731  0.417514  1
  In  In17  1  0.747481  0.417996  0.418049  1
  In  In18  1  0.418557  0.748359  0.415757  1
  In  In19  1  0.418982  0.416454  0.747589  1
  Ru  Ru20  1  0.856873  0.857108  0.419372  1
  Ru  Ru21  1  0.855656  0.861006  0.863696  1
  Ru  Ru22  1  0.420670  0.859654  0.859342  1
  Rh  Rh23  1  0.856993  0.419493  0.858228  1
