# generated using pymatgen
data_Ho4Ga18Ni2PdRu3
_symmetry_space_group_name_H-M   'P 1'
_cell_length_a   7.53889221
_cell_length_b   7.53889325
_cell_length_c   9.51537110
_cell_angle_alpha   89.98547072
_cell_angle_beta   89.98547613
_cell_angle_gamma   120.32485578
_symmetry_Int_Tables_number   1
_chemical_formula_structural   Ho4Ga18Ni2PdRu3
_chemical_formula_sum   'Ho4 Ga18 Ni2 Pd1 Ru3'
_cell_volume   466.81033141
_cell_formula_units_Z   1
loop_
 _symmetry_equiv_pos_site_id
 _symmetry_equiv_pos_as_xyz
  1  'x, y, z'
loop_
 _atom_site_type_symbol
 _atom_site_label
 _atom_site_symmetry_multiplicity
 _atom_site_fract_x
 _atom_site_fract_y
 _atom_site_fract_z
 _atom_site_occupancy
  Ho  Ho0  1  0.998215  0.667525  0.249400  1
  Ho  Ho1  1  0.006694  0.337041  0.749857  1
  Ho  Ho2  1  0.662959  0.993306  0.250143  1
  Ho  Ho3  1  0.332475  0.001785  0.750600  1
  Ga  Ga4  1  0.121716  0.120805  0.242305  1
  Ga  Ga5  1  0.879195  0.878284  0.757695  1
  Ga  Ga6  1  0.992211  0.329642  0.075420  1
  Ga  Ga7  1  0.996548  0.666883  0.924737  1
  Ga  Ga8  1  0.998674  0.662579  0.579319  1
  Ga  Ga9  1  0.337421  0.001326  0.420681  1
  Ga  Ga10  1  0.001239  0.336153  0.418893  1
  Ga  Ga11  1  0.663847  0.998761  0.581107  1
  Ga  Ga12  1  0.670358  0.007789  0.924580  1
  Ga  Ga13  1  0.333117  0.003452  0.075263  1
  Ga  Ga14  1  0.342456  0.340505  0.566016  1
  Ga  Ga15  1  0.659495  0.657544  0.433984  1
  Ga  Ga16  1  0.667825  0.667929  0.061790  1
  Ga  Ga17  1  0.332071  0.332175  0.938210  1
  Ga  Ga18  1  0.334666  0.544247  0.248443  1
  Ga  Ga19  1  0.666138  0.450061  0.753570  1
  Ga  Ga20  1  0.549939  0.333862  0.246430  1
  Ga  Ga21  1  0.455753  0.665334  0.751557  1
  Ni  Ni22  1  0.669600  0.330400  0.000000  1
  Ni  Ni23  1  0.999744  0.000256  0.000000  1
  Pd  Pd24  1  0.999715  0.000285  0.500000  1
  Ru  Ru25  1  0.326808  0.673192  0.000000  1
  Ru  Ru26  1  0.327639  0.672361  0.500000  1
  Ru  Ru27  1  0.673480  0.326520  0.500000  1
