# generated using pymatgen
data_BaSrY2(ReN3)4
_symmetry_space_group_name_H-M   'P 1'
_cell_length_a   7.44869898
_cell_length_b   7.44869760
_cell_length_c   6.20969853
_cell_angle_alpha   77.81087439
_cell_angle_beta   77.81087453
_cell_angle_gamma   87.38586153
_symmetry_Int_Tables_number   1
_chemical_formula_structural   BaSrY2(ReN3)4
_chemical_formula_sum   'Ba1 Sr1 Y2 Re4 N12'
_cell_volume   329.17394422
_cell_formula_units_Z   1
loop_
 _symmetry_equiv_pos_site_id
 _symmetry_equiv_pos_as_xyz
  1  'x, y, z'
loop_
 _atom_site_type_symbol
 _atom_site_label
 _atom_site_symmetry_multiplicity
 _atom_site_fract_x
 _atom_site_fract_y
 _atom_site_fract_z
 _atom_site_occupancy
  Ba  Ba0  1  0.314499  0.685501  0.250000  1
  Sr  Sr1  1  0.687254  0.312746  0.750000  1
  Y  Y2  1  0.905252  0.094748  0.250000  1
  Y  Y3  1  0.088382  0.911618  0.750000  1
  Re  Re4  1  0.801895  0.625908  0.227461  1
  Re  Re5  1  0.374092  0.198105  0.272539  1
  Re  Re6  1  0.627891  0.799217  0.725399  1
  Re  Re7  1  0.200783  0.372109  0.774601  1
  N  N8  1  0.790765  0.988637  0.639549  1
  N  N9  1  0.122037  0.603829  0.709577  1
  N  N10  1  0.338644  0.355042  0.002475  1
  N  N11  1  0.602618  0.114230  0.197266  1
  N  N12  1  0.885770  0.397382  0.302734  1
  N  N13  1  0.199828  0.020466  0.361113  1
  N  N14  1  0.979534  0.800172  0.138887  1
  N  N15  1  0.357562  0.329298  0.508350  1
  N  N16  1  0.644958  0.661356  0.497525  1
  N  N17  1  0.011363  0.209235  0.860451  1
  N  N18  1  0.396171  0.877963  0.790423  1
  N  N19  1  0.670702  0.642438  0.991650  1
