# generated using pymatgen
data_TmMnFe(NiP)3
_symmetry_space_group_name_H-M   'P 1'
_cell_length_a   3.67993200
_cell_length_b   10.34931200
_cell_length_c   11.88818300
_cell_angle_alpha   90.00000000
_cell_angle_beta   90.00000000
_cell_angle_gamma   90.00000000
_symmetry_Int_Tables_number   1
_chemical_formula_structural   TmMnFe(NiP)3
_chemical_formula_sum   'Tm4 Mn4 Fe4 Ni12 P12'
_cell_volume   452.75864878
_cell_formula_units_Z   4
loop_
 _symmetry_equiv_pos_site_id
 _symmetry_equiv_pos_as_xyz
  1  'x, y, z'
loop_
 _atom_site_type_symbol
 _atom_site_label
 _atom_site_symmetry_multiplicity
 _atom_site_fract_x
 _atom_site_fract_y
 _atom_site_fract_z
 _atom_site_occupancy
  Tm  Tm0  1  0.250000  0.580018  0.705561  1
  Tm  Tm1  1  0.250000  0.919982  0.205561  1
  Tm  Tm2  1  0.750000  0.419982  0.294439  1
  Tm  Tm3  1  0.750000  0.080018  0.794439  1
  Mn  Mn4  1  0.250000  0.708674  0.989589  1
  Mn  Mn5  1  0.250000  0.791326  0.489589  1
  Mn  Mn6  1  0.750000  0.291326  0.010411  1
  Mn  Mn7  1  0.750000  0.208674  0.510411  1
  Fe  Fe8  1  0.250000  0.463839  0.930171  1
  Fe  Fe9  1  0.250000  0.036161  0.430171  1
  Fe  Fe10  1  0.750000  0.536161  0.069829  1
  Fe  Fe11  1  0.750000  0.963839  0.569829  1
  Ni  Ni12  1  0.250000  0.406576  0.488441  1
  Ni  Ni13  1  0.250000  0.093424  0.988441  1
  Ni  Ni14  1  0.750000  0.593424  0.511559  1
  Ni  Ni15  1  0.750000  0.906576  0.011559  1
  Ni  Ni16  1  0.250000  0.225172  0.177353  1
  Ni  Ni17  1  0.250000  0.274828  0.677353  1
  Ni  Ni18  1  0.750000  0.774828  0.822647  1
  Ni  Ni19  1  0.750000  0.725172  0.322647  1
  Ni  Ni20  1  0.250000  0.879917  0.702521  1
  Ni  Ni21  1  0.250000  0.620083  0.202521  1
  Ni  Ni22  1  0.750000  0.120083  0.297479  1
  Ni  Ni23  1  0.750000  0.379917  0.797479  1
  P  P24  1  0.250000  0.424549  0.111248  1
  P  P25  1  0.250000  0.075451  0.611248  1
  P  P26  1  0.750000  0.575451  0.888752  1
  P  P27  1  0.750000  0.924549  0.388752  1
  P  P28  1  0.250000  0.267214  0.868969  1
  P  P29  1  0.250000  0.232786  0.368969  1
  P  P30  1  0.750000  0.732786  0.131031  1
  P  P31  1  0.750000  0.767214  0.631031  1
  P  P32  1  0.250000  0.600380  0.392541  1
  P  P33  1  0.250000  0.899620  0.892541  1
  P  P34  1  0.750000  0.399620  0.607459  1
  P  P35  1  0.750000  0.100380  0.107459  1
