# generated using pymatgen
data_Na4ErSi12Ir19
_symmetry_space_group_name_H-M   'P 1'
_cell_length_a   12.76346909
_cell_length_b   12.77126532
_cell_length_c   3.99684300
_cell_angle_alpha   90.00000000
_cell_angle_beta   90.00000000
_cell_angle_gamma   120.02020898
_symmetry_Int_Tables_number   1
_chemical_formula_structural   Na4ErSi12Ir19
_chemical_formula_sum   'Na4 Er1 Si12 Ir19'
_cell_volume   564.10753890
_cell_formula_units_Z   1
loop_
 _symmetry_equiv_pos_site_id
 _symmetry_equiv_pos_as_xyz
  1  'x, y, z'
loop_
 _atom_site_type_symbol
 _atom_site_label
 _atom_site_symmetry_multiplicity
 _atom_site_fract_x
 _atom_site_fract_y
 _atom_site_fract_z
 _atom_site_occupancy
  Na  Na0  1  0.667219  0.333912  0.000000  1
  Na  Na1  1  0.332781  0.666694  0.000000  1
  Na  Na2  1  0.817546  0.816836  0.500000  1
  Na  Na3  1  0.182454  0.999290  0.500000  1
  Er  Er4  1  0.000000  0.174404  0.500000  1
  Si  Si5  1  0.686011  0.169023  0.500000  1
  Si  Si6  1  0.830842  0.518636  0.500000  1
  Si  Si7  1  0.481626  0.313598  0.500000  1
  Si  Si8  1  0.169158  0.687794  0.500000  1
  Si  Si9  1  0.518374  0.831973  0.500000  1
  Si  Si10  1  0.313989  0.483011  0.500000  1
  Si  Si11  1  0.630274  0.631226  0.000000  1
  Si  Si12  1  0.369726  0.000951  0.000000  1
  Si  Si13  1  0.000000  0.368639  0.000000  1
  Si  Si14  1  0.183516  0.181456  0.000000  1
  Si  Si15  1  0.816484  0.997939  0.000000  1
  Si  Si16  1  0.000000  0.815789  0.000000  1
  Ir  Ir17  1  0.808585  0.183767  0.000000  1
  Ir  Ir18  1  0.815424  0.619956  0.000000  1
  Ir  Ir19  1  0.379294  0.196209  0.000000  1
  Ir  Ir20  1  0.184576  0.804532  0.000000  1
  Ir  Ir21  1  0.620706  0.816914  0.000000  1
  Ir  Ir22  1  0.191415  0.375182  0.000000  1
  Ir  Ir23  1  0.444395  0.447409  0.000000  1
  Ir  Ir24  1  0.555605  0.003015  0.000000  1
  Ir  Ir25  1  0.000000  0.552371  0.000000  1
  Ir  Ir26  1  0.282380  0.284732  0.500000  1
  Ir  Ir27  1  0.717620  0.002352  0.500000  1
  Ir  Ir28  1  0.000000  0.716438  0.500000  1
  Ir  Ir29  1  0.874468  0.359868  0.500000  1
  Ir  Ir30  1  0.638832  0.515406  0.500000  1
  Ir  Ir31  1  0.485118  0.126029  0.500000  1
  Ir  Ir32  1  0.361168  0.876573  0.500000  1
  Ir  Ir33  1  0.514882  0.640910  0.500000  1
  Ir  Ir34  1  0.125532  0.485399  0.500000  1
  Ir  Ir35  1  0.000000  0.001768  0.000000  1
