# generated using pymatgen
data_CsSm2Ag3Te5
_symmetry_space_group_name_H-M   'P 1'
_cell_length_a   4.63213300
_cell_length_b   8.57136113
_cell_length_c   18.87873700
_cell_angle_alpha   90.00000000
_cell_angle_beta   90.00000000
_cell_angle_gamma   74.32324689
_symmetry_Int_Tables_number   1
_chemical_formula_structural   CsSm2Ag3Te5
_chemical_formula_sum   'Cs2 Sm4 Ag6 Te10'
_cell_volume   721.67305399
_cell_formula_units_Z   2
loop_
 _symmetry_equiv_pos_site_id
 _symmetry_equiv_pos_as_xyz
  1  'x, y, z'
loop_
 _atom_site_type_symbol
 _atom_site_label
 _atom_site_symmetry_multiplicity
 _atom_site_fract_x
 _atom_site_fract_y
 _atom_site_fract_z
 _atom_site_occupancy
  Cs  Cs0  1  0.558491  0.883019  0.250000  1
  Cs  Cs1  1  0.441509  0.116981  0.750000  1
  Sm  Sm2  1  0.309416  0.381165  0.092992  1
  Sm  Sm3  1  0.309416  0.381165  0.407008  1
  Sm  Sm4  1  0.690583  0.618836  0.592992  1
  Sm  Sm5  1  0.690583  0.618836  0.907007  1
  Ag  Ag6  1  0.085893  0.828212  0.032310  1
  Ag  Ag7  1  0.839745  0.320512  0.250000  1
  Ag  Ag8  1  0.085893  0.828212  0.467690  1
  Ag  Ag9  1  0.914106  0.171788  0.532310  1
  Ag  Ag10  1  0.160254  0.679488  0.750000  1
  Ag  Ag11  1  0.914106  0.171788  0.967690  1
  Te  Te12  1  0.675714  0.648573  0.073219  1
  Te  Te13  1  0.937722  0.124556  0.118679  1
  Te  Te14  1  0.246209  0.507579  0.250000  1
  Te  Te15  1  0.937722  0.124556  0.381320  1
  Te  Te16  1  0.675714  0.648573  0.426782  1
  Te  Te17  1  0.324285  0.351427  0.573218  1
  Te  Te18  1  0.062278  0.875444  0.618680  1
  Te  Te19  1  0.753790  0.492420  0.750000  1
  Te  Te20  1  0.062278  0.875444  0.881321  1
  Te  Te21  1  0.324285  0.351427  0.926782  1
