# generated using pymatgen
data_Lu5TlRu2
_symmetry_space_group_name_H-M   'P 1'
_cell_length_a   8.63032339
_cell_length_b   8.63032266
_cell_length_c   8.63032200
_cell_angle_alpha   127.86233031
_cell_angle_beta   127.86231813
_cell_angle_gamma   76.84815714
_symmetry_Int_Tables_number   1
_chemical_formula_structural   Lu5TlRu2
_chemical_formula_sum   'Lu10 Tl2 Ru4'
_cell_volume   389.01189829
_cell_formula_units_Z   2
loop_
 _symmetry_equiv_pos_site_id
 _symmetry_equiv_pos_as_xyz
  1  'x, y, z'
loop_
 _atom_site_type_symbol
 _atom_site_label
 _atom_site_symmetry_multiplicity
 _atom_site_fract_x
 _atom_site_fract_y
 _atom_site_fract_z
 _atom_site_occupancy
  Lu  Lu0  1  0.000000  0.000000  0.000000  1
  Lu  Lu1  1  0.500000  0.500000  0.000000  1
  Lu  Lu2  1  0.789658  0.289658  0.817423  1
  Lu  Lu3  1  0.210342  0.710342  0.182577  1
  Lu  Lu4  1  0.472236  0.972236  0.182577  1
  Lu  Lu5  1  0.289658  0.472236  0.500000  1
  Lu  Lu6  1  0.027764  0.210342  0.500000  1
  Lu  Lu7  1  0.527764  0.027764  0.817423  1
  Lu  Lu8  1  0.710342  0.527764  0.500000  1
  Lu  Lu9  1  0.972236  0.789658  0.500000  1
  Tl  Tl10  1  0.250000  0.250000  0.000000  1
  Tl  Tl11  1  0.750000  0.750000  0.000000  1
  Ru  Ru12  1  0.141789  0.641789  0.783579  1
  Ru  Ru13  1  0.858211  0.358211  0.216421  1
  Ru  Ru14  1  0.641789  0.858211  0.500000  1
  Ru  Ru15  1  0.358211  0.141789  0.500000  1
