# generated using pymatgen
data_Y3HoSc4(ReB6)4
_symmetry_space_group_name_H-M   'P 1'
_cell_length_a   3.58780100
_cell_length_b   9.01920000
_cell_length_c   11.40022500
_cell_angle_alpha   90.00008970
_cell_angle_beta   90.00000000
_cell_angle_gamma   90.00000000
_symmetry_Int_Tables_number   1
_chemical_formula_structural   Y3HoSc4(ReB6)4
_chemical_formula_sum   'Y3 Ho1 Sc4 Re4 B24'
_cell_volume   368.90096128
_cell_formula_units_Z   1
loop_
 _symmetry_equiv_pos_site_id
 _symmetry_equiv_pos_as_xyz
  1  'x, y, z'
loop_
 _atom_site_type_symbol
 _atom_site_label
 _atom_site_symmetry_multiplicity
 _atom_site_fract_x
 _atom_site_fract_y
 _atom_site_fract_z
 _atom_site_occupancy
  Y  Y0  1  0.000000  0.321618  0.413954  1
  Y  Y1  1  0.000000  0.678341  0.586024  1
  Y  Y2  1  0.000000  0.821656  0.086027  1
  Ho  Ho3  1  0.000000  0.178249  0.913914  1
  Sc  Sc4  1  0.000000  0.944256  0.370345  1
  Sc  Sc5  1  0.000000  0.055774  0.629679  1
  Sc  Sc6  1  0.000000  0.444119  0.129643  1
  Sc  Sc7  1  0.000000  0.555748  0.870315  1
  Re  Re8  1  0.000000  0.640856  0.318446  1
  Re  Re9  1  0.000000  0.359038  0.681756  1
  Re  Re10  1  0.000000  0.140872  0.181370  1
  Re  Re11  1  0.000000  0.859438  0.818460  1
  B  B12  1  0.500000  0.554422  0.432538  1
  B  B13  1  0.500000  0.445565  0.567481  1
  B  B14  1  0.500000  0.054585  0.067238  1
  B  B15  1  0.500000  0.945873  0.932529  1
  B  B16  1  0.500000  0.754658  0.418483  1
  B  B17  1  0.500000  0.245345  0.581558  1
  B  B18  1  0.500000  0.254592  0.081225  1
  B  B19  1  0.500000  0.745341  0.918488  1
  B  B20  1  0.500000  0.795309  0.264992  1
  B  B21  1  0.500000  0.204663  0.735261  1
  B  B22  1  0.500000  0.295305  0.234936  1
  B  B23  1  0.500000  0.704676  0.765051  1
  B  B24  1  0.500000  0.629045  0.183127  1
  B  B25  1  0.500000  0.370661  0.817018  1
  B  B26  1  0.500000  0.129058  0.316821  1
  B  B27  1  0.500000  0.870988  0.683199  1
  B  B28  1  0.500000  0.981599  0.213794  1
  B  B29  1  0.500000  0.018672  0.786370  1
  B  B30  1  0.500000  0.481553  0.286151  1
  B  B31  1  0.500000  0.518387  0.713857  1
  B  B32  1  0.500000  0.595397  0.026122  1
  B  B33  1  0.500000  0.404317  0.973801  1
  B  B34  1  0.500000  0.095424  0.473895  1
  B  B35  1  0.500000  0.904599  0.526134  1
