# generated using pymatgen
data_Yb2Y6SbPd24
_symmetry_space_group_name_H-M   'P 1'
_cell_length_a   8.40490915
_cell_length_b   8.40266500
_cell_length_c   8.40490900
_cell_angle_alpha   90.00000000
_cell_angle_beta   89.98905199
_cell_angle_gamma   90.00000000
_symmetry_Int_Tables_number   1
_chemical_formula_structural   Yb2Y6SbPd24
_chemical_formula_sum   'Yb2 Y6 Sb1 Pd24'
_cell_volume   593.58522276
_cell_formula_units_Z   1
loop_
 _symmetry_equiv_pos_site_id
 _symmetry_equiv_pos_as_xyz
  1  'x, y, z'
loop_
 _atom_site_type_symbol
 _atom_site_label
 _atom_site_symmetry_multiplicity
 _atom_site_fract_x
 _atom_site_fract_y
 _atom_site_fract_z
 _atom_site_occupancy
  Yb  Yb0  1  0.252664  0.747463  0.252664  1
  Yb  Yb1  1  0.252664  0.252537  0.252664  1
  Y  Y2  1  0.746373  0.746216  0.253389  1
  Y  Y3  1  0.746510  0.253069  0.746510  1
  Y  Y4  1  0.253389  0.746217  0.746373  1
  Y  Y5  1  0.746510  0.746931  0.746510  1
  Y  Y6  1  0.746373  0.253784  0.253389  1
  Y  Y7  1  0.253389  0.253783  0.746373  1
  Sb  Sb8  1  0.001067  0.000000  0.001067  1
  Pd  Pd9  1  0.000846  0.000000  0.307977  1
  Pd  Pd10  1  0.734596  0.000000  0.500053  1
  Pd  Pd11  1  0.734546  0.500000  0.999082  1
  Pd  Pd12  1  0.500053  0.000000  0.734595  1
  Pd  Pd13  1  0.999732  0.734325  0.499964  1
  Pd  Pd14  1  0.499892  0.000000  0.265896  1
  Pd  Pd15  1  0.999732  0.265675  0.499964  1
  Pd  Pd16  1  0.499964  0.734325  0.999732  1
  Pd  Pd17  1  0.255059  0.500000  0.499323  1
  Pd  Pd18  1  0.500439  0.500000  0.744282  1
  Pd  Pd19  1  0.499322  0.500000  0.255059  1
  Pd  Pd20  1  0.499800  0.255421  0.499800  1
  Pd  Pd21  1  0.499800  0.744579  0.499800  1
  Pd  Pd22  1  0.744282  0.500000  0.500439  1
  Pd  Pd23  1  0.307977  0.000000  0.000846  1
  Pd  Pd24  1  0.000219  0.000000  0.692533  1
  Pd  Pd25  1  0.000221  0.500000  0.265952  1
  Pd  Pd26  1  0.000577  0.307828  0.000577  1
  Pd  Pd27  1  0.000577  0.692172  0.000577  1
  Pd  Pd28  1  0.692533  0.000000  0.000220  1
  Pd  Pd29  1  0.265952  0.500000  0.000220  1
  Pd  Pd30  1  0.265896  0.000000  0.499892  1
  Pd  Pd31  1  0.999082  0.500000  0.734546  1
  Pd  Pd32  1  0.499964  0.265675  0.999732  1
