# generated using pymatgen
data_Tb2ErCu5(Ni4B)2
_symmetry_space_group_name_H-M   'P 1'
_cell_length_a   5.01637300
_cell_length_b   5.01762382
_cell_length_c   10.87230700
_cell_angle_alpha   90.00000000
_cell_angle_beta   90.00000000
_cell_angle_gamma   119.99174748
_symmetry_Int_Tables_number   1
_chemical_formula_structural   Tb2ErCu5(Ni4B)2
_chemical_formula_sum   'Tb2 Er1 Cu5 Ni8 B2'
_cell_volume   237.01529214
_cell_formula_units_Z   1
loop_
 _symmetry_equiv_pos_site_id
 _symmetry_equiv_pos_as_xyz
  1  'x, y, z'
loop_
 _atom_site_type_symbol
 _atom_site_label
 _atom_site_symmetry_multiplicity
 _atom_site_fract_x
 _atom_site_fract_y
 _atom_site_fract_z
 _atom_site_occupancy
  Tb  Tb0  1  0.000000  0.000000  0.327860  1
  Tb  Tb1  1  0.000000  0.000000  0.672140  1
  Er  Er2  1  0.000000  0.000000  0.000000  1
  Cu  Cu3  1  0.500000  0.000000  0.500000  1
  Cu  Cu4  1  0.331504  0.663008  0.316450  1
  Cu  Cu5  1  0.668496  0.336992  0.316450  1
  Cu  Cu6  1  0.668496  0.336992  0.683550  1
  Cu  Cu7  1  0.331504  0.663008  0.683550  1
  Ni  Ni8  1  0.500000  0.500000  0.500000  1
  Ni  Ni9  1  0.000000  0.500000  0.500000  1
  Ni  Ni10  1  0.500000  0.000000  0.129703  1
  Ni  Ni11  1  0.500000  0.500000  0.129514  1
  Ni  Ni12  1  0.000000  0.500000  0.129514  1
  Ni  Ni13  1  0.500000  0.000000  0.870297  1
  Ni  Ni14  1  0.500000  0.500000  0.870486  1
  Ni  Ni15  1  0.000000  0.500000  0.870486  1
  B  B16  1  0.333577  0.667156  0.000000  1
  B  B17  1  0.666423  0.332844  0.000000  1
