# generated using pymatgen
data_Er4Lu(In2Ir)2
_symmetry_space_group_name_H-M   'P 1'
_cell_length_a   3.56652600
_cell_length_b   8.02048078
_cell_length_c   18.20041705
_cell_angle_alpha   90.07639945
_cell_angle_beta   90.00000000
_cell_angle_gamma   90.00000000
_symmetry_Int_Tables_number   1
_chemical_formula_structural   Er4Lu(In2Ir)2
_chemical_formula_sum   'Er8 Lu2 In8 Ir4'
_cell_volume   520.62707587
_cell_formula_units_Z   2
loop_
 _symmetry_equiv_pos_site_id
 _symmetry_equiv_pos_as_xyz
  1  'x, y, z'
loop_
 _atom_site_type_symbol
 _atom_site_label
 _atom_site_symmetry_multiplicity
 _atom_site_fract_x
 _atom_site_fract_y
 _atom_site_fract_z
 _atom_site_occupancy
  Er  Er0  1  0.000000  0.883264  0.087347  1
  Er  Er1  1  0.000000  0.755497  0.278938  1
  Er  Er2  1  0.000000  0.744320  0.778848  1
  Er  Er3  1  0.000000  0.382809  0.412826  1
  Er  Er4  1  0.000000  0.116992  0.912838  1
  Er  Er5  1  0.000000  0.244370  0.720861  1
  Er  Er6  1  0.000000  0.500036  0.999983  1
  Er  Er7  1  0.000000  0.999988  0.500036  1
  Lu  Lu8  1  0.000000  0.255416  0.221291  1
  Lu  Lu9  1  0.000000  0.616482  0.587808  1
  In  In10  1  0.500000  0.207916  0.067331  1
  In  In11  1  0.500000  0.427713  0.850844  1
  In  In12  1  0.500000  0.570937  0.148997  1
  In  In13  1  0.500000  0.073032  0.350748  1
  In  In14  1  0.500000  0.926166  0.648639  1
  In  In15  1  0.500000  0.792385  0.933236  1
  In  In16  1  0.500000  0.707006  0.433782  1
  In  In17  1  0.500000  0.293991  0.566671  1
  Ir  Ir18  1  0.500000  0.978553  0.196685  1
  Ir  Ir19  1  0.500000  0.023650  0.803488  1
  Ir  Ir20  1  0.500000  0.524355  0.695696  1
  Ir  Ir21  1  0.500000  0.475119  0.303108  1
