# generated using pymatgen
data_RePCl10
_symmetry_space_group_name_H-M   'P 1'
_cell_length_a   9.47998300
_cell_length_b   9.47998300
_cell_length_c   8.14126000
_cell_angle_alpha   90.00000000
_cell_angle_beta   90.00000000
_cell_angle_gamma   90.00000000
_symmetry_Int_Tables_number   1
_chemical_formula_structural   RePCl10
_chemical_formula_sum   'Re2 P2 Cl20'
_cell_volume   731.65566862
_cell_formula_units_Z   2
loop_
 _symmetry_equiv_pos_site_id
 _symmetry_equiv_pos_as_xyz
  1  'x, y, z'
loop_
 _atom_site_type_symbol
 _atom_site_label
 _atom_site_symmetry_multiplicity
 _atom_site_fract_x
 _atom_site_fract_y
 _atom_site_fract_z
 _atom_site_occupancy
  Re  Re0  1  0.000000  0.500000  0.609827  1
  Re  Re1  1  0.500000  0.000000  0.390173  1
  P  P2  1  0.000000  0.000000  0.000000  1
  P  P3  1  0.500000  0.500000  0.000000  1
  Cl  Cl4  1  0.336635  0.543054  0.139016  1
  Cl  Cl5  1  0.043054  0.163365  0.139016  1
  Cl  Cl6  1  0.956946  0.836635  0.139016  1
  Cl  Cl7  1  0.663365  0.456946  0.139016  1
  Cl  Cl8  1  0.163365  0.956946  0.860984  1
  Cl  Cl9  1  0.456946  0.336635  0.860984  1
  Cl  Cl10  1  0.543054  0.663365  0.860984  1
  Cl  Cl11  1  0.836635  0.043054  0.860984  1
  Cl  Cl12  1  0.000000  0.500000  0.897922  1
  Cl  Cl13  1  0.500000  0.000000  0.102078  1
  Cl  Cl14  1  0.000000  0.500000  0.318982  1
  Cl  Cl15  1  0.500000  0.000000  0.681018  1
  Cl  Cl16  1  0.227427  0.590414  0.608257  1
  Cl  Cl17  1  0.090414  0.272573  0.608257  1
  Cl  Cl18  1  0.909586  0.727427  0.608257  1
  Cl  Cl19  1  0.772573  0.409586  0.608257  1
  Cl  Cl20  1  0.272573  0.909586  0.391743  1
  Cl  Cl21  1  0.409586  0.227427  0.391743  1
  Cl  Cl22  1  0.590414  0.772573  0.391743  1
  Cl  Cl23  1  0.727427  0.090414  0.391743  1
