# generated using pymatgen
data_La8Nd12Si15Ir
_symmetry_space_group_name_H-M   'P 1'
_cell_length_a   7.92228885
_cell_length_b   7.92690349
_cell_length_c   15.29888900
_cell_angle_alpha   90.01818569
_cell_angle_beta   89.84272059
_cell_angle_gamma   90.00860786
_symmetry_Int_Tables_number   1
_chemical_formula_structural   La8Nd12Si15Ir
_chemical_formula_sum   'La8 Nd12 Si15 Ir1'
_cell_volume   960.75460343
_cell_formula_units_Z   1
loop_
 _symmetry_equiv_pos_site_id
 _symmetry_equiv_pos_as_xyz
  1  'x, y, z'
loop_
 _atom_site_type_symbol
 _atom_site_label
 _atom_site_symmetry_multiplicity
 _atom_site_fract_x
 _atom_site_fract_y
 _atom_site_fract_z
 _atom_site_occupancy
  La  La0  1  0.988159  0.623452  0.052381  1
  La  La1  1  0.014172  0.379930  0.547769  1
  La  La2  1  0.626775  0.986398  0.950003  1
  La  La3  1  0.126640  0.512233  0.800631  1
  La  La4  1  0.876652  0.489555  0.305688  1
  La  La5  1  0.512551  0.125909  0.198517  1
  La  La6  1  0.489550  0.876076  0.698049  1
  La  La7  1  0.375830  0.013461  0.451202  1
  Nd  Nd8  1  0.369917  0.484299  0.375544  1
  Nd  Nd9  1  0.875016  0.012912  0.376644  1
  Nd  Nd10  1  0.981754  0.128938  0.123918  1
  Nd  Nd11  1  0.023123  0.869723  0.621963  1
  Nd  Nd12  1  0.628127  0.518899  0.873467  1
  Nd  Nd13  1  0.483585  0.371784  0.625462  1
  Nd  Nd14  1  0.515933  0.627722  0.126373  1
  Nd  Nd15  1  0.126760  0.981641  0.876609  1
  Nd  Nd16  1  0.697377  0.693595  0.497477  1
  Nd  Nd17  1  0.809362  0.189635  0.748825  1
  Nd  Nd18  1  0.186270  0.803915  0.257399  1
  Nd  Nd19  1  0.305040  0.308732  0.999797  1
  Si  Si20  1  0.920486  0.286768  0.938555  1
  Si  Si21  1  0.712377  0.078641  0.560899  1
  Si  Si22  1  0.215983  0.420471  0.189733  1
  Si  Si23  1  0.787991  0.578124  0.689160  1
  Si  Si24  1  0.422558  0.213501  0.810706  1
  Si  Si25  1  0.575810  0.789114  0.309275  1
  Si  Si26  1  0.287401  0.923936  0.061230  1
  Si  Si27  1  0.832714  0.804880  0.797115  1
  Si  Si28  1  0.168229  0.196627  0.298206  1
  Si  Si29  1  0.799277  0.835635  0.199894  1
  Si  Si30  1  0.306497  0.668921  0.547459  1
  Si  Si31  1  0.694734  0.332944  0.046481  1
  Si  Si32  1  0.665134  0.301180  0.452177  1
  Si  Si33  1  0.330773  0.695186  0.953540  1
  Si  Si34  1  0.197617  0.168752  0.701098  1
  Ir  Ir35  1  0.069823  0.706512  0.436753  1
