# generated using pymatgen
data_Cs5As3O10
_symmetry_space_group_name_H-M   'P 1'
_cell_length_a   6.51697615
_cell_length_b   10.18129143
_cell_length_c   13.61762000
_cell_angle_alpha   93.98546257
_cell_angle_beta   89.98750689
_cell_angle_gamma   108.67919480
_symmetry_Int_Tables_number   1
_chemical_formula_structural   Cs5As3O10
_chemical_formula_sum   'Cs10 As6 O20'
_cell_volume   853.65086040
_cell_formula_units_Z   2
loop_
 _symmetry_equiv_pos_site_id
 _symmetry_equiv_pos_as_xyz
  1  'x, y, z'
loop_
 _atom_site_type_symbol
 _atom_site_label
 _atom_site_symmetry_multiplicity
 _atom_site_fract_x
 _atom_site_fract_y
 _atom_site_fract_z
 _atom_site_occupancy
  Cs  Cs0  1  0.000001  0.499996  0.000002  1
  Cs  Cs1  1  0.217617  0.928208  0.043681  1
  Cs  Cs2  1  0.432382  0.323540  0.201021  1
  Cs  Cs3  1  0.108787  0.676519  0.298962  1
  Cs  Cs4  1  0.289367  0.071779  0.456384  1
  Cs  Cs5  1  0.499998  0.500001  0.499998  1
  Cs  Cs6  1  0.710639  0.928222  0.543616  1
  Cs  Cs7  1  0.891219  0.323489  0.701040  1
  Cs  Cs8  1  0.567615  0.676460  0.798979  1
  Cs  Cs9  1  0.782378  0.071788  0.956318  1
  As  As10  1  0.656500  0.723652  0.109982  1
  As  As11  1  0.696531  0.000053  0.250024  1
  As  As12  1  0.932925  0.276476  0.390009  1
  As  As13  1  0.067076  0.723527  0.609990  1
  As  As14  1  0.303479  0.999950  0.749975  1
  As  As15  1  0.343500  0.276347  0.890018  1
  O  O16  1  0.235308  0.237154  0.002286  1
  O  O17  1  0.390378  0.708976  0.116561  1
  O  O18  1  0.732678  0.596957  0.158519  1
  O  O19  1  0.606954  0.081200  0.164287  1
  O  O20  1  0.818877  0.881949  0.190312  1
  O  O21  1  0.936984  0.118166  0.309711  1
  O  O22  1  0.525731  0.918793  0.335819  1
  O  O23  1  0.135741  0.403219  0.341398  1
  O  O24  1  0.681427  0.291025  0.383475  1
  O  O25  1  0.997914  0.762693  0.497759  1
  O  O26  1  0.002092  0.237314  0.502240  1
  O  O27  1  0.318570  0.708973  0.616525  1
  O  O28  1  0.864252  0.596785  0.658598  1
  O  O29  1  0.474280  0.081206  0.664189  1
  O  O30  1  0.063025  0.881838  0.690287  1
  O  O31  1  0.181126  0.118050  0.809688  1
  O  O32  1  0.393044  0.918792  0.835718  1
  O  O33  1  0.267324  0.403041  0.841480  1
  O  O34  1  0.609622  0.291021  0.883441  1
  O  O35  1  0.764687  0.762844  0.997714  1
