# generated using pymatgen
data_SrLu(SnPd)2
_symmetry_space_group_name_H-M   'P 1'
_cell_length_a   4.71865800
_cell_length_b   7.73842111
_cell_length_c   8.21714400
_cell_angle_alpha   90.07766867
_cell_angle_beta   90.00000000
_cell_angle_gamma   90.00000000
_symmetry_Int_Tables_number   1
_chemical_formula_structural   SrLu(SnPd)2
_chemical_formula_sum   'Sr2 Lu2 Sn4 Pd4'
_cell_volume   300.04843080
_cell_formula_units_Z   2
loop_
 _symmetry_equiv_pos_site_id
 _symmetry_equiv_pos_as_xyz
  1  'x, y, z'
loop_
 _atom_site_type_symbol
 _atom_site_label
 _atom_site_symmetry_multiplicity
 _atom_site_fract_x
 _atom_site_fract_y
 _atom_site_fract_z
 _atom_site_occupancy
  Sr  Sr0  1  0.250000  0.498227  0.249440  1
  Sr  Sr1  1  0.750000  0.501773  0.750560  1
  Lu  Lu2  1  0.250000  0.999464  0.249902  1
  Lu  Lu3  1  0.750000  0.000536  0.750098  1
  Sn  Sn4  1  0.250000  0.790608  0.584556  1
  Sn  Sn5  1  0.750000  0.790134  0.084084  1
  Sn  Sn6  1  0.250000  0.209866  0.915916  1
  Sn  Sn7  1  0.750000  0.209392  0.415444  1
  Pd  Pd8  1  0.750000  0.174085  0.083645  1
  Pd  Pd9  1  0.250000  0.175604  0.583563  1
  Pd  Pd10  1  0.750000  0.824396  0.416437  1
  Pd  Pd11  1  0.250000  0.825915  0.916355  1
