# generated using pymatgen
data_Nd6Tc16F
_symmetry_space_group_name_H-M   'P 1'
_cell_length_a   8.19539219
_cell_length_b   8.19539233
_cell_length_c   8.19539200
_cell_angle_alpha   109.47121734
_cell_angle_beta   109.47121768
_cell_angle_gamma   109.47122324
_symmetry_Int_Tables_number   1
_chemical_formula_structural   Nd6Tc16F
_chemical_formula_sum   'Nd6 Tc16 F1'
_cell_volume   423.72818344
_cell_formula_units_Z   1
loop_
 _symmetry_equiv_pos_site_id
 _symmetry_equiv_pos_as_xyz
  1  'x, y, z'
loop_
 _atom_site_type_symbol
 _atom_site_label
 _atom_site_symmetry_multiplicity
 _atom_site_fract_x
 _atom_site_fract_y
 _atom_site_fract_z
 _atom_site_occupancy
  Nd  Nd0  1  0.273515  0.000000  0.273515  1
  Nd  Nd1  1  0.000000  0.273515  0.273515  1
  Nd  Nd2  1  0.000000  0.726485  0.726485  1
  Nd  Nd3  1  0.273515  0.273515  0.000000  1
  Nd  Nd4  1  0.726485  0.726485  0.000000  1
  Nd  Nd5  1  0.726485  0.000000  0.726485  1
  Tc  Tc6  1  0.000000  0.000000  0.500000  1
  Tc  Tc7  1  0.500000  0.000000  0.000000  1
  Tc  Tc8  1  0.000000  0.500000  0.000000  1
  Tc  Tc9  1  0.500000  0.500000  0.500000  1
  Tc  Tc10  1  0.339302  0.000000  0.660698  1
  Tc  Tc11  1  0.678605  0.339302  0.339302  1
  Tc  Tc12  1  0.000000  0.339302  0.660698  1
  Tc  Tc13  1  0.660698  0.660698  0.321395  1
  Tc  Tc14  1  0.339302  0.660698  0.000000  1
  Tc  Tc15  1  0.339302  0.678605  0.339302  1
  Tc  Tc16  1  0.660698  0.321395  0.660698  1
  Tc  Tc17  1  0.339302  0.339302  0.678605  1
  Tc  Tc18  1  0.321395  0.660698  0.660698  1
  Tc  Tc19  1  0.660698  0.339302  0.000000  1
  Tc  Tc20  1  0.000000  0.660698  0.339302  1
  Tc  Tc21  1  0.660698  0.000000  0.339302  1
  F  F22  1  0.000000  0.000000  0.000000  1
