# generated using pymatgen
data_Nd8Re3RuC8
_symmetry_space_group_name_H-M   'P 1'
_cell_length_a   5.36233700
_cell_length_b   6.70320314
_cell_length_c   10.19630373
_cell_angle_alpha   90.05585031
_cell_angle_beta   90.00000000
_cell_angle_gamma   90.00000000
_symmetry_Int_Tables_number   1
_chemical_formula_structural   Nd8Re3RuC8
_chemical_formula_sum   'Nd8 Re3 Ru1 C8'
_cell_volume   366.50427333
_cell_formula_units_Z   1
loop_
 _symmetry_equiv_pos_site_id
 _symmetry_equiv_pos_as_xyz
  1  'x, y, z'
loop_
 _atom_site_type_symbol
 _atom_site_label
 _atom_site_symmetry_multiplicity
 _atom_site_fract_x
 _atom_site_fract_y
 _atom_site_fract_z
 _atom_site_occupancy
  Nd  Nd0  1  0.250000  0.473820  0.785933  1
  Nd  Nd1  1  0.750000  0.026853  0.287270  1
  Nd  Nd2  1  0.250000  0.974603  0.713990  1
  Nd  Nd3  1  0.750000  0.525286  0.212012  1
  Nd  Nd4  1  0.250000  0.815689  0.049739  1
  Nd  Nd5  1  0.750000  0.688063  0.550873  1
  Nd  Nd6  1  0.250000  0.311840  0.448529  1
  Nd  Nd7  1  0.750000  0.188299  0.948672  1
  Re  Re8  1  0.750000  0.229729  0.641533  1
  Re  Re9  1  0.250000  0.770044  0.356869  1
  Re  Re10  1  0.750000  0.729794  0.858390  1
  Ru  Ru11  1  0.250000  0.269488  0.142541  1
  C  C12  1  0.250000  0.686029  0.537311  1
  C  C13  1  0.750000  0.813555  0.039244  1
  C  C14  1  0.250000  0.184810  0.963796  1
  C  C15  1  0.750000  0.313511  0.461008  1
  C  C16  1  0.250000  0.033002  0.258606  1
  C  C17  1  0.750000  0.465886  0.758135  1
  C  C18  1  0.250000  0.534280  0.243759  1
  C  C19  1  0.750000  0.965417  0.741790  1
