# generated using pymatgen
data_Tb2Nd3Tm3(CdIr)2
_symmetry_space_group_name_H-M   'P 1'
_cell_length_a   9.71529005
_cell_length_b   9.71529086
_cell_length_c   9.71529000
_cell_angle_alpha   60.00000294
_cell_angle_beta   60.00000016
_cell_angle_gamma   60.00000092
_symmetry_Int_Tables_number   1
_chemical_formula_structural   Tb2Nd3Tm3(CdIr)2
_chemical_formula_sum   'Tb4 Nd6 Tm6 Cd4 Ir4'
_cell_volume   648.41396882
_cell_formula_units_Z   2
loop_
 _symmetry_equiv_pos_site_id
 _symmetry_equiv_pos_as_xyz
  1  'x, y, z'
loop_
 _atom_site_type_symbol
 _atom_site_label
 _atom_site_symmetry_multiplicity
 _atom_site_fract_x
 _atom_site_fract_y
 _atom_site_fract_z
 _atom_site_occupancy
  Tb  Tb0  1  0.348413  0.348413  0.348413  1
  Tb  Tb1  1  0.348413  0.348413  0.954761  1
  Tb  Tb2  1  0.348413  0.954761  0.348413  1
  Tb  Tb3  1  0.954761  0.348413  0.348413  1
  Nd  Nd4  1  0.940582  0.559418  0.559418  1
  Nd  Nd5  1  0.559418  0.940582  0.940582  1
  Nd  Nd6  1  0.559418  0.940582  0.559418  1
  Nd  Nd7  1  0.940582  0.559418  0.940582  1
  Nd  Nd8  1  0.559418  0.559418  0.940582  1
  Nd  Nd9  1  0.940582  0.940582  0.559418  1
  Tm  Tm10  1  0.814344  0.185656  0.185656  1
  Tm  Tm11  1  0.185656  0.814344  0.814344  1
  Tm  Tm12  1  0.185656  0.814344  0.185656  1
  Tm  Tm13  1  0.814344  0.185656  0.814344  1
  Tm  Tm14  1  0.185656  0.185656  0.814344  1
  Tm  Tm15  1  0.814344  0.814344  0.185656  1
  Cd  Cd16  1  0.579338  0.579338  0.579338  1
  Cd  Cd17  1  0.579338  0.579338  0.261983  1
  Cd  Cd18  1  0.579338  0.261983  0.579338  1
  Cd  Cd19  1  0.261983  0.579338  0.579338  1
  Ir  Ir20  1  0.140359  0.140359  0.140359  1
  Ir  Ir21  1  0.140359  0.140359  0.578924  1
  Ir  Ir22  1  0.140359  0.578924  0.140359  1
  Ir  Ir23  1  0.578924  0.140359  0.140359  1
