# generated using pymatgen
data_DyPRh2
_symmetry_space_group_name_H-M   'P 1'
_cell_length_a   9.16993430
_cell_length_b   9.16993518
_cell_length_c   3.98079100
_cell_angle_alpha   90.00000000
_cell_angle_beta   90.00000000
_cell_angle_gamma   155.51874659
_symmetry_Int_Tables_number   1
_chemical_formula_structural   DyPRh2
_chemical_formula_sum   'Dy2 P2 Rh4'
_cell_volume   138.71291145
_cell_formula_units_Z   2
loop_
 _symmetry_equiv_pos_site_id
 _symmetry_equiv_pos_as_xyz
  1  'x, y, z'
loop_
 _atom_site_type_symbol
 _atom_site_label
 _atom_site_symmetry_multiplicity
 _atom_site_fract_x
 _atom_site_fract_y
 _atom_site_fract_z
 _atom_site_occupancy
  Dy  Dy0  1  0.100834  0.899166  0.750000  1
  Dy  Dy1  1  0.899166  0.100834  0.250000  1
  P  P2  1  0.326484  0.673516  0.750000  1
  P  P3  1  0.673516  0.326484  0.250000  1
  Rh  Rh4  1  0.547061  0.452939  0.250000  1
  Rh  Rh5  1  0.452939  0.547061  0.750000  1
  Rh  Rh6  1  0.250254  0.749746  0.250000  1
  Rh  Rh7  1  0.749746  0.250254  0.750000  1
