# generated using pymatgen
data_Dy4Ti3VCd4(SbO7)4
_symmetry_space_group_name_H-M   'P 1'
_cell_length_a   7.29488600
_cell_length_b   7.29488600
_cell_length_c   10.34418100
_cell_angle_alpha   90.00000000
_cell_angle_beta   90.00000000
_cell_angle_gamma   90.00000000
_symmetry_Int_Tables_number   1
_chemical_formula_structural   Dy4Ti3VCd4(SbO7)4
_chemical_formula_sum   'Dy4 Ti3 V1 Cd4 Sb4 O28'
_cell_volume   550.46933395
_cell_formula_units_Z   1
loop_
 _symmetry_equiv_pos_site_id
 _symmetry_equiv_pos_as_xyz
  1  'x, y, z'
loop_
 _atom_site_type_symbol
 _atom_site_label
 _atom_site_symmetry_multiplicity
 _atom_site_fract_x
 _atom_site_fract_y
 _atom_site_fract_z
 _atom_site_occupancy
  Dy  Dy0  1  0.999843  0.733625  0.000228  1
  Dy  Dy1  1  0.263598  0.000000  0.250000  1
  Dy  Dy2  1  0.999843  0.266375  0.499772  1
  Dy  Dy3  1  0.732549  0.000000  0.750000  1
  Ti  Ti4  1  0.999682  0.765431  0.499145  1
  Ti  Ti5  1  0.235702  0.000000  0.750000  1
  Ti  Ti6  1  0.999682  0.234569  0.000855  1
  V  V7  1  0.761284  0.000000  0.250000  1
  Cd  Cd8  1  0.500555  0.742210  0.000313  1
  Cd  Cd9  1  0.500555  0.257790  0.499687  1
  Cd  Cd10  1  0.742445  0.500000  0.750000  1
  Cd  Cd11  1  0.257798  0.500000  0.250000  1
  Sb  Sb12  1  0.242490  0.500000  0.750000  1
  Sb  Sb13  1  0.500446  0.757620  0.499588  1
  Sb  Sb14  1  0.500446  0.242380  0.000412  1
  Sb  Sb15  1  0.757542  0.500000  0.250000  1
  O  O16  1  0.251088  0.748563  0.125076  1
  O  O17  1  0.551191  0.949740  0.366647  1
  O  O18  1  0.749419  0.250916  0.625509  1
  O  O19  1  0.954272  0.955998  0.373841  1
  O  O20  1  0.052399  0.448888  0.883084  1
  O  O21  1  0.046681  0.046533  0.875321  1
  O  O22  1  0.046681  0.953467  0.624679  1
  O  O23  1  0.249963  0.230234  0.075394  1
  O  O24  1  0.231815  0.249380  0.675232  1
  O  O25  1  0.249963  0.769766  0.424606  1
  O  O26  1  0.449414  0.449068  0.875187  1
  O  O27  1  0.449754  0.051929  0.867689  1
  O  O28  1  0.449754  0.948071  0.632311  1
  O  O29  1  0.550825  0.551001  0.374843  1
  O  O30  1  0.551191  0.050260  0.133353  1
  O  O31  1  0.550825  0.448999  0.125157  1
  O  O32  1  0.750780  0.768999  0.574377  1
  O  O33  1  0.749419  0.749084  0.874491  1
  O  O34  1  0.767425  0.248512  0.326148  1
  O  O35  1  0.767425  0.751488  0.173852  1
  O  O36  1  0.750780  0.231001  0.925623  1
  O  O37  1  0.947744  0.550139  0.382778  1
  O  O38  1  0.947744  0.449861  0.117222  1
  O  O39  1  0.954272  0.044002  0.126159  1
  O  O40  1  0.052399  0.551112  0.616916  1
  O  O41  1  0.251088  0.251437  0.374924  1
  O  O42  1  0.231815  0.750620  0.824768  1
  O  O43  1  0.449414  0.550932  0.624813  1
