# generated using pymatgen
data_Ca3NdAl18GaIr5
_symmetry_space_group_name_H-M   'P 1'
_cell_length_a   7.62510827
_cell_length_b   7.62541698
_cell_length_c   9.61190548
_cell_angle_alpha   90.07321689
_cell_angle_beta   89.91038790
_cell_angle_gamma   119.46045813
_symmetry_Int_Tables_number   1
_chemical_formula_structural   Ca3NdAl18GaIr5
_chemical_formula_sum   'Ca3 Nd1 Al18 Ga1 Ir5'
_cell_volume   486.61412639
_cell_formula_units_Z   1
loop_
 _symmetry_equiv_pos_site_id
 _symmetry_equiv_pos_as_xyz
  1  'x, y, z'
loop_
 _atom_site_type_symbol
 _atom_site_label
 _atom_site_symmetry_multiplicity
 _atom_site_fract_x
 _atom_site_fract_y
 _atom_site_fract_z
 _atom_site_occupancy
  Ca  Ca0  1  0.996236  0.677011  0.250064  1
  Ca  Ca1  1  0.002559  0.322469  0.749868  1
  Ca  Ca2  1  0.678900  0.997574  0.250520  1
  Nd  Nd3  1  0.322136  0.001462  0.751828  1
  Al  Al4  1  0.140998  0.142150  0.260988  1
  Al  Al5  1  0.858626  0.858233  0.738572  1
  Al  Al6  1  0.002814  0.348354  0.078445  1
  Al  Al7  1  0.995055  0.649465  0.922116  1
  Al  Al8  1  0.999003  0.661471  0.567302  1
  Al  Al9  1  0.336379  0.998454  0.428489  1
  Al  Al10  1  0.998368  0.336038  0.431255  1
  Al  Al11  1  0.665081  0.001752  0.568166  1
  Al  Al12  1  0.654968  0.997228  0.922443  1
  Al  Al13  1  0.349929  0.002744  0.081485  1
  Al  Al14  1  0.332538  0.333959  0.546329  1
  Al  Al15  1  0.667088  0.667868  0.452261  1
  Al  Al16  1  0.653198  0.653302  0.059319  1
  Al  Al17  1  0.345545  0.347506  0.941086  1
  Al  Al18  1  0.339409  0.552468  0.251991  1
  Al  Al19  1  0.659937  0.449068  0.748257  1
  Al  Al20  1  0.552247  0.340442  0.251995  1
  Al  Al21  1  0.449519  0.661468  0.748205  1
  Ga  Ga22  1  0.001386  0.000185  0.998529  1
  Ir  Ir23  1  0.669647  0.328653  0.000046  1
  Ir  Ir24  1  0.329108  0.670978  0.999897  1
  Ir  Ir25  1  0.329644  0.670614  0.500502  1
  Ir  Ir26  1  0.668994  0.329335  0.500093  1
  Ir  Ir27  1  0.000688  0.999750  0.499951  1
