# generated using pymatgen
data_TbYHo2(B6Ru)2
_symmetry_space_group_name_H-M   'P 1'
_cell_length_a   3.66204500
_cell_length_b   9.14755203
_cell_length_c   11.53054703
_cell_angle_alpha   90.00873345
_cell_angle_beta   90.00000000
_cell_angle_gamma   90.00000000
_symmetry_Int_Tables_number   1
_chemical_formula_structural   TbYHo2(B6Ru)2
_chemical_formula_sum   'Tb2 Y2 Ho4 B24 Ru4'
_cell_volume   386.25887522
_cell_formula_units_Z   2
loop_
 _symmetry_equiv_pos_site_id
 _symmetry_equiv_pos_as_xyz
  1  'x, y, z'
loop_
 _atom_site_type_symbol
 _atom_site_label
 _atom_site_symmetry_multiplicity
 _atom_site_fract_x
 _atom_site_fract_y
 _atom_site_fract_z
 _atom_site_occupancy
  Tb  Tb0  1  0.000000  0.322745  0.414005  1
  Tb  Tb1  1  0.000000  0.677255  0.585995  1
  Y  Y2  1  0.000000  0.822460  0.085869  1
  Y  Y3  1  0.000000  0.177540  0.914131  1
  Ho  Ho4  1  0.000000  0.943757  0.372263  1
  Ho  Ho5  1  0.000000  0.056243  0.627737  1
  Ho  Ho6  1  0.000000  0.443795  0.127666  1
  Ho  Ho7  1  0.000000  0.556205  0.872334  1
  B  B8  1  0.500000  0.554359  0.432662  1
  B  B9  1  0.500000  0.445641  0.567338  1
  B  B10  1  0.500000  0.054244  0.067174  1
  B  B11  1  0.500000  0.945756  0.932826  1
  B  B12  1  0.500000  0.748325  0.419448  1
  B  B13  1  0.500000  0.251675  0.580552  1
  B  B14  1  0.500000  0.248269  0.080472  1
  B  B15  1  0.500000  0.751731  0.919528  1
  B  B16  1  0.500000  0.791097  0.266278  1
  B  B17  1  0.500000  0.208903  0.733722  1
  B  B18  1  0.500000  0.290995  0.233621  1
  B  B19  1  0.500000  0.709005  0.766379  1
  B  B20  1  0.500000  0.631760  0.185113  1
  B  B21  1  0.500000  0.368240  0.814887  1
  B  B22  1  0.500000  0.131737  0.314826  1
  B  B23  1  0.500000  0.868263  0.685174  1
  B  B24  1  0.500000  0.983773  0.213033  1
  B  B25  1  0.500000  0.016227  0.786967  1
  B  B26  1  0.500000  0.483912  0.286893  1
  B  B27  1  0.500000  0.516088  0.713107  1
  B  B28  1  0.500000  0.607651  0.029679  1
  B  B29  1  0.500000  0.392349  0.970321  1
  B  B30  1  0.500000  0.107337  0.470410  1
  B  B31  1  0.500000  0.892663  0.529590  1
  Ru  Ru32  1  0.000000  0.638122  0.320829  1
  Ru  Ru33  1  0.000000  0.361878  0.679171  1
  Ru  Ru34  1  0.000000  0.138012  0.179114  1
  Ru  Ru35  1  0.000000  0.861988  0.820886  1
