# generated using pymatgen
data_Tm4Re16Si7Ge
_symmetry_space_group_name_H-M   'P 1'
_cell_length_a   4.12738500
_cell_length_b   7.30840477
_cell_length_c   15.30506713
_cell_angle_alpha   89.91248355
_cell_angle_beta   90.00000000
_cell_angle_gamma   90.00000000
_symmetry_Int_Tables_number   1
_chemical_formula_structural   Tm4Re16Si7Ge
_chemical_formula_sum   'Tm4 Re16 Si7 Ge1'
_cell_volume   461.67069309
_cell_formula_units_Z   1
loop_
 _symmetry_equiv_pos_site_id
 _symmetry_equiv_pos_as_xyz
  1  'x, y, z'
loop_
 _atom_site_type_symbol
 _atom_site_label
 _atom_site_symmetry_multiplicity
 _atom_site_fract_x
 _atom_site_fract_y
 _atom_site_fract_z
 _atom_site_occupancy
  Tm  Tm0  1  0.000000  0.578258  0.118463  1
  Tm  Tm1  1  0.000000  0.420156  0.881509  1
  Tm  Tm2  1  0.500000  0.083400  0.379837  1
  Tm  Tm3  1  0.500000  0.922857  0.621550  1
  Re  Re4  1  0.000000  0.142491  0.050309  1
  Re  Re5  1  0.000000  0.854308  0.949407  1
  Re  Re6  1  0.500000  0.638755  0.447654  1
  Re  Re7  1  0.500000  0.356404  0.551243  1
  Re  Re8  1  0.000000  0.732259  0.321274  1
  Re  Re9  1  0.000000  0.265398  0.678477  1
  Re  Re10  1  0.500000  0.232687  0.176776  1
  Re  Re11  1  0.500000  0.764672  0.823209  1
  Re  Re12  1  0.000000  0.427630  0.417164  1
  Re  Re13  1  0.000000  0.569458  0.582746  1
  Re  Re14  1  0.500000  0.927430  0.081740  1
  Re  Re15  1  0.500000  0.070302  0.917616  1
  Re  Re16  1  0.000000  0.985024  0.205074  1
  Re  Re17  1  0.000000  0.013785  0.794968  1
  Re  Re18  1  0.500000  0.484493  0.292943  1
  Re  Re19  1  0.500000  0.514608  0.706078  1
  Si  Si20  1  0.000000  0.170786  0.523516  1
  Si  Si21  1  0.500000  0.335736  0.021672  1
  Si  Si22  1  0.500000  0.661489  0.978235  1
  Si  Si23  1  0.000000  0.286580  0.272121  1
  Si  Si24  1  0.000000  0.712594  0.727696  1
  Si  Si25  1  0.500000  0.785842  0.226422  1
  Si  Si26  1  0.500000  0.213847  0.773488  1
  Ge  Ge27  1  0.000000  0.848752  0.478812  1
