# generated using pymatgen
data_Eu2CrFeF10
_symmetry_space_group_name_H-M   'P 1'
_cell_length_a   5.73461274
_cell_length_b   5.76607083
_cell_length_c   7.93491986
_cell_angle_alpha   69.36073545
_cell_angle_beta   70.21468263
_cell_angle_gamma   71.78112497
_symmetry_Int_Tables_number   1
_chemical_formula_structural   Eu2CrFeF10
_chemical_formula_sum   'Eu2 Cr1 Fe1 F10'
_cell_volume   225.40560601
_cell_formula_units_Z   1
loop_
 _symmetry_equiv_pos_site_id
 _symmetry_equiv_pos_as_xyz
  1  'x, y, z'
loop_
 _atom_site_type_symbol
 _atom_site_label
 _atom_site_symmetry_multiplicity
 _atom_site_fract_x
 _atom_site_fract_y
 _atom_site_fract_z
 _atom_site_occupancy
  Eu  Eu0  1  0.449742  0.548752  0.254510  1
  Eu  Eu1  1  0.550258  0.451248  0.745490  1
  Cr  Cr2  1  0.000000  0.000000  0.000000  1
  Fe  Fe3  1  0.000000  0.000000  0.500000  1
  F  F4  1  0.210555  0.258027  0.376075  1
  F  F5  1  0.752284  0.792613  0.115479  1
  F  F6  1  0.789445  0.741973  0.623925  1
  F  F7  1  0.247716  0.207387  0.884521  1
  F  F8  1  0.083509  0.915684  0.236912  1
  F  F9  1  0.916491  0.084316  0.763088  1
  F  F10  1  0.278897  0.698742  0.965701  1
  F  F11  1  0.321853  0.703980  0.524170  1
  F  F12  1  0.721103  0.301258  0.034299  1
  F  F13  1  0.678147  0.296020  0.475830  1
