# generated using pymatgen
data_Cs3Nb2Br10N
_symmetry_space_group_name_H-M   'P 1'
_cell_length_a   7.83342100
_cell_length_b   7.83342100
_cell_length_c   20.33030200
_cell_angle_alpha   90.00000000
_cell_angle_beta   90.00000000
_cell_angle_gamma   90.00000000
_symmetry_Int_Tables_number   1
_chemical_formula_structural   Cs3Nb2Br10N
_chemical_formula_sum   'Cs6 Nb4 Br20 N2'
_cell_volume   1247.51784264
_cell_formula_units_Z   2
loop_
 _symmetry_equiv_pos_site_id
 _symmetry_equiv_pos_as_xyz
  1  'x, y, z'
loop_
 _atom_site_type_symbol
 _atom_site_label
 _atom_site_symmetry_multiplicity
 _atom_site_fract_x
 _atom_site_fract_y
 _atom_site_fract_z
 _atom_site_occupancy
  Cs  Cs0  1  0.500000  0.500000  0.000000  1
  Cs  Cs1  1  0.000000  0.000000  0.500000  1
  Cs  Cs2  1  0.000000  0.500000  0.250000  1
  Cs  Cs3  1  0.500000  0.000000  0.750000  1
  Cs  Cs4  1  0.500000  0.000000  0.250000  1
  Cs  Cs5  1  0.000000  0.500000  0.750000  1
  Nb  Nb6  1  0.500000  0.500000  0.407411  1
  Nb  Nb7  1  0.000000  0.000000  0.907411  1
  Nb  Nb8  1  0.500000  0.500000  0.592589  1
  Nb  Nb9  1  0.000000  0.000000  0.092589  1
  Br  Br10  1  0.773971  0.679712  0.398623  1
  Br  Br11  1  0.226029  0.320288  0.398623  1
  Br  Br12  1  0.726029  0.179712  0.898623  1
  Br  Br13  1  0.273971  0.820288  0.898623  1
  Br  Br14  1  0.679712  0.226029  0.398623  1
  Br  Br15  1  0.320288  0.773971  0.398623  1
  Br  Br16  1  0.179712  0.273971  0.898623  1
  Br  Br17  1  0.820288  0.726029  0.898623  1
  Br  Br18  1  0.226029  0.320288  0.601377  1
  Br  Br19  1  0.773971  0.679712  0.601377  1
  Br  Br20  1  0.273971  0.820288  0.101377  1
  Br  Br21  1  0.726029  0.179712  0.101377  1
  Br  Br22  1  0.320288  0.773971  0.601377  1
  Br  Br23  1  0.679712  0.226029  0.601377  1
  Br  Br24  1  0.820288  0.726029  0.101377  1
  Br  Br25  1  0.179712  0.273971  0.101377  1
  Br  Br26  1  0.500000  0.500000  0.268385  1
  Br  Br27  1  0.000000  0.000000  0.768385  1
  Br  Br28  1  0.500000  0.500000  0.731615  1
  Br  Br29  1  0.000000  0.000000  0.231615  1
  N  N30  1  0.500000  0.500000  0.500000  1
  N  N31  1  0.000000  0.000000  0.000000  1
