# generated using pymatgen
data_La2Cu18Si7Sn
_symmetry_space_group_name_H-M   'P 1'
_cell_length_a   8.25832300
_cell_length_b   8.25832224
_cell_length_c   8.24646173
_cell_angle_alpha   120.53957324
_cell_angle_beta   120.53957188
_cell_angle_gamma   88.84686899
_symmetry_Int_Tables_number   1
_chemical_formula_structural   La2Cu18Si7Sn
_chemical_formula_sum   'La2 Cu18 Si7 Sn1'
_cell_volume   395.12433184
_cell_formula_units_Z   1
loop_
 _symmetry_equiv_pos_site_id
 _symmetry_equiv_pos_as_xyz
  1  'x, y, z'
loop_
 _atom_site_type_symbol
 _atom_site_label
 _atom_site_symmetry_multiplicity
 _atom_site_fract_x
 _atom_site_fract_y
 _atom_site_fract_z
 _atom_site_occupancy
  La  La0  1  0.746512  0.751432  0.001230  1
  La  La1  1  0.251432  0.246512  0.001230  1
  Cu  Cu2  1  0.064324  0.203794  0.267152  1
  Cu  Cu3  1  0.935081  0.802820  0.730003  1
  Cu  Cu4  1  0.563943  0.296210  0.865040  1
  Cu  Cu5  1  0.447538  0.707936  0.142062  1
  Cu  Cu6  1  0.796210  0.063943  0.865040  1
  Cu  Cu7  1  0.207936  0.947538  0.142062  1
  Cu  Cu8  1  0.703794  0.564324  0.267152  1
  Cu  Cu9  1  0.302820  0.435081  0.730003  1
  Cu  Cu10  1  0.443020  0.943020  0.749792  1
  Cu  Cu11  1  0.209455  0.709455  0.284530  1
  Cu  Cu12  1  0.938360  0.180362  0.485725  1
  Cu  Cu13  1  0.680362  0.438360  0.485725  1
  Cu  Cu14  1  0.558711  0.058711  0.251759  1
  Cu  Cu15  1  0.785092  0.285092  0.730769  1
  Cu  Cu16  1  0.056171  0.810907  0.502377  1
  Cu  Cu17  1  0.310907  0.556171  0.502377  1
  Cu  Cu18  1  0.000398  0.500398  0.491799  1
  Cu  Cu19  1  0.496914  0.996914  0.498028  1
  Si  Si20  1  0.708017  0.208017  0.151406  1
  Si  Si21  1  0.559411  0.709476  0.502885  1
  Si  Si22  1  0.209476  0.059411  0.502885  1
  Si  Si23  1  0.944949  0.444949  0.146015  1
  Si  Si24  1  0.295090  0.795090  0.848154  1
  Si  Si25  1  0.441285  0.290035  0.497949  1
  Si  Si26  1  0.790035  0.941285  0.497949  1
  Sn  Sn27  1  0.052755  0.552755  0.858903  1
