# generated using pymatgen
data_Dy7HoTi12Si15As
_symmetry_space_group_name_H-M   'P 1'
_cell_length_a   7.05287974
_cell_length_b   7.04534560
_cell_length_c   12.95545517
_cell_angle_alpha   89.99540830
_cell_angle_beta   89.83252030
_cell_angle_gamma   89.93791611
_symmetry_Int_Tables_number   1
_chemical_formula_structural   Dy7HoTi12Si15As
_chemical_formula_sum   'Dy7 Ho1 Ti12 Si15 As1'
_cell_volume   643.75311651
_cell_formula_units_Z   1
loop_
 _symmetry_equiv_pos_site_id
 _symmetry_equiv_pos_as_xyz
  1  'x, y, z'
loop_
 _atom_site_type_symbol
 _atom_site_label
 _atom_site_symmetry_multiplicity
 _atom_site_fract_x
 _atom_site_fract_y
 _atom_site_fract_z
 _atom_site_occupancy
  Dy  Dy0  1  0.341657  0.002065  0.466069  1
  Dy  Dy1  1  0.497050  0.842114  0.717350  1
  Dy  Dy2  1  0.502511  0.158978  0.216441  1
  Dy  Dy3  1  0.840664  0.497031  0.283169  1
  Dy  Dy4  1  0.158755  0.501909  0.783439  1
  Dy  Dy5  1  0.660305  0.995202  0.967417  1
  Dy  Dy6  1  0.000161  0.343232  0.532043  1
  Ho  Ho7  1  0.998110  0.659047  0.033524  1
  Ti  Ti8  1  0.325774  0.326529  0.999701  1
  Ti  Ti9  1  0.173181  0.826923  0.249982  1
  Ti  Ti10  1  0.823790  0.173613  0.750262  1
  Ti  Ti11  1  0.673216  0.673082  0.500050  1
  Ti  Ti12  1  0.153770  0.009015  0.875609  1
  Ti  Ti13  1  0.491772  0.651702  0.125765  1
  Ti  Ti14  1  0.509131  0.347888  0.626951  1
  Ti  Ti15  1  0.654024  0.494246  0.874725  1
  Ti  Ti16  1  0.347538  0.507832  0.373920  1
  Ti  Ti17  1  0.847601  0.992209  0.375732  1
  Ti  Ti18  1  0.008007  0.151605  0.124096  1
  Ti  Ti19  1  0.989885  0.844282  0.623272  1
  Si  Si20  1  0.368385  0.703110  0.933978  1
  Si  Si21  1  0.629864  0.297708  0.434571  1
  Si  Si22  1  0.702979  0.369722  0.065954  1
  Si  Si23  1  0.297424  0.630728  0.565904  1
  Si  Si24  1  0.797305  0.869303  0.184417  1
  Si  Si25  1  0.130750  0.202652  0.315955  1
  Si  Si26  1  0.870216  0.797693  0.815495  1
  Si  Si27  1  0.290492  0.952560  0.064514  1
  Si  Si28  1  0.547292  0.790316  0.314579  1
  Si  Si29  1  0.460812  0.211361  0.819304  1
  Si  Si30  1  0.790597  0.547186  0.685226  1
  Si  Si31  1  0.209101  0.452792  0.185291  1
  Si  Si32  1  0.709063  0.046377  0.564266  1
  Si  Si33  1  0.953490  0.290742  0.935564  1
  Si  Si34  1  0.047198  0.709957  0.434966  1
  As  As35  1  0.198132  0.129285  0.680499  1
