# generated using pymatgen
data_Ho5Tm11InAg3Rh4
_symmetry_space_group_name_H-M   'P 1'
_cell_length_a   9.50386952
_cell_length_b   9.50135262
_cell_length_c   9.48483136
_cell_angle_alpha   59.67651633
_cell_angle_beta   59.56299388
_cell_angle_gamma   59.60218309
_symmetry_Int_Tables_number   1
_chemical_formula_structural   Ho5Tm11InAg3Rh4
_chemical_formula_sum   'Ho5 Tm11 In1 Ag3 Rh4'
_cell_volume   600.30493505
_cell_formula_units_Z   1
loop_
 _symmetry_equiv_pos_site_id
 _symmetry_equiv_pos_as_xyz
  1  'x, y, z'
loop_
 _atom_site_type_symbol
 _atom_site_label
 _atom_site_symmetry_multiplicity
 _atom_site_fract_x
 _atom_site_fract_y
 _atom_site_fract_z
 _atom_site_occupancy
  Ho  Ho0  1  0.062911  0.063261  0.438490  1
  Ho  Ho1  1  0.436098  0.061924  0.438715  1
  Ho  Ho2  1  0.061096  0.435104  0.068703  1
  Ho  Ho3  1  0.052503  0.647060  0.649349  1
  Ho  Ho4  1  0.435704  0.435627  0.066390  1
  Tm  Tm5  1  0.647464  0.052464  0.649648  1
  Tm  Tm6  1  0.188957  0.814429  0.187053  1
  Tm  Tm7  1  0.190317  0.190101  0.811237  1
  Tm  Tm8  1  0.812325  0.812626  0.188039  1
  Tm  Tm9  1  0.436224  0.060384  0.067202  1
  Tm  Tm10  1  0.814312  0.188388  0.187652  1
  Tm  Tm11  1  0.061891  0.436636  0.438548  1
  Tm  Tm12  1  0.809768  0.190310  0.812087  1
  Tm  Tm13  1  0.190401  0.809989  0.812732  1
  Tm  Tm14  1  0.648412  0.647819  0.052785  1
  Tm  Tm15  1  0.649792  0.648308  0.649002  1
  In  In16  1  0.421531  0.420907  0.738006  1
  Ag  Ag17  1  0.417971  0.418025  0.415468  1
  Ag  Ag18  1  0.748693  0.417859  0.415566  1
  Ag  Ag19  1  0.418402  0.749134  0.414104  1
  Rh  Rh20  1  0.855414  0.856632  0.427780  1
  Rh  Rh21  1  0.855980  0.859663  0.858110  1
  Rh  Rh22  1  0.428339  0.856556  0.856467  1
  Rh  Rh23  1  0.855496  0.426795  0.856866  1
