# generated using pymatgen
data_Pr10PtRh7
_symmetry_space_group_name_H-M   'P 1'
_cell_length_a   7.64151600
_cell_length_b   7.78838318
_cell_length_c   15.15868963
_cell_angle_alpha   89.67449639
_cell_angle_beta   90.00000000
_cell_angle_gamma   90.00000000
_symmetry_Int_Tables_number   1
_chemical_formula_structural   Pr10PtRh7
_chemical_formula_sum   'Pr20 Pt2 Rh14'
_cell_volume   902.15568337
_cell_formula_units_Z   2
loop_
 _symmetry_equiv_pos_site_id
 _symmetry_equiv_pos_as_xyz
  1  'x, y, z'
loop_
 _atom_site_type_symbol
 _atom_site_label
 _atom_site_symmetry_multiplicity
 _atom_site_fract_x
 _atom_site_fract_y
 _atom_site_fract_z
 _atom_site_occupancy
  Pr  Pr0  1  0.660979  0.172664  0.624735  1
  Pr  Pr1  1  0.160979  0.327336  0.875265  1
  Pr  Pr2  1  0.340451  0.836407  0.122762  1
  Pr  Pr3  1  0.840451  0.663593  0.377238  1
  Pr  Pr4  1  0.334049  0.830276  0.377312  1
  Pr  Pr5  1  0.834049  0.669724  0.122688  1
  Pr  Pr6  1  0.661102  0.168701  0.878254  1
  Pr  Pr7  1  0.161102  0.331299  0.621746  1
  Pr  Pr8  1  0.513762  0.680677  0.594028  1
  Pr  Pr9  1  0.013762  0.819323  0.905972  1
  Pr  Pr10  1  0.489386  0.316944  0.093453  1
  Pr  Pr11  1  0.989386  0.183056  0.406547  1
  Pr  Pr12  1  0.485068  0.319691  0.407954  1
  Pr  Pr13  1  0.985068  0.180309  0.092046  1
  Pr  Pr14  1  0.514581  0.682314  0.906634  1
  Pr  Pr15  1  0.014581  0.817686  0.593366  1
  Pr  Pr16  1  0.824974  0.513721  0.750617  1
  Pr  Pr17  1  0.324974  0.986279  0.749383  1
  Pr  Pr18  1  0.177862  0.487322  0.249255  1
  Pr  Pr19  1  0.677862  0.012678  0.250745  1
  Pt  Pt20  1  0.674022  0.968620  0.459903  1
  Pt  Pt21  1  0.174022  0.531380  0.040097  1
  Rh  Rh22  1  0.323134  0.029585  0.958783  1
  Rh  Rh23  1  0.823134  0.470415  0.541217  1
  Rh  Rh24  1  0.323462  0.029690  0.540098  1
  Rh  Rh25  1  0.823462  0.470310  0.959902  1
  Rh  Rh26  1  0.675295  0.971385  0.041758  1
  Rh  Rh27  1  0.175295  0.528615  0.458242  1
  Rh  Rh28  1  0.456147  0.400284  0.750317  1
  Rh  Rh29  1  0.956147  0.099716  0.749683  1
  Rh  Rh30  1  0.544016  0.600390  0.250444  1
  Rh  Rh31  1  0.044016  0.899610  0.249556  1
  Rh  Rh32  1  0.700324  0.856857  0.750258  1
  Rh  Rh33  1  0.200324  0.643143  0.749742  1
  Rh  Rh34  1  0.301386  0.144365  0.249985  1
  Rh  Rh35  1  0.801386  0.355635  0.250015  1
