# generated using pymatgen
data_NaLiNdReN4
_symmetry_space_group_name_H-M   'P 1'
_cell_length_a   5.81523400
_cell_length_b   5.95969163
_cell_length_c   6.59342648
_cell_angle_alpha   72.16798768
_cell_angle_beta   90.00000000
_cell_angle_gamma   90.00000000
_symmetry_Int_Tables_number   1
_chemical_formula_structural   NaLiNdReN4
_chemical_formula_sum   'Na2 Li2 Nd2 Re2 N8'
_cell_volume   217.53049228
_cell_formula_units_Z   2
loop_
 _symmetry_equiv_pos_site_id
 _symmetry_equiv_pos_as_xyz
  1  'x, y, z'
loop_
 _atom_site_type_symbol
 _atom_site_label
 _atom_site_symmetry_multiplicity
 _atom_site_fract_x
 _atom_site_fract_y
 _atom_site_fract_z
 _atom_site_occupancy
  Na  Na0  1  0.250000  0.280238  0.050582  1
  Na  Na1  1  0.750000  0.719762  0.949418  1
  Li  Li2  1  0.750000  0.304694  0.291389  1
  Li  Li3  1  0.250000  0.695306  0.708611  1
  Nd  Nd4  1  0.750000  0.768564  0.438884  1
  Nd  Nd5  1  0.250000  0.231436  0.561116  1
  Re  Re6  1  0.250000  0.742839  0.188988  1
  Re  Re7  1  0.750000  0.257161  0.811012  1
  N  N8  1  0.506814  0.461337  0.738253  1
  N  N9  1  0.006814  0.538663  0.261747  1
  N  N10  1  0.493186  0.538663  0.261747  1
  N  N11  1  0.993186  0.461337  0.738253  1
  N  N12  1  0.750000  0.075135  0.625326  1
  N  N13  1  0.250000  0.924865  0.374674  1
  N  N14  1  0.750000  0.091561  0.093696  1
  N  N15  1  0.250000  0.908439  0.906304  1
