# generated using pymatgen
data_Hf13Sn3(Ir2N)4
_symmetry_space_group_name_H-M   'P 1'
_cell_length_a   8.66830496
_cell_length_b   8.71497311
_cell_length_c   8.66830300
_cell_angle_alpha   60.17697850
_cell_angle_beta   59.99999602
_cell_angle_gamma   60.17697325
_symmetry_Int_Tables_number   1
_chemical_formula_structural   Hf13Sn3(Ir2N)4
_chemical_formula_sum   'Hf13 Sn3 Ir8 N4'
_cell_volume   464.27561564
_cell_formula_units_Z   1
loop_
 _symmetry_equiv_pos_site_id
 _symmetry_equiv_pos_as_xyz
  1  'x, y, z'
loop_
 _atom_site_type_symbol
 _atom_site_label
 _atom_site_symmetry_multiplicity
 _atom_site_fract_x
 _atom_site_fract_y
 _atom_site_fract_z
 _atom_site_occupancy
  Hf  Hf0  1  0.625000  0.125000  0.625000  1
  Hf  Hf1  1  0.812663  0.817629  0.184854  1
  Hf  Hf2  1  0.184553  0.188043  0.813702  1
  Hf  Hf3  1  0.813702  0.188043  0.813702  1
  Hf  Hf4  1  0.184854  0.817629  0.184854  1
  Hf  Hf5  1  0.184854  0.817629  0.812663  1
  Hf  Hf6  1  0.813702  0.188043  0.184553  1
  Hf  Hf7  1  0.437337  0.432371  0.065146  1
  Hf  Hf8  1  0.065447  0.061957  0.436298  1
  Hf  Hf9  1  0.436298  0.061957  0.436298  1
  Hf  Hf10  1  0.065146  0.432371  0.065146  1
  Hf  Hf11  1  0.065146  0.432371  0.437337  1
  Hf  Hf12  1  0.436298  0.061957  0.065447  1
  Sn  Sn13  1  0.125000  0.625000  0.625000  1
  Sn  Sn14  1  0.625000  0.625000  0.125000  1
  Sn  Sn15  1  0.625000  0.625000  0.625000  1
  Ir  Ir16  1  0.775211  0.399805  0.412493  1
  Ir  Ir17  1  0.407374  0.777877  0.407374  1
  Ir  Ir18  1  0.412493  0.399805  0.775211  1
  Ir  Ir19  1  0.412493  0.399805  0.412493  1
  Ir  Ir20  1  0.474789  0.850195  0.837507  1
  Ir  Ir21  1  0.842626  0.472123  0.842626  1
  Ir  Ir22  1  0.837507  0.850195  0.474789  1
  Ir  Ir23  1  0.837507  0.850195  0.837507  1
  N  N24  1  0.625000  0.125000  0.125000  1
  N  N25  1  0.125000  0.625000  0.125000  1
  N  N26  1  0.125000  0.125000  0.625000  1
  N  N27  1  0.125000  0.125000  0.125000  1
