# generated using pymatgen
data_Tb3Y3Co17P12Os
_symmetry_space_group_name_H-M   'P 1'
_cell_length_a   3.70549500
_cell_length_b   10.51248405
_cell_length_c   12.22229505
_cell_angle_alpha   90.01083198
_cell_angle_beta   90.00000000
_cell_angle_gamma   90.00000000
_symmetry_Int_Tables_number   1
_chemical_formula_structural   Tb3Y3Co17P12Os
_chemical_formula_sum   'Tb3 Y3 Co17 P12 Os1'
_cell_volume   476.10674839
_cell_formula_units_Z   1
loop_
 _symmetry_equiv_pos_site_id
 _symmetry_equiv_pos_as_xyz
  1  'x, y, z'
loop_
 _atom_site_type_symbol
 _atom_site_label
 _atom_site_symmetry_multiplicity
 _atom_site_fract_x
 _atom_site_fract_y
 _atom_site_fract_z
 _atom_site_occupancy
  Tb  Tb0  1  0.000000  0.500066  0.524535  1
  Tb  Tb1  1  0.500000  0.999929  0.478510  1
  Tb  Tb2  1  0.500000  0.817320  0.206914  1
  Y  Y3  1  0.500000  0.182870  0.206814  1
  Y  Y4  1  0.000000  0.683453  0.794164  1
  Y  Y5  1  0.000000  0.316534  0.794203  1
  Co  Co6  1  0.000000  0.000028  0.840411  1
  Co  Co7  1  0.500000  0.499980  0.703715  1
  Co  Co8  1  0.000000  0.999998  0.295565  1
  Co  Co9  1  0.000000  0.499933  0.988088  1
  Co  Co10  1  0.500000  0.000071  0.014412  1
  Co  Co11  1  0.500000  0.332796  0.991349  1
  Co  Co12  1  0.500000  0.667103  0.991307  1
  Co  Co13  1  0.000000  0.166964  0.005820  1
  Co  Co14  1  0.000000  0.833155  0.005668  1
  Co  Co15  1  0.500000  0.297428  0.429971  1
  Co  Co16  1  0.500000  0.702559  0.430061  1
  Co  Co17  1  0.000000  0.203219  0.568762  1
  Co  Co18  1  0.000000  0.796814  0.568850  1
  Co  Co19  1  0.500000  0.879415  0.709528  1
  Co  Co20  1  0.500000  0.120573  0.709501  1
  Co  Co21  1  0.000000  0.619879  0.290725  1
  Co  Co22  1  0.000000  0.379948  0.290618  1
  P  P23  1  0.500000  0.499978  0.881212  1
  P  P24  1  0.000000  0.000087  0.116738  1
  P  P25  1  0.500000  0.500043  0.350003  1
  P  P26  1  0.000000  0.999997  0.656429  1
  P  P27  1  0.500000  0.310453  0.616171  1
  P  P28  1  0.500000  0.689521  0.616215  1
  P  P29  1  0.000000  0.188718  0.384235  1
  P  P30  1  0.000000  0.811163  0.384477  1
  P  P31  1  0.500000  0.849521  0.892524  1
  P  P32  1  0.500000  0.150498  0.892448  1
  P  P33  1  0.000000  0.655155  0.105691  1
  P  P34  1  0.000000  0.344807  0.105825  1
  Os  Os35  1  0.500000  0.500022  0.158539  1
