# generated using pymatgen
data_Nb3Al2NiC
_symmetry_space_group_name_H-M   'P 1'
_cell_length_a   8.27531337
_cell_length_b   8.27531373
_cell_length_c   8.27531400
_cell_angle_alpha   60.00000690
_cell_angle_beta   60.00000548
_cell_angle_gamma   60.00000738
_symmetry_Int_Tables_number   1
_chemical_formula_structural   Nb3Al2NiC
_chemical_formula_sum   'Nb12 Al8 Ni4 C4'
_cell_volume   400.71764360
_cell_formula_units_Z   4
loop_
 _symmetry_equiv_pos_site_id
 _symmetry_equiv_pos_as_xyz
  1  'x, y, z'
loop_
 _atom_site_type_symbol
 _atom_site_label
 _atom_site_symmetry_multiplicity
 _atom_site_fract_x
 _atom_site_fract_y
 _atom_site_fract_z
 _atom_site_occupancy
  Nb  Nb0  1  0.813567  0.813567  0.186433  1
  Nb  Nb1  1  0.186433  0.186433  0.813567  1
  Nb  Nb2  1  0.813567  0.186433  0.813567  1
  Nb  Nb3  1  0.186433  0.813567  0.186433  1
  Nb  Nb4  1  0.186433  0.813567  0.813567  1
  Nb  Nb5  1  0.813567  0.186433  0.186433  1
  Nb  Nb6  1  0.436433  0.436433  0.063567  1
  Nb  Nb7  1  0.063567  0.063567  0.436433  1
  Nb  Nb8  1  0.436433  0.063567  0.436433  1
  Nb  Nb9  1  0.063567  0.436433  0.063567  1
  Nb  Nb10  1  0.063567  0.436433  0.436433  1
  Nb  Nb11  1  0.436433  0.063567  0.063567  1
  Al  Al12  1  0.747503  0.417499  0.417499  1
  Al  Al13  1  0.417499  0.747503  0.417499  1
  Al  Al14  1  0.417499  0.417499  0.747503  1
  Al  Al15  1  0.417499  0.417499  0.417499  1
  Al  Al16  1  0.502497  0.832501  0.832501  1
  Al  Al17  1  0.832501  0.502497  0.832501  1
  Al  Al18  1  0.832501  0.832501  0.502497  1
  Al  Al19  1  0.832501  0.832501  0.832501  1
  Ni  Ni20  1  0.125000  0.625000  0.625000  1
  Ni  Ni21  1  0.625000  0.125000  0.625000  1
  Ni  Ni22  1  0.625000  0.625000  0.125000  1
  Ni  Ni23  1  0.625000  0.625000  0.625000  1
  C  C24  1  0.625000  0.125000  0.125000  1
  C  C25  1  0.125000  0.625000  0.125000  1
  C  C26  1  0.125000  0.125000  0.625000  1
  C  C27  1  0.125000  0.125000  0.125000  1
