# generated using pymatgen
data_Tb16DyLu3Pb16
_symmetry_space_group_name_H-M   'P 1'
_cell_length_a   8.19748000
_cell_length_b   8.29412284
_cell_length_c   15.68755200
_cell_angle_alpha   90.00000000
_cell_angle_beta   90.00000000
_cell_angle_gamma   89.93377956
_symmetry_Int_Tables_number   1
_chemical_formula_structural   Tb16DyLu3Pb16
_chemical_formula_sum   'Tb16 Dy1 Lu3 Pb16'
_cell_volume   1066.61016252
_cell_formula_units_Z   1
loop_
 _symmetry_equiv_pos_site_id
 _symmetry_equiv_pos_as_xyz
  1  'x, y, z'
loop_
 _atom_site_type_symbol
 _atom_site_label
 _atom_site_symmetry_multiplicity
 _atom_site_fract_x
 _atom_site_fract_y
 _atom_site_fract_z
 _atom_site_occupancy
  Tb  Tb0  1  0.376790  0.841232  0.879290  1
  Tb  Tb1  1  0.876682  0.658698  0.620435  1
  Tb  Tb2  1  0.623792  0.159221  0.379745  1
  Tb  Tb3  1  0.122839  0.341435  0.120332  1
  Tb  Tb4  1  0.623792  0.159221  0.120255  1
  Tb  Tb5  1  0.122839  0.341435  0.379668  1
  Tb  Tb6  1  0.376790  0.841232  0.620710  1
  Tb  Tb7  1  0.876682  0.658698  0.879565  1
  Tb  Tb8  1  0.533831  0.323186  0.900067  1
  Tb  Tb9  1  0.033898  0.176806  0.600158  1
  Tb  Tb10  1  0.466495  0.676364  0.400065  1
  Tb  Tb11  1  0.965902  0.822860  0.099905  1
  Tb  Tb12  1  0.466495  0.676364  0.099935  1
  Tb  Tb13  1  0.965902  0.822860  0.400095  1
  Tb  Tb14  1  0.533831  0.323186  0.599933  1
  Tb  Tb15  1  0.033898  0.176806  0.899842  1
  Dy  Dy16  1  0.291485  0.003673  0.250000  1
  Lu  Lu17  1  0.208765  0.503897  0.750000  1
  Lu  Lu18  1  0.708742  0.995869  0.750000  1
  Lu  Lu19  1  0.791096  0.495894  0.250000  1
  Pb  Pb20  1  0.281270  0.033314  0.042934  1
  Pb  Pb21  1  0.781380  0.467052  0.456335  1
  Pb  Pb22  1  0.718650  0.967175  0.543912  1
  Pb  Pb23  1  0.218779  0.532992  0.956136  1
  Pb  Pb24  1  0.718650  0.967175  0.956088  1
  Pb  Pb25  1  0.218779  0.532992  0.543864  1
  Pb  Pb26  1  0.281270  0.033314  0.457066  1
  Pb  Pb27  1  0.781380  0.467052  0.043665  1
  Pb  Pb28  1  0.571584  0.626154  0.750000  1
  Pb  Pb29  1  0.071568  0.873636  0.750000  1
  Pb  Pb30  1  0.428674  0.374682  0.250000  1
  Pb  Pb31  1  0.926721  0.127140  0.250000  1
  Pb  Pb32  1  0.345852  0.154226  0.750000  1
  Pb  Pb33  1  0.845552  0.346371  0.750000  1
  Pb  Pb34  1  0.655065  0.845889  0.250000  1
  Pb  Pb35  1  0.154279  0.651896  0.250000  1
