# generated using pymatgen
data_Zr8VSi16W11
_symmetry_space_group_name_H-M   'P 1'
_cell_length_a   6.74333737
_cell_length_b   6.74602839
_cell_length_c   12.49845087
_cell_angle_alpha   90.06400599
_cell_angle_beta   90.06356937
_cell_angle_gamma   89.96378525
_symmetry_Int_Tables_number   1
_chemical_formula_structural   Zr8VSi16W11
_chemical_formula_sum   'Zr8 V1 Si16 W11'
_cell_volume   568.56302811
_cell_formula_units_Z   1
loop_
 _symmetry_equiv_pos_site_id
 _symmetry_equiv_pos_as_xyz
  1  'x, y, z'
loop_
 _atom_site_type_symbol
 _atom_site_label
 _atom_site_symmetry_multiplicity
 _atom_site_fract_x
 _atom_site_fract_y
 _atom_site_fract_z
 _atom_site_occupancy
  Zr  Zr0  1  0.005403  0.664529  0.030361  1
  Zr  Zr1  1  0.995848  0.335062  0.532017  1
  Zr  Zr2  1  0.664068  0.004557  0.968898  1
  Zr  Zr3  1  0.164535  0.496238  0.781120  1
  Zr  Zr4  1  0.835582  0.505244  0.281257  1
  Zr  Zr5  1  0.494205  0.163095  0.217871  1
  Zr  Zr6  1  0.506087  0.835796  0.719501  1
  Zr  Zr7  1  0.335309  0.994515  0.469182  1
  V  V8  1  0.165405  0.999787  0.873206  1
  Si  Si9  1  0.035955  0.709435  0.436150  1
  Si  Si10  1  0.965260  0.288923  0.935056  1
  Si  Si11  1  0.709660  0.035935  0.563899  1
  Si  Si12  1  0.209664  0.463840  0.186028  1
  Si  Si13  1  0.791257  0.536771  0.686530  1
  Si  Si14  1  0.459659  0.205430  0.815365  1
  Si  Si15  1  0.535974  0.789959  0.313444  1
  Si  Si16  1  0.288769  0.964051  0.061133  1
  Si  Si17  1  0.880354  0.797206  0.822666  1
  Si  Si18  1  0.125476  0.204917  0.320821  1
  Si  Si19  1  0.794734  0.874288  0.178568  1
  Si  Si20  1  0.295615  0.624852  0.571424  1
  Si  Si21  1  0.705382  0.374741  0.070148  1
  Si  Si22  1  0.625374  0.294732  0.429263  1
  Si  Si23  1  0.371557  0.710911  0.926758  1
  Si  Si24  1  0.204432  0.123711  0.682459  1
  W  W25  1  0.332291  0.494873  0.379304  1
  W  W26  1  0.832616  0.004918  0.370541  1
  W  W27  1  0.996013  0.166650  0.127534  1
  W  W28  1  0.004558  0.832130  0.629085  1
  W  W29  1  0.665672  0.503962  0.877471  1
  W  W30  1  0.496288  0.332137  0.622717  1
  W  W31  1  0.503914  0.667504  0.119892  1
  W  W32  1  0.668237  0.667363  0.499919  1
  W  W33  1  0.832644  0.167209  0.751136  1
  W  W34  1  0.169300  0.832487  0.249832  1
  W  W35  1  0.332900  0.332243  0.999444  1
