# generated using pymatgen
data_SmEr4(FeB3)2
_symmetry_space_group_name_H-M   'P 1'
_cell_length_a   8.23493750
_cell_length_b   8.23493809
_cell_length_c   8.23493648
_cell_angle_alpha   38.30815815
_cell_angle_beta   38.30816790
_cell_angle_gamma   38.30815537
_symmetry_Int_Tables_number   1
_chemical_formula_structural   SmEr4(FeB3)2
_chemical_formula_sum   'Sm1 Er4 Fe2 B6'
_cell_volume   192.73598198
_cell_formula_units_Z   1
loop_
 _symmetry_equiv_pos_site_id
 _symmetry_equiv_pos_as_xyz
  1  'x, y, z'
loop_
 _atom_site_type_symbol
 _atom_site_label
 _atom_site_symmetry_multiplicity
 _atom_site_fract_x
 _atom_site_fract_y
 _atom_site_fract_z
 _atom_site_occupancy
  Sm  Sm0  1  0.000000  0.000000  0.000000  1
  Er  Er1  1  0.582633  0.582633  0.582633  1
  Er  Er2  1  0.417367  0.417367  0.417367  1
  Er  Er3  1  0.749642  0.749642  0.749642  1
  Er  Er4  1  0.250358  0.250358  0.250358  1
  Fe  Fe5  1  0.883202  0.883202  0.883202  1
  Fe  Fe6  1  0.116798  0.116798  0.116798  1
  B  B7  1  0.500000  0.831826  0.168174  1
  B  B8  1  0.168174  0.500000  0.831826  1
  B  B9  1  0.831826  0.168174  0.500000  1
  B  B10  1  0.500000  0.168174  0.831826  1
  B  B11  1  0.831826  0.500000  0.168174  1
  B  B12  1  0.168174  0.831826  0.500000  1
