# generated using pymatgen
data_Pr(SbO3)3
_symmetry_space_group_name_H-M   'P 1'
_cell_length_a   5.57786795
_cell_length_b   5.57786703
_cell_length_c   11.84494400
_cell_angle_alpha   90.00000000
_cell_angle_beta   90.00000000
_cell_angle_gamma   106.92065685
_symmetry_Int_Tables_number   1
_chemical_formula_structural   Pr(SbO3)3
_chemical_formula_sum   'Pr2 Sb6 O18'
_cell_volume   352.57306212
_cell_formula_units_Z   2
loop_
 _symmetry_equiv_pos_site_id
 _symmetry_equiv_pos_as_xyz
  1  'x, y, z'
loop_
 _atom_site_type_symbol
 _atom_site_label
 _atom_site_symmetry_multiplicity
 _atom_site_fract_x
 _atom_site_fract_y
 _atom_site_fract_z
 _atom_site_occupancy
  Pr  Pr0  1  0.753751  0.246249  0.750000  1
  Pr  Pr1  1  0.246249  0.753751  0.250000  1
  Sb  Sb2  1  0.121753  0.878247  0.908003  1
  Sb  Sb3  1  0.878247  0.121753  0.408003  1
  Sb  Sb4  1  0.878247  0.121753  0.091997  1
  Sb  Sb5  1  0.121753  0.878247  0.591997  1
  Sb  Sb6  1  0.500000  0.500000  0.000000  1
  Sb  Sb7  1  0.500000  0.500000  0.500000  1
  O  O8  1  0.946539  0.053461  0.250000  1
  O  O9  1  0.053461  0.946539  0.750000  1
  O  O10  1  0.104421  0.895579  0.074697  1
  O  O11  1  0.895579  0.104421  0.574697  1
  O  O12  1  0.895579  0.104421  0.925303  1
  O  O13  1  0.104421  0.895579  0.425303  1
  O  O14  1  0.337021  0.662979  0.882218  1
  O  O15  1  0.662979  0.337021  0.382218  1
  O  O16  1  0.418813  0.191842  0.600943  1
  O  O17  1  0.581187  0.808158  0.100943  1
  O  O18  1  0.191842  0.418813  0.399057  1
  O  O19  1  0.808158  0.581187  0.899057  1
  O  O20  1  0.581187  0.808158  0.399057  1
  O  O21  1  0.418813  0.191842  0.899057  1
  O  O22  1  0.808158  0.581187  0.600943  1
  O  O23  1  0.191842  0.418813  0.100943  1
  O  O24  1  0.337021  0.662979  0.617782  1
  O  O25  1  0.662979  0.337021  0.117782  1
