# generated using pymatgen
data_Tb2Zn2CoSi2Ir3
_symmetry_space_group_name_H-M   'P 1'
_cell_length_a   3.98979600
_cell_length_b   3.98979600
_cell_length_c   10.61778000
_cell_angle_alpha   90.00000000
_cell_angle_beta   90.00000000
_cell_angle_gamma   90.00000000
_symmetry_Int_Tables_number   1
_chemical_formula_structural   Tb2Zn2CoSi2Ir3
_chemical_formula_sum   'Tb2 Zn2 Co1 Si2 Ir3'
_cell_volume   169.01883492
_cell_formula_units_Z   1
loop_
 _symmetry_equiv_pos_site_id
 _symmetry_equiv_pos_as_xyz
  1  'x, y, z'
loop_
 _atom_site_type_symbol
 _atom_site_label
 _atom_site_symmetry_multiplicity
 _atom_site_fract_x
 _atom_site_fract_y
 _atom_site_fract_z
 _atom_site_occupancy
  Tb  Tb0  1  0.000000  0.500000  0.243362  1
  Tb  Tb1  1  0.500000  0.000000  0.756638  1
  Zn  Zn2  1  0.000000  0.000000  0.500000  1
  Zn  Zn3  1  0.500000  0.500000  0.500000  1
  Co  Co4  1  0.000000  0.000000  0.000000  1
  Si  Si5  1  0.000000  0.500000  0.881728  1
  Si  Si6  1  0.500000  0.000000  0.118272  1
  Ir  Ir7  1  0.500000  0.500000  0.000000  1
  Ir  Ir8  1  0.000000  0.500000  0.659265  1
  Ir  Ir9  1  0.500000  0.000000  0.340735  1
