# generated using pymatgen
data_CeYHoCo2
_symmetry_space_group_name_H-M   'P 1'
_cell_length_a   3.69032519
_cell_length_b   5.98021790
_cell_length_c   5.98021578
_cell_angle_alpha   61.00908408
_cell_angle_beta   72.02846021
_cell_angle_gamma   72.02846392
_symmetry_Int_Tables_number   1
_chemical_formula_structural   CeYHoCo2
_chemical_formula_sum   'Ce1 Y1 Ho1 Co2'
_cell_volume   107.78380499
_cell_formula_units_Z   1
loop_
 _symmetry_equiv_pos_site_id
 _symmetry_equiv_pos_as_xyz
  1  'x, y, z'
loop_
 _atom_site_type_symbol
 _atom_site_label
 _atom_site_symmetry_multiplicity
 _atom_site_fract_x
 _atom_site_fract_y
 _atom_site_fract_z
 _atom_site_occupancy
  Ce  Ce0  1  0.000667  0.999333  0.999333  1
  Y  Y1  1  0.190553  0.309447  0.309447  1
  Ho  Ho2  1  0.811332  0.688668  0.688668  1
  Co  Co3  1  0.498724  0.294406  0.708146  1
  Co  Co4  1  0.498724  0.708146  0.294406  1
