# generated using pymatgen
data_Tb7YHf11Si16W
_symmetry_space_group_name_H-M   'P 1'
_cell_length_a   7.25695666
_cell_length_b   7.25642988
_cell_length_c   13.31865411
_cell_angle_alpha   89.95279029
_cell_angle_beta   90.06461934
_cell_angle_gamma   90.11654537
_symmetry_Int_Tables_number   1
_chemical_formula_structural   Tb7YHf11Si16W
_chemical_formula_sum   'Tb7 Y1 Hf11 Si16 W1'
_cell_volume   701.35282705
_cell_formula_units_Z   1
loop_
 _symmetry_equiv_pos_site_id
 _symmetry_equiv_pos_as_xyz
  1  'x, y, z'
loop_
 _atom_site_type_symbol
 _atom_site_label
 _atom_site_symmetry_multiplicity
 _atom_site_fract_x
 _atom_site_fract_y
 _atom_site_fract_z
 _atom_site_occupancy
  Tb  Tb0  1  0.004272  0.656713  0.716728  1
  Tb  Tb1  1  0.156676  0.495296  0.465440  1
  Tb  Tb2  1  0.501761  0.845305  0.034191  1
  Tb  Tb3  1  0.845276  0.501699  0.965801  1
  Tb  Tb4  1  0.495295  0.156758  0.534528  1
  Tb  Tb5  1  0.343204  0.998481  0.787424  1
  Tb  Tb6  1  0.656711  0.004281  0.283302  1
  Y  Y7  1  0.998471  0.343247  0.212536  1
  Hf  Hf8  1  0.825657  0.825565  0.499950  1
  Hf  Hf9  1  0.324431  0.674418  0.248838  1
  Hf  Hf10  1  0.674415  0.324466  0.751167  1
  Hf  Hf11  1  0.148399  0.996965  0.373475  1
  Hf  Hf12  1  0.853104  0.005058  0.877603  1
  Hf  Hf13  1  0.504166  0.648666  0.624681  1
  Hf  Hf14  1  0.348827  0.493040  0.877380  1
  Hf  Hf15  1  0.493039  0.348856  0.122686  1
  Hf  Hf16  1  0.648729  0.504088  0.375335  1
  Hf  Hf17  1  0.997056  0.148460  0.626502  1
  Hf  Hf18  1  0.004994  0.853247  0.122464  1
  Si  Si19  1  0.362684  0.295375  0.316033  1
  Si  Si20  1  0.636492  0.704834  0.817489  1
  Si  Si21  1  0.204888  0.862913  0.567042  1
  Si  Si22  1  0.137813  0.797711  0.933239  1
  Si  Si23  1  0.797837  0.137916  0.066839  1
  Si  Si24  1  0.862854  0.204913  0.432960  1
  Si  Si25  1  0.295318  0.362776  0.683936  1
  Si  Si26  1  0.704867  0.636464  0.182486  1
  Si  Si27  1  0.293992  0.051178  0.182291  1
  Si  Si28  1  0.704265  0.951801  0.686082  1
  Si  Si29  1  0.450628  0.795586  0.434996  1
  Si  Si30  1  0.203790  0.545914  0.064102  1
  Si  Si31  1  0.546007  0.203841  0.935912  1
  Si  Si32  1  0.795601  0.450657  0.564980  1
  Si  Si33  1  0.051151  0.293999  0.817682  1
  Si  Si34  1  0.951830  0.704134  0.313864  1
  W  W35  1  0.175499  0.175380  0.000035  1
