# generated using pymatgen
data_Eu4Hf3WO14
_symmetry_space_group_name_H-M   'P 1'
_cell_length_a   7.56598816
_cell_length_b   7.56598784
_cell_length_c   7.59359304
_cell_angle_alpha   60.12017735
_cell_angle_beta   60.12018059
_cell_angle_gamma   59.99999655
_symmetry_Int_Tables_number   1
_chemical_formula_structural   Eu4Hf3WO14
_chemical_formula_sum   'Eu4 Hf3 W1 O14'
_cell_volume   307.92866560
_cell_formula_units_Z   1
loop_
 _symmetry_equiv_pos_site_id
 _symmetry_equiv_pos_as_xyz
  1  'x, y, z'
loop_
 _atom_site_type_symbol
 _atom_site_label
 _atom_site_symmetry_multiplicity
 _atom_site_fract_x
 _atom_site_fract_y
 _atom_site_fract_z
 _atom_site_occupancy
  Eu  Eu0  1  0.625000  0.125000  0.125000  1
  Eu  Eu1  1  0.125000  0.625000  0.125000  1
  Eu  Eu2  1  0.125000  0.125000  0.625000  1
  Eu  Eu3  1  0.125000  0.125000  0.125000  1
  Hf  Hf4  1  0.125000  0.625000  0.625000  1
  Hf  Hf5  1  0.625000  0.125000  0.625000  1
  Hf  Hf6  1  0.625000  0.625000  0.625000  1
  W  W7  1  0.625000  0.625000  0.125000  1
  O  O8  1  0.251364  0.251364  0.245907  1
  O  O9  1  0.998636  0.998636  0.004093  1
  O  O10  1  0.692140  0.692140  0.296707  1
  O  O11  1  0.295460  0.295460  0.711500  1
  O  O12  1  0.697580  0.295460  0.711500  1
  O  O13  1  0.319013  0.692140  0.296707  1
  O  O14  1  0.295460  0.697580  0.711500  1
  O  O15  1  0.692140  0.319013  0.296707  1
  O  O16  1  0.557860  0.557860  0.953293  1
  O  O17  1  0.954540  0.954540  0.538500  1
  O  O18  1  0.552420  0.954540  0.538500  1
  O  O19  1  0.930987  0.557860  0.953293  1
  O  O20  1  0.954540  0.552420  0.538500  1
  O  O21  1  0.557860  0.930987  0.953293  1
