# generated using pymatgen
data_TbDyFeC4
_symmetry_space_group_name_H-M   'P 1'
_cell_length_a   5.04722919
_cell_length_b   6.60827943
_cell_length_c   6.61890409
_cell_angle_alpha   68.83110228
_cell_angle_beta   67.58739254
_cell_angle_gamma   67.54940055
_symmetry_Int_Tables_number   1
_chemical_formula_structural   TbDyFeC4
_chemical_formula_sum   'Tb2 Dy2 Fe2 C8'
_cell_volume   182.52044923
_cell_formula_units_Z   2
loop_
 _symmetry_equiv_pos_site_id
 _symmetry_equiv_pos_as_xyz
  1  'x, y, z'
loop_
 _atom_site_type_symbol
 _atom_site_label
 _atom_site_symmetry_multiplicity
 _atom_site_fract_x
 _atom_site_fract_y
 _atom_site_fract_z
 _atom_site_occupancy
  Tb  Tb0  1  0.144533  0.512862  0.198073  1
  Tb  Tb1  1  0.855467  0.487138  0.801927  1
  Dy  Dy2  1  0.644128  0.198358  0.513387  1
  Dy  Dy3  1  0.355872  0.801642  0.486613  1
  Fe  Fe4  1  0.249971  0.000000  0.000000  1
  Fe  Fe5  1  0.750029  0.000000  0.000000  1
  C  C6  1  0.871182  0.792812  0.464825  1
  C  C7  1  0.128818  0.207188  0.535175  1
  C  C8  1  0.372250  0.465157  0.790345  1
  C  C9  1  0.627750  0.534843  0.209655  1
  C  C10  1  0.921721  0.914069  0.242489  1
  C  C11  1  0.078279  0.085931  0.757511  1
  C  C12  1  0.422454  0.242753  0.912339  1
  C  C13  1  0.577546  0.757247  0.087661  1
