# generated using pymatgen
data_TbHo3Ga12Co
_symmetry_space_group_name_H-M   'P 1'
_cell_length_a   7.41901904
_cell_length_b   7.41164297
_cell_length_c   7.41901946
_cell_angle_alpha   109.45108631
_cell_angle_beta   109.49135738
_cell_angle_gamma   109.45108097
_symmetry_Int_Tables_number   1
_chemical_formula_structural   TbHo3Ga12Co
_chemical_formula_sum   'Tb1 Ho3 Ga12 Co1'
_cell_volume   314.11843570
_cell_formula_units_Z   1
loop_
 _symmetry_equiv_pos_site_id
 _symmetry_equiv_pos_as_xyz
  1  'x, y, z'
loop_
 _atom_site_type_symbol
 _atom_site_label
 _atom_site_symmetry_multiplicity
 _atom_site_fract_x
 _atom_site_fract_y
 _atom_site_fract_z
 _atom_site_occupancy
  Tb  Tb0  1  0.000000  0.499999  0.000000  1
  Ho  Ho1  1  0.499999  0.000000  0.000000  1
  Ho  Ho2  1  0.000000  0.000000  0.499999  1
  Ho  Ho3  1  0.499999  0.499999  0.499999  1
  Ga  Ga4  1  0.282653  0.282533  0.000000  1
  Ga  Ga5  1  0.717347  0.717467  0.000000  1
  Ga  Ga6  1  0.749938  0.500000  0.250062  1
  Ga  Ga7  1  0.500125  0.750062  0.250062  1
  Ga  Ga8  1  0.282653  0.000120  0.282653  1
  Ga  Ga9  1  0.000000  0.282533  0.282653  1
  Ga  Ga10  1  0.749938  0.249938  0.499875  1
  Ga  Ga11  1  0.250062  0.750062  0.500125  1
  Ga  Ga12  1  0.717347  0.999880  0.717347  1
  Ga  Ga13  1  0.000000  0.717467  0.717347  1
  Ga  Ga14  1  0.499875  0.249938  0.749938  1
  Ga  Ga15  1  0.250062  0.500000  0.749938  1
  Co  Co16  1  0.000000  0.000000  0.000000  1
