# generated using pymatgen
data_Ac5C2Br9
_symmetry_space_group_name_H-M   'P 1'
_cell_length_a   9.37461793
_cell_length_b   9.41091716
_cell_length_c   13.00458866
_cell_angle_alpha   84.60046343
_cell_angle_beta   85.34745642
_cell_angle_gamma   61.42133585
_symmetry_Int_Tables_number   1
_chemical_formula_structural   Ac5C2Br9
_chemical_formula_sum   'Ac10 C4 Br18'
_cell_volume   1002.20017749
_cell_formula_units_Z   2
loop_
 _symmetry_equiv_pos_site_id
 _symmetry_equiv_pos_as_xyz
  1  'x, y, z'
loop_
 _atom_site_type_symbol
 _atom_site_label
 _atom_site_symmetry_multiplicity
 _atom_site_fract_x
 _atom_site_fract_y
 _atom_site_fract_z
 _atom_site_occupancy
  Ac  Ac0  1  0.880355  0.732205  0.731427  1
  Ac  Ac1  1  0.119645  0.267795  0.268573  1
  Ac  Ac2  1  0.204763  0.684309  0.501600  1
  Ac  Ac3  1  0.383607  0.409647  0.779896  1
  Ac  Ac4  1  0.795237  0.315691  0.498400  1
  Ac  Ac5  1  0.896704  0.297672  0.001843  1
  Ac  Ac6  1  0.616393  0.590353  0.220104  1
  Ac  Ac7  1  0.769341  0.086375  0.256902  1
  Ac  Ac8  1  0.230659  0.913625  0.743098  1
  Ac  Ac9  1  0.103296  0.702328  0.998157  1
  C  C10  1  0.854316  0.305686  0.191982  1
  C  C11  1  0.827946  0.313950  0.306907  1
  C  C12  1  0.172054  0.686050  0.693093  1
  C  C13  1  0.145684  0.694314  0.808018  1
  Br  Br14  1  0.488123  0.986351  0.231209  1
  Br  Br15  1  0.511877  0.013649  0.768791  1
  Br  Br16  1  0.778620  0.040887  0.020725  1
  Br  Br17  1  0.543114  0.676938  0.450155  1
  Br  Br18  1  0.456886  0.323062  0.549845  1
  Br  Br19  1  0.221380  0.959113  0.979275  1
  Br  Br20  1  0.395217  0.414304  0.275455  1
  Br  Br21  1  0.078482  0.340220  0.770415  1
  Br  Br22  1  0.175717  0.051344  0.505114  1
  Br  Br23  1  0.500000  0.500000  0.000000  1
  Br  Br24  1  0.843970  0.123910  0.740514  1
  Br  Br25  1  0.156030  0.876090  0.259486  1
  Br  Br26  1  0.824283  0.948656  0.494886  1
  Br  Br27  1  0.604783  0.585696  0.724545  1
  Br  Br28  1  0.782572  0.672271  0.968406  1
  Br  Br29  1  0.000000  0.500000  0.500000  1
  Br  Br30  1  0.921518  0.659780  0.229585  1
  Br  Br31  1  0.217428  0.327729  0.031594  1
