# generated using pymatgen
data_HoMn4TcP3
_symmetry_space_group_name_H-M   'P 1'
_cell_length_a   3.72163200
_cell_length_b   10.64044300
_cell_length_c   12.11338600
_cell_angle_alpha   90.00000000
_cell_angle_beta   90.00000000
_cell_angle_gamma   90.00000000
_symmetry_Int_Tables_number   1
_chemical_formula_structural   HoMn4TcP3
_chemical_formula_sum   'Ho4 Mn16 Tc4 P12'
_cell_volume   479.68782237
_cell_formula_units_Z   4
loop_
 _symmetry_equiv_pos_site_id
 _symmetry_equiv_pos_as_xyz
  1  'x, y, z'
loop_
 _atom_site_type_symbol
 _atom_site_label
 _atom_site_symmetry_multiplicity
 _atom_site_fract_x
 _atom_site_fract_y
 _atom_site_fract_z
 _atom_site_occupancy
  Ho  Ho0  1  0.250000  0.587926  0.706060  1
  Ho  Ho1  1  0.250000  0.912074  0.206060  1
  Ho  Ho2  1  0.750000  0.412074  0.293940  1
  Ho  Ho3  1  0.750000  0.087926  0.793940  1
  Mn  Mn4  1  0.250000  0.412161  0.495284  1
  Mn  Mn5  1  0.250000  0.087839  0.995284  1
  Mn  Mn6  1  0.750000  0.587839  0.504716  1
  Mn  Mn7  1  0.750000  0.912161  0.004716  1
  Mn  Mn8  1  0.250000  0.209444  0.183764  1
  Mn  Mn9  1  0.250000  0.290556  0.683764  1
  Mn  Mn10  1  0.750000  0.790556  0.816236  1
  Mn  Mn11  1  0.750000  0.709444  0.316236  1
  Mn  Mn12  1  0.250000  0.884762  0.691984  1
  Mn  Mn13  1  0.250000  0.615238  0.191984  1
  Mn  Mn14  1  0.750000  0.115238  0.308016  1
  Mn  Mn15  1  0.750000  0.384762  0.808016  1
  Mn  Mn16  1  0.250000  0.466309  0.935019  1
  Mn  Mn17  1  0.250000  0.033691  0.435019  1
  Mn  Mn18  1  0.750000  0.533691  0.064981  1
  Mn  Mn19  1  0.750000  0.966309  0.564981  1
  Tc  Tc20  1  0.250000  0.710917  0.982894  1
  Tc  Tc21  1  0.250000  0.789083  0.482894  1
  Tc  Tc22  1  0.750000  0.289083  0.017106  1
  Tc  Tc23  1  0.750000  0.210917  0.517106  1
  P  P24  1  0.250000  0.410840  0.116314  1
  P  P25  1  0.250000  0.089160  0.616314  1
  P  P26  1  0.750000  0.589160  0.883686  1
  P  P27  1  0.750000  0.910840  0.383686  1
  P  P28  1  0.250000  0.263584  0.876014  1
  P  P29  1  0.250000  0.236416  0.376014  1
  P  P30  1  0.750000  0.736416  0.123986  1
  P  P31  1  0.750000  0.763584  0.623986  1
  P  P32  1  0.250000  0.592537  0.384279  1
  P  P33  1  0.250000  0.907463  0.884279  1
  P  P34  1  0.750000  0.407463  0.615721  1
  P  P35  1  0.750000  0.092537  0.115721  1
