# generated using pymatgen
data_PmDy(SiAu)2
_symmetry_space_group_name_H-M   'P 1'
_cell_length_a   5.88262090
_cell_length_b   5.88261989
_cell_length_c   5.88262100
_cell_angle_alpha   138.63252566
_cell_angle_beta   102.75507952
_cell_angle_gamma   91.64632085
_symmetry_Int_Tables_number   1
_chemical_formula_structural   PmDy(SiAu)2
_chemical_formula_sum   'Pm1 Dy1 Si2 Au2'
_cell_volume   125.10470903
_cell_formula_units_Z   1
loop_
 _symmetry_equiv_pos_site_id
 _symmetry_equiv_pos_as_xyz
  1  'x, y, z'
loop_
 _atom_site_type_symbol
 _atom_site_label
 _atom_site_symmetry_multiplicity
 _atom_site_fract_x
 _atom_site_fract_y
 _atom_site_fract_z
 _atom_site_occupancy
  Pm  Pm0  1  0.998403  0.000000  0.998403  1
  Dy  Dy1  1  0.499734  0.500000  0.999734  1
  Si  Si2  1  0.913925  0.248283  0.665643  1
  Si  Si3  1  0.417359  0.751716  0.665642  1
  Au  Au4  1  0.581971  0.246684  0.335289  1
  Au  Au5  1  0.088605  0.753315  0.335289  1
