# generated using pymatgen
data_CrCu2NiS4
_symmetry_space_group_name_H-M   'P 1'
_cell_length_a   5.18374800
_cell_length_b   5.33548900
_cell_length_c   5.33548900
_cell_angle_alpha   90.00000000
_cell_angle_beta   90.00000000
_cell_angle_gamma   90.00000000
_symmetry_Int_Tables_number   1
_chemical_formula_structural   CrCu2NiS4
_chemical_formula_sum   'Cr1 Cu2 Ni1 S4'
_cell_volume   147.56805004
_cell_formula_units_Z   1
loop_
 _symmetry_equiv_pos_site_id
 _symmetry_equiv_pos_as_xyz
  1  'x, y, z'
loop_
 _atom_site_type_symbol
 _atom_site_label
 _atom_site_symmetry_multiplicity
 _atom_site_fract_x
 _atom_site_fract_y
 _atom_site_fract_z
 _atom_site_occupancy
  Cr  Cr0  1  0.000000  0.000000  0.000000  1
  Cu  Cu1  1  0.000000  0.500000  0.000000  1
  Cu  Cu2  1  0.000000  0.000000  0.500000  1
  Ni  Ni3  1  0.500000  0.000000  0.000000  1
  S  S4  1  0.248631  0.234656  0.234656  1
  S  S5  1  0.751369  0.765344  0.234656  1
  S  S6  1  0.751369  0.234656  0.765344  1
  S  S7  1  0.248631  0.765344  0.765344  1
