# generated using pymatgen
data_Nb4Co6SiW2
_symmetry_space_group_name_H-M   'P 1'
_cell_length_a   8.97456728
_cell_length_b   8.97456693
_cell_length_c   8.97456617
_cell_angle_alpha   31.45069691
_cell_angle_beta   31.45069671
_cell_angle_gamma   31.45070590
_symmetry_Int_Tables_number   1
_chemical_formula_structural   Nb4Co6SiW2
_chemical_formula_sum   'Nb4 Co6 Si1 W2'
_cell_volume   174.69149743
_cell_formula_units_Z   1
loop_
 _symmetry_equiv_pos_site_id
 _symmetry_equiv_pos_as_xyz
  1  'x, y, z'
loop_
 _atom_site_type_symbol
 _atom_site_label
 _atom_site_symmetry_multiplicity
 _atom_site_fract_x
 _atom_site_fract_y
 _atom_site_fract_z
 _atom_site_occupancy
  Nb  Nb0  1  0.652543  0.652543  0.652543  1
  Nb  Nb1  1  0.347457  0.347457  0.347457  1
  Nb  Nb2  1  0.549419  0.549419  0.549419  1
  Nb  Nb3  1  0.450581  0.450581  0.450581  1
  Co  Co4  1  0.910051  0.410849  0.910051  1
  Co  Co5  1  0.910051  0.910051  0.410849  1
  Co  Co6  1  0.410849  0.910051  0.910051  1
  Co  Co7  1  0.089949  0.589151  0.089949  1
  Co  Co8  1  0.089949  0.089949  0.589151  1
  Co  Co9  1  0.589151  0.089949  0.089949  1
  Si  Si10  1  0.000000  0.000000  0.000000  1
  W  W11  1  0.830347  0.830347  0.830347  1
  W  W12  1  0.169653  0.169653  0.169653  1
