# generated using pymatgen
data_Sm8Dy12Si15Ru
_symmetry_space_group_name_H-M   'P 1'
_cell_length_a   7.39967678
_cell_length_b   7.83738834
_cell_length_c   14.71095600
_cell_angle_alpha   90.00000000
_cell_angle_beta   90.00000000
_cell_angle_gamma   90.06730466
_symmetry_Int_Tables_number   1
_chemical_formula_structural   Sm8Dy12Si15Ru
_chemical_formula_sum   'Sm8 Dy12 Si15 Ru1'
_cell_volume   853.14866050
_cell_formula_units_Z   1
loop_
 _symmetry_equiv_pos_site_id
 _symmetry_equiv_pos_as_xyz
  1  'x, y, z'
loop_
 _atom_site_type_symbol
 _atom_site_label
 _atom_site_symmetry_multiplicity
 _atom_site_fract_x
 _atom_site_fract_y
 _atom_site_fract_z
 _atom_site_occupancy
  Sm  Sm0  1  0.021039  0.184219  0.096912  1
  Sm  Sm1  1  0.982945  0.825389  0.905121  1
  Sm  Sm2  1  0.481308  0.680211  0.904364  1
  Sm  Sm3  1  0.982945  0.825389  0.594879  1
  Sm  Sm4  1  0.519686  0.319542  0.095823  1
  Sm  Sm5  1  0.021039  0.184219  0.403088  1
  Sm  Sm6  1  0.519686  0.319542  0.404177  1
  Sm  Sm7  1  0.481308  0.680211  0.595636  1
  Dy  Dy8  1  0.152934  0.517600  0.750000  1
  Dy  Dy9  1  0.843764  0.485621  0.250000  1
  Dy  Dy10  1  0.343061  0.017026  0.250000  1
  Dy  Dy11  1  0.666927  0.986129  0.750000  1
  Dy  Dy12  1  0.311029  0.174509  0.627963  1
  Dy  Dy13  1  0.678419  0.822814  0.376352  1
  Dy  Dy14  1  0.177463  0.680918  0.376131  1
  Dy  Dy15  1  0.678419  0.822814  0.123648  1
  Dy  Dy16  1  0.832883  0.314659  0.626019  1
  Dy  Dy17  1  0.311029  0.174509  0.872037  1
  Dy  Dy18  1  0.832883  0.314659  0.873981  1
  Dy  Dy19  1  0.177463  0.680918  0.123869  1
  Si  Si20  1  0.970295  0.894158  0.250000  1
  Si  Si21  1  0.472937  0.608538  0.250000  1
  Si  Si22  1  0.526631  0.394411  0.750000  1
  Si  Si23  1  0.274465  0.869153  0.750000  1
  Si  Si24  1  0.725712  0.125074  0.250000  1
  Si  Si25  1  0.227604  0.376584  0.250000  1
  Si  Si26  1  0.765220  0.619861  0.750000  1
  Si  Si27  1  0.153154  0.472183  0.538181  1
  Si  Si28  1  0.851245  0.531290  0.461918  1
  Si  Si29  1  0.349271  0.969775  0.461472  1
  Si  Si30  1  0.851245  0.531290  0.038082  1
  Si  Si31  1  0.645693  0.031243  0.538623  1
  Si  Si32  1  0.153154  0.472183  0.961819  1
  Si  Si33  1  0.645693  0.031243  0.961377  1
  Si  Si34  1  0.349271  0.969775  0.038528  1
  Ru  Ru35  1  0.022182  0.092336  0.750000  1
