# generated using pymatgen
data_AcDy4YRh18
_symmetry_space_group_name_H-M   'P 1'
_cell_length_a   5.27328000
_cell_length_b   5.27328135
_cell_length_c   17.59534500
_cell_angle_alpha   90.00000000
_cell_angle_beta   90.00000000
_cell_angle_gamma   119.99999153
_symmetry_Int_Tables_number   1
_chemical_formula_structural   AcDy4YRh18
_chemical_formula_sum   'Ac1 Dy4 Y1 Rh18'
_cell_volume   423.73099291
_cell_formula_units_Z   1
loop_
 _symmetry_equiv_pos_site_id
 _symmetry_equiv_pos_as_xyz
  1  'x, y, z'
loop_
 _atom_site_type_symbol
 _atom_site_label
 _atom_site_symmetry_multiplicity
 _atom_site_fract_x
 _atom_site_fract_y
 _atom_site_fract_z
 _atom_site_occupancy
  Ac  Ac0  1  0.333333  0.666667  0.750000  1
  Dy  Dy1  1  0.333333  0.666667  0.959982  1
  Dy  Dy2  1  0.666667  0.333333  0.042344  1
  Dy  Dy3  1  0.666667  0.333333  0.457656  1
  Dy  Dy4  1  0.333333  0.666667  0.540018  1
  Y  Y5  1  0.666667  0.333333  0.250000  1
  Rh  Rh6  1  0.167310  0.832690  0.374093  1
  Rh  Rh7  1  0.167310  0.334623  0.374093  1
  Rh  Rh8  1  0.665377  0.832690  0.374093  1
  Rh  Rh9  1  0.832803  0.167197  0.622938  1
  Rh  Rh10  1  0.832803  0.665605  0.622938  1
  Rh  Rh11  1  0.334395  0.167197  0.622938  1
  Rh  Rh12  1  0.832803  0.167197  0.877062  1
  Rh  Rh13  1  0.832803  0.665605  0.877062  1
  Rh  Rh14  1  0.334395  0.167197  0.877062  1
  Rh  Rh15  1  0.167310  0.832690  0.125907  1
  Rh  Rh16  1  0.167310  0.334623  0.125907  1
  Rh  Rh17  1  0.665377  0.832690  0.125907  1
  Rh  Rh18  1  0.333333  0.666667  0.250000  1
  Rh  Rh19  1  0.666667  0.333333  0.750000  1
  Rh  Rh20  1  0.000000  0.000000  0.250000  1
  Rh  Rh21  1  0.000000  0.000000  0.750000  1
  Rh  Rh22  1  0.000000  0.000000  0.498902  1
  Rh  Rh23  1  0.000000  0.000000  0.001098  1
