# generated using pymatgen
data_Mn5Fe7(W6N)2
_symmetry_space_group_name_H-M   'P 1'
_cell_length_a   7.72530219
_cell_length_b   7.72994242
_cell_length_c   7.72530200
_cell_angle_alpha   60.01985634
_cell_angle_beta   60.00000080
_cell_angle_gamma   60.01985361
_symmetry_Int_Tables_number   1
_chemical_formula_structural   Mn5Fe7(W6N)2
_chemical_formula_sum   'Mn5 Fe7 W12 N2'
_cell_volume   326.30405891
_cell_formula_units_Z   1
loop_
 _symmetry_equiv_pos_site_id
 _symmetry_equiv_pos_as_xyz
  1  'x, y, z'
loop_
 _atom_site_type_symbol
 _atom_site_label
 _atom_site_symmetry_multiplicity
 _atom_site_fract_x
 _atom_site_fract_y
 _atom_site_fract_z
 _atom_site_occupancy
  Mn  Mn0  1  0.922780  0.231662  0.922780  1
  Mn  Mn1  1  0.124376  0.126255  0.624994  1
  Mn  Mn2  1  0.125179  0.624464  0.125179  1
  Mn  Mn3  1  0.124376  0.126255  0.124376  1
  Mn  Mn4  1  0.624994  0.126255  0.124376  1
  Fe  Fe5  1  0.328492  0.014523  0.328492  1
  Fe  Fe6  1  0.328635  0.328658  0.328635  1
  Fe  Fe7  1  0.014072  0.328658  0.328635  1
  Fe  Fe8  1  0.921564  0.919566  0.237308  1
  Fe  Fe9  1  0.237308  0.919566  0.921564  1
  Fe  Fe10  1  0.328635  0.328658  0.014072  1
  Fe  Fe11  1  0.921564  0.919566  0.921564  1
  W  W12  1  0.302341  0.697761  0.697555  1
  W  W13  1  0.302522  0.302143  0.697667  1
  W  W14  1  0.551991  0.948245  0.551991  1
  W  W15  1  0.947660  0.553476  0.551203  1
  W  W16  1  0.551991  0.948245  0.947774  1
  W  W17  1  0.697667  0.302143  0.302522  1
  W  W18  1  0.947660  0.553476  0.947660  1
  W  W19  1  0.302341  0.697761  0.302341  1
  W  W20  1  0.551203  0.553476  0.947660  1
  W  W21  1  0.697667  0.302143  0.697667  1
  W  W22  1  0.697555  0.697761  0.302341  1
  W  W23  1  0.947774  0.948245  0.551991  1
  N  N24  1  0.749770  0.750691  0.749770  1
  N  N25  1  0.499883  0.500351  0.499883  1
