# generated using pymatgen
data_Ti4Si3Rh2
_symmetry_space_group_name_H-M   'P 1'
_cell_length_a   7.45370985
_cell_length_b   7.45371096
_cell_length_c   7.45370955
_cell_angle_alpha   126.53504654
_cell_angle_beta   123.72006356
_cell_angle_gamma   81.34698717
_symmetry_Int_Tables_number   1
_chemical_formula_structural   Ti4Si3Rh2
_chemical_formula_sum   'Ti8 Si6 Rh4'
_cell_volume   266.52567129
_cell_formula_units_Z   2
loop_
 _symmetry_equiv_pos_site_id
 _symmetry_equiv_pos_as_xyz
  1  'x, y, z'
loop_
 _atom_site_type_symbol
 _atom_site_label
 _atom_site_symmetry_multiplicity
 _atom_site_fract_x
 _atom_site_fract_y
 _atom_site_fract_z
 _atom_site_occupancy
  Ti  Ti0  1  0.965268  0.730417  0.265148  1
  Ti  Ti1  1  0.034732  0.299882  0.765148  1
  Ti  Ti2  1  0.247244  0.163037  0.415793  1
  Ti  Ti3  1  0.752756  0.168551  0.915793  1
  Ti  Ti4  1  0.556624  0.344587  0.287962  1
  Ti  Ti5  1  0.443376  0.731337  0.787962  1
  Ti  Ti6  1  0.500000  0.500091  0.000091  1
  Ti  Ti7  1  0.000000  0.500091  0.500091  1
  Si  Si8  1  0.786385  0.809708  0.523324  1
  Si  Si9  1  0.213615  0.736939  0.023324  1
  Si  Si10  1  0.338380  0.072861  0.748401  1
  Si  Si11  1  0.661620  0.410021  0.734481  1
  Si  Si12  1  0.175540  0.410021  0.248401  1
  Si  Si13  1  0.824460  0.072861  0.234481  1
  Rh  Rh14  1  0.166025  0.999134  0.911892  1
  Rh  Rh15  1  0.833975  0.745867  0.833109  1
  Rh  Rh16  1  0.412758  0.745867  0.411892  1
  Rh  Rh17  1  0.587242  0.999134  0.333109  1
