# generated using pymatgen
data_La3TmTl5
_symmetry_space_group_name_H-M   'P 1'
_cell_length_a   8.81915016
_cell_length_b   8.81914898
_cell_length_c   8.81914880
_cell_angle_alpha   66.06740878
_cell_angle_beta   66.06741113
_cell_angle_gamma   66.06739238
_symmetry_Int_Tables_number   1
_chemical_formula_structural   La3TmTl5
_chemical_formula_sum   'La6 Tm2 Tl10'
_cell_volume   548.67077710
_cell_formula_units_Z   2
loop_
 _symmetry_equiv_pos_site_id
 _symmetry_equiv_pos_as_xyz
  1  'x, y, z'
loop_
 _atom_site_type_symbol
 _atom_site_label
 _atom_site_symmetry_multiplicity
 _atom_site_fract_x
 _atom_site_fract_y
 _atom_site_fract_z
 _atom_site_occupancy
  La  La0  1  0.891857  0.181548  0.627550  1
  La  La1  1  0.627550  0.891857  0.181548  1
  La  La2  1  0.181548  0.627550  0.891857  1
  La  La3  1  0.108143  0.818452  0.372450  1
  La  La4  1  0.372450  0.108143  0.818452  1
  La  La5  1  0.818452  0.372450  0.108143  1
  Tm  Tm6  1  0.655738  0.655738  0.655738  1
  Tm  Tm7  1  0.344262  0.344262  0.344262  1
  Tl  Tl8  1  0.000000  0.000000  0.000000  1
  Tl  Tl9  1  0.500000  0.500000  0.500000  1
  Tl  Tl10  1  0.808253  0.808253  0.808253  1
  Tl  Tl11  1  0.191747  0.191747  0.191747  1
  Tl  Tl12  1  0.947354  0.561951  0.307812  1
  Tl  Tl13  1  0.307812  0.947354  0.561951  1
  Tl  Tl14  1  0.561951  0.307812  0.947354  1
  Tl  Tl15  1  0.052646  0.438049  0.692188  1
  Tl  Tl16  1  0.692188  0.052646  0.438049  1
  Tl  Tl17  1  0.438049  0.692188  0.052646  1
