# generated using pymatgen
data_Sr5Bi2PbBr
_symmetry_space_group_name_H-M   'P 1'
_cell_length_a   9.93931800
_cell_length_b   10.02732949
_cell_length_c   7.57911700
_cell_angle_alpha   90.00000000
_cell_angle_beta   90.00000000
_cell_angle_gamma   119.71008266
_symmetry_Int_Tables_number   1
_chemical_formula_structural   Sr5Bi2PbBr
_chemical_formula_sum   'Sr10 Bi4 Pb2 Br2'
_cell_volume   656.07345091
_cell_formula_units_Z   2
loop_
 _symmetry_equiv_pos_site_id
 _symmetry_equiv_pos_as_xyz
  1  'x, y, z'
loop_
 _atom_site_type_symbol
 _atom_site_label
 _atom_site_symmetry_multiplicity
 _atom_site_fract_x
 _atom_site_fract_y
 _atom_site_fract_z
 _atom_site_occupancy
  Sr  Sr0  1  0.748490  0.000000  0.750000  1
  Sr  Sr1  1  0.998752  0.264305  0.250000  1
  Sr  Sr2  1  0.734447  0.735695  0.250000  1
  Sr  Sr3  1  0.330681  0.661364  0.500000  1
  Sr  Sr4  1  0.330681  0.661364  0.000000  1
  Sr  Sr5  1  0.669319  0.338636  0.500000  1
  Sr  Sr6  1  0.669319  0.338636  0.000000  1
  Sr  Sr7  1  0.251510  0.000000  0.250000  1
  Sr  Sr8  1  0.265553  0.264305  0.750000  1
  Sr  Sr9  1  0.001248  0.735695  0.750000  1
  Bi  Bi10  1  0.998562  0.610283  0.250000  1
  Bi  Bi11  1  0.611721  0.610283  0.750000  1
  Bi  Bi12  1  0.001438  0.389717  0.750000  1
  Bi  Bi13  1  0.388279  0.389717  0.250000  1
  Pb  Pb14  1  0.414965  0.000000  0.750000  1
  Pb  Pb15  1  0.585035  0.000000  0.250000  1
  Br  Br16  1  0.000000  0.000000  0.500000  1
  Br  Br17  1  0.000000  0.000000  0.000000  1
