# generated using pymatgen
data_Gd6Tm6Co3Rh
_symmetry_space_group_name_H-M   'P 1'
_cell_length_a   6.20884600
_cell_length_b   6.98353259
_cell_length_c   9.36056100
_cell_angle_alpha   90.00000000
_cell_angle_beta   90.00000000
_cell_angle_gamma   89.85108155
_symmetry_Int_Tables_number   1
_chemical_formula_structural   Gd6Tm6Co3Rh
_chemical_formula_sum   'Gd6 Tm6 Co3 Rh1'
_cell_volume   405.86954347
_cell_formula_units_Z   1
loop_
 _symmetry_equiv_pos_site_id
 _symmetry_equiv_pos_as_xyz
  1  'x, y, z'
loop_
 _atom_site_type_symbol
 _atom_site_label
 _atom_site_symmetry_multiplicity
 _atom_site_fract_x
 _atom_site_fract_y
 _atom_site_fract_z
 _atom_site_occupancy
  Gd  Gd0  1  0.126482  0.453885  0.750000  1
  Gd  Gd1  1  0.357529  0.966038  0.750000  1
  Gd  Gd2  1  0.858557  0.540850  0.250000  1
  Gd  Gd3  1  0.640901  0.043236  0.250000  1
  Gd  Gd4  1  0.324072  0.675050  0.066114  1
  Gd  Gd5  1  0.324072  0.675050  0.433886  1
  Tm  Tm6  1  0.677047  0.317517  0.934909  1
  Tm  Tm7  1  0.176132  0.174940  0.430784  1
  Tm  Tm8  1  0.830485  0.829953  0.566006  1
  Tm  Tm9  1  0.176132  0.174940  0.069216  1
  Tm  Tm10  1  0.830485  0.829953  0.933994  1
  Tm  Tm11  1  0.677047  0.317517  0.565091  1
  Co  Co12  1  0.948460  0.116453  0.750000  1
  Co  Co13  1  0.046099  0.887828  0.250000  1
  Co  Co14  1  0.447068  0.384769  0.250000  1
  Rh  Rh15  1  0.559433  0.612019  0.750000  1
