# generated using pymatgen
data_Li6Tb5Dy(WO6)4
_symmetry_space_group_name_H-M   'P 1'
_cell_length_a   10.70994442
_cell_length_b   10.71445339
_cell_length_c   10.71210812
_cell_angle_alpha   109.47520278
_cell_angle_beta   109.45822183
_cell_angle_gamma   109.48088229
_symmetry_Int_Tables_number   1
_chemical_formula_structural   Li6Tb5Dy(WO6)4
_chemical_formula_sum   'Li12 Tb10 Dy2 W8 O48'
_cell_volume   946.25202732
_cell_formula_units_Z   2
loop_
 _symmetry_equiv_pos_site_id
 _symmetry_equiv_pos_as_xyz
  1  'x, y, z'
loop_
 _atom_site_type_symbol
 _atom_site_label
 _atom_site_symmetry_multiplicity
 _atom_site_fract_x
 _atom_site_fract_y
 _atom_site_fract_z
 _atom_site_occupancy
  Li  Li0  1  0.874992  0.749840  0.124983  1
  Li  Li1  1  0.249991  0.875141  0.124981  1
  Li  Li2  1  0.874992  0.125148  0.249989  1
  Li  Li3  1  0.374997  0.624843  0.249991  1
  Li  Li4  1  0.624830  0.249995  0.374673  1
  Li  Li5  1  0.749843  0.624676  0.374670  1
  Li  Li6  1  0.250017  0.374975  0.624973  1
  Li  Li7  1  0.374954  0.749997  0.624971  1
  Li  Li8  1  0.125167  0.875146  0.750161  1
  Li  Li9  1  0.624993  0.375015  0.750161  1
  Li  Li10  1  0.125223  0.250015  0.875219  1
  Li  Li11  1  0.749997  0.125206  0.875220  1
  Tb  Tb12  1  0.625049  0.875049  0.250098  1
  Tb  Tb13  1  0.124879  0.374879  0.249759  1
  Tb  Tb14  1  0.124775  0.749822  0.374894  1
  Tb  Tb15  1  0.250119  0.125071  0.374893  1
  Tb  Tb16  1  0.750016  0.875029  0.624977  1
  Tb  Tb17  1  0.874961  0.249948  0.624976  1
  Tb  Tb18  1  0.375171  0.125171  0.750342  1
  Tb  Tb19  1  0.874981  0.624981  0.749962  1
  Tb  Tb20  1  0.249959  0.624969  0.874985  1
  Tb  Tb21  1  0.625026  0.750015  0.874985  1
  Dy  Dy22  1  0.749827  0.374927  0.125045  1
  Dy  Dy23  1  0.375218  0.250119  0.125046  1
  W  W24  1  0.000416  0.000179  0.000042  1
  W  W25  1  0.500127  0.000515  0.000377  1
  W  W26  1  0.500249  0.499862  0.000377  1
  W  W27  1  0.999626  0.499863  0.000040  1
  W  W28  1  0.000064  0.999998  0.500020  1
  W  W29  1  0.999608  0.499730  0.499568  1
  W  W30  1  0.499957  0.000022  0.500021  1
  W  W31  1  0.499962  0.499838  0.499569  1
  O  O32  1  0.119523  0.200715  0.027366  1
  O  O33  1  0.907843  0.326650  0.027365  1
  O  O34  1  0.408372  0.881491  0.081952  1
  O  O35  1  0.673579  0.700461  0.081951  1
  O  O36  1  0.673517  0.973234  0.091816  1
  O  O37  1  0.418299  0.618582  0.091815  1
  O  O38  1  0.201031  0.027405  0.118632  1
  O  O39  1  0.917599  0.591226  0.118632  1
  O  O40  1  0.581638  0.201190  0.173436  1
  O  O41  1  0.591801  0.472249  0.173439  1
  O  O42  1  0.027013  0.118636  0.200412  1
  O  O43  1  0.173399  0.581777  0.200413  1
  O  O44  1  0.917559  0.326352  0.298978  1
  O  O45  1  0.381417  0.472627  0.298977  1
  O  O46  1  0.299457  0.918130  0.326460  1
  O  O47  1  0.027001  0.908329  0.326458  1
  O  O48  1  0.472650  0.299316  0.380414  1
  O  O49  1  0.907763  0.581098  0.380414  1
  O  O50  1  0.526954  0.826490  0.408325  1
  O  O51  1  0.881372  0.081836  0.408326  1
  O  O52  1  0.618645  0.091691  0.418108  1
  O  O53  1  0.799462  0.826417  0.418107  1
  O  O54  1  0.299544  0.381376  0.472934  1
  O  O55  1  0.173390  0.591558  0.472935  1
  O  O56  1  0.700635  0.618700  0.526974  1
  O  O57  1  0.826339  0.408274  0.526973  1
  O  O58  1  0.200572  0.173549  0.581961  1
  O  O59  1  0.381389  0.908410  0.581960  1
  O  O60  1  0.118621  0.918093  0.591650  1
  O  O61  1  0.473031  0.173558  0.591651  1
  O  O62  1  0.526873  0.700333  0.618447  1
  O  O63  1  0.091573  0.418113  0.618446  1
  O  O64  1  0.700509  0.081873  0.673542  1
  O  O65  1  0.973036  0.091671  0.673544  1
  O  O66  1  0.081657  0.673435  0.700185  1
  O  O67  1  0.618529  0.526749  0.700184  1
  O  O68  1  0.973022  0.881316  0.799435  1
  O  O69  1  0.826415  0.418119  0.799435  1
  O  O70  1  0.408328  0.526664  0.826627  1
  O  O71  1  0.418300  0.799961  0.826628  1
  O  O72  1  0.081696  0.408225  0.881464  1
  O  O73  1  0.799768  0.973239  0.881463  1
  O  O74  1  0.582311  0.381404  0.908827  1
  O  O75  1  0.326514  0.027420  0.908825  1
  O  O76  1  0.326813  0.299401  0.918940  1
  O  O77  1  0.592127  0.119538  0.918940  1
  O  O78  1  0.091596  0.673497  0.973136  1
  O  O79  1  0.881540  0.799639  0.973135  1
