# generated using pymatgen
data_Lu2ZrGa5Rh
_symmetry_space_group_name_H-M   'P 1'
_cell_length_a   6.82707500
_cell_length_b   6.76279760
_cell_length_c   4.17602600
_cell_angle_alpha   90.00000000
_cell_angle_beta   90.00000000
_cell_angle_gamma   120.31491435
_symmetry_Int_Tables_number   1
_chemical_formula_structural   Lu2ZrGa5Rh
_chemical_formula_sum   'Lu2 Zr1 Ga5 Rh1'
_cell_volume   166.44393862
_cell_formula_units_Z   1
loop_
 _symmetry_equiv_pos_site_id
 _symmetry_equiv_pos_as_xyz
  1  'x, y, z'
loop_
 _atom_site_type_symbol
 _atom_site_label
 _atom_site_symmetry_multiplicity
 _atom_site_fract_x
 _atom_site_fract_y
 _atom_site_fract_z
 _atom_site_occupancy
  Lu  Lu0  1  0.004079  0.589674  0.000000  1
  Lu  Lu1  1  0.414405  0.410326  0.000000  1
  Zr  Zr2  1  0.590550  0.000000  0.000000  1
  Ga  Ga3  1  0.241642  0.000000  0.500000  1
  Ga  Ga4  1  0.998326  0.241232  0.500000  1
  Ga  Ga5  1  0.757094  0.758768  0.500000  1
  Ga  Ga6  1  0.339133  0.674119  0.500000  1
  Ga  Ga7  1  0.665014  0.325881  0.500000  1
  Rh  Rh8  1  0.989758  0.000000  0.000000  1
