# generated using pymatgen
data_Nd2ThAlIn2Pd3
_symmetry_space_group_name_H-M   'P 1'
_cell_length_a   7.70528149
_cell_length_b   7.66218740
_cell_length_c   4.04649900
_cell_angle_alpha   90.00000000
_cell_angle_beta   90.00000000
_cell_angle_gamma   119.81517382
_symmetry_Int_Tables_number   1
_chemical_formula_structural   Nd2ThAlIn2Pd3
_chemical_formula_sum   'Nd2 Th1 Al1 In2 Pd3'
_cell_volume   207.27989614
_cell_formula_units_Z   1
loop_
 _symmetry_equiv_pos_site_id
 _symmetry_equiv_pos_as_xyz
  1  'x, y, z'
loop_
 _atom_site_type_symbol
 _atom_site_label
 _atom_site_symmetry_multiplicity
 _atom_site_fract_x
 _atom_site_fract_y
 _atom_site_fract_z
 _atom_site_occupancy
  Nd  Nd0  1  0.409395  0.412346  0.500000  1
  Nd  Nd1  1  0.590605  0.002952  0.500000  1
  Th  Th2  1  0.000000  0.577170  0.500000  1
  Al  Al3  1  0.000000  0.238891  0.000000  1
  In  In4  1  0.749138  0.753391  0.000000  1
  In  In5  1  0.250862  0.004253  0.000000  1
  Pd  Pd6  1  0.689969  0.339714  0.000000  1
  Pd  Pd7  1  0.310031  0.649745  0.000000  1
  Pd  Pd8  1  0.000000  0.021536  0.500000  1
