# generated using pymatgen
data_LaThRe8Si3P
_symmetry_space_group_name_H-M   'P 1'
_cell_length_a   4.14875900
_cell_length_b   7.36876076
_cell_length_c   15.61711063
_cell_angle_alpha   89.65583048
_cell_angle_beta   90.00000000
_cell_angle_gamma   90.00000000
_symmetry_Int_Tables_number   1
_chemical_formula_structural   LaThRe8Si3P
_chemical_formula_sum   'La2 Th2 Re16 Si6 P2'
_cell_volume   477.42539414
_cell_formula_units_Z   2
loop_
 _symmetry_equiv_pos_site_id
 _symmetry_equiv_pos_as_xyz
  1  'x, y, z'
loop_
 _atom_site_type_symbol
 _atom_site_label
 _atom_site_symmetry_multiplicity
 _atom_site_fract_x
 _atom_site_fract_y
 _atom_site_fract_z
 _atom_site_occupancy
  La  La0  1  0.500000  0.080582  0.385648  1
  La  La1  1  0.500000  0.919418  0.614352  1
  Th  Th2  1  0.000000  0.585476  0.119067  1
  Th  Th3  1  0.000000  0.414524  0.880933  1
  Re  Re4  1  0.000000  0.141770  0.050904  1
  Re  Re5  1  0.000000  0.858230  0.949096  1
  Re  Re6  1  0.500000  0.639638  0.448643  1
  Re  Re7  1  0.500000  0.360362  0.551357  1
  Re  Re8  1  0.000000  0.737293  0.322434  1
  Re  Re9  1  0.000000  0.262707  0.677566  1
  Re  Re10  1  0.500000  0.238946  0.178328  1
  Re  Re11  1  0.500000  0.761054  0.821672  1
  Re  Re12  1  0.000000  0.426358  0.419213  1
  Re  Re13  1  0.000000  0.573642  0.580787  1
  Re  Re14  1  0.500000  0.928765  0.081140  1
  Re  Re15  1  0.500000  0.071235  0.918860  1
  Re  Re16  1  0.000000  0.997196  0.206326  1
  Re  Re17  1  0.000000  0.002804  0.793674  1
  Re  Re18  1  0.500000  0.495774  0.293260  1
  Re  Re19  1  0.500000  0.504226  0.706740  1
  Si  Si20  1  0.500000  0.328530  0.024570  1
  Si  Si21  1  0.500000  0.671470  0.975430  1
  Si  Si22  1  0.000000  0.297542  0.273695  1
  Si  Si23  1  0.000000  0.702458  0.726305  1
  Si  Si24  1  0.500000  0.802045  0.228418  1
  Si  Si25  1  0.500000  0.197955  0.771582  1
  P  P26  1  0.000000  0.812112  0.472982  1
  P  P27  1  0.000000  0.187888  0.527018  1
