# generated using pymatgen
data_Lu8Cr9Si16W3
_symmetry_space_group_name_H-M   'P 1'
_cell_length_a   6.59750406
_cell_length_b   6.73572278
_cell_length_c   12.50979700
_cell_angle_alpha   90.00000000
_cell_angle_beta   90.00000000
_cell_angle_gamma   90.07351339
_symmetry_Int_Tables_number   1
_chemical_formula_structural   Lu8Cr9Si16W3
_chemical_formula_sum   'Lu8 Cr9 Si16 W3'
_cell_volume   555.92189055
_cell_formula_units_Z   1
loop_
 _symmetry_equiv_pos_site_id
 _symmetry_equiv_pos_as_xyz
  1  'x, y, z'
loop_
 _atom_site_type_symbol
 _atom_site_label
 _atom_site_symmetry_multiplicity
 _atom_site_fract_x
 _atom_site_fract_y
 _atom_site_fract_z
 _atom_site_occupancy
  Lu  Lu0  1  0.493490  0.666220  0.595253  1
  Lu  Lu1  1  0.994022  0.833923  0.904799  1
  Lu  Lu2  1  0.506937  0.334410  0.093016  1
  Lu  Lu3  1  0.005491  0.167684  0.406482  1
  Lu  Lu4  1  0.506937  0.334410  0.406984  1
  Lu  Lu5  1  0.005491  0.167684  0.093518  1
  Lu  Lu6  1  0.493490  0.666220  0.904747  1
  Lu  Lu7  1  0.994022  0.833923  0.595201  1
  Cr  Cr8  1  0.664739  0.161945  0.625607  1
  Cr  Cr9  1  0.169377  0.335100  0.875043  1
  Cr  Cr10  1  0.332024  0.837263  0.125099  1
  Cr  Cr11  1  0.834514  0.662402  0.376396  1
  Cr  Cr12  1  0.332024  0.837263  0.374901  1
  Cr  Cr13  1  0.834514  0.662402  0.123604  1
  Cr  Cr14  1  0.664739  0.161945  0.874393  1
  Cr  Cr15  1  0.169377  0.335100  0.624957  1
  Cr  Cr16  1  0.829556  0.499570  0.750000  1
  Si  Si17  1  0.660477  0.952277  0.454785  1
  Si  Si18  1  0.160301  0.547226  0.044543  1
  Si  Si19  1  0.339290  0.046052  0.954804  1
  Si  Si20  1  0.840846  0.451621  0.551272  1
  Si  Si21  1  0.339290  0.046052  0.545196  1
  Si  Si22  1  0.840846  0.451621  0.948728  1
  Si  Si23  1  0.660477  0.952277  0.045215  1
  Si  Si24  1  0.160301  0.547226  0.455457  1
  Si  Si25  1  0.466936  0.362241  0.750000  1
  Si  Si26  1  0.956291  0.148274  0.750000  1
  Si  Si27  1  0.540705  0.639474  0.250000  1
  Si  Si28  1  0.039295  0.861842  0.250000  1
  Si  Si29  1  0.695667  0.874074  0.750000  1
  Si  Si30  1  0.186848  0.618122  0.750000  1
  Si  Si31  1  0.305588  0.125614  0.250000  1
  Si  Si32  1  0.805433  0.376340  0.250000  1
  W  W33  1  0.328077  0.001045  0.750000  1
  W  W34  1  0.171519  0.501667  0.250000  1
  W  W35  1  0.671062  0.999493  0.250000  1
