# generated using pymatgen
data_Tb3(GaCo)2
_symmetry_space_group_name_H-M   'P 1'
_cell_length_a   5.48352774
_cell_length_b   5.48352827
_cell_length_c   13.06727100
_cell_angle_alpha   90.00000000
_cell_angle_beta   90.00000000
_cell_angle_gamma   135.00677166
_symmetry_Int_Tables_number   1
_chemical_formula_structural   Tb3(GaCo)2
_chemical_formula_sum   'Tb6 Ga4 Co4'
_cell_volume   277.80412920
_cell_formula_units_Z   2
loop_
 _symmetry_equiv_pos_site_id
 _symmetry_equiv_pos_as_xyz
  1  'x, y, z'
loop_
 _atom_site_type_symbol
 _atom_site_label
 _atom_site_symmetry_multiplicity
 _atom_site_fract_x
 _atom_site_fract_y
 _atom_site_fract_z
 _atom_site_occupancy
  Tb  Tb0  1  0.794425  0.205575  0.401869  1
  Tb  Tb1  1  0.205575  0.794425  0.598131  1
  Tb  Tb2  1  0.794425  0.205575  0.098131  1
  Tb  Tb3  1  0.205575  0.794425  0.901869  1
  Tb  Tb4  1  0.510229  0.489771  0.250000  1
  Tb  Tb5  1  0.489771  0.510229  0.750000  1
  Ga  Ga6  1  0.500000  0.500000  0.500000  1
  Ga  Ga7  1  0.500000  0.500000  0.000000  1
  Ga  Ga8  1  0.210358  0.789642  0.250000  1
  Ga  Ga9  1  0.789642  0.210358  0.750000  1
  Co  Co10  1  0.076533  0.923467  0.413581  1
  Co  Co11  1  0.923467  0.076533  0.586419  1
  Co  Co12  1  0.076533  0.923467  0.086419  1
  Co  Co13  1  0.923467  0.076533  0.913581  1
