# generated using pymatgen
data_DyTh3(AlRu)4
_symmetry_space_group_name_H-M   'P 1'
_cell_length_a   4.02593900
_cell_length_b   7.35102991
_cell_length_c   16.35437722
_cell_angle_alpha   89.99715338
_cell_angle_beta   90.00000000
_cell_angle_gamma   90.00000000
_symmetry_Int_Tables_number   1
_chemical_formula_structural   DyTh3(AlRu)4
_chemical_formula_sum   'Dy2 Th6 Al8 Ru8'
_cell_volume   484.00448978
_cell_formula_units_Z   2
loop_
 _symmetry_equiv_pos_site_id
 _symmetry_equiv_pos_as_xyz
  1  'x, y, z'
loop_
 _atom_site_type_symbol
 _atom_site_label
 _atom_site_symmetry_multiplicity
 _atom_site_fract_x
 _atom_site_fract_y
 _atom_site_fract_z
 _atom_site_occupancy
  Dy  Dy0  1  0.750000  0.957377  0.218284  1
  Dy  Dy1  1  0.250000  0.162593  0.560236  1
  Th  Th2  1  0.750000  0.829893  0.439262  1
  Th  Th3  1  0.750000  0.458738  0.281865  1
  Th  Th4  1  0.750000  0.330503  0.063070  1
  Th  Th5  1  0.250000  0.674328  0.939048  1
  Th  Th6  1  0.250000  0.045684  0.778739  1
  Th  Th7  1  0.250000  0.541985  0.717225  1
  Al  Al8  1  0.750000  0.487944  0.561022  1
  Al  Al9  1  0.750000  0.367764  0.850121  1
  Al  Al10  1  0.750000  0.006547  0.938133  1
  Al  Al11  1  0.750000  0.873361  0.646424  1
  Al  Al12  1  0.250000  0.486558  0.438580  1
  Al  Al13  1  0.250000  0.997308  0.067695  1
  Al  Al14  1  0.250000  0.639893  0.152451  1
  Al  Al15  1  0.250000  0.124278  0.343786  1
  Ru  Ru16  1  0.750000  0.755439  0.814407  1
  Ru  Ru17  1  0.250000  0.241383  0.938106  1
  Ru  Ru18  1  0.750000  0.257762  0.430066  1
  Ru  Ru19  1  0.250000  0.747740  0.321511  1
  Ru  Ru20  1  0.750000  0.763290  0.064077  1
  Ru  Ru21  1  0.750000  0.250707  0.688459  1
  Ru  Ru22  1  0.250000  0.267970  0.183167  1
  Ru  Ru23  1  0.250000  0.730954  0.564264  1
