# generated using pymatgen
data_Sc4Ga2(OsRu)3
_symmetry_space_group_name_H-M   'P 1'
_cell_length_a   5.18468496
_cell_length_b   5.18468495
_cell_length_c   8.63483300
_cell_angle_alpha   90.00000000
_cell_angle_beta   90.00000000
_cell_angle_gamma   119.84736291
_symmetry_Int_Tables_number   1
_chemical_formula_structural   Sc4Ga2(OsRu)3
_chemical_formula_sum   'Sc4 Ga2 Os3 Ru3'
_cell_volume   201.32385682
_cell_formula_units_Z   1
loop_
 _symmetry_equiv_pos_site_id
 _symmetry_equiv_pos_as_xyz
  1  'x, y, z'
loop_
 _atom_site_type_symbol
 _atom_site_label
 _atom_site_symmetry_multiplicity
 _atom_site_fract_x
 _atom_site_fract_y
 _atom_site_fract_z
 _atom_site_occupancy
  Sc  Sc0  1  0.327727  0.672273  0.441221  1
  Sc  Sc1  1  0.665971  0.334029  0.571098  1
  Sc  Sc2  1  0.665971  0.334029  0.928902  1
  Sc  Sc3  1  0.327727  0.672273  0.058779  1
  Ga  Ga4  1  0.342741  0.167078  0.250000  1
  Ga  Ga5  1  0.832922  0.657259  0.250000  1
  Os  Os6  1  0.169572  0.335816  0.750000  1
  Os  Os7  1  0.175935  0.824065  0.750000  1
  Os  Os8  1  0.664184  0.830428  0.750000  1
  Ru  Ru9  1  0.997926  0.002074  0.001773  1
  Ru  Ru10  1  0.831395  0.168605  0.250000  1
  Ru  Ru11  1  0.997926  0.002074  0.498227  1
