# generated using pymatgen
data_Tm16ScHg3Rh4
_symmetry_space_group_name_H-M   'P 1'
_cell_length_a   9.57941861
_cell_length_b   9.45479361
_cell_length_c   9.45479300
_cell_angle_alpha   59.99999864
_cell_angle_beta   60.42942972
_cell_angle_gamma   60.42943216
_symmetry_Int_Tables_number   1
_chemical_formula_structural   Tm16ScHg3Rh4
_chemical_formula_sum   'Tm16 Sc1 Hg3 Rh4'
_cell_volume   609.42024807
_cell_formula_units_Z   1
loop_
 _symmetry_equiv_pos_site_id
 _symmetry_equiv_pos_as_xyz
  1  'x, y, z'
loop_
 _atom_site_type_symbol
 _atom_site_label
 _atom_site_symmetry_multiplicity
 _atom_site_fract_x
 _atom_site_fract_y
 _atom_site_fract_z
 _atom_site_occupancy
  Tm  Tm0  1  0.598261  0.598551  0.598551  1
  Tm  Tm1  1  0.598261  0.598551  0.204638  1
  Tm  Tm2  1  0.598261  0.204638  0.598551  1
  Tm  Tm3  1  0.183232  0.605589  0.605589  1
  Tm  Tm4  1  0.057933  0.440635  0.440635  1
  Tm  Tm5  1  0.431682  0.065342  0.065342  1
  Tm  Tm6  1  0.431682  0.065342  0.437634  1
  Tm  Tm7  1  0.057933  0.440635  0.060796  1
  Tm  Tm8  1  0.431682  0.437634  0.065342  1
  Tm  Tm9  1  0.057933  0.060796  0.440635  1
  Tm  Tm10  1  0.189056  0.813689  0.813689  1
  Tm  Tm11  1  0.816923  0.184443  0.184443  1
  Tm  Tm12  1  0.816923  0.184443  0.814190  1
  Tm  Tm13  1  0.189056  0.813689  0.183564  1
  Tm  Tm14  1  0.816923  0.814190  0.184443  1
  Tm  Tm15  1  0.189056  0.183564  0.813689  1
  Sc  Sc16  1  0.550438  0.816521  0.816521  1
  Hg  Hg17  1  0.836341  0.837471  0.837471  1
  Hg  Hg18  1  0.836341  0.837471  0.488717  1
  Hg  Hg19  1  0.836341  0.488717  0.837471  1
  Rh  Rh20  1  0.384539  0.397491  0.397491  1
  Rh  Rh21  1  0.384539  0.397491  0.820477  1
  Rh  Rh22  1  0.384539  0.820477  0.397491  1
  Rh  Rh23  1  0.822119  0.392627  0.392627  1
