# generated using pymatgen
data_KAl3Te5
_symmetry_space_group_name_H-M   'P 1'
_cell_length_a   10.88944969
_cell_length_b   10.88944900
_cell_length_c   10.88944997
_cell_angle_alpha   90.74044042
_cell_angle_beta   90.74043955
_cell_angle_gamma   90.74044240
_symmetry_Int_Tables_number   1
_chemical_formula_structural   KAl3Te5
_chemical_formula_sum   'K4 Al12 Te20'
_cell_volume   1290.94585593
_cell_formula_units_Z   4
loop_
 _symmetry_equiv_pos_site_id
 _symmetry_equiv_pos_as_xyz
  1  'x, y, z'
loop_
 _atom_site_type_symbol
 _atom_site_label
 _atom_site_symmetry_multiplicity
 _atom_site_fract_x
 _atom_site_fract_y
 _atom_site_fract_z
 _atom_site_occupancy
  K  K0  1  0.253047  0.000000  0.746953  1
  K  K1  1  0.746953  0.253047  0.000000  1
  K  K2  1  0.000000  0.746953  0.253047  1
  K  K3  1  0.500000  0.500000  0.500000  1
  Al  Al4  1  0.834346  0.886364  0.573417  1
  Al  Al5  1  0.573417  0.834346  0.886364  1
  Al  Al6  1  0.886364  0.573417  0.834346  1
  Al  Al7  1  0.165654  0.426583  0.113636  1
  Al  Al8  1  0.113636  0.165654  0.426583  1
  Al  Al9  1  0.426583  0.113636  0.165654  1
  Al  Al10  1  0.742190  0.157548  0.352642  1
  Al  Al11  1  0.352642  0.742190  0.157548  1
  Al  Al12  1  0.157548  0.352642  0.742190  1
  Al  Al13  1  0.257810  0.647358  0.842452  1
  Al  Al14  1  0.842452  0.257810  0.647358  1
  Al  Al15  1  0.647358  0.842452  0.257810  1
  Te  Te16  1  0.186648  0.813352  0.000000  1
  Te  Te17  1  0.813352  0.000000  0.186648  1
  Te  Te18  1  0.182088  0.182088  0.182088  1
  Te  Te19  1  0.817912  0.817912  0.817912  1
  Te  Te20  1  0.000000  0.186648  0.813352  1
  Te  Te21  1  0.937101  0.500000  0.062899  1
  Te  Te22  1  0.062899  0.937101  0.500000  1
  Te  Te23  1  0.500000  0.062899  0.937101  1
  Te  Te24  1  0.737695  0.708703  0.434999  1
  Te  Te25  1  0.434999  0.737695  0.708703  1
  Te  Te26  1  0.708703  0.434999  0.737695  1
  Te  Te27  1  0.262305  0.565001  0.291297  1
  Te  Te28  1  0.291297  0.262305  0.565001  1
  Te  Te29  1  0.565001  0.291297  0.262305  1
  Te  Te30  1  0.681160  0.076820  0.577425  1
  Te  Te31  1  0.577425  0.681160  0.076820  1
  Te  Te32  1  0.076820  0.577425  0.681160  1
  Te  Te33  1  0.318840  0.422575  0.923180  1
  Te  Te34  1  0.923180  0.318840  0.422575  1
  Te  Te35  1  0.422575  0.923180  0.318840  1
