# generated using pymatgen
data_Ba8Mg(CoO4)3
_symmetry_space_group_name_H-M   'P 1'
_cell_length_a   6.50590540
_cell_length_b   6.53273940
_cell_length_c   12.71070831
_cell_angle_alpha   88.57063691
_cell_angle_beta   88.41022024
_cell_angle_gamma   125.82566830
_symmetry_Int_Tables_number   1
_chemical_formula_structural   Ba8Mg(CoO4)3
_chemical_formula_sum   'Ba8 Mg1 Co3 O12'
_cell_volume   437.27926284
_cell_formula_units_Z   1
loop_
 _symmetry_equiv_pos_site_id
 _symmetry_equiv_pos_as_xyz
  1  'x, y, z'
loop_
 _atom_site_type_symbol
 _atom_site_label
 _atom_site_symmetry_multiplicity
 _atom_site_fract_x
 _atom_site_fract_y
 _atom_site_fract_z
 _atom_site_occupancy
  Ba  Ba0  1  0.863333  0.652354  0.426632  1
  Ba  Ba1  1  0.969832  0.559184  0.848435  1
  Ba  Ba2  1  0.559628  0.968717  0.348731  1
  Ba  Ba3  1  0.342815  0.136016  0.073108  1
  Ba  Ba4  1  0.658000  0.864919  0.926208  1
  Ba  Ba5  1  0.438618  0.028677  0.651170  1
  Ba  Ba6  1  0.029158  0.443840  0.151092  1
  Ba  Ba7  1  0.133845  0.341191  0.576740  1
  Mg  Mg8  1  0.266876  0.269436  0.333930  1
  Co  Co9  1  0.732330  0.727364  0.665038  1
  Co  Co10  1  0.729206  0.735230  0.165075  1
  Co  Co11  1  0.272786  0.267538  0.835235  1
  O  O12  1  0.871051  0.675742  0.035543  1
  O  O13  1  0.851660  0.511260  0.632483  1
  O  O14  1  0.591083  0.409447  0.249177  1
  O  O15  1  0.992919  0.005116  0.250942  1
  O  O16  1  0.488844  0.148363  0.867043  1
  O  O17  1  0.321713  0.128576  0.462843  1
  O  O18  1  0.674303  0.869118  0.536740  1
  O  O19  1  0.512502  0.854976  0.132023  1
  O  O20  1  0.405295  0.593555  0.750459  1
  O  O21  1  0.009027  0.991908  0.749832  1
  O  O22  1  0.154903  0.490875  0.367852  1
  O  O23  1  0.130274  0.326598  0.963670  1
