# generated using pymatgen
data_Nb4Pt(RhS6)2
_symmetry_space_group_name_H-M   'P 1'
_cell_length_a   7.10936186
_cell_length_b   7.10936155
_cell_length_c   18.95310179
_cell_angle_alpha   70.23531000
_cell_angle_beta   70.23531049
_cell_angle_gamma   27.91089324
_symmetry_Int_Tables_number   1
_chemical_formula_structural   Nb4Pt(RhS6)2
_chemical_formula_sum   'Nb4 Pt1 Rh2 S12'
_cell_volume   420.31092788
_cell_formula_units_Z   1
loop_
 _symmetry_equiv_pos_site_id
 _symmetry_equiv_pos_as_xyz
  1  'x, y, z'
loop_
 _atom_site_type_symbol
 _atom_site_label
 _atom_site_symmetry_multiplicity
 _atom_site_fract_x
 _atom_site_fract_y
 _atom_site_fract_z
 _atom_site_occupancy
  Nb  Nb0  1  0.741822  0.741822  0.593948  1
  Nb  Nb1  1  0.258178  0.258178  0.406052  1
  Nb  Nb2  1  0.620503  0.620503  0.851631  1
  Nb  Nb3  1  0.379497  0.379497  0.148369  1
  Pt  Pt4  1  0.000000  0.000000  0.000000  1
  Rh  Rh5  1  0.771349  0.771349  0.280746  1
  Rh  Rh6  1  0.228651  0.228651  0.719254  1
  S  S7  1  0.854851  0.854851  0.451030  1
  S  S8  1  0.020832  0.020832  0.117825  1
  S  S9  1  0.801314  0.801314  0.770643  1
  S  S10  1  0.392833  0.392833  0.280423  1
  S  S11  1  0.176812  0.176812  0.926774  1
  S  S12  1  0.607167  0.607167  0.719577  1
  S  S13  1  0.145149  0.145149  0.548970  1
  S  S14  1  0.823188  0.823188  0.073226  1
  S  S15  1  0.366464  0.366464  0.599599  1
  S  S16  1  0.979168  0.979168  0.882175  1
  S  S17  1  0.198686  0.198686  0.229357  1
  S  S18  1  0.633536  0.633536  0.400401  1
