# generated using pymatgen
data_Tb5Lu3(Nb3Si4)4
_symmetry_space_group_name_H-M   'P 1'
_cell_length_a   7.06219558
_cell_length_b   7.06161603
_cell_length_c   13.01685493
_cell_angle_alpha   90.00756024
_cell_angle_beta   89.93968354
_cell_angle_gamma   89.99536699
_symmetry_Int_Tables_number   1
_chemical_formula_structural   Tb5Lu3(Nb3Si4)4
_chemical_formula_sum   'Tb5 Lu3 Nb12 Si16'
_cell_volume   649.15687305
_cell_formula_units_Z   1
loop_
 _symmetry_equiv_pos_site_id
 _symmetry_equiv_pos_as_xyz
  1  'x, y, z'
loop_
 _atom_site_type_symbol
 _atom_site_label
 _atom_site_symmetry_multiplicity
 _atom_site_fract_x
 _atom_site_fract_y
 _atom_site_fract_z
 _atom_site_occupancy
  Tb  Tb0  1  0.502322  0.842796  0.032607  1
  Tb  Tb1  1  0.842496  0.502978  0.967565  1
  Tb  Tb2  1  0.497516  0.157424  0.532219  1
  Tb  Tb3  1  0.342046  0.998253  0.781658  1
  Tb  Tb4  1  0.657556  0.002100  0.282595  1
  Lu  Lu5  1  0.999635  0.342788  0.218305  1
  Lu  Lu6  1  0.000752  0.656844  0.717509  1
  Lu  Lu7  1  0.156508  0.499069  0.467730  1
  Nb  Nb8  1  0.171562  0.172541  0.000301  1
  Nb  Nb9  1  0.828831  0.826812  0.500210  1
  Nb  Nb10  1  0.327216  0.670559  0.250706  1
  Nb  Nb11  1  0.672250  0.328983  0.749438  1
  Nb  Nb12  1  0.151791  0.991316  0.376207  1
  Nb  Nb13  1  0.847962  0.008497  0.875707  1
  Nb  Nb14  1  0.507732  0.651753  0.625712  1
  Nb  Nb15  1  0.346411  0.494695  0.872880  1
  Nb  Nb16  1  0.492433  0.347305  0.126968  1
  Nb  Nb17  1  0.652609  0.505054  0.373707  1
  Nb  Nb18  1  0.994683  0.152911  0.623159  1
  Nb  Nb19  1  0.006775  0.847479  0.124493  1
  Si  Si20  1  0.290785  0.047989  0.186942  1
  Si  Si21  1  0.709180  0.952729  0.686187  1
  Si  Si22  1  0.452302  0.790502  0.436587  1
  Si  Si23  1  0.206142  0.545739  0.064230  1
  Si  Si24  1  0.546383  0.208629  0.936511  1
  Si  Si25  1  0.796483  0.454367  0.563591  1
  Si  Si26  1  0.046428  0.295345  0.812524  1
  Si  Si27  1  0.954333  0.703157  0.313867  1
  Si  Si28  1  0.362632  0.296856  0.318959  1
  Si  Si29  1  0.635124  0.704656  0.816911  1
  Si  Si30  1  0.202429  0.862305  0.568466  1
  Si  Si31  1  0.132968  0.796120  0.931714  1
  Si  Si32  1  0.797498  0.135567  0.068990  1
  Si  Si33  1  0.868560  0.205711  0.431329  1
  Si  Si34  1  0.293769  0.368795  0.681011  1
  Si  Si35  1  0.705898  0.631377  0.182501  1
