# generated using pymatgen
data_Tb5GdBiO12
_symmetry_space_group_name_H-M   'P 1'
_cell_length_a   6.62013720
_cell_length_b   6.62938092
_cell_length_c   6.58273800
_cell_angle_alpha   99.13676330
_cell_angle_beta   98.80568192
_cell_angle_gamma   99.11396321
_symmetry_Int_Tables_number   1
_chemical_formula_structural   Tb5GdBiO12
_chemical_formula_sum   'Tb5 Gd1 Bi1 O12'
_cell_volume   276.88549027
_cell_formula_units_Z   1
loop_
 _symmetry_equiv_pos_site_id
 _symmetry_equiv_pos_as_xyz
  1  'x, y, z'
loop_
 _atom_site_type_symbol
 _atom_site_label
 _atom_site_symmetry_multiplicity
 _atom_site_fract_x
 _atom_site_fract_y
 _atom_site_fract_z
 _atom_site_occupancy
  Tb  Tb0  1  0.860194  0.696563  0.390481  1
  Tb  Tb1  1  0.390963  0.859160  0.691616  1
  Tb  Tb2  1  0.307088  0.610657  0.141470  1
  Tb  Tb3  1  0.143655  0.308014  0.609500  1
  Tb  Tb4  1  0.607858  0.136173  0.306986  1
  Gd  Gd5  1  0.691406  0.393316  0.858715  1
  Bi  Bi6  1  0.000482  0.001748  0.000037  1
  O  O7  1  0.432915  0.177291  0.586137  1
  O  O8  1  0.587777  0.432343  0.176501  1
  O  O9  1  0.175273  0.583962  0.434356  1
  O  O10  1  0.565409  0.818855  0.411913  1
  O  O11  1  0.414249  0.567784  0.822979  1
  O  O12  1  0.819484  0.413806  0.566382  1
  O  O13  1  0.073175  0.314919  0.949669  1
  O  O14  1  0.685471  0.048282  0.930030  1
  O  O15  1  0.050696  0.929123  0.684629  1
  O  O16  1  0.930647  0.687118  0.051394  1
  O  O17  1  0.313890  0.949887  0.071230  1
  O  O18  1  0.949370  0.071000  0.315973  1
