# generated using pymatgen
data_Nd16Cd2Hg2IrRu3
_symmetry_space_group_name_H-M   'P 1'
_cell_length_a   9.91726004
_cell_length_b   9.92085511
_cell_length_c   9.95667300
_cell_angle_alpha   59.88050145
_cell_angle_beta   59.86845126
_cell_angle_gamma   59.81458682
_symmetry_Int_Tables_number   1
_chemical_formula_structural   Nd16Cd2Hg2IrRu3
_chemical_formula_sum   'Nd16 Cd2 Hg2 Ir1 Ru3'
_cell_volume   690.40433082
_cell_formula_units_Z   1
loop_
 _symmetry_equiv_pos_site_id
 _symmetry_equiv_pos_as_xyz
  1  'x, y, z'
loop_
 _atom_site_type_symbol
 _atom_site_label
 _atom_site_symmetry_multiplicity
 _atom_site_fract_x
 _atom_site_fract_y
 _atom_site_fract_z
 _atom_site_occupancy
  Nd  Nd0  1  0.345314  0.347292  0.348105  1
  Nd  Nd1  1  0.345314  0.347292  0.959289  1
  Nd  Nd2  1  0.345750  0.957063  0.348593  1
  Nd  Nd3  1  0.958110  0.346410  0.347740  1
  Nd  Nd4  1  0.810735  0.190451  0.190719  1
  Nd  Nd5  1  0.190666  0.809176  0.809907  1
  Nd  Nd6  1  0.190666  0.809176  0.190251  1
  Nd  Nd7  1  0.810735  0.190451  0.808095  1
  Nd  Nd8  1  0.190583  0.189466  0.809976  1
  Nd  Nd9  1  0.810133  0.806662  0.191603  1
  Nd  Nd10  1  0.938864  0.561021  0.561086  1
  Nd  Nd11  1  0.560262  0.938875  0.939100  1
  Nd  Nd12  1  0.560262  0.938875  0.561764  1
  Nd  Nd13  1  0.938864  0.561021  0.939029  1
  Nd  Nd14  1  0.560348  0.561814  0.938919  1
  Nd  Nd15  1  0.938917  0.939420  0.560831  1
  Cd  Cd16  1  0.578480  0.262312  0.579603  1
  Cd  Cd17  1  0.262411  0.578503  0.579542  1
  Hg  Hg18  1  0.582847  0.582817  0.585143  1
  Hg  Hg19  1  0.582847  0.582817  0.249192  1
  Ir  Ir20  1  0.578472  0.140240  0.140644  1
  Ru  Ru21  1  0.139734  0.137936  0.137701  1
  Ru  Ru22  1  0.139734  0.137936  0.584629  1
  Ru  Ru23  1  0.139951  0.582976  0.138536  1
