# generated using pymatgen
data_CaLa2(BPt2)3
_symmetry_space_group_name_H-M   'P 1'
_cell_length_a   5.54803499
_cell_length_b   5.61901275
_cell_length_c   7.78694500
_cell_angle_alpha   90.00000000
_cell_angle_beta   90.00000000
_cell_angle_gamma   120.42410742
_symmetry_Int_Tables_number   1
_chemical_formula_structural   CaLa2(BPt2)3
_chemical_formula_sum   'Ca1 La2 B3 Pt6'
_cell_volume   209.32690074
_cell_formula_units_Z   1
loop_
 _symmetry_equiv_pos_site_id
 _symmetry_equiv_pos_as_xyz
  1  'x, y, z'
loop_
 _atom_site_type_symbol
 _atom_site_label
 _atom_site_symmetry_multiplicity
 _atom_site_fract_x
 _atom_site_fract_y
 _atom_site_fract_z
 _atom_site_occupancy
  Ca  Ca0  1  0.000000  0.500000  0.666667  1
  La  La1  1  0.500000  0.500000  0.340359  1
  La  La2  1  0.500000  0.000000  0.992974  1
  B  B3  1  0.000000  0.500000  0.166667  1
  B  B4  1  0.500000  0.500000  0.824901  1
  B  B5  1  0.500000  0.000000  0.508432  1
  Pt  Pt6  1  0.290862  0.145432  0.666667  1
  Pt  Pt7  1  0.153544  0.848331  0.334982  1
  Pt  Pt8  1  0.846456  0.694787  0.998351  1
  Pt  Pt9  1  0.846456  0.151669  0.334982  1
  Pt  Pt10  1  0.153544  0.305213  0.998351  1
  Pt  Pt11  1  0.709138  0.854568  0.666667  1
