# generated using pymatgen
data_Y3In3BiIr2
_symmetry_space_group_name_H-M   'P 1'
_cell_length_a   7.79226300
_cell_length_b   7.79226250
_cell_length_c   4.04847800
_cell_angle_alpha   90.00000000
_cell_angle_beta   90.00000000
_cell_angle_gamma   119.99998939
_symmetry_Int_Tables_number   1
_chemical_formula_structural   Y3In3BiIr2
_chemical_formula_sum   'Y3 In3 Bi1 Ir2'
_cell_volume   212.88724329
_cell_formula_units_Z   1
loop_
 _symmetry_equiv_pos_site_id
 _symmetry_equiv_pos_as_xyz
  1  'x, y, z'
loop_
 _atom_site_type_symbol
 _atom_site_label
 _atom_site_symmetry_multiplicity
 _atom_site_fract_x
 _atom_site_fract_y
 _atom_site_fract_z
 _atom_site_occupancy
  Y  Y0  1  0.584253  0.614433  0.000000  1
  Y  Y1  1  0.385567  0.969821  0.000000  1
  Y  Y2  1  0.030179  0.415747  0.000000  1
  In  In3  1  0.020419  0.763690  0.500000  1
  In  In4  1  0.236310  0.256730  0.500000  1
  In  In5  1  0.743270  0.979581  0.500000  1
  Bi  Bi6  1  0.666667  0.333333  0.500000  1
  Ir  Ir7  1  0.000000  0.000000  0.000000  1
  Ir  Ir8  1  0.333333  0.666667  0.500000  1
