# generated using pymatgen
data_Ca4YbSnBi2
_symmetry_space_group_name_H-M   'P 1'
_cell_length_a   9.31207199
_cell_length_b   9.36794172
_cell_length_c   7.06233200
_cell_angle_alpha   89.93143177
_cell_angle_beta   90.13795318
_cell_angle_gamma   119.80290666
_symmetry_Int_Tables_number   1
_chemical_formula_structural   Ca4YbSnBi2
_chemical_formula_sum   'Ca8 Yb2 Sn2 Bi4'
_cell_volume   534.59773441
_cell_formula_units_Z   2
loop_
 _symmetry_equiv_pos_site_id
 _symmetry_equiv_pos_as_xyz
  1  'x, y, z'
loop_
 _atom_site_type_symbol
 _atom_site_label
 _atom_site_symmetry_multiplicity
 _atom_site_fract_x
 _atom_site_fract_y
 _atom_site_fract_z
 _atom_site_occupancy
  Ca  Ca0  1  0.006386  0.735105  0.749894  1
  Ca  Ca1  1  0.728717  0.735105  0.250106  1
  Ca  Ca2  1  0.271283  0.264895  0.749894  1
  Ca  Ca3  1  0.729953  0.000000  0.749856  1
  Ca  Ca4  1  0.336465  0.672932  0.500000  1
  Ca  Ca5  1  0.270047  0.000000  0.250144  1
  Ca  Ca6  1  0.993614  0.264895  0.250106  1
  Ca  Ca7  1  0.663535  0.327068  0.500000  1
  Yb  Yb8  1  0.337072  0.674145  0.000000  1
  Yb  Yb9  1  0.662928  0.325855  0.000000  1
  Sn  Sn10  1  0.616092  0.000000  0.247104  1
  Sn  Sn11  1  0.383908  0.000000  0.752896  1
  Bi  Bi12  1  0.377385  0.380569  0.249465  1
  Bi  Bi13  1  0.003184  0.380569  0.750535  1
  Bi  Bi14  1  0.622615  0.619431  0.750535  1
  Bi  Bi15  1  0.996816  0.619431  0.249465  1
