# generated using pymatgen
data_Rb3Nb2Br10N
_symmetry_space_group_name_H-M   'P 1'
_cell_length_a   7.54663800
_cell_length_b   7.54663800
_cell_length_c   19.98975600
_cell_angle_alpha   90.00000000
_cell_angle_beta   90.00000000
_cell_angle_gamma   90.00000000
_symmetry_Int_Tables_number   1
_chemical_formula_structural   Rb3Nb2Br10N
_chemical_formula_sum   'Rb6 Nb4 Br20 N2'
_cell_volume   1138.45148838
_cell_formula_units_Z   2
loop_
 _symmetry_equiv_pos_site_id
 _symmetry_equiv_pos_as_xyz
  1  'x, y, z'
loop_
 _atom_site_type_symbol
 _atom_site_label
 _atom_site_symmetry_multiplicity
 _atom_site_fract_x
 _atom_site_fract_y
 _atom_site_fract_z
 _atom_site_occupancy
  Rb  Rb0  1  0.500000  0.500000  0.000000  1
  Rb  Rb1  1  0.000000  0.000000  0.500000  1
  Rb  Rb2  1  0.000000  0.500000  0.250000  1
  Rb  Rb3  1  0.500000  0.000000  0.750000  1
  Rb  Rb4  1  0.500000  0.000000  0.250000  1
  Rb  Rb5  1  0.000000  0.500000  0.750000  1
  Nb  Nb6  1  0.500000  0.500000  0.405950  1
  Nb  Nb7  1  0.000000  0.000000  0.905950  1
  Nb  Nb8  1  0.500000  0.500000  0.594050  1
  Nb  Nb9  1  0.000000  0.000000  0.094050  1
  Br  Br10  1  0.785731  0.684308  0.396873  1
  Br  Br11  1  0.214269  0.315692  0.396873  1
  Br  Br12  1  0.714269  0.184308  0.896873  1
  Br  Br13  1  0.285731  0.815692  0.896873  1
  Br  Br14  1  0.684308  0.214269  0.396873  1
  Br  Br15  1  0.315692  0.785731  0.396873  1
  Br  Br16  1  0.184308  0.285731  0.896873  1
  Br  Br17  1  0.815692  0.714269  0.896873  1
  Br  Br18  1  0.214269  0.315692  0.603127  1
  Br  Br19  1  0.785731  0.684308  0.603127  1
  Br  Br20  1  0.285731  0.815692  0.103127  1
  Br  Br21  1  0.714269  0.184308  0.103127  1
  Br  Br22  1  0.315692  0.785731  0.603127  1
  Br  Br23  1  0.684308  0.214269  0.603127  1
  Br  Br24  1  0.815692  0.714269  0.103127  1
  Br  Br25  1  0.184308  0.285731  0.103127  1
  Br  Br26  1  0.500000  0.500000  0.264288  1
  Br  Br27  1  0.000000  0.000000  0.764288  1
  Br  Br28  1  0.500000  0.500000  0.735712  1
  Br  Br29  1  0.000000  0.000000  0.235712  1
  N  N30  1  0.500000  0.500000  0.500000  1
  N  N31  1  0.000000  0.000000  0.000000  1
