# generated using pymatgen
data_MnBi2Pd3O8
_symmetry_space_group_name_H-M   'P 1'
_cell_length_a   5.65359412
_cell_length_b   6.17148348
_cell_length_c   6.51006792
_cell_angle_alpha   113.94041651
_cell_angle_beta   96.72717408
_cell_angle_gamma   111.38286509
_symmetry_Int_Tables_number   1
_chemical_formula_structural   MnBi2Pd3O8
_chemical_formula_sum   'Mn1 Bi2 Pd3 O8'
_cell_volume   183.69428452
_cell_formula_units_Z   1
loop_
 _symmetry_equiv_pos_site_id
 _symmetry_equiv_pos_as_xyz
  1  'x, y, z'
loop_
 _atom_site_type_symbol
 _atom_site_label
 _atom_site_symmetry_multiplicity
 _atom_site_fract_x
 _atom_site_fract_y
 _atom_site_fract_z
 _atom_site_occupancy
  Mn  Mn0  1  0.500000  0.500000  0.000000  1
  Bi  Bi1  1  0.852840  0.238002  0.644679  1
  Bi  Bi2  1  0.147160  0.761998  0.355321  1
  Pd  Pd3  1  0.500000  0.500000  0.500000  1
  Pd  Pd4  1  0.500000  0.000000  0.000000  1
  Pd  Pd5  1  0.000000  0.000000  0.000000  1
  O  O6  1  0.636823  0.393213  0.221687  1
  O  O7  1  0.363177  0.606787  0.778313  1
  O  O8  1  0.868220  0.646596  0.990993  1
  O  O9  1  0.131780  0.353404  0.009007  1
  O  O10  1  0.524703  0.888452  0.256046  1
  O  O11  1  0.475297  0.111548  0.743954  1
  O  O12  1  0.844172  0.857607  0.644842  1
  O  O13  1  0.155828  0.142393  0.355158  1
