# generated using pymatgen
data_Ta6GaNi6
_symmetry_space_group_name_H-M   'P 1'
_cell_length_a   4.90200348
_cell_length_b   4.90200379
_cell_length_c   9.28905010
_cell_angle_alpha   74.70081600
_cell_angle_beta   74.70081251
_cell_angle_gamma   59.99998173
_symmetry_Int_Tables_number   1
_chemical_formula_structural   Ta6GaNi6
_chemical_formula_sum   'Ta6 Ga1 Ni6'
_cell_volume   184.11691839
_cell_formula_units_Z   1
loop_
 _symmetry_equiv_pos_site_id
 _symmetry_equiv_pos_as_xyz
  1  'x, y, z'
loop_
 _atom_site_type_symbol
 _atom_site_label
 _atom_site_symmetry_multiplicity
 _atom_site_fract_x
 _atom_site_fract_y
 _atom_site_fract_z
 _atom_site_occupancy
  Ta  Ta0  1  0.170517  0.170517  0.488448  1
  Ta  Ta1  1  0.829483  0.829483  0.511552  1
  Ta  Ta2  1  0.343298  0.343298  0.970108  1
  Ta  Ta3  1  0.656702  0.656702  0.029892  1
  Ta  Ta4  1  0.450023  0.450023  0.649930  1
  Ta  Ta5  1  0.549977  0.549977  0.350070  1
  Ga  Ga6  1  0.000000  0.000000  0.000000  1
  Ni  Ni7  1  0.587027  0.090902  0.231169  1
  Ni  Ni8  1  0.090902  0.090902  0.231169  1
  Ni  Ni9  1  0.090902  0.587027  0.231169  1
  Ni  Ni10  1  0.412973  0.909098  0.768831  1
  Ni  Ni11  1  0.909098  0.909098  0.768831  1
  Ni  Ni12  1  0.909098  0.412973  0.768831  1
