# generated using pymatgen
data_Nd6HoEr9(CdIr)4
_symmetry_space_group_name_H-M   'P 1'
_cell_length_a   9.70478686
_cell_length_b   9.70478710
_cell_length_c   9.70478620
_cell_angle_alpha   59.98097551
_cell_angle_beta   59.98097387
_cell_angle_gamma   59.98097665
_symmetry_Int_Tables_number   1
_chemical_formula_structural   Nd6HoEr9(CdIr)4
_chemical_formula_sum   'Nd6 Ho1 Er9 Cd4 Ir4'
_cell_volume   646.03433312
_cell_formula_units_Z   1
loop_
 _symmetry_equiv_pos_site_id
 _symmetry_equiv_pos_as_xyz
  1  'x, y, z'
loop_
 _atom_site_type_symbol
 _atom_site_label
 _atom_site_symmetry_multiplicity
 _atom_site_fract_x
 _atom_site_fract_y
 _atom_site_fract_z
 _atom_site_occupancy
  Nd  Nd0  1  0.940644  0.559139  0.559139  1
  Nd  Nd1  1  0.558705  0.941211  0.941211  1
  Nd  Nd2  1  0.559139  0.940644  0.559139  1
  Nd  Nd3  1  0.941211  0.558705  0.941211  1
  Nd  Nd4  1  0.559139  0.559139  0.940644  1
  Nd  Nd5  1  0.941211  0.941211  0.558705  1
  Ho  Ho6  1  0.347101  0.347101  0.347101  1
  Er  Er7  1  0.347484  0.347484  0.958504  1
  Er  Er8  1  0.347484  0.958504  0.347484  1
  Er  Er9  1  0.958504  0.347484  0.347484  1
  Er  Er10  1  0.812217  0.187184  0.187184  1
  Er  Er11  1  0.186409  0.812797  0.812797  1
  Er  Er12  1  0.187184  0.812217  0.187184  1
  Er  Er13  1  0.812797  0.186409  0.812797  1
  Er  Er14  1  0.187184  0.187184  0.812217  1
  Er  Er15  1  0.812797  0.812797  0.186409  1
  Cd  Cd16  1  0.579221  0.579221  0.579221  1
  Cd  Cd17  1  0.579614  0.579614  0.261457  1
  Cd  Cd18  1  0.579614  0.261457  0.579614  1
  Cd  Cd19  1  0.261457  0.579614  0.579614  1
  Ir  Ir20  1  0.141327  0.141327  0.141327  1
  Ir  Ir21  1  0.141465  0.141465  0.576629  1
  Ir  Ir22  1  0.141465  0.576629  0.141465  1
  Ir  Ir23  1  0.576629  0.141465  0.141465  1
