# generated using pymatgen
data_Tb8Y12Si15Au
_symmetry_space_group_name_H-M   'P 1'
_cell_length_a   7.70621250
_cell_length_b   7.72197519
_cell_length_c   14.27276816
_cell_angle_alpha   89.67763595
_cell_angle_beta   89.82615198
_cell_angle_gamma   90.27042098
_symmetry_Int_Tables_number   1
_chemical_formula_structural   Tb8Y12Si15Au
_chemical_formula_sum   'Tb8 Y12 Si15 Au1'
_cell_volume   849.30532745
_cell_formula_units_Z   1
loop_
 _symmetry_equiv_pos_site_id
 _symmetry_equiv_pos_as_xyz
  1  'x, y, z'
loop_
 _atom_site_type_symbol
 _atom_site_label
 _atom_site_symmetry_multiplicity
 _atom_site_fract_x
 _atom_site_fract_y
 _atom_site_fract_z
 _atom_site_occupancy
  Tb  Tb0  1  0.981640  0.366889  0.207201  1
  Tb  Tb1  1  0.009320  0.637047  0.707489  1
  Tb  Tb2  1  0.134439  0.499628  0.457601  1
  Tb  Tb3  1  0.509502  0.861342  0.041988  1
  Tb  Tb4  1  0.862202  0.505811  0.955901  1
  Tb  Tb5  1  0.493220  0.135520  0.546307  1
  Tb  Tb6  1  0.364619  0.991333  0.793404  1
  Tb  Tb7  1  0.639751  0.005540  0.291452  1
  Y  Y8  1  0.184946  0.185587  0.000189  1
  Y  Y9  1  0.818955  0.817481  0.500253  1
  Y  Y10  1  0.315653  0.686043  0.250157  1
  Y  Y11  1  0.685566  0.316358  0.749933  1
  Y  Y12  1  0.139608  0.011461  0.375526  1
  Y  Y13  1  0.863024  0.988994  0.875536  1
  Y  Y14  1  0.489159  0.637100  0.626964  1
  Y  Y15  1  0.366205  0.509651  0.874133  1
  Y  Y16  1  0.510402  0.361287  0.123886  1
  Y  Y17  1  0.635707  0.491138  0.377933  1
  Y  Y18  1  0.012379  0.138283  0.623863  1
  Y  Y19  1  0.986972  0.860668  0.122401  1
  Si  Si20  1  0.659141  0.700645  0.810789  1
  Si  Si21  1  0.203467  0.845583  0.563550  1
  Si  Si22  1  0.155732  0.794839  0.937895  1
  Si  Si23  1  0.798532  0.156003  0.060560  1
  Si  Si24  1  0.841298  0.200174  0.438306  1
  Si  Si25  1  0.299403  0.341761  0.690194  1
  Si  Si26  1  0.697764  0.658942  0.189960  1
  Si  Si27  1  0.295606  0.053369  0.184010  1
  Si  Si28  1  0.707934  0.936181  0.688738  1
  Si  Si29  1  0.435235  0.794530  0.440881  1
  Si  Si30  1  0.206685  0.565667  0.059715  1
  Si  Si31  1  0.565054  0.205049  0.937950  1
  Si  Si32  1  0.793921  0.435252  0.562631  1
  Si  Si33  1  0.065632  0.290611  0.811119  1
  Si  Si34  1  0.932153  0.708728  0.311448  1
  Au  Au35  1  0.339175  0.305504  0.310136  1
