# generated using pymatgen
data_Nd5Dy(CI5)2
_symmetry_space_group_name_H-M   'P 1'
_cell_length_a   7.89665307
_cell_length_b   9.69772942
_cell_length_c   9.77963944
_cell_angle_alpha   107.13563356
_cell_angle_beta   96.25945862
_cell_angle_gamma   104.54523688
_symmetry_Int_Tables_number   1
_chemical_formula_structural   Nd5Dy(CI5)2
_chemical_formula_sum   'Nd5 Dy1 C2 I10'
_cell_volume   679.04189833
_cell_formula_units_Z   1
loop_
 _symmetry_equiv_pos_site_id
 _symmetry_equiv_pos_as_xyz
  1  'x, y, z'
loop_
 _atom_site_type_symbol
 _atom_site_label
 _atom_site_symmetry_multiplicity
 _atom_site_fract_x
 _atom_site_fract_y
 _atom_site_fract_z
 _atom_site_occupancy
  Nd  Nd0  1  0.028618  0.733970  0.922146  1
  Nd  Nd1  1  0.106030  0.038755  0.775252  1
  Nd  Nd2  1  0.969019  0.265572  0.076965  1
  Nd  Nd3  1  0.890897  0.959487  0.223842  1
  Nd  Nd4  1  0.374179  0.133583  0.179179  1
  Dy  Dy5  1  0.632464  0.869486  0.824892  1
  C  C6  1  0.085751  0.028857  0.039972  1
  C  C7  1  0.909685  0.969943  0.959181  1
  I  I8  1  0.207693  0.737428  0.649540  1
  I  I9  1  0.909760  0.629380  0.180281  1
  I  I10  1  0.087583  0.368982  0.817815  1
  I  I11  1  0.738027  0.912739  0.545070  1
  I  I12  1  0.252548  0.083097  0.461044  1
  I  I13  1  0.647990  0.551051  0.727123  1
  I  I14  1  0.458053  0.807695  0.085789  1
  I  I15  1  0.808425  0.267212  0.358361  1
  I  I16  1  0.347369  0.458709  0.271045  1
  I  I17  1  0.545905  0.184052  0.902504  1
