# generated using pymatgen
data_SrPu4(AsO4)6
_symmetry_space_group_name_H-M   'P 1'
_cell_length_a   9.40396624
_cell_length_b   9.40396619
_cell_length_c   9.97670663
_cell_angle_alpha   61.88153079
_cell_angle_beta   61.88153291
_cell_angle_gamma   59.99999761
_symmetry_Int_Tables_number   1
_chemical_formula_structural   SrPu4(AsO4)6
_chemical_formula_sum   'Sr1 Pu4 As6 O24'
_cell_volume   641.02781794
_cell_formula_units_Z   1
loop_
 _symmetry_equiv_pos_site_id
 _symmetry_equiv_pos_as_xyz
  1  'x, y, z'
loop_
 _atom_site_type_symbol
 _atom_site_label
 _atom_site_symmetry_multiplicity
 _atom_site_fract_x
 _atom_site_fract_y
 _atom_site_fract_z
 _atom_site_occupancy
  Sr  Sr0  1  0.500000  0.500000  0.500000  1
  Pu  Pu1  1  0.145754  0.145754  0.562736  1
  Pu  Pu2  1  0.854246  0.854246  0.437264  1
  Pu  Pu3  1  0.647002  0.647002  0.058995  1
  Pu  Pu4  1  0.352998  0.352998  0.941005  1
  As  As5  1  0.956915  0.254959  0.256540  1
  As  As6  1  0.254959  0.531586  0.256540  1
  As  As7  1  0.531586  0.956915  0.256540  1
  As  As8  1  0.043085  0.745041  0.743460  1
  As  As9  1  0.745041  0.468414  0.743460  1
  As  As10  1  0.468414  0.043085  0.743460  1
  O  O11  1  0.978957  0.271516  0.409626  1
  O  O12  1  0.271516  0.339902  0.409626  1
  O  O13  1  0.339902  0.978957  0.409626  1
  O  O14  1  0.021043  0.728484  0.590374  1
  O  O15  1  0.728484  0.660098  0.590374  1
  O  O16  1  0.660098  0.021043  0.590374  1
  O  O17  1  0.496576  0.888505  0.920952  1
  O  O18  1  0.888505  0.693968  0.920952  1
  O  O19  1  0.693968  0.496576  0.920952  1
  O  O20  1  0.503424  0.111495  0.079048  1
  O  O21  1  0.111495  0.306032  0.079048  1
  O  O22  1  0.306032  0.503424  0.079048  1
  O  O23  1  0.026034  0.947161  0.710186  1
  O  O24  1  0.947161  0.316620  0.710186  1
  O  O25  1  0.316620  0.026034  0.710186  1
  O  O26  1  0.973966  0.052839  0.289814  1
  O  O27  1  0.052839  0.683380  0.289814  1
  O  O28  1  0.683380  0.973966  0.289814  1
  O  O29  1  0.595233  0.752042  0.249814  1
  O  O30  1  0.752042  0.402910  0.249814  1
  O  O31  1  0.402910  0.595233  0.249814  1
  O  O32  1  0.404767  0.247958  0.750186  1
  O  O33  1  0.247958  0.597090  0.750186  1
  O  O34  1  0.597090  0.404767  0.750186  1
