# generated using pymatgen
data_Pr4Al3ZnPd4
_symmetry_space_group_name_H-M   'P 1'
_cell_length_a   4.54158600
_cell_length_b   7.15304555
_cell_length_c   7.94279400
_cell_angle_alpha   89.61972322
_cell_angle_beta   90.00000000
_cell_angle_gamma   90.00000000
_symmetry_Int_Tables_number   1
_chemical_formula_structural   Pr4Al3ZnPd4
_chemical_formula_sum   'Pr4 Al3 Zn1 Pd4'
_cell_volume   258.02528501
_cell_formula_units_Z   1
loop_
 _symmetry_equiv_pos_site_id
 _symmetry_equiv_pos_as_xyz
  1  'x, y, z'
loop_
 _atom_site_type_symbol
 _atom_site_label
 _atom_site_symmetry_multiplicity
 _atom_site_fract_x
 _atom_site_fract_y
 _atom_site_fract_z
 _atom_site_occupancy
  Pr  Pr0  1  0.250000  0.530374  0.818326  1
  Pr  Pr1  1  0.250000  0.030636  0.687760  1
  Pr  Pr2  1  0.750000  0.969998  0.314497  1
  Pr  Pr3  1  0.750000  0.464247  0.179812  1
  Al  Al4  1  0.750000  0.354913  0.564617  1
  Al  Al5  1  0.250000  0.649461  0.433676  1
  Al  Al6  1  0.750000  0.849977  0.934055  1
  Zn  Zn7  1  0.250000  0.153556  0.068948  1
  Pd  Pd8  1  0.250000  0.775169  0.111602  1
  Pd  Pd9  1  0.250000  0.286216  0.396311  1
  Pd  Pd10  1  0.750000  0.718431  0.610648  1
  Pd  Pd11  1  0.750000  0.217023  0.879752  1
