# generated using pymatgen
data_DyTmFe7Ni5P7
_symmetry_space_group_name_H-M   'P 1'
_cell_length_a   9.01779210
_cell_length_b   9.04707324
_cell_length_c   3.64172200
_cell_angle_alpha   90.00000000
_cell_angle_beta   90.00000000
_cell_angle_gamma   120.22892590
_symmetry_Int_Tables_number   1
_chemical_formula_structural   DyTmFe7Ni5P7
_chemical_formula_sum   'Dy1 Tm1 Fe7 Ni5 P7'
_cell_volume   256.70792860
_cell_formula_units_Z   1
loop_
 _symmetry_equiv_pos_site_id
 _symmetry_equiv_pos_as_xyz
  1  'x, y, z'
loop_
 _atom_site_type_symbol
 _atom_site_label
 _atom_site_symmetry_multiplicity
 _atom_site_fract_x
 _atom_site_fract_y
 _atom_site_fract_z
 _atom_site_occupancy
  Dy  Dy0  1  0.336028  0.668178  0.000000  1
  Tm  Tm1  1  0.997396  0.998747  0.500000  1
  Fe  Fe2  1  0.942522  0.489961  0.000000  1
  Fe  Fe3  1  0.508259  0.450439  0.000000  1
  Fe  Fe4  1  0.548648  0.061881  0.000000  1
  Fe  Fe5  1  0.620193  0.899484  0.500000  1
  Fe  Fe6  1  0.762589  0.553128  0.500000  1
  Fe  Fe7  1  0.448949  0.211730  0.500000  1
  Fe  Fe8  1  0.786116  0.239144  0.500000  1
  Ni  Ni9  1  0.729363  0.765331  0.000000  1
  Ni  Ni10  1  0.231765  0.959447  0.000000  1
  Ni  Ni11  1  0.036850  0.267967  0.000000  1
  Ni  Ni12  1  0.104951  0.721710  0.500000  1
  Ni  Ni13  1  0.277621  0.381169  0.500000  1
  P  P14  1  0.960120  0.738827  0.000000  1
  P  P15  1  0.259286  0.218260  0.000000  1
  P  P16  1  0.773886  0.032969  0.000000  1
  P  P17  1  0.064535  0.447678  0.500000  1
  P  P18  1  0.553431  0.622498  0.500000  1
  P  P19  1  0.390332  0.935828  0.500000  1
  P  P20  1  0.667160  0.335624  0.000000  1
