# generated using pymatgen
data_Dy2Er2BOs2C3
_symmetry_space_group_name_H-M   'P 1'
_cell_length_a   5.10764600
_cell_length_b   6.55483149
_cell_length_c   9.77872725
_cell_angle_alpha   90.35007352
_cell_angle_beta   90.00000000
_cell_angle_gamma   90.00000000
_symmetry_Int_Tables_number   1
_chemical_formula_structural   Dy2Er2BOs2C3
_chemical_formula_sum   'Dy4 Er4 B2 Os4 C6'
_cell_volume   327.38331911
_cell_formula_units_Z   2
loop_
 _symmetry_equiv_pos_site_id
 _symmetry_equiv_pos_as_xyz
  1  'x, y, z'
loop_
 _atom_site_type_symbol
 _atom_site_label
 _atom_site_symmetry_multiplicity
 _atom_site_fract_x
 _atom_site_fract_y
 _atom_site_fract_z
 _atom_site_occupancy
  Dy  Dy0  1  0.250000  0.523647  0.210629  1
  Dy  Dy1  1  0.750000  0.476353  0.789371  1
  Dy  Dy2  1  0.750000  0.973359  0.715061  1
  Dy  Dy3  1  0.250000  0.026641  0.284939  1
  Er  Er4  1  0.250000  0.678144  0.550451  1
  Er  Er5  1  0.750000  0.321856  0.449549  1
  Er  Er6  1  0.750000  0.827394  0.053231  1
  Er  Er7  1  0.250000  0.172606  0.946769  1
  B  B8  1  0.250000  0.452000  0.758004  1
  B  B9  1  0.750000  0.548000  0.241996  1
  Os  Os10  1  0.250000  0.727720  0.863451  1
  Os  Os11  1  0.750000  0.272280  0.136549  1
  Os  Os12  1  0.750000  0.786362  0.371017  1
  Os  Os13  1  0.250000  0.213638  0.628983  1
  C  C14  1  0.750000  0.043842  0.261097  1
  C  C15  1  0.250000  0.956158  0.738903  1
  C  C16  1  0.250000  0.825037  0.051455  1
  C  C17  1  0.750000  0.174963  0.948545  1
  C  C18  1  0.750000  0.672977  0.553370  1
  C  C19  1  0.250000  0.327023  0.446630  1
