# generated using pymatgen
data_Hf4ZnAuN2
_symmetry_space_group_name_H-M   'P 1'
_cell_length_a   8.71165227
_cell_length_b   8.71165341
_cell_length_c   4.47286000
_cell_angle_alpha   90.00000000
_cell_angle_beta   90.00000000
_cell_angle_gamma   158.66124652
_symmetry_Int_Tables_number   1
_chemical_formula_structural   Hf4ZnAuN2
_chemical_formula_sum   'Hf4 Zn1 Au1 N2'
_cell_volume   123.52253275
_cell_formula_units_Z   1
loop_
 _symmetry_equiv_pos_site_id
 _symmetry_equiv_pos_as_xyz
  1  'x, y, z'
loop_
 _atom_site_type_symbol
 _atom_site_label
 _atom_site_symmetry_multiplicity
 _atom_site_fract_x
 _atom_site_fract_y
 _atom_site_fract_z
 _atom_site_occupancy
  Hf  Hf0  1  0.789615  0.210385  0.250000  1
  Hf  Hf1  1  0.209728  0.790272  0.750000  1
  Hf  Hf2  1  0.607580  0.392420  0.250000  1
  Hf  Hf3  1  0.391155  0.608845  0.750000  1
  Zn  Zn4  1  0.043969  0.956031  0.750000  1
  Au  Au5  1  0.958881  0.041119  0.250000  1
  N  N6  1  0.198459  0.801541  0.250000  1
  N  N7  1  0.800614  0.199386  0.750000  1
