# generated using pymatgen
data_Sc4Si4NiPt5
_symmetry_space_group_name_H-M   'P 1'
_cell_length_a   3.99632300
_cell_length_b   6.45154253
_cell_length_c   8.68791930
_cell_angle_alpha   89.72169497
_cell_angle_beta   90.00000000
_cell_angle_gamma   90.00000000
_symmetry_Int_Tables_number   1
_chemical_formula_structural   Sc4Si4NiPt5
_chemical_formula_sum   'Sc4 Si4 Ni1 Pt5'
_cell_volume   223.99318340
_cell_formula_units_Z   1
loop_
 _symmetry_equiv_pos_site_id
 _symmetry_equiv_pos_as_xyz
  1  'x, y, z'
loop_
 _atom_site_type_symbol
 _atom_site_label
 _atom_site_symmetry_multiplicity
 _atom_site_fract_x
 _atom_site_fract_y
 _atom_site_fract_z
 _atom_site_occupancy
  Sc  Sc0  1  0.000000  0.881298  0.332390  1
  Sc  Sc1  1  0.000000  0.118702  0.667610  1
  Sc  Sc2  1  0.000000  0.391784  0.172500  1
  Sc  Sc3  1  0.000000  0.608216  0.827500  1
  Si  Si4  1  0.500000  0.569737  0.356854  1
  Si  Si5  1  0.500000  0.430263  0.643146  1
  Si  Si6  1  0.500000  0.074801  0.152190  1
  Si  Si7  1  0.500000  0.925199  0.847810  1
  Ni  Ni8  1  0.000000  0.500000  0.500000  1
  Pt  Pt9  1  0.500000  0.689357  0.087291  1
  Pt  Pt10  1  0.500000  0.310643  0.912709  1
  Pt  Pt11  1  0.500000  0.193052  0.416109  1
  Pt  Pt12  1  0.500000  0.806948  0.583891  1
  Pt  Pt13  1  0.000000  0.000000  0.000000  1
