# generated using pymatgen
data_YEr3(PSe4)4
_symmetry_space_group_name_H-M   'P 1'
_cell_length_a   6.90800204
_cell_length_b   9.30138002
_cell_length_c   13.43897000
_cell_angle_alpha   59.22328459
_cell_angle_beta   89.96855700
_cell_angle_gamma   89.97059922
_symmetry_Int_Tables_number   1
_chemical_formula_structural   YEr3(PSe4)4
_chemical_formula_sum   'Y1 Er3 P4 Se16'
_cell_volume   741.89731571
_cell_formula_units_Z   1
loop_
 _symmetry_equiv_pos_site_id
 _symmetry_equiv_pos_as_xyz
  1  'x, y, z'
loop_
 _atom_site_type_symbol
 _atom_site_label
 _atom_site_symmetry_multiplicity
 _atom_site_fract_x
 _atom_site_fract_y
 _atom_site_fract_z
 _atom_site_occupancy
  Y  Y0  1  0.179040  0.554566  0.335368  1
  Er  Er1  1  0.322027  0.554410  0.835344  1
  Er  Er2  1  0.821879  0.445486  0.664960  1
  Er  Er3  1  0.678246  0.445539  0.164379  1
  P  P4  1  0.231394  0.682790  0.039814  1
  P  P5  1  0.731123  0.316645  0.459827  1
  P  P6  1  0.768622  0.317776  0.959554  1
  P  P7  1  0.268902  0.682563  0.540863  1
  Se  Se8  1  0.226953  0.414665  0.590479  1
  Se  Se9  1  0.726571  0.585202  0.910820  1
  Se  Se10  1  0.770229  0.584225  0.411563  1
  Se  Se11  1  0.273462  0.415086  0.089095  1
  Se  Se12  1  0.253590  0.845564  0.352656  1
  Se  Se13  1  0.752600  0.156206  0.148045  1
  Se  Se14  1  0.747516  0.155998  0.648379  1
  Se  Se15  1  0.247581  0.844013  0.851365  1
  Se  Se16  1  0.543228  0.717831  0.616433  1
  Se  Se17  1  0.042897  0.282248  0.884017  1
  Se  Se18  1  0.457940  0.280077  0.384097  1
  Se  Se19  1  0.956061  0.719045  0.114105  1
  Se  Se20  1  0.046020  0.734794  0.639762  1
  Se  Se21  1  0.546200  0.265353  0.860556  1
  Se  Se22  1  0.952961  0.263894  0.360601  1
  Se  Se23  1  0.454959  0.736027  0.137916  1
