# generated using pymatgen
data_Li4Ta7RuN12
_symmetry_space_group_name_H-M   'P 1'
_cell_length_a   5.18335444
_cell_length_b   5.18706606
_cell_length_c   10.37449200
_cell_angle_alpha   90.00000000
_cell_angle_beta   90.00000000
_cell_angle_gamma   120.02368790
_symmetry_Int_Tables_number   1
_chemical_formula_structural   Li4Ta7RuN12
_chemical_formula_sum   'Li4 Ta7 Ru1 N12'
_cell_volume   241.50517708
_cell_formula_units_Z   1
loop_
 _symmetry_equiv_pos_site_id
 _symmetry_equiv_pos_as_xyz
  1  'x, y, z'
loop_
 _atom_site_type_symbol
 _atom_site_label
 _atom_site_symmetry_multiplicity
 _atom_site_fract_x
 _atom_site_fract_y
 _atom_site_fract_z
 _atom_site_occupancy
  Li  Li0  1  0.328499  0.662803  0.001453  1
  Li  Li1  1  0.328499  0.662803  0.498547  1
  Li  Li2  1  0.671501  0.334303  0.498547  1
  Li  Li3  1  0.671501  0.334303  0.001453  1
  Ta  Ta4  1  0.650608  0.000366  0.750000  1
  Ta  Ta5  1  0.349392  0.349758  0.750000  1
  Ta  Ta6  1  0.000000  0.001146  0.510721  1
  Ta  Ta7  1  0.000000  0.001146  0.989279  1
  Ta  Ta8  1  0.661624  0.659119  0.250000  1
  Ta  Ta9  1  0.338376  0.997495  0.250000  1
  Ta  Ta10  1  0.000000  0.651642  0.750000  1
  Ru  Ru11  1  0.000000  0.339434  0.250000  1
  N  N12  1  0.673373  0.674400  0.622397  1
  N  N13  1  0.673373  0.674400  0.877603  1
  N  N14  1  0.327133  0.322584  0.126086  1
  N  N15  1  0.327133  0.322584  0.373914  1
  N  N16  1  0.326627  0.001027  0.877603  1
  N  N17  1  0.326627  0.001027  0.622397  1
  N  N18  1  0.000000  0.682193  0.374232  1
  N  N19  1  0.000000  0.682193  0.125768  1
  N  N20  1  0.672867  0.995451  0.126086  1
  N  N21  1  0.672867  0.995451  0.373914  1
  N  N22  1  0.000000  0.327185  0.878105  1
  N  N23  1  0.000000  0.327185  0.621895  1
