# generated using pymatgen
data_Li2Ce8Hf9Si16Mo
_symmetry_space_group_name_H-M   'P 1'
_cell_length_a   7.32269184
_cell_length_b   7.32269254
_cell_length_c   13.30366523
_cell_angle_alpha   90.07921699
_cell_angle_beta   90.07922060
_cell_angle_gamma   89.70400613
_symmetry_Int_Tables_number   1
_chemical_formula_structural   Li2Ce8Hf9Si16Mo
_chemical_formula_sum   'Li2 Ce8 Hf9 Si16 Mo1'
_cell_volume   713.35587876
_cell_formula_units_Z   1
loop_
 _symmetry_equiv_pos_site_id
 _symmetry_equiv_pos_as_xyz
  1  'x, y, z'
loop_
 _atom_site_type_symbol
 _atom_site_label
 _atom_site_symmetry_multiplicity
 _atom_site_fract_x
 _atom_site_fract_y
 _atom_site_fract_z
 _atom_site_occupancy
  Li  Li0  1  0.176993  0.174826  0.001446  1
  Li  Li1  1  0.825174  0.823007  0.498554  1
  Ce  Ce2  1  0.995963  0.346336  0.213048  1
  Ce  Ce3  1  0.006051  0.655755  0.712561  1
  Ce  Ce4  1  0.155362  0.503388  0.463222  1
  Ce  Ce5  1  0.496612  0.844638  0.036778  1
  Ce  Ce6  1  0.845732  0.500074  0.967427  1
  Ce  Ce7  1  0.499926  0.154268  0.532573  1
  Ce  Ce8  1  0.344245  0.993949  0.787439  1
  Ce  Ce9  1  0.653664  0.004037  0.286952  1
  Hf  Hf10  1  0.676767  0.323233  0.750000  1
  Hf  Hf11  1  0.144027  0.000447  0.376826  1
  Hf  Hf12  1  0.855280  0.997179  0.879695  1
  Hf  Hf13  1  0.509540  0.645406  0.620972  1
  Hf  Hf14  1  0.354594  0.490460  0.879028  1
  Hf  Hf15  1  0.491012  0.357517  0.126200  1
  Hf  Hf16  1  0.642483  0.508988  0.373800  1
  Hf  Hf17  1  0.002821  0.144720  0.620305  1
  Hf  Hf18  1  0.999553  0.855973  0.123174  1
  Si  Si19  1  0.360300  0.297905  0.317310  1
  Si  Si20  1  0.638957  0.701538  0.816256  1
  Si  Si21  1  0.219787  0.865109  0.568801  1
  Si  Si22  1  0.134891  0.780213  0.931199  1
  Si  Si23  1  0.778017  0.133756  0.071168  1
  Si  Si24  1  0.866244  0.221983  0.428832  1
  Si  Si25  1  0.298462  0.361043  0.683744  1
  Si  Si26  1  0.702095  0.639700  0.182690  1
  Si  Si27  1  0.290066  0.046534  0.189205  1
  Si  Si28  1  0.709814  0.950636  0.688653  1
  Si  Si29  1  0.435399  0.791069  0.430424  1
  Si  Si30  1  0.208931  0.564601  0.069576  1
  Si  Si31  1  0.560601  0.206428  0.935725  1
  Si  Si32  1  0.793572  0.439399  0.564275  1
  Si  Si33  1  0.049364  0.290186  0.811347  1
  Si  Si34  1  0.953466  0.709934  0.310795  1
  Mo  Mo35  1  0.324238  0.675762  0.250000  1
