# generated using pymatgen
data_HoZrMn3Ni9P7
_symmetry_space_group_name_H-M   'P 1'
_cell_length_a   9.06491300
_cell_length_b   9.06491293
_cell_length_c   3.63168400
_cell_angle_alpha   90.00000000
_cell_angle_beta   90.00000000
_cell_angle_gamma   120.00000486
_symmetry_Int_Tables_number   1
_chemical_formula_structural   HoZrMn3Ni9P7
_chemical_formula_sum   'Ho1 Zr1 Mn3 Ni9 P7'
_cell_volume   258.44369444
_cell_formula_units_Z   1
loop_
 _symmetry_equiv_pos_site_id
 _symmetry_equiv_pos_as_xyz
  1  'x, y, z'
loop_
 _atom_site_type_symbol
 _atom_site_label
 _atom_site_symmetry_multiplicity
 _atom_site_fract_x
 _atom_site_fract_y
 _atom_site_fract_z
 _atom_site_occupancy
  Ho  Ho0  1  0.333333  0.666667  0.500000  1
  Zr  Zr1  1  0.666667  0.333333  0.000000  1
  Mn  Mn2  1  0.097234  0.222060  0.500000  1
  Mn  Mn3  1  0.777940  0.875175  0.500000  1
  Mn  Mn4  1  0.124825  0.902766  0.500000  1
  Ni  Ni5  1  0.058755  0.435227  0.000000  1
  Ni  Ni6  1  0.564773  0.623529  0.000000  1
  Ni  Ni7  1  0.376471  0.941245  0.000000  1
  Ni  Ni8  1  0.279572  0.155185  0.000000  1
  Ni  Ni9  1  0.844815  0.124386  0.000000  1
  Ni  Ni10  1  0.875614  0.720428  0.000000  1
  Ni  Ni11  1  0.438217  0.382480  0.500000  1
  Ni  Ni12  1  0.617520  0.055736  0.500000  1
  Ni  Ni13  1  0.944264  0.561783  0.500000  1
  P  P14  1  0.291495  0.406698  0.000000  1
  P  P15  1  0.593302  0.884797  0.000000  1
  P  P16  1  0.115203  0.708505  0.000000  1
  P  P17  1  0.410840  0.117927  0.500000  1
  P  P18  1  0.882073  0.292913  0.500000  1
  P  P19  1  0.707087  0.589160  0.500000  1
  P  P20  1  0.000000  0.000000  0.000000  1
