# generated using pymatgen
data_Tm3Al3CuSiPt
_symmetry_space_group_name_H-M   'P 1'
_cell_length_a   6.89229500
_cell_length_b   6.89229563
_cell_length_c   4.13682500
_cell_angle_alpha   90.00000000
_cell_angle_beta   90.00000000
_cell_angle_gamma   120.00000177
_symmetry_Int_Tables_number   1
_chemical_formula_structural   Tm3Al3CuSiPt
_chemical_formula_sum   'Tm3 Al3 Cu1 Si1 Pt1'
_cell_volume   170.18666513
_cell_formula_units_Z   1
loop_
 _symmetry_equiv_pos_site_id
 _symmetry_equiv_pos_as_xyz
  1  'x, y, z'
loop_
 _atom_site_type_symbol
 _atom_site_label
 _atom_site_symmetry_multiplicity
 _atom_site_fract_x
 _atom_site_fract_y
 _atom_site_fract_z
 _atom_site_occupancy
  Tm  Tm0  1  0.421031  0.003070  0.000000  1
  Tm  Tm1  1  0.996930  0.417961  0.000000  1
  Tm  Tm2  1  0.582039  0.578970  0.000000  1
  Al  Al3  1  0.763854  0.010182  0.500000  1
  Al  Al4  1  0.246327  0.236146  0.500000  1
  Al  Al5  1  0.989818  0.753671  0.500000  1
  Cu  Cu6  1  0.666666  0.333334  0.500000  1
  Si  Si7  1  0.333333  0.666667  0.500000  1
  Pt  Pt8  1  0.000000  0.000000  0.000000  1
