# generated using pymatgen
data_ThSiPOs2
_symmetry_space_group_name_H-M   'P 1'
_cell_length_a   5.72705258
_cell_length_b   5.72705237
_cell_length_c   5.72705137
_cell_angle_alpha   137.16515904
_cell_angle_beta   137.16515912
_cell_angle_gamma   62.18403870
_symmetry_Int_Tables_number   1
_chemical_formula_structural   ThSiPOs2
_chemical_formula_sum   'Th1 Si1 P1 Os2'
_cell_volume   85.79563036
_cell_formula_units_Z   1
loop_
 _symmetry_equiv_pos_site_id
 _symmetry_equiv_pos_as_xyz
  1  'x, y, z'
loop_
 _atom_site_type_symbol
 _atom_site_label
 _atom_site_symmetry_multiplicity
 _atom_site_fract_x
 _atom_site_fract_y
 _atom_site_fract_z
 _atom_site_occupancy
  Th  Th0  1  0.001221  0.001221  0.000000  1
  Si  Si1  1  0.372351  0.372351  0.000000  1
  P  P2  1  0.630849  0.630849  0.000000  1
  Os  Os3  1  0.247789  0.747789  0.500000  1
  Os  Os4  1  0.747789  0.247789  0.500000  1
