# generated using pymatgen
data_La6Pr2Dy11ScSi15As
_symmetry_space_group_name_H-M   'P 1'
_cell_length_a   7.55842682
_cell_length_b   7.85661684
_cell_length_c   14.87477956
_cell_angle_alpha   89.99681094
_cell_angle_beta   89.92929373
_cell_angle_gamma   90.43548493
_symmetry_Int_Tables_number   1
_chemical_formula_structural   La6Pr2Dy11ScSi15As
_chemical_formula_sum   'La6 Pr2 Dy11 Sc1 Si15 As1'
_cell_volume   883.29271392
_cell_formula_units_Z   1
loop_
 _symmetry_equiv_pos_site_id
 _symmetry_equiv_pos_as_xyz
  1  'x, y, z'
loop_
 _atom_site_type_symbol
 _atom_site_label
 _atom_site_symmetry_multiplicity
 _atom_site_fract_x
 _atom_site_fract_y
 _atom_site_fract_z
 _atom_site_occupancy
  La  La0  1  0.022928  0.179932  0.402696  1
  La  La1  1  0.522288  0.321073  0.401938  1
  La  La2  1  0.482610  0.671267  0.904634  1
  La  La3  1  0.482784  0.671667  0.596510  1
  La  La4  1  0.982163  0.822409  0.601799  1
  La  La5  1  0.982269  0.822962  0.899100  1
  Pr  Pr6  1  0.523240  0.319854  0.098244  1
  Pr  Pr7  1  0.023905  0.181190  0.097520  1
  Dy  Dy8  1  0.314115  0.173965  0.626008  1
  Dy  Dy9  1  0.680050  0.823461  0.376037  1
  Dy  Dy10  1  0.656353  0.990535  0.750354  1
  Dy  Dy11  1  0.179069  0.679174  0.376472  1
  Dy  Dy12  1  0.814191  0.327567  0.877466  1
  Dy  Dy13  1  0.814323  0.328236  0.623139  1
  Dy  Dy14  1  0.847992  0.488589  0.249473  1
  Dy  Dy15  1  0.349212  0.012974  0.249435  1
  Dy  Dy16  1  0.313470  0.174494  0.874704  1
  Dy  Dy17  1  0.178987  0.679500  0.122250  1
  Dy  Dy18  1  0.680250  0.823093  0.122684  1
  Sc  Sc19  1  0.147208  0.500029  0.750135  1
  Si  Si20  1  0.472497  0.613058  0.248954  1
  Si  Si21  1  0.011522  0.139493  0.750093  1
  Si  Si22  1  0.514590  0.382903  0.750339  1
  Si  Si23  1  0.143500  0.470279  0.542318  1
  Si  Si24  1  0.974110  0.888920  0.249037  1
  Si  Si25  1  0.731449  0.119001  0.249050  1
  Si  Si26  1  0.856315  0.532196  0.040300  1
  Si  Si27  1  0.356222  0.970188  0.039234  1
  Si  Si28  1  0.142100  0.469126  0.958101  1
  Si  Si29  1  0.642683  0.029693  0.540805  1
  Si  Si30  1  0.357110  0.968411  0.461408  1
  Si  Si31  1  0.857204  0.534037  0.460361  1
  Si  Si32  1  0.781174  0.624698  0.750436  1
  Si  Si33  1  0.230582  0.382946  0.248956  1
  Si  Si34  1  0.641553  0.031000  0.959529  1
  As  As35  1  0.289978  0.852080  0.750481  1
