# generated using pymatgen
data_Dy4LuPb3Cl
_symmetry_space_group_name_H-M   'P 1'
_cell_length_a   9.19569300
_cell_length_b   9.19569211
_cell_length_c   6.60875900
_cell_angle_alpha   90.00000000
_cell_angle_beta   90.00000000
_cell_angle_gamma   119.99999962
_symmetry_Int_Tables_number   1
_chemical_formula_structural   Dy4LuPb3Cl
_chemical_formula_sum   'Dy8 Lu2 Pb6 Cl2'
_cell_volume   483.97110540
_cell_formula_units_Z   2
loop_
 _symmetry_equiv_pos_site_id
 _symmetry_equiv_pos_as_xyz
  1  'x, y, z'
loop_
 _atom_site_type_symbol
 _atom_site_label
 _atom_site_symmetry_multiplicity
 _atom_site_fract_x
 _atom_site_fract_y
 _atom_site_fract_z
 _atom_site_occupancy
  Dy  Dy0  1  0.260609  0.000000  0.750293  1
  Dy  Dy1  1  0.739391  0.000000  0.249707  1
  Dy  Dy2  1  0.000000  0.260609  0.750293  1
  Dy  Dy3  1  0.000000  0.739391  0.249707  1
  Dy  Dy4  1  0.739391  0.739391  0.750293  1
  Dy  Dy5  1  0.260609  0.260609  0.249707  1
  Dy  Dy6  1  0.333333  0.666667  0.500000  1
  Dy  Dy7  1  0.666667  0.333333  0.500000  1
  Lu  Lu8  1  0.666667  0.333333  0.000000  1
  Lu  Lu9  1  0.333333  0.666667  0.000000  1
  Pb  Pb10  1  0.610183  0.000000  0.751198  1
  Pb  Pb11  1  0.389817  0.000000  0.248802  1
  Pb  Pb12  1  0.000000  0.610183  0.751198  1
  Pb  Pb13  1  0.000000  0.389817  0.248802  1
  Pb  Pb14  1  0.389817  0.389817  0.751198  1
  Pb  Pb15  1  0.610183  0.610183  0.248802  1
  Cl  Cl16  1  0.000000  0.000000  0.500000  1
  Cl  Cl17  1  0.000000  0.000000  0.000000  1
