# generated using pymatgen
data_Dy2Mn4Co8SiP6
_symmetry_space_group_name_H-M   'P 1'
_cell_length_a   9.08747613
_cell_length_b   9.07920397
_cell_length_c   3.62099500
_cell_angle_alpha   90.00000000
_cell_angle_beta   90.00000000
_cell_angle_gamma   119.82532441
_symmetry_Int_Tables_number   1
_chemical_formula_structural   Dy2Mn4Co8SiP6
_chemical_formula_sum   'Dy2 Mn4 Co8 Si1 P6'
_cell_volume   259.18588534
_cell_formula_units_Z   1
loop_
 _symmetry_equiv_pos_site_id
 _symmetry_equiv_pos_as_xyz
  1  'x, y, z'
loop_
 _atom_site_type_symbol
 _atom_site_label
 _atom_site_symmetry_multiplicity
 _atom_site_fract_x
 _atom_site_fract_y
 _atom_site_fract_z
 _atom_site_occupancy
  Dy  Dy0  1  0.665216  0.330273  0.000000  1
  Dy  Dy1  1  0.334147  0.666825  0.500000  1
  Mn  Mn2  1  0.843999  0.120247  0.000000  1
  Mn  Mn3  1  0.119895  0.895881  0.500000  1
  Mn  Mn4  1  0.103373  0.224931  0.500000  1
  Mn  Mn5  1  0.778162  0.885548  0.500000  1
  Co  Co6  1  0.368788  0.939096  0.000000  1
  Co  Co7  1  0.061702  0.429297  0.000000  1
  Co  Co8  1  0.567596  0.630389  0.000000  1
  Co  Co9  1  0.885554  0.726942  0.000000  1
  Co  Co10  1  0.275552  0.157224  0.000000  1
  Co  Co11  1  0.953342  0.562597  0.500000  1
  Co  Co12  1  0.431902  0.381378  0.500000  1
  Co  Co13  1  0.611346  0.049633  0.500000  1
  Si  Si14  1  0.710484  0.594860  0.500000  1
  P  P15  1  0.111361  0.698748  0.000000  1
  P  P16  1  0.302267  0.412801  0.000000  1
  P  P17  1  0.588408  0.889021  0.000000  1
  P  P18  1  0.404283  0.115908  0.500000  1
  P  P19  1  0.880929  0.287552  0.500000  1
  P  P20  1  0.001694  0.000853  0.000000  1
