# generated using pymatgen
data_Zr2ZnInPt2
_symmetry_space_group_name_H-M   'P 1'
_cell_length_a   7.46323200
_cell_length_b   7.46323243
_cell_length_c   6.99354700
_cell_angle_alpha   90.00000000
_cell_angle_beta   90.00000000
_cell_angle_gamma   119.99999811
_symmetry_Int_Tables_number   1
_chemical_formula_structural   Zr2ZnInPt2
_chemical_formula_sum   'Zr6 Zn3 In3 Pt6'
_cell_volume   337.35103517
_cell_formula_units_Z   3
loop_
 _symmetry_equiv_pos_site_id
 _symmetry_equiv_pos_as_xyz
  1  'x, y, z'
loop_
 _atom_site_type_symbol
 _atom_site_label
 _atom_site_symmetry_multiplicity
 _atom_site_fract_x
 _atom_site_fract_y
 _atom_site_fract_z
 _atom_site_occupancy
  Zr  Zr0  1  0.387925  0.399479  0.738944  1
  Zr  Zr1  1  0.011555  0.612075  0.738944  1
  Zr  Zr2  1  0.600521  0.988445  0.738944  1
  Zr  Zr3  1  0.612075  0.011555  0.261056  1
  Zr  Zr4  1  0.988445  0.600521  0.261056  1
  Zr  Zr5  1  0.399479  0.387925  0.261056  1
  Zn  Zn6  1  0.716379  0.716379  0.500000  1
  Zn  Zn7  1  0.283621  0.000000  0.500000  1
  Zn  Zn8  1  0.000000  0.283621  0.500000  1
  In  In9  1  0.261237  0.000000  0.000000  1
  In  In10  1  0.738763  0.738763  0.000000  1
  In  In11  1  0.000000  0.261237  0.000000  1
  Pt  Pt12  1  0.666667  0.333333  0.981408  1
  Pt  Pt13  1  0.000000  0.000000  0.717198  1
  Pt  Pt14  1  0.666667  0.333333  0.516437  1
  Pt  Pt15  1  0.333333  0.666667  0.483563  1
  Pt  Pt16  1  0.333333  0.666667  0.018592  1
  Pt  Pt17  1  0.000000  0.000000  0.282802  1
