# generated using pymatgen
data_Tm10In3Bi2Te
_symmetry_space_group_name_H-M   'P 1'
_cell_length_a   6.49270500
_cell_length_b   8.94751325
_cell_length_c   8.89723800
_cell_angle_alpha   120.01098374
_cell_angle_beta   90.00008825
_cell_angle_gamma   89.99985981
_symmetry_Int_Tables_number   1
_chemical_formula_structural   Tm10In3Bi2Te
_chemical_formula_sum   'Tm10 In3 Bi2 Te1'
_cell_volume   447.57496105
_cell_formula_units_Z   1
loop_
 _symmetry_equiv_pos_site_id
 _symmetry_equiv_pos_as_xyz
  1  'x, y, z'
loop_
 _atom_site_type_symbol
 _atom_site_label
 _atom_site_symmetry_multiplicity
 _atom_site_fract_x
 _atom_site_fract_y
 _atom_site_fract_z
 _atom_site_occupancy
  Tm  Tm0  1  0.497638  0.326797  0.662298  1
  Tm  Tm1  1  0.497493  0.675151  0.343063  1
  Tm  Tm2  1  0.002506  0.675144  0.343056  1
  Tm  Tm3  1  0.002362  0.326802  0.662301  1
  Tm  Tm4  1  0.749997  0.230294  0.989975  1
  Tm  Tm5  1  0.750000  0.772452  0.759376  1
  Tm  Tm6  1  0.750002  0.003505  0.239458  1
  Tm  Tm7  1  0.250001  0.765543  0.001657  1
  Tm  Tm8  1  0.249998  0.231962  0.241521  1
  Tm  Tm9  1  0.249997  0.992370  0.759411  1
  In  In10  1  0.749998  0.003099  0.599824  1
  In  In11  1  0.250000  0.601638  0.605780  1
  In  In12  1  0.249997  0.999792  0.397048  1
  Bi  Bi13  1  0.750000  0.607050  0.998607  1
  Bi  Bi14  1  0.749998  0.396313  0.393148  1
  Te  Te15  1  0.250009  0.392087  0.003477  1
