# generated using pymatgen
data_YbSm7SbPd24
_symmetry_space_group_name_H-M   'P 1'
_cell_length_a   8.46614520
_cell_length_b   8.46614520
_cell_length_c   8.46614520
_cell_angle_alpha   90.05837894
_cell_angle_beta   90.05837894
_cell_angle_gamma   89.94162106
_symmetry_Int_Tables_number   1
_chemical_formula_structural   YbSm7SbPd24
_chemical_formula_sum   'Yb1 Sm7 Sb1 Pd24'
_cell_volume   606.81521492
_cell_formula_units_Z   1
loop_
 _symmetry_equiv_pos_site_id
 _symmetry_equiv_pos_as_xyz
  1  'x, y, z'
loop_
 _atom_site_type_symbol
 _atom_site_label
 _atom_site_symmetry_multiplicity
 _atom_site_fract_x
 _atom_site_fract_y
 _atom_site_fract_z
 _atom_site_occupancy
  Yb  Yb0  1  0.746713  0.746713  0.253287  1
  Sm  Sm1  1  0.745942  0.254202  0.745798  1
  Sm  Sm2  1  0.254202  0.745942  0.745798  1
  Sm  Sm3  1  0.745814  0.745814  0.745741  1
  Sm  Sm4  1  0.745814  0.254259  0.254186  1
  Sm  Sm5  1  0.253834  0.253834  0.746166  1
  Sm  Sm6  1  0.254259  0.745814  0.254186  1
  Sm  Sm7  1  0.254202  0.254202  0.254058  1
  Sb  Sb8  1  0.999641  0.999641  0.000359  1
  Pd  Pd9  1  0.998354  0.998354  0.306284  1
  Pd  Pd10  1  0.734988  0.998550  0.499072  1
  Pd  Pd11  1  0.734988  0.500928  0.001450  1
  Pd  Pd12  1  0.500213  0.000289  0.735271  1
  Pd  Pd13  1  0.998550  0.734988  0.499072  1
  Pd  Pd14  1  0.500928  0.998550  0.265012  1
  Pd  Pd15  1  0.000289  0.264729  0.499787  1
  Pd  Pd16  1  0.500928  0.734988  0.001450  1
  Pd  Pd17  1  0.255053  0.499950  0.500050  1
  Pd  Pd18  1  0.499950  0.499950  0.744947  1
  Pd  Pd19  1  0.501447  0.501447  0.254812  1
  Pd  Pd20  1  0.499950  0.255053  0.500050  1
  Pd  Pd21  1  0.501447  0.745188  0.498553  1
  Pd  Pd22  1  0.745188  0.501447  0.498553  1
  Pd  Pd23  1  0.306875  0.999925  0.000075  1
  Pd  Pd24  1  0.999925  0.999925  0.693125  1
  Pd  Pd25  1  0.998550  0.500928  0.265012  1
  Pd  Pd26  1  0.999925  0.306875  0.000075  1
  Pd  Pd27  1  0.998354  0.693716  0.001646  1
  Pd  Pd28  1  0.693716  0.998354  0.001646  1
  Pd  Pd29  1  0.264729  0.500213  0.999711  1
  Pd  Pd30  1  0.264729  0.000289  0.499787  1
  Pd  Pd31  1  0.000289  0.500213  0.735271  1
  Pd  Pd32  1  0.500213  0.264729  0.999711  1
