# generated using pymatgen
data_Sc6Zn20Ni3P
_symmetry_space_group_name_H-M   'P 1'
_cell_length_a   8.74894202
_cell_length_b   8.74894178
_cell_length_c   8.69547600
_cell_angle_alpha   59.73622553
_cell_angle_beta   59.73622646
_cell_angle_gamma   59.54974651
_symmetry_Int_Tables_number   1
_chemical_formula_structural   Sc6Zn20Ni3P
_chemical_formula_sum   'Sc6 Zn20 Ni3 P1'
_cell_volume   467.15234550
_cell_formula_units_Z   1
loop_
 _symmetry_equiv_pos_site_id
 _symmetry_equiv_pos_as_xyz
  1  'x, y, z'
loop_
 _atom_site_type_symbol
 _atom_site_label
 _atom_site_symmetry_multiplicity
 _atom_site_fract_x
 _atom_site_fract_y
 _atom_site_fract_z
 _atom_site_occupancy
  Sc  Sc0  1  0.709065  0.287826  0.290457  1
  Sc  Sc1  1  0.290935  0.712174  0.709543  1
  Sc  Sc2  1  0.287826  0.709065  0.290457  1
  Sc  Sc3  1  0.712174  0.290935  0.709543  1
  Sc  Sc4  1  0.292955  0.292955  0.702925  1
  Sc  Sc5  1  0.707045  0.707045  0.297075  1
  Zn  Zn6  1  0.117943  0.117943  0.117034  1
  Zn  Zn7  1  0.882057  0.882057  0.882966  1
  Zn  Zn8  1  0.123867  0.123867  0.641859  1
  Zn  Zn9  1  0.112802  0.644012  0.129059  1
  Zn  Zn10  1  0.876133  0.876133  0.358141  1
  Zn  Zn11  1  0.887198  0.355988  0.870941  1
  Zn  Zn12  1  0.644012  0.112802  0.129059  1
  Zn  Zn13  1  0.355988  0.887198  0.870941  1
  Zn  Zn14  1  0.500000  0.000000  0.000000  1
  Zn  Zn15  1  0.000000  0.500000  0.000000  1
  Zn  Zn16  1  0.000000  0.000000  0.500000  1
  Zn  Zn17  1  0.500000  0.500000  0.000000  1
  Zn  Zn18  1  0.328839  0.328839  0.338320  1
  Zn  Zn19  1  0.671161  0.671161  0.661680  1
  Zn  Zn20  1  0.334884  0.334884  0.996245  1
  Zn  Zn21  1  0.336449  0.000760  0.337900  1
  Zn  Zn22  1  0.665116  0.665116  0.003755  1
  Zn  Zn23  1  0.663551  0.999240  0.662100  1
  Zn  Zn24  1  0.000760  0.336449  0.337900  1
  Zn  Zn25  1  0.999240  0.663551  0.662100  1
  Ni  Ni26  1  0.000000  0.500000  0.500000  1
  Ni  Ni27  1  0.500000  0.000000  0.500000  1
  Ni  Ni28  1  0.000000  0.000000  0.000000  1
  P  P29  1  0.500000  0.500000  0.500000  1
