# generated using pymatgen
data_Sc2Be2AlIr5
_symmetry_space_group_name_H-M   'P 1'
_cell_length_a   9.51018000
_cell_length_b   9.51018000
_cell_length_c   3.08533700
_cell_angle_alpha   90.00000000
_cell_angle_beta   90.00000000
_cell_angle_gamma   90.00000000
_symmetry_Int_Tables_number   1
_chemical_formula_structural   Sc2Be2AlIr5
_chemical_formula_sum   'Sc4 Be4 Al2 Ir10'
_cell_volume   279.04874987
_cell_formula_units_Z   2
loop_
 _symmetry_equiv_pos_site_id
 _symmetry_equiv_pos_as_xyz
  1  'x, y, z'
loop_
 _atom_site_type_symbol
 _atom_site_label
 _atom_site_symmetry_multiplicity
 _atom_site_fract_x
 _atom_site_fract_y
 _atom_site_fract_z
 _atom_site_occupancy
  Sc  Sc0  1  0.675307  0.175307  0.000000  1
  Sc  Sc1  1  0.324693  0.824693  0.000000  1
  Sc  Sc2  1  0.175307  0.324693  0.000000  1
  Sc  Sc3  1  0.824693  0.675307  0.000000  1
  Be  Be4  1  0.123815  0.623815  0.000000  1
  Be  Be5  1  0.876185  0.376185  0.000000  1
  Be  Be6  1  0.623815  0.876185  0.000000  1
  Be  Be7  1  0.376185  0.123815  0.000000  1
  Al  Al8  1  0.000000  0.000000  0.000000  1
  Al  Al9  1  0.500000  0.500000  0.000000  1
  Ir  Ir10  1  0.208801  0.067419  0.500000  1
  Ir  Ir11  1  0.791199  0.932581  0.500000  1
  Ir  Ir12  1  0.067419  0.791199  0.500000  1
  Ir  Ir13  1  0.708801  0.432581  0.500000  1
  Ir  Ir14  1  0.932581  0.208801  0.500000  1
  Ir  Ir15  1  0.291199  0.567419  0.500000  1
  Ir  Ir16  1  0.567419  0.708801  0.500000  1
  Ir  Ir17  1  0.432581  0.291199  0.500000  1
  Ir  Ir18  1  0.500000  0.000000  0.500000  1
  Ir  Ir19  1  0.000000  0.500000  0.500000  1
