# generated using pymatgen
data_YbHf4Sc3(Si4Ru3)4
_symmetry_space_group_name_H-M   'P 1'
_cell_length_a   9.94793165
_cell_length_b   9.95363151
_cell_length_c   13.40213556
_cell_angle_alpha   53.67550664
_cell_angle_beta   53.58505403
_cell_angle_gamma   31.16096895
_symmetry_Int_Tables_number   1
_chemical_formula_structural   YbHf4Sc3(Si4Ru3)4
_chemical_formula_sum   'Yb1 Hf4 Sc3 Si16 Ru12'
_cell_volume   541.13082171
_cell_formula_units_Z   1
loop_
 _symmetry_equiv_pos_site_id
 _symmetry_equiv_pos_as_xyz
  1  'x, y, z'
loop_
 _atom_site_type_symbol
 _atom_site_label
 _atom_site_symmetry_multiplicity
 _atom_site_fract_x
 _atom_site_fract_y
 _atom_site_fract_z
 _atom_site_occupancy
  Yb  Yb0  1  0.303915  0.561374  0.638103  1
  Hf  Hf1  1  0.037970  0.295235  0.635819  1
  Hf  Hf2  1  0.705541  0.960487  0.864113  1
  Hf  Hf3  1  0.961702  0.703357  0.364071  1
  Hf  Hf4  1  0.296369  0.038484  0.135437  1
  Sc  Sc5  1  0.438374  0.708015  0.854722  1
  Sc  Sc6  1  0.710041  0.439063  0.351121  1
  Sc  Sc7  1  0.560627  0.291997  0.146835  1
  Si  Si8  1  0.872341  0.126666  0.249516  1
  Si  Si9  1  0.123382  0.877377  0.751431  1
  Si  Si10  1  0.383625  0.615699  0.250317  1
  Si  Si11  1  0.619869  0.380155  0.751935  1
  Si  Si12  1  0.972898  0.254362  0.892760  1
  Si  Si13  1  0.748321  0.021635  0.609185  1
  Si  Si14  1  0.026253  0.745502  0.109258  1
  Si  Si15  1  0.248887  0.978881  0.389469  1
  Si  Si16  1  0.574085  0.083300  0.066343  1
  Si  Si17  1  0.913859  0.426698  0.434726  1
  Si  Si18  1  0.425049  0.918005  0.933842  1
  Si  Si19  1  0.082119  0.573537  0.566429  1
  Si  Si20  1  0.385862  0.144589  0.396049  1
  Si  Si21  1  0.856330  0.612890  0.104111  1
  Si  Si22  1  0.613623  0.854109  0.604732  1
  Si  Si23  1  0.144494  0.388751  0.894844  1
  Ru  Ru24  1  0.646690  0.830460  0.282938  1
  Ru  Ru25  1  0.169350  0.351594  0.218065  1
  Ru  Ru26  1  0.759242  0.484662  0.070261  1
  Ru  Ru27  1  0.829131  0.647746  0.783290  1
  Ru  Ru28  1  0.901098  0.141602  0.585547  1
  Ru  Ru29  1  0.857454  0.101805  0.916416  1
  Ru  Ru30  1  0.096407  0.863291  0.410822  1
  Ru  Ru31  1  0.144427  0.896004  0.085958  1
  Ru  Ru32  1  0.241301  0.515484  0.931743  1
  Ru  Ru33  1  0.487226  0.758530  0.571065  1
  Ru  Ru34  1  0.512611  0.242427  0.430314  1
  Ru  Ru35  1  0.349527  0.166228  0.718416  1
