# generated using pymatgen
data_Na2YbIrO6
_symmetry_space_group_name_H-M   'P 1'
_cell_length_a   5.56718068
_cell_length_b   5.77675402
_cell_length_c   7.99150682
_cell_angle_alpha   90.00829401
_cell_angle_beta   90.43167042
_cell_angle_gamma   90.00318760
_symmetry_Int_Tables_number   1
_chemical_formula_structural   Na2YbIrO6
_chemical_formula_sum   'Na4 Yb2 Ir2 O12'
_cell_volume   257.00142684
_cell_formula_units_Z   2
loop_
 _symmetry_equiv_pos_site_id
 _symmetry_equiv_pos_as_xyz
  1  'x, y, z'
loop_
 _atom_site_type_symbol
 _atom_site_label
 _atom_site_symmetry_multiplicity
 _atom_site_fract_x
 _atom_site_fract_y
 _atom_site_fract_z
 _atom_site_occupancy
  Na  Na0  1  0.983402  0.055185  0.248311  1
  Na  Na1  1  0.516602  0.555245  0.251568  1
  Na  Na2  1  0.483399  0.444754  0.748431  1
  Na  Na3  1  0.016599  0.944815  0.751689  1
  Yb  Yb4  1  0.000000  0.500001  0.000000  1
  Yb  Yb5  1  0.500001  0.000000  0.500000  1
  Ir  Ir6  1  0.500000  0.000000  0.000000  1
  Ir  Ir7  1  0.000000  0.500001  0.499999  1
  O  O8  1  0.774768  0.818805  0.047215  1
  O  O9  1  0.673819  0.270637  0.059388  1
  O  O10  1  0.399919  0.964628  0.224423  1
  O  O11  1  0.100061  0.464674  0.275606  1
  O  O12  1  0.826332  0.770626  0.440682  1
  O  O13  1  0.725198  0.318890  0.452697  1
  O  O14  1  0.274803  0.681112  0.547303  1
  O  O15  1  0.173669  0.229374  0.559319  1
  O  O16  1  0.899938  0.535325  0.724395  1
  O  O17  1  0.600080  0.035373  0.775578  1
  O  O18  1  0.326182  0.729362  0.940614  1
  O  O19  1  0.225233  0.181194  0.952785  1
