# generated using pymatgen
data_Tb5Ho5SnSb5
_symmetry_space_group_name_H-M   'P 1'
_cell_length_a   8.97766300
_cell_length_b   8.96675458
_cell_length_c   6.38605000
_cell_angle_alpha   90.00000000
_cell_angle_beta   90.00000000
_cell_angle_gamma   120.04024731
_symmetry_Int_Tables_number   1
_chemical_formula_structural   Tb5Ho5SnSb5
_chemical_formula_sum   'Tb5 Ho5 Sn1 Sb5'
_cell_volume   445.02586576
_cell_formula_units_Z   1
loop_
 _symmetry_equiv_pos_site_id
 _symmetry_equiv_pos_as_xyz
  1  'x, y, z'
loop_
 _atom_site_type_symbol
 _atom_site_label
 _atom_site_symmetry_multiplicity
 _atom_site_fract_x
 _atom_site_fract_y
 _atom_site_fract_z
 _atom_site_occupancy
  Tb  Tb0  1  0.755956  0.000000  0.750000  1
  Tb  Tb1  1  0.753147  0.754713  0.250000  1
  Tb  Tb2  1  0.998434  0.245287  0.250000  1
  Tb  Tb3  1  0.002867  0.756600  0.750000  1
  Tb  Tb4  1  0.246267  0.243400  0.750000  1
  Ho  Ho5  1  0.333640  0.668033  0.000267  1
  Ho  Ho6  1  0.665608  0.331967  0.499733  1
  Ho  Ho7  1  0.665608  0.331967  0.000267  1
  Ho  Ho8  1  0.333640  0.668033  0.499733  1
  Ho  Ho9  1  0.243177  0.000000  0.250000  1
  Sn  Sn10  1  0.394852  0.000000  0.750000  1
  Sb  Sb11  1  0.389076  0.389752  0.250000  1
  Sb  Sb12  1  0.999325  0.610248  0.250000  1
  Sb  Sb13  1  0.000980  0.390815  0.750000  1
  Sb  Sb14  1  0.610166  0.609185  0.750000  1
  Sb  Sb15  1  0.607257  0.000000  0.250000  1
