# generated using pymatgen
data_ErFeGeH
_symmetry_space_group_name_H-M   'P 1'
_cell_length_a   3.83394700
_cell_length_b   3.83394700
_cell_length_c   7.54253700
_cell_angle_alpha   90.00000000
_cell_angle_beta   90.00000000
_cell_angle_gamma   90.00000000
_symmetry_Int_Tables_number   1
_chemical_formula_structural   ErFeGeH
_chemical_formula_sum   'Er2 Fe2 Ge2 H2'
_cell_volume   110.86887972
_cell_formula_units_Z   2
loop_
 _symmetry_equiv_pos_site_id
 _symmetry_equiv_pos_as_xyz
  1  'x, y, z'
loop_
 _atom_site_type_symbol
 _atom_site_label
 _atom_site_symmetry_multiplicity
 _atom_site_fract_x
 _atom_site_fract_y
 _atom_site_fract_z
 _atom_site_occupancy
  Er  Er0  1  0.500000  0.000000  0.343234  1
  Er  Er1  1  0.000000  0.500000  0.656766  1
  Fe  Fe2  1  0.500000  0.500000  0.000000  1
  Fe  Fe3  1  0.000000  0.000000  0.000000  1
  Ge  Ge4  1  0.500000  0.000000  0.808623  1
  Ge  Ge5  1  0.000000  0.500000  0.191377  1
  H  H6  1  0.000000  0.000000  0.500000  1
  H  H7  1  0.500000  0.500000  0.500000  1
