# generated using pymatgen
data_La14NiRuPt4
_symmetry_space_group_name_H-M   'P 1'
_cell_length_a   6.56844210
_cell_length_b   10.32209030
_cell_length_c   10.31270000
_cell_angle_alpha   119.94625069
_cell_angle_beta   90.07141430
_cell_angle_gamma   89.92320288
_symmetry_Int_Tables_number   1
_chemical_formula_structural   La14NiRuPt4
_chemical_formula_sum   'La14 Ni1 Ru1 Pt4'
_cell_volume   605.85336525
_cell_formula_units_Z   1
loop_
 _symmetry_equiv_pos_site_id
 _symmetry_equiv_pos_as_xyz
  1  'x, y, z'
loop_
 _atom_site_type_symbol
 _atom_site_label
 _atom_site_symmetry_multiplicity
 _atom_site_fract_x
 _atom_site_fract_y
 _atom_site_fract_z
 _atom_site_occupancy
  La  La0  1  0.472548  0.330969  0.664228  1
  La  La1  1  0.967666  0.668655  0.329965  1
  La  La2  1  0.240793  0.126069  0.870459  1
  La  La3  1  0.240657  0.746920  0.876920  1
  La  La4  1  0.244347  0.121531  0.251709  1
  La  La5  1  0.744062  0.884308  0.132781  1
  La  La6  1  0.738172  0.251211  0.133039  1
  La  La7  1  0.739207  0.870785  0.741992  1
  La  La8  1  0.435661  0.531999  0.461118  1
  La  La9  1  0.433887  0.922553  0.450260  1
  La  La10  1  0.444008  0.545577  0.078443  1
  La  La11  1  0.939242  0.452758  0.534614  1
  La  La12  1  0.935413  0.079907  0.534095  1
  La  La13  1  0.942132  0.467013  0.932605  1
  Ni  Ni14  1  0.199090  0.810325  0.185989  1
  Ru  Ru15  1  0.698109  0.187511  0.379277  1
  Pt  Pt16  1  0.195520  0.375023  0.185644  1
  Pt  Pt17  1  0.195302  0.810953  0.622754  1
  Pt  Pt18  1  0.700121  0.189044  0.817521  1
  Pt  Pt19  1  0.696066  0.626893  0.816585  1
