# generated using pymatgen
data_Th6Al24CoRu7
_symmetry_space_group_name_H-M   'P 1'
_cell_length_a   8.96455100
_cell_length_b   8.96455034
_cell_length_c   9.54403200
_cell_angle_alpha   90.00000000
_cell_angle_beta   90.00000000
_cell_angle_gamma   119.99999138
_symmetry_Int_Tables_number   1
_chemical_formula_structural   Th6Al24CoRu7
_chemical_formula_sum   'Th6 Al24 Co1 Ru7'
_cell_volume   664.23171614
_cell_formula_units_Z   1
loop_
 _symmetry_equiv_pos_site_id
 _symmetry_equiv_pos_as_xyz
  1  'x, y, z'
loop_
 _atom_site_type_symbol
 _atom_site_label
 _atom_site_symmetry_multiplicity
 _atom_site_fract_x
 _atom_site_fract_y
 _atom_site_fract_z
 _atom_site_occupancy
  Th  Th0  1  0.194773  0.389546  0.249966  1
  Th  Th1  1  0.805227  0.610454  0.750034  1
  Th  Th2  1  0.610454  0.805227  0.249966  1
  Th  Th3  1  0.389546  0.194773  0.750034  1
  Th  Th4  1  0.194773  0.805227  0.249966  1
  Th  Th5  1  0.805227  0.194773  0.750034  1
  Al  Al6  1  0.333333  0.666667  0.009629  1
  Al  Al7  1  0.666667  0.333333  0.990371  1
  Al  Al8  1  0.666667  0.333333  0.510492  1
  Al  Al9  1  0.333333  0.666667  0.489508  1
  Al  Al10  1  0.162170  0.324339  0.577769  1
  Al  Al11  1  0.837830  0.675661  0.422231  1
  Al  Al12  1  0.675661  0.837830  0.577769  1
  Al  Al13  1  0.839193  0.678387  0.076738  1
  Al  Al14  1  0.324339  0.162170  0.422231  1
  Al  Al15  1  0.160807  0.321613  0.923262  1
  Al  Al16  1  0.162170  0.837830  0.577769  1
  Al  Al17  1  0.321613  0.160807  0.076738  1
  Al  Al18  1  0.837830  0.162170  0.422231  1
  Al  Al19  1  0.678387  0.839193  0.923262  1
  Al  Al20  1  0.839193  0.160807  0.076738  1
  Al  Al21  1  0.160807  0.839193  0.923262  1
  Al  Al22  1  0.563487  0.126974  0.249927  1
  Al  Al23  1  0.436513  0.873026  0.750073  1
  Al  Al24  1  0.873026  0.436513  0.249927  1
  Al  Al25  1  0.126974  0.563487  0.750073  1
  Al  Al26  1  0.563487  0.436513  0.249927  1
  Al  Al27  1  0.436513  0.563487  0.750073  1
  Al  Al28  1  0.000000  0.000000  0.244048  1
  Al  Al29  1  0.000000  0.000000  0.755952  1
  Co  Co30  1  0.000000  0.000000  0.000000  1
  Ru  Ru31  1  0.500000  0.000000  0.000000  1
  Ru  Ru32  1  0.000000  0.500000  0.000000  1
  Ru  Ru33  1  0.500000  0.000000  0.500000  1
  Ru  Ru34  1  0.500000  0.500000  0.000000  1
  Ru  Ru35  1  0.000000  0.500000  0.500000  1
  Ru  Ru36  1  0.500000  0.500000  0.500000  1
  Ru  Ru37  1  0.000000  0.000000  0.500000  1
