# generated using pymatgen
data_Ce2B6IrRh8
_symmetry_space_group_name_H-M   'P 1'
_cell_length_a   5.64037800
_cell_length_b   5.64997919
_cell_length_c   8.60420000
_cell_angle_alpha   90.00000000
_cell_angle_beta   90.00000000
_cell_angle_gamma   119.94380244
_symmetry_Int_Tables_number   1
_chemical_formula_structural   Ce2B6IrRh8
_chemical_formula_sum   'Ce2 B6 Ir1 Rh8'
_cell_volume   237.59748676
_cell_formula_units_Z   1
loop_
 _symmetry_equiv_pos_site_id
 _symmetry_equiv_pos_as_xyz
  1  'x, y, z'
loop_
 _atom_site_type_symbol
 _atom_site_label
 _atom_site_symmetry_multiplicity
 _atom_site_fract_x
 _atom_site_fract_y
 _atom_site_fract_z
 _atom_site_occupancy
  Ce  Ce0  1  0.000000  0.000000  0.703787  1
  Ce  Ce1  1  0.000000  0.000000  0.296213  1
  B  B2  1  0.666912  0.333823  0.000000  1
  B  B3  1  0.333088  0.666177  0.000000  1
  B  B4  1  0.666096  0.332191  0.667441  1
  B  B5  1  0.333904  0.667809  0.667441  1
  B  B6  1  0.333904  0.667809  0.332559  1
  B  B7  1  0.666096  0.332191  0.332559  1
  Ir  Ir8  1  0.500000  0.000000  0.500000  1
  Rh  Rh9  1  0.500000  0.500000  0.836660  1
  Rh  Rh10  1  0.500000  0.000000  0.837217  1
  Rh  Rh11  1  0.000000  0.500000  0.836660  1
  Rh  Rh12  1  0.500000  0.500000  0.163340  1
  Rh  Rh13  1  0.500000  0.000000  0.162783  1
  Rh  Rh14  1  0.000000  0.500000  0.163340  1
  Rh  Rh15  1  0.500000  0.500000  0.500000  1
  Rh  Rh16  1  0.000000  0.500000  0.500000  1
