# generated using pymatgen
data_CeErNi3P4
_symmetry_space_group_name_H-M   'P 1'
_cell_length_a   3.87662800
_cell_length_b   3.89777900
_cell_length_c   9.20539900
_cell_angle_alpha   90.00000000
_cell_angle_beta   90.00000000
_cell_angle_gamma   90.00000000
_symmetry_Int_Tables_number   1
_chemical_formula_structural   CeErNi3P4
_chemical_formula_sum   'Ce1 Er1 Ni3 P4'
_cell_volume   139.09578091
_cell_formula_units_Z   1
loop_
 _symmetry_equiv_pos_site_id
 _symmetry_equiv_pos_as_xyz
  1  'x, y, z'
loop_
 _atom_site_type_symbol
 _atom_site_label
 _atom_site_symmetry_multiplicity
 _atom_site_fract_x
 _atom_site_fract_y
 _atom_site_fract_z
 _atom_site_occupancy
  Ce  Ce0  1  0.000000  0.500000  0.236627  1
  Er  Er1  1  0.500000  0.000000  0.760305  1
  Ni  Ni2  1  0.000000  0.000000  0.507947  1
  Ni  Ni3  1  0.000000  0.000000  0.995117  1
  Ni  Ni4  1  0.500000  0.500000  0.501880  1
  P  P5  1  0.000000  0.500000  0.875502  1
  P  P6  1  0.500000  0.000000  0.372189  1
  P  P7  1  0.500000  0.000000  0.122448  1
  P  P8  1  0.000000  0.500000  0.627984  1
