# generated using pymatgen
data_Pr6PtBr10
_symmetry_space_group_name_H-M   'P 1'
_cell_length_a   7.68800633
_cell_length_b   9.72507710
_cell_length_c   9.67458578
_cell_angle_alpha   109.24360149
_cell_angle_beta   106.42368402
_cell_angle_gamma   96.99216069
_symmetry_Int_Tables_number   1
_chemical_formula_structural   Pr6PtBr10
_chemical_formula_sum   'Pr6 Pt1 Br10'
_cell_volume   636.33949386
_cell_formula_units_Z   1
loop_
 _symmetry_equiv_pos_site_id
 _symmetry_equiv_pos_as_xyz
  1  'x, y, z'
loop_
 _atom_site_type_symbol
 _atom_site_label
 _atom_site_symmetry_multiplicity
 _atom_site_fract_x
 _atom_site_fract_y
 _atom_site_fract_z
 _atom_site_occupancy
  Pr  Pr0  1  0.369227  0.188078  0.141403  1
  Pr  Pr1  1  0.024289  0.898272  0.693888  1
  Pr  Pr2  1  0.132569  0.752483  0.048994  1
  Pr  Pr3  1  0.630773  0.811922  0.858597  1
  Pr  Pr4  1  0.867431  0.247517  0.951006  1
  Pr  Pr5  1  0.975711  0.101728  0.306112  1
  Pt  Pt6  1  0.000000  0.000000  0.000000  1
  Br  Br7  1  0.449033  0.076567  0.826022  1
  Br  Br8  1  0.749210  0.547185  0.920737  1
  Br  Br9  1  0.250790  0.452815  0.079263  1
  Br  Br10  1  0.912180  0.165678  0.633737  1
  Br  Br11  1  0.634434  0.726053  0.539770  1
  Br  Br12  1  0.550967  0.923433  0.173978  1
  Br  Br13  1  0.087820  0.834322  0.366263  1
  Br  Br14  1  0.799708  0.352268  0.259650  1
  Br  Br15  1  0.200292  0.647732  0.740350  1
  Br  Br16  1  0.365566  0.273947  0.460230  1
