# generated using pymatgen
data_Ca2Tm5Sn23Rh6
_symmetry_space_group_name_H-M   'P 1'
_cell_length_a   9.82698800
_cell_length_b   9.82781116
_cell_length_c   10.08435000
_cell_angle_alpha   90.00000000
_cell_angle_beta   90.00103782
_cell_angle_gamma   120.00277640
_symmetry_Int_Tables_number   1
_chemical_formula_structural   Ca2Tm5Sn23Rh6
_chemical_formula_sum   'Ca2 Tm5 Sn23 Rh6'
_cell_volume   843.41946510
_cell_formula_units_Z   1
loop_
 _symmetry_equiv_pos_site_id
 _symmetry_equiv_pos_as_xyz
  1  'x, y, z'
loop_
 _atom_site_type_symbol
 _atom_site_label
 _atom_site_symmetry_multiplicity
 _atom_site_fract_x
 _atom_site_fract_y
 _atom_site_fract_z
 _atom_site_occupancy
  Ca  Ca0  1  0.959317  0.479658  0.694273  1
  Ca  Ca1  1  0.000332  0.000166  0.999933  1
  Tm  Tm2  1  0.480741  0.518388  0.305907  1
  Tm  Tm3  1  0.518282  0.481378  0.693758  1
  Tm  Tm4  1  0.480741  0.962355  0.305907  1
  Tm  Tm5  1  0.518282  0.036902  0.693758  1
  Tm  Tm6  1  0.037427  0.518715  0.305893  1
  Sn  Sn7  1  0.120210  0.879658  0.282440  1
  Sn  Sn8  1  0.880676  0.119529  0.717980  1
  Sn  Sn9  1  0.120210  0.240550  0.282440  1
  Sn  Sn10  1  0.880676  0.761147  0.717980  1
  Sn  Sn11  1  0.761201  0.880600  0.282716  1
  Sn  Sn12  1  0.238787  0.119394  0.717754  1
  Sn  Sn13  1  0.776948  0.221704  0.456745  1
  Sn  Sn14  1  0.223721  0.777947  0.542023  1
  Sn  Sn15  1  0.776948  0.555242  0.456745  1
  Sn  Sn16  1  0.223721  0.445775  0.542023  1
  Sn  Sn17  1  0.446012  0.223006  0.458239  1
  Sn  Sn18  1  0.553806  0.776904  0.541692  1
  Sn  Sn19  1  0.351682  0.000500  0.000224  1
  Sn  Sn20  1  0.648932  0.000247  0.999619  1
  Sn  Sn21  1  0.000305  0.350196  0.999931  1
  Sn  Sn22  1  0.000305  0.650109  0.999931  1
  Sn  Sn23  1  0.648932  0.648685  0.999619  1
  Sn  Sn24  1  0.351682  0.351183  0.000224  1
  Sn  Sn25  1  0.333426  0.666713  0.126334  1
  Sn  Sn26  1  0.662041  0.331020  0.875821  1
  Sn  Sn27  1  0.333518  0.666759  0.819648  1
  Sn  Sn28  1  0.666995  0.333497  0.180505  1
  Sn  Sn29  1  0.000480  0.000240  0.499380  1
  Rh  Rh30  1  0.828990  0.169822  0.201067  1
  Rh  Rh31  1  0.172923  0.832842  0.799010  1
  Rh  Rh32  1  0.828990  0.659171  0.201067  1
  Rh  Rh33  1  0.172923  0.340079  0.799010  1
  Rh  Rh34  1  0.341318  0.170659  0.201990  1
  Rh  Rh35  1  0.658523  0.829260  0.798410  1
