# generated using pymatgen
data_Tb9Ho(In2Pt)4
_symmetry_space_group_name_H-M   'P 1'
_cell_length_a   3.64449400
_cell_length_b   8.19059321
_cell_length_c   18.35091162
_cell_angle_alpha   90.12908831
_cell_angle_beta   90.00000000
_cell_angle_gamma   90.00000000
_symmetry_Int_Tables_number   1
_chemical_formula_structural   Tb9Ho(In2Pt)4
_chemical_formula_sum   'Tb9 Ho1 In8 Pt4'
_cell_volume   547.78374124
_cell_formula_units_Z   1
loop_
 _symmetry_equiv_pos_site_id
 _symmetry_equiv_pos_as_xyz
  1  'x, y, z'
loop_
 _atom_site_type_symbol
 _atom_site_label
 _atom_site_symmetry_multiplicity
 _atom_site_fract_x
 _atom_site_fract_y
 _atom_site_fract_z
 _atom_site_occupancy
  Tb  Tb0  1  0.000000  0.117093  0.414850  1
  Tb  Tb1  1  0.000000  0.882596  0.584960  1
  Tb  Tb2  1  0.000000  0.382674  0.914996  1
  Tb  Tb3  1  0.000000  0.617357  0.085253  1
  Tb  Tb4  1  0.000000  0.242867  0.219954  1
  Tb  Tb5  1  0.000000  0.757177  0.780058  1
  Tb  Tb6  1  0.000000  0.257277  0.719934  1
  Tb  Tb7  1  0.000000  0.000010  0.000058  1
  Tb  Tb8  1  0.000000  0.499972  0.499992  1
  Ho  Ho9  1  0.000000  0.743142  0.279736  1
  In  In10  1  0.500000  0.424508  0.350773  1
  In  In11  1  0.500000  0.576123  0.649072  1
  In  In12  1  0.500000  0.076190  0.850863  1
  In  In13  1  0.500000  0.923531  0.149449  1
  In  In14  1  0.500000  0.292696  0.066964  1
  In  In15  1  0.500000  0.707556  0.933078  1
  In  In16  1  0.500000  0.207484  0.566886  1
  In  In17  1  0.500000  0.792223  0.432714  1
  Pt  Pt18  1  0.500000  0.022446  0.303187  1
  Pt  Pt19  1  0.500000  0.975659  0.696690  1
  Pt  Pt20  1  0.500000  0.475761  0.803341  1
  Pt  Pt21  1  0.500000  0.525656  0.197191  1
