# generated using pymatgen
data_CaHo(ErB8)2
_symmetry_space_group_name_H-M   'P 1'
_cell_length_a   7.10192625
_cell_length_b   7.10195593
_cell_length_c   4.01957300
_cell_angle_alpha   90.00000000
_cell_angle_beta   90.00000000
_cell_angle_gamma   90.11352739
_symmetry_Int_Tables_number   1
_chemical_formula_structural   CaHo(ErB8)2
_chemical_formula_sum   'Ca1 Ho1 Er2 B16'
_cell_volume   202.73708555
_cell_formula_units_Z   1
loop_
 _symmetry_equiv_pos_site_id
 _symmetry_equiv_pos_as_xyz
  1  'x, y, z'
loop_
 _atom_site_type_symbol
 _atom_site_label
 _atom_site_symmetry_multiplicity
 _atom_site_fract_x
 _atom_site_fract_y
 _atom_site_fract_z
 _atom_site_occupancy
  Ca  Ca0  1  0.180718  0.680666  0.000000  1
  Ho  Ho1  1  0.681728  0.818344  0.000000  1
  Er  Er2  1  0.318388  0.181739  0.000000  1
  Er  Er3  1  0.818969  0.318923  0.000000  1
  B  B4  1  0.323945  0.460413  0.500000  1
  B  B5  1  0.676999  0.537411  0.500000  1
  B  B6  1  0.538875  0.323813  0.500000  1
  B  B7  1  0.462981  0.675717  0.500000  1
  B  B8  1  0.000141  0.999813  0.202914  1
  B  B9  1  0.499433  0.499655  0.797092  1
  B  B10  1  0.000141  0.999813  0.797086  1
  B  B11  1  0.499433  0.499655  0.202908  1
  B  B12  1  0.587075  0.087198  0.500000  1
  B  B13  1  0.085967  0.412827  0.500000  1
  B  B14  1  0.912767  0.586010  0.500000  1
  B  B15  1  0.413763  0.913913  0.500000  1
  B  B16  1  0.037763  0.177250  0.500000  1
  B  B17  1  0.176046  0.963381  0.500000  1
  B  B18  1  0.824124  0.039228  0.500000  1
  B  B19  1  0.960744  0.824227  0.500000  1
