# generated using pymatgen
data_Pr3Hf4Sc3(Co2Si5)4
_symmetry_space_group_name_H-M   'P 1'
_cell_length_a   12.23307383
_cell_length_b   12.23307383
_cell_length_c   4.01106800
_cell_angle_alpha   90.00000000
_cell_angle_beta   90.00000000
_cell_angle_gamma   89.92203549
_symmetry_Int_Tables_number   1
_chemical_formula_structural   Pr3Hf4Sc3(Co2Si5)4
_chemical_formula_sum   'Pr3 Hf4 Sc3 Co8 Si20'
_cell_volume   600.24813086
_cell_formula_units_Z   1
loop_
 _symmetry_equiv_pos_site_id
 _symmetry_equiv_pos_as_xyz
  1  'x, y, z'
loop_
 _atom_site_type_symbol
 _atom_site_label
 _atom_site_symmetry_multiplicity
 _atom_site_fract_x
 _atom_site_fract_y
 _atom_site_fract_z
 _atom_site_occupancy
  Pr  Pr0  1  0.887496  0.387496  0.500000  1
  Pr  Pr1  1  0.384884  0.113808  0.500000  1
  Pr  Pr2  1  0.613808  0.884884  0.500000  1
  Hf  Hf3  1  0.677358  0.177358  0.500000  1
  Hf  Hf4  1  0.177881  0.326229  0.500000  1
  Hf  Hf5  1  0.826229  0.677881  0.500000  1
  Hf  Hf6  1  0.319608  0.819608  0.500000  1
  Sc  Sc7  1  0.000342  0.997974  0.000000  1
  Sc  Sc8  1  0.497974  0.500342  0.000000  1
  Sc  Sc9  1  0.113855  0.613855  0.500000  1
  Co  Co10  1  0.527175  0.260236  0.000000  1
  Co  Co11  1  0.255699  0.474854  0.000000  1
  Co  Co12  1  0.742230  0.528255  0.000000  1
  Co  Co13  1  0.469957  0.738615  0.000000  1
  Co  Co14  1  0.974854  0.755699  0.000000  1
  Co  Co15  1  0.028255  0.242230  0.000000  1
  Co  Co16  1  0.760236  0.027175  0.000000  1
  Co  Co17  1  0.238615  0.969957  0.000000  1
  Si  Si18  1  0.571659  0.071659  0.000000  1
  Si  Si19  1  0.072478  0.433090  0.000000  1
  Si  Si20  1  0.933090  0.572478  0.000000  1
  Si  Si21  1  0.426402  0.926402  0.000000  1
  Si  Si22  1  0.194297  0.155248  0.000000  1
  Si  Si23  1  0.154271  0.799133  0.000000  1
  Si  Si24  1  0.845454  0.195415  0.000000  1
  Si  Si25  1  0.806473  0.843811  0.000000  1
  Si  Si26  1  0.299133  0.654271  0.000000  1
  Si  Si27  1  0.695415  0.345454  0.000000  1
  Si  Si28  1  0.655248  0.694297  0.000000  1
  Si  Si29  1  0.343811  0.306473  0.000000  1
  Si  Si30  1  0.014127  0.159367  0.500000  1
  Si  Si31  1  0.158279  0.988505  0.500000  1
  Si  Si32  1  0.840623  0.010766  0.500000  1
  Si  Si33  1  0.999551  0.834596  0.500000  1
  Si  Si34  1  0.488505  0.658279  0.500000  1
  Si  Si35  1  0.510766  0.340623  0.500000  1
  Si  Si36  1  0.659367  0.514127  0.500000  1
  Si  Si37  1  0.334596  0.499551  0.500000  1
