# generated using pymatgen
data_Y6Zn21Pt2Se
_symmetry_space_group_name_H-M   'P 1'
_cell_length_a   8.96313898
_cell_length_b   8.99771182
_cell_length_c   8.99766400
_cell_angle_alpha   59.95244395
_cell_angle_beta   60.12699126
_cell_angle_gamma   60.12687927
_symmetry_Int_Tables_number   1
_chemical_formula_structural   Y6Zn21Pt2Se
_chemical_formula_sum   'Y6 Zn21 Pt2 Se1'
_cell_volume   513.90240117
_cell_formula_units_Z   1
loop_
 _symmetry_equiv_pos_site_id
 _symmetry_equiv_pos_as_xyz
  1  'x, y, z'
loop_
 _atom_site_type_symbol
 _atom_site_label
 _atom_site_symmetry_multiplicity
 _atom_site_fract_x
 _atom_site_fract_y
 _atom_site_fract_z
 _atom_site_occupancy
  Y  Y0  1  0.717548  0.282452  0.282452  1
  Y  Y1  1  0.282451  0.717551  0.717551  1
  Y  Y2  1  0.280403  0.716554  0.283447  1
  Y  Y3  1  0.719611  0.283431  0.716567  1
  Y  Y4  1  0.280406  0.283449  0.716551  1
  Y  Y5  1  0.719607  0.716565  0.283436  1
  Zn  Zn6  1  0.122243  0.122468  0.122466  1
  Zn  Zn7  1  0.877760  0.877533  0.877529  1
  Zn  Zn8  1  0.122221  0.125199  0.630361  1
  Zn  Zn9  1  0.122226  0.630355  0.125198  1
  Zn  Zn10  1  0.877780  0.874799  0.369646  1
  Zn  Zn11  1  0.877782  0.369641  0.874800  1
  Zn  Zn12  1  0.632822  0.122469  0.122468  1
  Zn  Zn13  1  0.367172  0.877535  0.877531  1
  Zn  Zn14  1  0.500000  0.000000  0.999999  1
  Zn  Zn15  1  0.000000  0.500000  0.000000  1
  Zn  Zn16  1  0.499999  0.999999  0.500000  1
  Zn  Zn17  1  0.000000  0.000001  0.500000  1
  Zn  Zn18  1  0.500000  0.500000  0.999999  1
  Zn  Zn19  1  0.331268  0.327054  0.327055  1
  Zn  Zn20  1  0.668733  0.672942  0.672943  1
  Zn  Zn21  1  0.330656  0.328796  0.009891  1
  Zn  Zn22  1  0.330656  0.009893  0.328795  1
  Zn  Zn23  1  0.669346  0.671205  0.990106  1
  Zn  Zn24  1  0.669345  0.990109  0.671204  1
  Zn  Zn25  1  0.014619  0.327056  0.327058  1
  Zn  Zn26  1  0.985378  0.672945  0.672945  1
  Pt  Pt27  1  0.999996  0.500000  0.499998  1
  Pt  Pt28  1  0.999991  0.999992  0.000009  1
  Se  Se29  1  0.499985  0.500004  0.499995  1
