# generated using pymatgen
data_Er2Re3Si4
_symmetry_space_group_name_H-M   'P 1'
_cell_length_a   6.75553200
_cell_length_b   6.75553200
_cell_length_c   12.72037300
_cell_angle_alpha   90.00000000
_cell_angle_beta   90.00000000
_cell_angle_gamma   90.00000000
_symmetry_Int_Tables_number   1
_chemical_formula_structural   Er2Re3Si4
_chemical_formula_sum   'Er8 Re12 Si16'
_cell_volume   580.52236699
_cell_formula_units_Z   4
loop_
 _symmetry_equiv_pos_site_id
 _symmetry_equiv_pos_as_xyz
  1  'x, y, z'
loop_
 _atom_site_type_symbol
 _atom_site_label
 _atom_site_symmetry_multiplicity
 _atom_site_fract_x
 _atom_site_fract_y
 _atom_site_fract_z
 _atom_site_occupancy
  Er  Er0  1  0.007041  0.661291  0.031150  1
  Er  Er1  1  0.992959  0.338709  0.531150  1
  Er  Er2  1  0.338709  0.992959  0.468850  1
  Er  Er3  1  0.161291  0.492959  0.781150  1
  Er  Er4  1  0.838709  0.507041  0.281150  1
  Er  Er5  1  0.492959  0.161291  0.218850  1
  Er  Er6  1  0.507041  0.838709  0.718850  1
  Er  Er7  1  0.661291  0.007041  0.968850  1
  Re  Re8  1  0.665573  0.665573  0.500000  1
  Re  Re9  1  0.165573  0.834427  0.250000  1
  Re  Re10  1  0.334427  0.334427  0.000000  1
  Re  Re11  1  0.019414  0.813775  0.631280  1
  Re  Re12  1  0.980586  0.186225  0.131280  1
  Re  Re13  1  0.813775  0.019414  0.368720  1
  Re  Re14  1  0.313775  0.480586  0.381280  1
  Re  Re15  1  0.686225  0.519414  0.881280  1
  Re  Re16  1  0.480586  0.313775  0.618720  1
  Re  Re17  1  0.519414  0.686225  0.118720  1
  Re  Re18  1  0.186225  0.980586  0.868720  1
  Re  Re19  1  0.834427  0.165573  0.750000  1
  Si  Si20  1  0.020777  0.726398  0.438187  1
  Si  Si21  1  0.615608  0.304611  0.433843  1
  Si  Si22  1  0.384392  0.695389  0.933843  1
  Si  Si23  1  0.195389  0.115608  0.683843  1
  Si  Si24  1  0.304611  0.615608  0.566157  1
  Si  Si25  1  0.695389  0.384392  0.066157  1
  Si  Si26  1  0.804611  0.884392  0.183843  1
  Si  Si27  1  0.115608  0.195389  0.316157  1
  Si  Si28  1  0.979223  0.273602  0.938187  1
  Si  Si29  1  0.726398  0.020777  0.561813  1
  Si  Si30  1  0.226398  0.479223  0.188187  1
  Si  Si31  1  0.773602  0.520777  0.688187  1
  Si  Si32  1  0.479223  0.226398  0.811813  1
  Si  Si33  1  0.520777  0.773602  0.311813  1
  Si  Si34  1  0.273602  0.979223  0.061813  1
  Si  Si35  1  0.884392  0.804611  0.816157  1
