# generated using pymatgen
data_Nb12Zn11NiC4
_symmetry_space_group_name_H-M   'P 1'
_cell_length_a   8.34914032
_cell_length_b   8.34914067
_cell_length_c   8.34914120
_cell_angle_alpha   59.65961751
_cell_angle_beta   59.65961497
_cell_angle_gamma   59.65961891
_symmetry_Int_Tables_number   1
_chemical_formula_structural   Nb12Zn11NiC4
_chemical_formula_sum   'Nb12 Zn11 Ni1 C4'
_cell_volume   408.35567599
_cell_formula_units_Z   1
loop_
 _symmetry_equiv_pos_site_id
 _symmetry_equiv_pos_as_xyz
  1  'x, y, z'
loop_
 _atom_site_type_symbol
 _atom_site_label
 _atom_site_symmetry_multiplicity
 _atom_site_fract_x
 _atom_site_fract_y
 _atom_site_fract_z
 _atom_site_occupancy
  Nb  Nb0  1  0.816291  0.816291  0.187181  1
  Nb  Nb1  1  0.180986  0.180986  0.818306  1
  Nb  Nb2  1  0.816291  0.187181  0.816291  1
  Nb  Nb3  1  0.180986  0.818306  0.180986  1
  Nb  Nb4  1  0.187181  0.816291  0.816291  1
  Nb  Nb5  1  0.818306  0.180986  0.180986  1
  Nb  Nb6  1  0.433709  0.433709  0.062819  1
  Nb  Nb7  1  0.069014  0.069014  0.431694  1
  Nb  Nb8  1  0.433709  0.062819  0.433709  1
  Nb  Nb9  1  0.069014  0.431694  0.069014  1
  Nb  Nb10  1  0.062819  0.433709  0.433709  1
  Nb  Nb11  1  0.431694  0.069014  0.069014  1
  Zn  Zn12  1  0.125000  0.625000  0.625000  1
  Zn  Zn13  1  0.625000  0.125000  0.625000  1
  Zn  Zn14  1  0.625000  0.625000  0.125000  1
  Zn  Zn15  1  0.744890  0.421642  0.421642  1
  Zn  Zn16  1  0.421642  0.744890  0.421642  1
  Zn  Zn17  1  0.421642  0.421642  0.744890  1
  Zn  Zn18  1  0.415759  0.415759  0.415759  1
  Zn  Zn19  1  0.505110  0.828358  0.828358  1
  Zn  Zn20  1  0.828358  0.505110  0.828358  1
  Zn  Zn21  1  0.828358  0.828358  0.505110  1
  Zn  Zn22  1  0.834241  0.834241  0.834241  1
  Ni  Ni23  1  0.625000  0.625000  0.625000  1
  C  C24  1  0.625000  0.125000  0.125000  1
  C  C25  1  0.125000  0.625000  0.125000  1
  C  C26  1  0.125000  0.125000  0.625000  1
  C  C27  1  0.125000  0.125000  0.125000  1
