# generated using pymatgen
data_Ho7CoSn23Ru5
_symmetry_space_group_name_H-M   'P 1'
_cell_length_a   9.81651839
_cell_length_b   9.81651719
_cell_length_c   10.06360436
_cell_angle_alpha   90.02617823
_cell_angle_beta   89.97382315
_cell_angle_gamma   119.98085660
_symmetry_Int_Tables_number   1
_chemical_formula_structural   Ho7CoSn23Ru5
_chemical_formula_sum   'Ho7 Co1 Sn23 Ru5'
_cell_volume   840.00676861
_cell_formula_units_Z   1
loop_
 _symmetry_equiv_pos_site_id
 _symmetry_equiv_pos_as_xyz
  1  'x, y, z'
loop_
 _atom_site_type_symbol
 _atom_site_label
 _atom_site_symmetry_multiplicity
 _atom_site_fract_x
 _atom_site_fract_y
 _atom_site_fract_z
 _atom_site_occupancy
  Ho  Ho0  1  0.003901  0.996099  0.995387  1
  Ho  Ho1  1  0.515684  0.484316  0.696816  1
  Ho  Ho2  1  0.516371  0.032276  0.695932  1
  Ho  Ho3  1  0.967724  0.483629  0.695932  1
  Ho  Ho4  1  0.033112  0.517320  0.304481  1
  Ho  Ho5  1  0.482680  0.966888  0.304481  1
  Ho  Ho6  1  0.482965  0.517035  0.303698  1
  Co  Co7  1  0.829087  0.170913  0.200318  1
  Sn  Sn8  1  0.667737  0.332263  0.181432  1
  Sn  Sn9  1  0.666581  0.333419  0.874068  1
  Sn  Sn10  1  0.332960  0.667040  0.126468  1
  Sn  Sn11  1  0.349062  0.348996  0.000049  1
  Sn  Sn12  1  0.999033  0.648650  0.000340  1
  Sn  Sn13  1  0.654662  0.002405  0.004292  1
  Sn  Sn14  1  0.651004  0.650938  0.000049  1
  Sn  Sn15  1  0.333319  0.666681  0.820558  1
  Sn  Sn16  1  0.439091  0.219639  0.461667  1
  Sn  Sn17  1  0.219918  0.780082  0.539099  1
  Sn  Sn18  1  0.219344  0.439148  0.538767  1
  Sn  Sn19  1  0.560852  0.780656  0.538767  1
  Sn  Sn20  1  0.118957  0.881043  0.272952  1
  Sn  Sn21  1  0.780361  0.560909  0.461667  1
  Sn  Sn22  1  0.782373  0.217627  0.455737  1
  Sn  Sn23  1  0.351350  0.000967  0.000340  1
  Sn  Sn24  1  0.111294  0.233890  0.271643  1
  Sn  Sn25  1  0.766110  0.888706  0.271643  1
  Sn  Sn26  1  0.236370  0.118568  0.725347  1
  Sn  Sn27  1  0.881432  0.763630  0.725347  1
  Sn  Sn28  1  0.881388  0.118612  0.727146  1
  Sn  Sn29  1  0.000290  0.999710  0.498857  1
  Sn  Sn30  1  0.997595  0.345338  0.004292  1
  Ru  Ru31  1  0.169387  0.830613  0.799899  1
  Ru  Ru32  1  0.168462  0.339073  0.799357  1
  Ru  Ru33  1  0.660927  0.831538  0.799357  1
  Ru  Ru34  1  0.338673  0.170055  0.201908  1
  Ru  Ru35  1  0.829945  0.661327  0.201908  1
