# generated using pymatgen
data_La2Co17Si8Ni
_symmetry_space_group_name_H-M   'P 1'
_cell_length_a   7.96497569
_cell_length_b   7.96497523
_cell_length_c   7.95314233
_cell_angle_alpha   121.85861062
_cell_angle_beta   121.25310127
_cell_angle_gamma   87.41567793
_symmetry_Int_Tables_number   1
_chemical_formula_structural   La2Co17Si8Ni
_chemical_formula_sum   'La2 Co17 Si8 Ni1'
_cell_volume   347.69931129
_cell_formula_units_Z   1
loop_
 _symmetry_equiv_pos_site_id
 _symmetry_equiv_pos_as_xyz
  1  'x, y, z'
loop_
 _atom_site_type_symbol
 _atom_site_label
 _atom_site_symmetry_multiplicity
 _atom_site_fract_x
 _atom_site_fract_y
 _atom_site_fract_z
 _atom_site_occupancy
  La  La0  1  0.751000  0.751215  0.999683  1
  La  La1  1  0.248468  0.248683  0.999683  1
  Co  Co2  1  0.809246  0.310488  0.758204  1
  Co  Co3  1  0.309071  0.549139  0.498481  1
  Co  Co4  1  0.192098  0.689857  0.242162  1
  Co  Co5  1  0.689760  0.448363  0.499122  1
  Co  Co6  1  0.949343  0.189410  0.498481  1
  Co  Co7  1  0.068182  0.194564  0.262746  1
  Co  Co8  1  0.298631  0.428931  0.727563  1
  Co  Co9  1  0.050759  0.809362  0.499122  1
  Co  Co10  1  0.567619  0.301901  0.869520  1
  Co  Co11  1  0.447716  0.948958  0.758204  1
  Co  Co12  1  0.797241  0.078750  0.875990  1
  Co  Co13  1  0.430614  0.697526  0.128140  1
  Co  Co14  1  0.699951  0.569428  0.269379  1
  Co  Co15  1  0.207100  0.931902  0.139002  1
  Co  Co16  1  0.999569  0.498423  0.497992  1
  Co  Co17  1  0.552305  0.050063  0.242162  1
  Co  Co18  1  0.502166  0.998602  0.500768  1
  Si  Si19  1  0.287218  0.789731  0.837239  1
  Si  Si20  1  0.790754  0.953111  0.502338  1
  Si  Si21  1  0.952035  0.453640  0.162346  1
  Si  Si22  1  0.453807  0.288958  0.500999  1
  Si  Si23  1  0.047509  0.550021  0.837239  1
  Si  Si24  1  0.212041  0.047192  0.500999  1
  Si  Si25  1  0.708706  0.210311  0.162346  1
  Si  Si26  1  0.549227  0.711584  0.502338  1
  Ni  Ni27  1  0.927863  0.799886  0.727749  1
