# generated using pymatgen
data_Dy5CoPd2
_symmetry_space_group_name_H-M   'P 1'
_cell_length_a   7.93013500
_cell_length_b   8.20517000
_cell_length_c   11.75664300
_cell_angle_alpha   90.00000000
_cell_angle_beta   90.00000000
_cell_angle_gamma   90.00000000
_symmetry_Int_Tables_number   1
_chemical_formula_structural   Dy5CoPd2
_chemical_formula_sum   'Dy20 Co4 Pd8'
_cell_volume   764.98249055
_cell_formula_units_Z   4
loop_
 _symmetry_equiv_pos_site_id
 _symmetry_equiv_pos_as_xyz
  1  'x, y, z'
loop_
 _atom_site_type_symbol
 _atom_site_label
 _atom_site_symmetry_multiplicity
 _atom_site_fract_x
 _atom_site_fract_y
 _atom_site_fract_z
 _atom_site_occupancy
  Dy  Dy0  1  0.164268  0.750000  0.213964  1
  Dy  Dy1  1  0.335732  0.750000  0.713964  1
  Dy  Dy2  1  0.835732  0.250000  0.786036  1
  Dy  Dy3  1  0.664268  0.250000  0.286036  1
  Dy  Dy4  1  0.461352  0.750000  0.004515  1
  Dy  Dy5  1  0.038648  0.750000  0.504515  1
  Dy  Dy6  1  0.538648  0.250000  0.995485  1
  Dy  Dy7  1  0.961352  0.250000  0.495485  1
  Dy  Dy8  1  0.627711  0.750000  0.304909  1
  Dy  Dy9  1  0.872289  0.750000  0.804909  1
  Dy  Dy10  1  0.372289  0.250000  0.695091  1
  Dy  Dy11  1  0.127711  0.250000  0.195091  1
  Dy  Dy12  1  0.828026  0.534927  0.080036  1
  Dy  Dy13  1  0.671974  0.965073  0.580036  1
  Dy  Dy14  1  0.171974  0.034927  0.919964  1
  Dy  Dy15  1  0.328026  0.465073  0.419964  1
  Dy  Dy16  1  0.171974  0.465073  0.919964  1
  Dy  Dy17  1  0.328026  0.034927  0.419964  1
  Dy  Dy18  1  0.828026  0.965073  0.080036  1
  Dy  Dy19  1  0.671974  0.534927  0.580036  1
  Co  Co20  1  0.435737  0.750000  0.494760  1
  Co  Co21  1  0.064263  0.750000  0.994760  1
  Co  Co22  1  0.564263  0.250000  0.505240  1
  Co  Co23  1  0.935737  0.250000  0.005240  1
  Pd  Pd24  1  0.933482  0.518268  0.329564  1
  Pd  Pd25  1  0.566518  0.981732  0.829564  1
  Pd  Pd26  1  0.066518  0.018268  0.670436  1
  Pd  Pd27  1  0.433482  0.481732  0.170436  1
  Pd  Pd28  1  0.066518  0.481732  0.670436  1
  Pd  Pd29  1  0.433482  0.018268  0.170436  1
  Pd  Pd30  1  0.933482  0.981732  0.329564  1
  Pd  Pd31  1  0.566518  0.518268  0.829564  1
