# generated using pymatgen
data_Ho6Lu2Sc11Si16Au
_symmetry_space_group_name_H-M   'P 1'
_cell_length_a   6.98658037
_cell_length_b   7.36735084
_cell_length_c   13.97717783
_cell_angle_alpha   89.88879387
_cell_angle_beta   89.92132364
_cell_angle_gamma   89.78892072
_symmetry_Int_Tables_number   1
_chemical_formula_structural   Ho6Lu2Sc11Si16Au
_chemical_formula_sum   'Ho6 Lu2 Sc11 Si16 Au1'
_cell_volume   719.43461892
_cell_formula_units_Z   1
loop_
 _symmetry_equiv_pos_site_id
 _symmetry_equiv_pos_as_xyz
  1  'x, y, z'
loop_
 _atom_site_type_symbol
 _atom_site_label
 _atom_site_symmetry_multiplicity
 _atom_site_fract_x
 _atom_site_fract_y
 _atom_site_fract_z
 _atom_site_occupancy
  Ho  Ho0  1  0.486619  0.672371  0.902964  1
  Ho  Ho1  1  0.990670  0.813464  0.597636  1
  Ho  Ho2  1  0.510433  0.322827  0.095794  1
  Ho  Ho3  1  0.010359  0.175061  0.403984  1
  Ho  Ho4  1  0.510337  0.323151  0.402870  1
  Ho  Ho5  1  0.485980  0.671878  0.598479  1
  Lu  Lu6  1  0.010740  0.176682  0.095640  1
  Lu  Lu7  1  0.989436  0.813200  0.902282  1
  Sc  Sc8  1  0.837972  0.497104  0.249188  1
  Sc  Sc9  1  0.340933  0.004446  0.249461  1
  Sc  Sc10  1  0.654565  0.996363  0.750199  1
  Sc  Sc11  1  0.321562  0.182677  0.628335  1
  Sc  Sc12  1  0.672136  0.824333  0.374744  1
  Sc  Sc13  1  0.170352  0.679242  0.373299  1
  Sc  Sc14  1  0.672593  0.825258  0.124306  1
  Sc  Sc15  1  0.840446  0.327808  0.628180  1
  Sc  Sc16  1  0.321266  0.181730  0.872732  1
  Sc  Sc17  1  0.839489  0.326289  0.872760  1
  Sc  Sc18  1  0.169879  0.679826  0.125510  1
  Si  Si19  1  0.023342  0.088431  0.751111  1
  Si  Si20  1  0.970034  0.891190  0.249022  1
  Si  Si21  1  0.467343  0.617725  0.249432  1
  Si  Si22  1  0.536492  0.383799  0.750613  1
  Si  Si23  1  0.287189  0.877724  0.751037  1
  Si  Si24  1  0.714984  0.130039  0.248813  1
  Si  Si25  1  0.212020  0.370936  0.248825  1
  Si  Si26  1  0.779153  0.629808  0.750936  1
  Si  Si27  1  0.164115  0.458686  0.529361  1
  Si  Si28  1  0.842098  0.534741  0.462087  1
  Si  Si29  1  0.344287  0.965205  0.463498  1
  Si  Si30  1  0.842378  0.535125  0.037655  1
  Si  Si31  1  0.657330  0.034309  0.540864  1
  Si  Si32  1  0.162472  0.459686  0.969258  1
  Si  Si33  1  0.658494  0.033245  0.959077  1
  Si  Si34  1  0.342828  0.966604  0.036972  1
  Au  Au35  1  0.159676  0.529039  0.753079  1
