# generated using pymatgen
data_HoEr7Ti11Si16Ag
_symmetry_space_group_name_H-M   'P 1'
_cell_length_a   7.03929446
_cell_length_b   7.03929489
_cell_length_c   12.85402600
_cell_angle_alpha   90.07139087
_cell_angle_beta   89.92860912
_cell_angle_gamma   89.66355481
_symmetry_Int_Tables_number   1
_chemical_formula_structural   HoEr7Ti11Si16Ag
_chemical_formula_sum   'Ho1 Er7 Ti11 Si16 Ag1'
_cell_volume   636.92647292
_cell_formula_units_Z   1
loop_
 _symmetry_equiv_pos_site_id
 _symmetry_equiv_pos_as_xyz
  1  'x, y, z'
loop_
 _atom_site_type_symbol
 _atom_site_label
 _atom_site_symmetry_multiplicity
 _atom_site_fract_x
 _atom_site_fract_y
 _atom_site_fract_z
 _atom_site_occupancy
  Ho  Ho0  1  0.340934  0.001916  0.466615  1
  Er  Er1  1  0.497913  0.840843  0.716773  1
  Er  Er2  1  0.501276  0.157754  0.214702  1
  Er  Er3  1  0.840843  0.497913  0.283227  1
  Er  Er4  1  0.157754  0.501276  0.785298  1
  Er  Er5  1  0.656409  0.001130  0.968261  1
  Er  Er6  1  0.001916  0.340934  0.533385  1
  Er  Er7  1  0.001130  0.656409  0.031739  1
  Ti  Ti8  1  0.174000  0.826342  0.250071  1
  Ti  Ti9  1  0.826342  0.174000  0.749929  1
  Ti  Ti10  1  0.672768  0.672768  0.500000  1
  Ti  Ti11  1  0.147565  0.007667  0.876640  1
  Ti  Ti12  1  0.495474  0.650517  0.123241  1
  Ti  Ti13  1  0.507501  0.350442  0.625122  1
  Ti  Ti14  1  0.650517  0.495474  0.876759  1
  Ti  Ti15  1  0.350442  0.507501  0.374878  1
  Ti  Ti16  1  0.850097  0.992435  0.374221  1
  Ti  Ti17  1  0.007667  0.147565  0.123360  1
  Ti  Ti18  1  0.992435  0.850097  0.625779  1
  Si  Si19  1  0.202248  0.133037  0.683845  1
  Si  Si20  1  0.373342  0.719110  0.928686  1
  Si  Si21  1  0.631591  0.294202  0.432194  1
  Si  Si22  1  0.719110  0.373342  0.071314  1
  Si  Si23  1  0.294202  0.631591  0.567806  1
  Si  Si24  1  0.797400  0.866851  0.182300  1
  Si  Si25  1  0.133037  0.202248  0.316155  1
  Si  Si26  1  0.866851  0.797400  0.817700  1
  Si  Si27  1  0.286703  0.938554  0.066170  1
  Si  Si28  1  0.546555  0.791398  0.314445  1
  Si  Si29  1  0.455273  0.207579  0.808937  1
  Si  Si30  1  0.791398  0.546555  0.685555  1
  Si  Si31  1  0.207579  0.455273  0.191063  1
  Si  Si32  1  0.708409  0.047299  0.564215  1
  Si  Si33  1  0.938554  0.286703  0.933830  1
  Si  Si34  1  0.047299  0.708409  0.435785  1
  Ag  Ag35  1  0.327467  0.327467  0.000000  1
