# generated using pymatgen
data_Er2Ni11As7Ru
_symmetry_space_group_name_H-M   'P 1'
_cell_length_a   9.37663150
_cell_length_b   9.39629632
_cell_length_c   3.82303500
_cell_angle_alpha   90.00000000
_cell_angle_beta   90.00000000
_cell_angle_gamma   120.17660314
_symmetry_Int_Tables_number   1
_chemical_formula_structural   Er2Ni11As7Ru
_chemical_formula_sum   'Er2 Ni11 As7 Ru1'
_cell_volume   291.18355711
_cell_formula_units_Z   1
loop_
 _symmetry_equiv_pos_site_id
 _symmetry_equiv_pos_as_xyz
  1  'x, y, z'
loop_
 _atom_site_type_symbol
 _atom_site_label
 _atom_site_symmetry_multiplicity
 _atom_site_fract_x
 _atom_site_fract_y
 _atom_site_fract_z
 _atom_site_occupancy
  Er  Er0  1  0.333992  0.664078  0.000000  1
  Er  Er1  1  0.665000  0.332376  0.500001  1
  Ni  Ni2  1  0.439299  0.059851  0.000000  1
  Ni  Ni3  1  0.152546  0.283198  0.000000  1
  Ni  Ni4  1  0.942376  0.383300  0.000000  1
  Ni  Ni5  1  0.618844  0.561704  0.000000  1
  Ni  Ni6  1  0.127710  0.842852  0.000000  1
  Ni  Ni7  1  0.719910  0.873421  0.000000  1
  Ni  Ni8  1  0.901962  0.117973  0.500001  1
  Ni  Ni9  1  0.380866  0.431834  0.500001  1
  Ni  Ni10  1  0.049307  0.622294  0.500001  1
  Ni  Ni11  1  0.884262  0.786372  0.500001  1
  Ni  Ni12  1  0.573098  0.951471  0.500001  1
  As  As13  1  0.999956  0.999792  0.000000  1
  As  As14  1  0.714150  0.119338  0.000000  1
  As  As15  1  0.404599  0.289061  0.000000  1
  As  As16  1  0.879970  0.593675  0.000000  1
  As  As17  1  0.110809  0.406955  0.500001  1
  As  As18  1  0.594590  0.705307  0.500001  1
  As  As19  1  0.298936  0.885039  0.500001  1
  Ru  Ru20  1  0.207820  0.090111  0.500001  1
