# generated using pymatgen
data_Ba6La2(IrO6)3
_symmetry_space_group_name_H-M   'P 1'
_cell_length_a   10.56536111
_cell_length_b   10.56536120
_cell_length_c   10.56535891
_cell_angle_alpha   146.67610118
_cell_angle_beta   131.76272400
_cell_angle_gamma   59.89238552
_symmetry_Int_Tables_number   1
_chemical_formula_structural   Ba6La2(IrO6)3
_chemical_formula_sum   'Ba6 La2 Ir3 O18'
_cell_volume   478.92867698
_cell_formula_units_Z   1
loop_
 _symmetry_equiv_pos_site_id
 _symmetry_equiv_pos_as_xyz
  1  'x, y, z'
loop_
 _atom_site_type_symbol
 _atom_site_label
 _atom_site_symmetry_multiplicity
 _atom_site_fract_x
 _atom_site_fract_y
 _atom_site_fract_z
 _atom_site_occupancy
  Ba  Ba0  1  0.777125  0.500000  0.277125  1
  Ba  Ba1  1  0.379385  0.149653  0.229731  1
  Ba  Ba2  1  0.080078  0.850347  0.229731  1
  Ba  Ba3  1  0.222875  0.500000  0.722875  1
  Ba  Ba4  1  0.919922  0.149653  0.770269  1
  Ba  Ba5  1  0.620615  0.850347  0.770269  1
  La  La6  1  0.667933  0.667933  0.000000  1
  La  La7  1  0.332067  0.332067  0.000000  1
  Ir  Ir8  1  0.500000  0.000000  0.500000  1
  Ir  Ir9  1  0.164938  0.664938  0.500000  1
  Ir  Ir10  1  0.835062  0.335062  0.500000  1
  O  O11  1  0.723555  0.000000  0.723555  1
  O  O12  1  0.391757  0.663557  0.728200  1
  O  O13  1  0.064645  0.336443  0.728200  1
  O  O14  1  0.576759  0.849414  0.272654  1
  O  O15  1  0.239831  0.508130  0.268299  1
  O  O16  1  0.909618  0.184295  0.274678  1
  O  O17  1  0.423241  0.695894  0.272654  1
  O  O18  1  0.090382  0.365061  0.274678  1
  O  O19  1  0.760169  0.028468  0.268299  1
  O  O20  1  0.276445  0.000000  0.276445  1
  O  O21  1  0.935355  0.663557  0.271800  1
  O  O22  1  0.608243  0.336443  0.271800  1
  O  O23  1  0.423241  0.150586  0.727346  1
  O  O24  1  0.090382  0.815705  0.725322  1
  O  O25  1  0.760169  0.491870  0.731701  1
  O  O26  1  0.576759  0.304106  0.727346  1
  O  O27  1  0.239831  0.971532  0.731701  1
  O  O28  1  0.909618  0.634940  0.725322  1
