# generated using pymatgen
data_La3Pa(Pd3Pt)3
_symmetry_space_group_name_H-M   'P 1'
_cell_length_a   7.27635301
_cell_length_b   7.27635395
_cell_length_c   7.25558600
_cell_angle_alpha   109.65454590
_cell_angle_beta   109.65454018
_cell_angle_gamma   109.22164797
_symmetry_Int_Tables_number   1
_chemical_formula_structural   La3Pa(Pd3Pt)3
_chemical_formula_sum   'La3 Pa1 Pd9 Pt3'
_cell_volume   295.28604411
_cell_formula_units_Z   1
loop_
 _symmetry_equiv_pos_site_id
 _symmetry_equiv_pos_as_xyz
  1  'x, y, z'
loop_
 _atom_site_type_symbol
 _atom_site_label
 _atom_site_symmetry_multiplicity
 _atom_site_fract_x
 _atom_site_fract_y
 _atom_site_fract_z
 _atom_site_occupancy
  La  La0  1  0.749565  0.749565  0.499128  1
  La  La1  1  0.250431  0.749924  0.000355  1
  La  La2  1  0.749924  0.250431  0.000355  1
  Pa  Pa3  1  0.250922  0.250922  0.501844  1
  Pd  Pd4  1  0.495905  0.251044  0.254883  1
  Pd  Pd5  1  0.496486  0.742380  0.745386  1
  Pd  Pd6  1  0.003008  0.248900  0.745386  1
  Pd  Pd7  1  0.248900  0.003008  0.745386  1
  Pd  Pd8  1  0.003838  0.758979  0.254883  1
  Pd  Pd9  1  0.758979  0.003838  0.254883  1
  Pd  Pd10  1  0.251044  0.495905  0.254883  1
  Pd  Pd11  1  0.742380  0.496486  0.745386  1
  Pd  Pd12  1  0.005183  0.005183  0.010366  1
  Pt  Pt13  1  0.493236  0.006550  0.499786  1
  Pt  Pt14  1  0.006550  0.493236  0.499786  1
  Pt  Pt15  1  0.493651  0.493651  0.987302  1
