# generated using pymatgen
data_Zr6Sc4Al12Rh7
_symmetry_space_group_name_H-M   'P 1'
_cell_length_a   8.91134375
_cell_length_b   8.91134395
_cell_length_c   8.91134300
_cell_angle_alpha   59.99999982
_cell_angle_beta   59.99999908
_cell_angle_gamma   60.00000227
_symmetry_Int_Tables_number   1
_chemical_formula_structural   Zr6Sc4Al12Rh7
_chemical_formula_sum   'Zr6 Sc4 Al12 Rh7'
_cell_volume   500.39685257
_cell_formula_units_Z   1
loop_
 _symmetry_equiv_pos_site_id
 _symmetry_equiv_pos_as_xyz
  1  'x, y, z'
loop_
 _atom_site_type_symbol
 _atom_site_label
 _atom_site_symmetry_multiplicity
 _atom_site_fract_x
 _atom_site_fract_y
 _atom_site_fract_z
 _atom_site_occupancy
  Zr  Zr0  1  0.683367  0.683367  0.316633  1
  Zr  Zr1  1  0.316633  0.683367  0.316633  1
  Zr  Zr2  1  0.683367  0.316633  0.316633  1
  Zr  Zr3  1  0.316633  0.316633  0.683367  1
  Zr  Zr4  1  0.683367  0.316633  0.683367  1
  Zr  Zr5  1  0.316633  0.683367  0.683367  1
  Sc  Sc6  1  0.880541  0.880541  0.358376  1
  Sc  Sc7  1  0.880541  0.358376  0.880541  1
  Sc  Sc8  1  0.358376  0.880541  0.880541  1
  Sc  Sc9  1  0.880541  0.880541  0.880541  1
  Al  Al10  1  0.122033  0.122033  0.633901  1
  Al  Al11  1  0.122033  0.633901  0.122033  1
  Al  Al12  1  0.633901  0.122033  0.122033  1
  Al  Al13  1  0.122033  0.122033  0.122033  1
  Al  Al14  1  0.662334  0.662334  0.012998  1
  Al  Al15  1  0.662334  0.012998  0.662334  1
  Al  Al16  1  0.012998  0.662334  0.662334  1
  Al  Al17  1  0.662334  0.662334  0.662334  1
  Al  Al18  1  0.335976  0.335976  0.992073  1
  Al  Al19  1  0.335976  0.992073  0.335976  1
  Al  Al20  1  0.992073  0.335976  0.335976  1
  Al  Al21  1  0.335976  0.335976  0.335976  1
  Rh  Rh22  1  0.000000  0.000000  0.000000  1
  Rh  Rh23  1  0.000846  0.000846  0.499154  1
  Rh  Rh24  1  0.499154  0.000846  0.499154  1
  Rh  Rh25  1  0.000846  0.499154  0.499154  1
  Rh  Rh26  1  0.499154  0.499154  0.000846  1
  Rh  Rh27  1  0.000846  0.499154  0.000846  1
  Rh  Rh28  1  0.499154  0.000846  0.000846  1
