# generated using pymatgen
data_Nb2Ru6C
_symmetry_space_group_name_H-M   'P 1'
_cell_length_a   5.61729237
_cell_length_b   5.61729208
_cell_length_c   5.61729200
_cell_angle_alpha   60.00000049
_cell_angle_beta   60.00000218
_cell_angle_gamma   60.00000657
_symmetry_Int_Tables_number   1
_chemical_formula_structural   Nb2Ru6C
_chemical_formula_sum   'Nb2 Ru6 C1'
_cell_volume   125.33318261
_cell_formula_units_Z   1
loop_
 _symmetry_equiv_pos_site_id
 _symmetry_equiv_pos_as_xyz
  1  'x, y, z'
loop_
 _atom_site_type_symbol
 _atom_site_label
 _atom_site_symmetry_multiplicity
 _atom_site_fract_x
 _atom_site_fract_y
 _atom_site_fract_z
 _atom_site_occupancy
  Nb  Nb0  1  0.250000  0.250000  0.250000  1
  Nb  Nb1  1  0.750000  0.750000  0.750000  1
  Ru  Ru2  1  0.743917  0.256083  0.256083  1
  Ru  Ru3  1  0.256083  0.743917  0.256083  1
  Ru  Ru4  1  0.743917  0.743917  0.256083  1
  Ru  Ru5  1  0.256083  0.256083  0.743917  1
  Ru  Ru6  1  0.743917  0.256083  0.743917  1
  Ru  Ru7  1  0.256083  0.743917  0.743917  1
  C  C8  1  0.000000  0.000000  0.000000  1
