# generated using pymatgen
data_Pr16Ho4(Ir3Ru)3
_symmetry_space_group_name_H-M   'P 1'
_cell_length_a   11.22817500
_cell_length_b   11.22817500
_cell_length_c   6.57928900
_cell_angle_alpha   90.00000000
_cell_angle_beta   90.00000000
_cell_angle_gamma   90.00000000
_symmetry_Int_Tables_number   1
_chemical_formula_structural   Pr16Ho4(Ir3Ru)3
_chemical_formula_sum   'Pr16 Ho4 Ir9 Ru3'
_cell_volume   829.46355587
_cell_formula_units_Z   1
loop_
 _symmetry_equiv_pos_site_id
 _symmetry_equiv_pos_as_xyz
  1  'x, y, z'
loop_
 _atom_site_type_symbol
 _atom_site_label
 _atom_site_symmetry_multiplicity
 _atom_site_fract_x
 _atom_site_fract_y
 _atom_site_fract_z
 _atom_site_occupancy
  Pr  Pr0  1  0.291318  0.086509  0.381922  1
  Pr  Pr1  1  0.291503  0.913874  0.882611  1
  Pr  Pr2  1  0.708497  0.086126  0.882611  1
  Pr  Pr3  1  0.708682  0.913491  0.381922  1
  Pr  Pr4  1  0.586126  0.791503  0.882611  1
  Pr  Pr5  1  0.586509  0.208682  0.381922  1
  Pr  Pr6  1  0.413491  0.791318  0.381922  1
  Pr  Pr7  1  0.413874  0.208497  0.882611  1
  Pr  Pr8  1  0.210332  0.412712  0.619868  1
  Pr  Pr9  1  0.210123  0.587250  0.117185  1
  Pr  Pr10  1  0.789877  0.412750  0.117185  1
  Pr  Pr11  1  0.789668  0.587288  0.619868  1
  Pr  Pr12  1  0.912750  0.710123  0.117185  1
  Pr  Pr13  1  0.912712  0.289668  0.619868  1
  Pr  Pr14  1  0.087288  0.710332  0.619868  1
  Pr  Pr15  1  0.087250  0.289877  0.117185  1
  Ho  Ho16  1  0.000000  0.000000  0.499006  1
  Ho  Ho17  1  0.000000  0.000000  0.999133  1
  Ho  Ho18  1  0.500000  0.500000  0.999133  1
  Ho  Ho19  1  0.500000  0.500000  0.499006  1
  Ir  Ir20  1  0.853820  0.147260  0.249997  1
  Ir  Ir21  1  0.853385  0.852479  0.749525  1
  Ir  Ir22  1  0.146615  0.147521  0.749525  1
  Ir  Ir23  1  0.146180  0.852740  0.249997  1
  Ir  Ir24  1  0.647521  0.353385  0.749525  1
  Ir  Ir25  1  0.647260  0.646180  0.249997  1
  Ir  Ir26  1  0.352740  0.353820  0.249997  1
  Ir  Ir27  1  0.352479  0.646615  0.749525  1
  Ir  Ir28  1  0.000000  0.500000  0.381615  1
  Ru  Ru29  1  0.500000  0.000000  0.117426  1
  Ru  Ru30  1  0.500000  0.000000  0.616560  1
  Ru  Ru31  1  0.000000  0.500000  0.883686  1
