# generated using pymatgen
data_Yb2AlNiF10
_symmetry_space_group_name_H-M   'P 1'
_cell_length_a   5.45407851
_cell_length_b   5.41990772
_cell_length_c   7.49291461
_cell_angle_alpha   70.07790341
_cell_angle_beta   69.57875837
_cell_angle_gamma   71.25160854
_symmetry_Int_Tables_number   1
_chemical_formula_structural   Yb2AlNiF10
_chemical_formula_sum   'Yb2 Al1 Ni1 F10'
_cell_volume   189.92737742
_cell_formula_units_Z   1
loop_
 _symmetry_equiv_pos_site_id
 _symmetry_equiv_pos_as_xyz
  1  'x, y, z'
loop_
 _atom_site_type_symbol
 _atom_site_label
 _atom_site_symmetry_multiplicity
 _atom_site_fract_x
 _atom_site_fract_y
 _atom_site_fract_z
 _atom_site_occupancy
  Yb  Yb0  1  0.554197  0.458238  0.243478  1
  Yb  Yb1  1  0.445803  0.541762  0.756522  1
  Al  Al2  1  0.000000  0.000000  0.000000  1
  Ni  Ni3  1  0.000000  0.000000  0.500000  1
  F  F4  1  0.750595  0.787869  0.618771  1
  F  F5  1  0.205086  0.239440  0.886792  1
  F  F6  1  0.249405  0.212131  0.381229  1
  F  F7  1  0.794914  0.760560  0.113208  1
  F  F8  1  0.076732  0.922716  0.758560  1
  F  F9  1  0.923268  0.077284  0.241440  1
  F  F10  1  0.297309  0.722427  0.033001  1
  F  F11  1  0.286979  0.689999  0.473323  1
  F  F12  1  0.702691  0.277573  0.966999  1
  F  F13  1  0.713021  0.310001  0.526677  1
