# generated using pymatgen
data_Y6Fe3Ni15P13Pt2
_symmetry_space_group_name_H-M   'P 1'
_cell_length_a   12.81443100
_cell_length_b   12.81443144
_cell_length_c   3.76903600
_cell_angle_alpha   90.00000000
_cell_angle_beta   90.00000000
_cell_angle_gamma   120.00000145
_symmetry_Int_Tables_number   1
_chemical_formula_structural   Y6Fe3Ni15P13Pt2
_chemical_formula_sum   'Y6 Fe3 Ni15 P13 Pt2'
_cell_volume   535.99357005
_cell_formula_units_Z   1
loop_
 _symmetry_equiv_pos_site_id
 _symmetry_equiv_pos_as_xyz
  1  'x, y, z'
loop_
 _atom_site_type_symbol
 _atom_site_label
 _atom_site_symmetry_multiplicity
 _atom_site_fract_x
 _atom_site_fract_y
 _atom_site_fract_z
 _atom_site_occupancy
  Y  Y0  1  0.465277  0.184138  0.000000  1
  Y  Y1  1  0.718862  0.534723  0.000000  1
  Y  Y2  1  0.815862  0.281138  0.000000  1
  Y  Y3  1  0.535639  0.816179  0.500000  1
  Y  Y4  1  0.280540  0.464361  0.500000  1
  Y  Y5  1  0.183821  0.719460  0.500000  1
  Fe  Fe6  1  0.851149  0.929935  0.500000  1
  Fe  Fe7  1  0.078787  0.148851  0.500000  1
  Fe  Fe8  1  0.070065  0.921213  0.500000  1
  Ni  Ni9  1  0.195057  0.090939  0.000000  1
  Ni  Ni10  1  0.895882  0.804943  0.000000  1
  Ni  Ni11  1  0.909061  0.104118  0.000000  1
  Ni  Ni12  1  0.435603  0.414098  0.000000  1
  Ni  Ni13  1  0.978497  0.564397  0.000000  1
  Ni  Ni14  1  0.585902  0.021503  0.000000  1
  Ni  Ni15  1  0.567822  0.590373  0.500000  1
  Ni  Ni16  1  0.022551  0.432178  0.500000  1
  Ni  Ni17  1  0.409627  0.977449  0.500000  1
  Ni  Ni18  1  0.076583  0.315571  0.000000  1
  Ni  Ni19  1  0.238988  0.923417  0.000000  1
  Ni  Ni20  1  0.684429  0.761012  0.000000  1
  Ni  Ni21  1  0.929507  0.685997  0.500000  1
  Ni  Ni22  1  0.756490  0.070493  0.500000  1
  Ni  Ni23  1  0.314003  0.243510  0.500000  1
  P  P24  1  0.232061  0.280035  0.000000  1
  P  P25  1  0.047975  0.767939  0.000000  1
  P  P26  1  0.719965  0.952025  0.000000  1
  P  P27  1  0.770025  0.723665  0.500000  1
  P  P28  1  0.953639  0.229975  0.500000  1
  P  P29  1  0.276335  0.046361  0.500000  1
  P  P30  1  0.484457  0.612545  0.000000  1
  P  P31  1  0.128088  0.515543  0.000000  1
  P  P32  1  0.387455  0.871912  0.000000  1
  P  P33  1  0.516171  0.388541  0.500000  1
  P  P34  1  0.872370  0.483829  0.500000  1
  P  P35  1  0.611459  0.127630  0.500000  1
  P  P36  1  0.000000  0.000000  0.000000  1
  Pt  Pt37  1  0.333333  0.666667  0.000000  1
  Pt  Pt38  1  0.666667  0.333333  0.500000  1
