# generated using pymatgen
data_PrNd7Si12RhAu3
_symmetry_space_group_name_H-M   'P 1'
_cell_length_a   8.29286900
_cell_length_b   8.29289047
_cell_length_c   8.62301000
_cell_angle_alpha   90.00008392
_cell_angle_beta   90.00001408
_cell_angle_gamma   119.99997681
_symmetry_Int_Tables_number   1
_chemical_formula_structural   PrNd7Si12RhAu3
_chemical_formula_sum   'Pr1 Nd7 Si12 Rh1 Au3'
_cell_volume   513.57084069
_cell_formula_units_Z   1
loop_
 _symmetry_equiv_pos_site_id
 _symmetry_equiv_pos_as_xyz
  1  'x, y, z'
loop_
 _atom_site_type_symbol
 _atom_site_label
 _atom_site_symmetry_multiplicity
 _atom_site_fract_x
 _atom_site_fract_y
 _atom_site_fract_z
 _atom_site_occupancy
  Pr  Pr0  1  0.000002  0.000002  0.751535  1
  Nd  Nd1  1  0.000002  0.000001  0.248467  1
  Nd  Nd2  1  0.496974  0.503025  0.754141  1
  Nd  Nd3  1  0.496976  0.993948  0.754144  1
  Nd  Nd4  1  0.006051  0.503023  0.754142  1
  Nd  Nd5  1  0.498806  0.501195  0.245912  1
  Nd  Nd6  1  0.002385  0.501195  0.245914  1
  Nd  Nd7  1  0.498802  0.997604  0.245900  1
  Si  Si8  1  0.838238  0.161762  0.999474  1
  Si  Si9  1  0.838237  0.676476  0.999473  1
  Si  Si10  1  0.323525  0.161763  0.999474  1
  Si  Si11  1  0.836067  0.163934  0.500492  1
  Si  Si12  1  0.836066  0.672133  0.500491  1
  Si  Si13  1  0.327867  0.163934  0.500492  1
  Si  Si14  1  0.163551  0.836451  0.498907  1
  Si  Si15  1  0.672902  0.836450  0.498907  1
  Si  Si16  1  0.163550  0.327099  0.498907  1
  Si  Si17  1  0.169441  0.830560  0.001479  1
  Si  Si18  1  0.661111  0.830556  0.001479  1
  Si  Si19  1  0.169444  0.338886  0.001479  1
  Rh  Rh20  1  0.333333  0.666667  0.001904  1
  Au  Au21  1  0.666668  0.333334  0.996953  1
  Au  Au22  1  0.666668  0.333334  0.502946  1
  Au  Au23  1  0.333334  0.666667  0.496988  1
