# generated using pymatgen
data_NdZr3(Al8Pt3)3
_symmetry_space_group_name_H-M   'P 1'
_cell_length_a   7.50341715
_cell_length_b   7.51151849
_cell_length_c   13.04484553
_cell_angle_alpha   84.54107752
_cell_angle_beta   78.97212475
_cell_angle_gamma   59.93307060
_symmetry_Int_Tables_number   1
_chemical_formula_structural   NdZr3(Al8Pt3)3
_chemical_formula_sum   'Nd1 Zr3 Al24 Pt9'
_cell_volume   624.55172676
_cell_formula_units_Z   1
loop_
 _symmetry_equiv_pos_site_id
 _symmetry_equiv_pos_as_xyz
  1  'x, y, z'
loop_
 _atom_site_type_symbol
 _atom_site_label
 _atom_site_symmetry_multiplicity
 _atom_site_fract_x
 _atom_site_fract_y
 _atom_site_fract_z
 _atom_site_occupancy
  Nd  Nd0  1  0.267001  0.501957  0.189176  1
  Zr  Zr1  1  0.392809  0.167505  0.810590  1
  Zr  Zr2  1  0.606693  0.831972  0.188484  1
  Zr  Zr3  1  0.733810  0.498975  0.810399  1
  Al  Al4  1  0.682066  0.833485  0.940000  1
  Al  Al5  1  0.318802  0.162545  0.053851  1
  Al  Al6  1  0.145889  0.832853  0.563947  1
  Al  Al7  1  0.853900  0.167230  0.437450  1
  Al  Al8  1  0.480089  0.166630  0.561663  1
  Al  Al9  1  0.519745  0.833205  0.439415  1
  Al  Al10  1  0.219971  0.162990  0.329152  1
  Al  Al11  1  0.778169  0.834672  0.677191  1
  Al  Al12  1  0.437404  0.504278  0.677244  1
  Al  Al13  1  0.562875  0.495707  0.329200  1
  Al  Al14  1  0.107885  0.162202  0.675103  1
  Al  Al15  1  0.887517  0.840050  0.330753  1
  Al  Al16  1  0.358615  0.495924  0.937253  1
  Al  Al17  1  0.649810  0.502944  0.053639  1
  Al  Al18  1  0.017426  0.170531  0.947094  1
  Al  Al19  1  0.981211  0.834237  0.045276  1
  Al  Al20  1  0.186482  0.499525  0.441028  1
  Al  Al21  1  0.812413  0.500138  0.561625  1
  Al  Al22  1  0.736478  0.155823  0.183581  1
  Al  Al23  1  0.272535  0.836281  0.815893  1
  Al  Al24  1  0.061042  0.625719  0.814860  1
  Al  Al25  1  0.930388  0.374240  0.184890  1
  Al  Al26  1  0.849227  0.047752  0.815668  1
  Al  Al27  1  0.149775  0.961807  0.184565  1
  Pt  Pt28  1  0.120279  0.490157  0.639423  1
  Pt  Pt29  1  0.878086  0.508413  0.362421  1
  Pt  Pt30  1  0.657172  0.172258  0.998505  1
  Pt  Pt31  1  0.342866  0.828310  0.999088  1
  Pt  Pt32  1  0.538095  0.165489  0.362442  1
  Pt  Pt33  1  0.463676  0.833287  0.638971  1
  Pt  Pt34  1  0.777685  0.176385  0.638041  1
  Pt  Pt35  1  0.220640  0.825506  0.363732  1
  Pt  Pt36  1  0.001479  0.499018  0.998387  1
