# generated using pymatgen
data_Gd2Dy2CrMoO12
_symmetry_space_group_name_H-M   'P 1'
_cell_length_a   9.98682789
_cell_length_b   10.16649993
_cell_length_c   5.43097640
_cell_angle_alpha   73.48221237
_cell_angle_beta   74.31571516
_cell_angle_gamma   68.44355541
_symmetry_Int_Tables_number   1
_chemical_formula_structural   Gd2Dy2CrMoO12
_chemical_formula_sum   'Gd4 Dy4 Cr2 Mo2 O24'
_cell_volume   483.09820533
_cell_formula_units_Z   2
loop_
 _symmetry_equiv_pos_site_id
 _symmetry_equiv_pos_as_xyz
  1  'x, y, z'
loop_
 _atom_site_type_symbol
 _atom_site_label
 _atom_site_symmetry_multiplicity
 _atom_site_fract_x
 _atom_site_fract_y
 _atom_site_fract_z
 _atom_site_occupancy
  Gd  Gd0  1  0.555277  0.776057  0.111613  1
  Gd  Gd1  1  0.139184  0.860232  0.241006  1
  Gd  Gd2  1  0.444723  0.223943  0.888387  1
  Gd  Gd3  1  0.860816  0.139768  0.758994  1
  Dy  Dy4  1  0.788018  0.545996  0.628971  1
  Dy  Dy5  1  0.211982  0.454004  0.371029  1
  Dy  Dy6  1  0.604978  0.393889  0.264265  1
  Dy  Dy7  1  0.395022  0.606111  0.735735  1
  Cr  Cr8  1  0.290835  0.032807  0.557635  1
  Cr  Cr9  1  0.709165  0.967193  0.442365  1
  Mo  Mo10  1  0.986775  0.705644  0.936679  1
  Mo  Mo11  1  0.013225  0.294356  0.063321  1
  O  O12  1  0.381808  0.430035  0.582102  1
  O  O13  1  0.588723  0.982597  0.724413  1
  O  O14  1  0.818135  0.704350  0.865156  1
  O  O15  1  0.663432  0.105087  0.189689  1
  O  O16  1  0.107730  0.675640  0.622684  1
  O  O17  1  0.336568  0.894913  0.810311  1
  O  O18  1  0.286406  0.184137  0.629350  1
  O  O19  1  0.973433  0.571864  0.249745  1
  O  O20  1  0.574368  0.607009  0.914688  1
  O  O21  1  0.411277  0.017403  0.275587  1
  O  O22  1  0.125666  0.042601  0.519749  1
  O  O23  1  0.192157  0.664566  0.061770  1
  O  O24  1  0.807843  0.335434  0.938230  1
  O  O25  1  0.344610  0.770101  0.366620  1
  O  O26  1  0.892270  0.324360  0.377316  1
  O  O27  1  0.949262  0.887980  0.975511  1
  O  O28  1  0.874334  0.957399  0.480251  1
  O  O29  1  0.655390  0.229899  0.633380  1
  O  O30  1  0.713594  0.815863  0.370650  1
  O  O31  1  0.050738  0.112020  0.024489  1
  O  O32  1  0.181865  0.295650  0.134844  1
  O  O33  1  0.618192  0.569965  0.417898  1
  O  O34  1  0.425632  0.392991  0.085312  1
  O  O35  1  0.026567  0.428136  0.750255  1
