# generated using pymatgen
data_AcHo(SnPt)2
_symmetry_space_group_name_H-M   'P 1'
_cell_length_a   7.55224800
_cell_length_b   7.55223872
_cell_length_c   8.41632200
_cell_angle_alpha   89.99984827
_cell_angle_beta   89.99996965
_cell_angle_gamma   119.99969025
_symmetry_Int_Tables_number   1
_chemical_formula_structural   AcHo(SnPt)2
_chemical_formula_sum   'Ac3 Ho3 Sn6 Pt6'
_cell_volume   415.72513402
_cell_formula_units_Z   3
loop_
 _symmetry_equiv_pos_site_id
 _symmetry_equiv_pos_as_xyz
  1  'x, y, z'
loop_
 _atom_site_type_symbol
 _atom_site_label
 _atom_site_symmetry_multiplicity
 _atom_site_fract_x
 _atom_site_fract_y
 _atom_site_fract_z
 _atom_site_occupancy
  Ac  Ac0  1  0.585978  0.586010  0.750001  1
  Ac  Ac1  1  0.999939  0.413989  0.750003  1
  Ac  Ac2  1  0.414048  0.000006  0.749996  1
  Ho  Ho3  1  0.405095  0.999951  0.249997  1
  Ho  Ho4  1  0.594878  0.594929  0.250000  1
  Ho  Ho5  1  0.000062  0.405128  0.250000  1
  Sn  Sn6  1  0.253905  0.253864  0.485938  1
  Sn  Sn7  1  0.253907  0.253863  0.014066  1
  Sn  Sn8  1  0.746154  0.000031  0.014089  1
  Sn  Sn9  1  0.999996  0.746100  0.485916  1
  Sn  Sn10  1  0.746152  0.000027  0.485912  1
  Sn  Sn11  1  0.000001  0.746110  0.014081  1
  Pt  Pt12  1  0.666630  0.333320  0.471561  1
  Pt  Pt13  1  0.666635  0.333319  0.028435  1
  Pt  Pt14  1  0.333315  0.666675  0.028314  1
  Pt  Pt15  1  0.333308  0.666675  0.471689  1
  Pt  Pt16  1  0.999988  0.000001  0.749999  1
  Pt  Pt17  1  0.000012  0.000003  0.250002  1
