# generated using pymatgen
data_Dy6Y2Cd2OsPt
_symmetry_space_group_name_H-M   'P 1'
_cell_length_a   9.66007952
_cell_length_b   9.65639563
_cell_length_c   9.72933183
_cell_angle_alpha   59.78186826
_cell_angle_beta   59.74014299
_cell_angle_gamma   59.62455673
_symmetry_Int_Tables_number   1
_chemical_formula_structural   Dy6Y2Cd2OsPt
_chemical_formula_sum   'Dy12 Y4 Cd4 Os2 Pt2'
_cell_volume   637.59779570
_cell_formula_units_Z   2
loop_
 _symmetry_equiv_pos_site_id
 _symmetry_equiv_pos_as_xyz
  1  'x, y, z'
loop_
 _atom_site_type_symbol
 _atom_site_label
 _atom_site_symmetry_multiplicity
 _atom_site_fract_x
 _atom_site_fract_y
 _atom_site_fract_z
 _atom_site_occupancy
  Dy  Dy0  1  0.349491  0.349752  0.352065  1
  Dy  Dy1  1  0.349706  0.349451  0.948746  1
  Dy  Dy2  1  0.346205  0.955133  0.349303  1
  Dy  Dy3  1  0.955130  0.346209  0.349280  1
  Dy  Dy4  1  0.813992  0.187961  0.191604  1
  Dy  Dy5  1  0.187955  0.813959  0.806471  1
  Dy  Dy6  1  0.187968  0.813895  0.191535  1
  Dy  Dy7  1  0.813872  0.187955  0.806634  1
  Dy  Dy8  1  0.188485  0.188486  0.811531  1
  Dy  Dy9  1  0.808147  0.808147  0.191844  1
  Dy  Dy10  1  0.939326  0.555506  0.565883  1
  Dy  Dy11  1  0.555537  0.939303  0.939277  1
  Y  Y12  1  0.556812  0.938371  0.566400  1
  Y  Y13  1  0.938345  0.556867  0.938383  1
  Y  Y14  1  0.563057  0.563053  0.936945  1
  Y  Y15  1  0.939912  0.939910  0.560113  1
  Cd  Cd16  1  0.580228  0.580296  0.581140  1
  Cd  Cd17  1  0.580310  0.580228  0.258335  1
  Cd  Cd18  1  0.581329  0.255025  0.581812  1
  Cd  Cd19  1  0.255028  0.581327  0.581865  1
  Os  Os20  1  0.145090  0.144202  0.136024  1
  Os  Os21  1  0.144199  0.145087  0.574684  1
  Pt  Pt22  1  0.145199  0.574679  0.140033  1
  Pt  Pt23  1  0.574676  0.145200  0.140094  1
