# generated using pymatgen
data_Tm2NbB2Ir2Ru3
_symmetry_space_group_name_H-M   'P 1'
_cell_length_a   9.65888800
_cell_length_b   9.69783000
_cell_length_c   3.11622700
_cell_angle_alpha   90.00000000
_cell_angle_beta   90.00000000
_cell_angle_gamma   90.00000000
_symmetry_Int_Tables_number   1
_chemical_formula_structural   Tm2NbB2Ir2Ru3
_chemical_formula_sum   'Tm4 Nb2 B4 Ir4 Ru6'
_cell_volume   291.89777403
_cell_formula_units_Z   2
loop_
 _symmetry_equiv_pos_site_id
 _symmetry_equiv_pos_as_xyz
  1  'x, y, z'
loop_
 _atom_site_type_symbol
 _atom_site_label
 _atom_site_symmetry_multiplicity
 _atom_site_fract_x
 _atom_site_fract_y
 _atom_site_fract_z
 _atom_site_occupancy
  Tm  Tm0  1  0.825489  0.674363  0.000000  1
  Tm  Tm1  1  0.174511  0.325637  0.000000  1
  Tm  Tm2  1  0.325489  0.825637  0.000000  1
  Tm  Tm3  1  0.674511  0.174363  0.000000  1
  Nb  Nb4  1  0.500000  0.500000  0.000000  1
  Nb  Nb5  1  0.000000  0.000000  0.000000  1
  B  B6  1  0.623434  0.885015  0.000000  1
  B  B7  1  0.376566  0.114985  0.000000  1
  B  B8  1  0.123434  0.614985  0.000000  1
  B  B9  1  0.876566  0.385015  0.000000  1
  Ir  Ir10  1  0.571763  0.721175  0.500000  1
  Ir  Ir11  1  0.428237  0.278825  0.500000  1
  Ir  Ir12  1  0.071763  0.778825  0.500000  1
  Ir  Ir13  1  0.928237  0.221175  0.500000  1
  Ru  Ru14  1  0.282742  0.569869  0.500000  1
  Ru  Ru15  1  0.717258  0.430131  0.500000  1
  Ru  Ru16  1  0.217258  0.069869  0.500000  1
  Ru  Ru17  1  0.782742  0.930131  0.500000  1
  Ru  Ru18  1  0.500000  0.000000  0.500000  1
  Ru  Ru19  1  0.000000  0.500000  0.500000  1
