# generated using pymatgen
data_Dy5Er5(BiPb)3
_symmetry_space_group_name_H-M   'P 1'
_cell_length_a   9.09851462
_cell_length_b   9.10790962
_cell_length_c   6.44912000
_cell_angle_alpha   90.00000000
_cell_angle_beta   90.00000000
_cell_angle_gamma   120.03416405
_symmetry_Int_Tables_number   1
_chemical_formula_structural   Dy5Er5(BiPb)3
_chemical_formula_sum   'Dy5 Er5 Bi3 Pb3'
_cell_volume   462.66930330
_cell_formula_units_Z   1
loop_
 _symmetry_equiv_pos_site_id
 _symmetry_equiv_pos_as_xyz
  1  'x, y, z'
loop_
 _atom_site_type_symbol
 _atom_site_label
 _atom_site_symmetry_multiplicity
 _atom_site_fract_x
 _atom_site_fract_y
 _atom_site_fract_z
 _atom_site_occupancy
  Dy  Dy0  1  0.761843  0.761707  0.750000  1
  Dy  Dy1  1  0.238157  0.999864  0.750000  1
  Dy  Dy2  1  0.000000  0.238445  0.750000  1
  Dy  Dy3  1  0.238571  0.238521  0.250000  1
  Dy  Dy4  1  0.761429  0.999951  0.250000  1
  Er  Er5  1  0.666637  0.333335  0.002893  1
  Er  Er6  1  0.333363  0.666699  0.002893  1
  Er  Er7  1  0.333363  0.666699  0.497107  1
  Er  Er8  1  0.666637  0.333335  0.497107  1
  Er  Er9  1  0.000000  0.761318  0.250000  1
  Bi  Bi10  1  0.393358  0.393364  0.750000  1
  Bi  Bi11  1  0.606642  0.000006  0.750000  1
  Bi  Bi12  1  0.000000  0.606686  0.750000  1
  Pb  Pb13  1  0.607550  0.607210  0.250000  1
  Pb  Pb14  1  0.392450  0.999660  0.250000  1
  Pb  Pb15  1  0.000000  0.393201  0.250000  1
