# generated using pymatgen
data_TmNb(NiSn)2
_symmetry_space_group_name_H-M   'P 1'
_cell_length_a   7.59782279
_cell_length_b   7.59782284
_cell_length_c   7.59782396
_cell_angle_alpha   33.20419009
_cell_angle_beta   33.20418817
_cell_angle_gamma   33.20419057
_symmetry_Int_Tables_number   1
_chemical_formula_structural   TmNb(NiSn)2
_chemical_formula_sum   'Tm1 Nb1 Ni2 Sn2'
_cell_volume   117.09142562
_cell_formula_units_Z   1
loop_
 _symmetry_equiv_pos_site_id
 _symmetry_equiv_pos_as_xyz
  1  'x, y, z'
loop_
 _atom_site_type_symbol
 _atom_site_label
 _atom_site_symmetry_multiplicity
 _atom_site_fract_x
 _atom_site_fract_y
 _atom_site_fract_z
 _atom_site_occupancy
  Tm  Tm0  1  0.999802  0.999802  0.999802  1
  Nb  Nb1  1  0.501746  0.501746  0.501746  1
  Ni  Ni2  1  0.129517  0.129517  0.129517  1
  Ni  Ni3  1  0.618444  0.618444  0.618444  1
  Sn  Sn4  1  0.752992  0.752992  0.752992  1
  Sn  Sn5  1  0.247498  0.247498  0.247498  1
