# generated using pymatgen
data_Y3Ho3VB14W
_symmetry_space_group_name_H-M   'P 1'
_cell_length_a   8.14048229
_cell_length_b   8.14048152
_cell_length_c   9.45274427
_cell_angle_alpha   89.97337861
_cell_angle_beta   90.02662076
_cell_angle_gamma   155.57680637
_symmetry_Int_Tables_number   1
_chemical_formula_structural   Y3Ho3VB14W
_chemical_formula_sum   'Y3 Ho3 V1 B14 W1'
_cell_volume   259.00329709
_cell_formula_units_Z   1
loop_
 _symmetry_equiv_pos_site_id
 _symmetry_equiv_pos_as_xyz
  1  'x, y, z'
loop_
 _atom_site_type_symbol
 _atom_site_label
 _atom_site_symmetry_multiplicity
 _atom_site_fract_x
 _atom_site_fract_y
 _atom_site_fract_z
 _atom_site_occupancy
  Y  Y0  1  0.893688  0.106312  0.437590  1
  Y  Y1  1  0.241967  0.758033  0.249871  1
  Y  Y2  1  0.754698  0.245302  0.749994  1
  Ho  Ho3  1  0.106761  0.893239  0.557378  1
  Ho  Ho4  1  0.893859  0.106141  0.061814  1
  Ho  Ho5  1  0.106747  0.893253  0.942673  1
  V  V6  1  0.052575  0.947425  0.249858  1
  B  B7  1  0.726983  0.273017  0.466911  1
  B  B8  1  0.272436  0.727564  0.531609  1
  B  B9  1  0.727226  0.272774  0.033163  1
  B  B10  1  0.272670  0.727330  0.968615  1
  B  B11  1  0.632191  0.367809  0.149888  1
  B  B12  1  0.365466  0.634534  0.854203  1
  B  B13  1  0.632191  0.367809  0.350088  1
  B  B14  1  0.365422  0.634578  0.646286  1
  B  B15  1  0.521079  0.478921  0.095106  1
  B  B16  1  0.480711  0.519289  0.909340  1
  B  B17  1  0.521258  0.478742  0.404718  1
  B  B18  1  0.480896  0.519104  0.591044  1
  B  B19  1  0.458822  0.541178  0.249588  1
  B  B20  1  0.545241  0.454759  0.750051  1
  W  W21  1  0.947114  0.052886  0.750211  1
