# generated using pymatgen
data_HfZr5Al16Pt5Rh2
_symmetry_space_group_name_H-M   'P 1'
_cell_length_a   8.76678085
_cell_length_b   8.77610536
_cell_length_c   8.76857219
_cell_angle_alpha   60.09914290
_cell_angle_beta   60.06366083
_cell_angle_gamma   59.97858575
_symmetry_Int_Tables_number   1
_chemical_formula_structural   HfZr5Al16Pt5Rh2
_chemical_formula_sum   'Hf1 Zr5 Al16 Pt5 Rh2'
_cell_volume   477.54964726
_cell_formula_units_Z   1
loop_
 _symmetry_equiv_pos_site_id
 _symmetry_equiv_pos_as_xyz
  1  'x, y, z'
loop_
 _atom_site_type_symbol
 _atom_site_label
 _atom_site_symmetry_multiplicity
 _atom_site_fract_x
 _atom_site_fract_y
 _atom_site_fract_z
 _atom_site_occupancy
  Hf  Hf0  1  0.683574  0.684242  0.315755  1
  Zr  Zr1  1  0.688139  0.312859  0.311830  1
  Zr  Zr2  1  0.312832  0.688172  0.687140  1
  Zr  Zr3  1  0.315591  0.685662  0.314341  1
  Zr  Zr4  1  0.312734  0.312285  0.687718  1
  Zr  Zr5  1  0.685572  0.315281  0.684720  1
  Al  Al6  1  0.335769  0.335129  0.334830  1
  Al  Al7  1  0.337331  0.332035  0.993563  1
  Al  Al8  1  0.993511  0.335605  0.335068  1
  Al  Al9  1  0.337781  0.992864  0.332088  1
  Al  Al10  1  0.664186  0.664931  0.664396  1
  Al  Al11  1  0.662734  0.667912  0.007134  1
  Al  Al12  1  0.662931  0.006436  0.667965  1
  Al  Al13  1  0.005729  0.665170  0.664871  1
  Al  Al14  1  0.123850  0.116636  0.116517  1
  Al  Al15  1  0.119187  0.117744  0.643970  1
  Al  Al16  1  0.643236  0.116099  0.116703  1
  Al  Al17  1  0.118782  0.644144  0.117792  1
  Al  Al18  1  0.876037  0.883296  0.883901  1
  Al  Al19  1  0.880718  0.882207  0.355858  1
  Al  Al20  1  0.880900  0.356033  0.882254  1
  Al  Al21  1  0.357005  0.883481  0.883363  1
  Pt  Pt22  1  0.999761  0.500696  0.499305  1
  Pt  Pt23  1  0.999827  0.500667  0.000119  1
  Pt  Pt24  1  0.000269  0.000280  0.499717  1
  Pt  Pt25  1  0.500613  0.999881  0.499332  1
  Pt  Pt26  1  0.500265  0.500282  0.999723  1
  Rh  Rh27  1  0.000313  0.000302  0.999695  1
  Rh  Rh28  1  0.500820  0.999666  0.000331  1
