# generated using pymatgen
data_Dy13Th3(ZnCo)4
_symmetry_space_group_name_H-M   'P 1'
_cell_length_a   9.40133113
_cell_length_b   9.40163855
_cell_length_c   9.40163900
_cell_angle_alpha   60.00000195
_cell_angle_beta   59.99892024
_cell_angle_gamma   59.99892449
_symmetry_Int_Tables_number   1
_chemical_formula_structural   Dy13Th3(ZnCo)4
_chemical_formula_sum   'Dy13 Th3 Zn4 Co4'
_cell_volume   587.59001330
_cell_formula_units_Z   1
loop_
 _symmetry_equiv_pos_site_id
 _symmetry_equiv_pos_as_xyz
  1  'x, y, z'
loop_
 _atom_site_type_symbol
 _atom_site_label
 _atom_site_symmetry_multiplicity
 _atom_site_fract_x
 _atom_site_fract_y
 _atom_site_fract_z
 _atom_site_occupancy
  Dy  Dy0  1  0.194295  0.601902  0.601902  1
  Dy  Dy1  1  0.060376  0.440376  0.440376  1
  Dy  Dy2  1  0.440448  0.060663  0.060663  1
  Dy  Dy3  1  0.440448  0.060663  0.438226  1
  Dy  Dy4  1  0.060376  0.440376  0.058872  1
  Dy  Dy5  1  0.440448  0.438226  0.060663  1
  Dy  Dy6  1  0.060376  0.058872  0.440376  1
  Dy  Dy7  1  0.185888  0.814173  0.814173  1
  Dy  Dy8  1  0.814439  0.185750  0.185750  1
  Dy  Dy9  1  0.814439  0.185750  0.814061  1
  Dy  Dy10  1  0.185888  0.814173  0.185765  1
  Dy  Dy11  1  0.814439  0.814061  0.185750  1
  Dy  Dy12  1  0.185888  0.185765  0.814173  1
  Th  Th13  1  0.595791  0.599332  0.599332  1
  Th  Th14  1  0.595791  0.599332  0.205546  1
  Th  Th15  1  0.595791  0.205546  0.599332  1
  Zn  Zn16  1  0.830259  0.828446  0.828446  1
  Zn  Zn17  1  0.830259  0.828446  0.512850  1
  Zn  Zn18  1  0.830259  0.512850  0.828446  1
  Zn  Zn19  1  0.510705  0.829765  0.829765  1
  Co  Co20  1  0.398321  0.390787  0.390787  1
  Co  Co21  1  0.398321  0.390787  0.820107  1
  Co  Co22  1  0.398321  0.820107  0.390787  1
  Co  Co23  1  0.818437  0.393855  0.393855  1
