# generated using pymatgen
data_Nd2MnAl20Rh3
_symmetry_space_group_name_H-M   'P 1'
_cell_length_a   6.88971182
_cell_length_b   6.87314265
_cell_length_c   9.21006276
_cell_angle_alpha   90.11482516
_cell_angle_beta   90.30466327
_cell_angle_gamma   97.24086394
_symmetry_Int_Tables_number   1
_chemical_formula_structural   Nd2MnAl20Rh3
_chemical_formula_sum   'Nd2 Mn1 Al20 Rh3'
_cell_volume   432.64723153
_cell_formula_units_Z   1
loop_
 _symmetry_equiv_pos_site_id
 _symmetry_equiv_pos_as_xyz
  1  'x, y, z'
loop_
 _atom_site_type_symbol
 _atom_site_label
 _atom_site_symmetry_multiplicity
 _atom_site_fract_x
 _atom_site_fract_y
 _atom_site_fract_z
 _atom_site_occupancy
  Nd  Nd0  1  0.875728  0.128441  0.751538  1
  Nd  Nd1  1  0.124272  0.871559  0.248462  1
  Mn  Mn2  1  0.000000  0.500000  0.000000  1
  Al  Al3  1  0.622375  0.379037  0.550654  1
  Al  Al4  1  0.377625  0.620963  0.449346  1
  Al  Al5  1  0.372009  0.618535  0.047371  1
  Al  Al6  1  0.627991  0.381465  0.952629  1
  Al  Al7  1  0.224697  0.225721  0.499109  1
  Al  Al8  1  0.775303  0.774279  0.500891  1
  Al  Al9  1  0.779657  0.770809  0.002169  1
  Al  Al10  1  0.220343  0.229191  0.997831  1
  Al  Al11  1  0.845306  0.163171  0.100513  1
  Al  Al12  1  0.154694  0.836829  0.899487  1
  Al  Al13  1  0.158838  0.841980  0.604273  1
  Al  Al14  1  0.841162  0.158020  0.395727  1
  Al  Al15  1  0.861424  0.588653  0.754536  1
  Al  Al16  1  0.138576  0.411347  0.245464  1
  Al  Al17  1  0.407600  0.141211  0.751063  1
  Al  Al18  1  0.592400  0.858789  0.248937  1
  Al  Al19  1  0.222304  0.482030  0.756694  1
  Al  Al20  1  0.777696  0.517970  0.243306  1
  Al  Al21  1  0.519335  0.774049  0.750627  1
  Al  Al22  1  0.480665  0.225951  0.249373  1
  Rh  Rh23  1  0.000000  0.500000  0.500000  1
  Rh  Rh24  1  0.500000  0.000000  0.000000  1
  Rh  Rh25  1  0.500000  0.000000  0.500000  1
