# generated using pymatgen
data_Sc12ReNi4Sn
_symmetry_space_group_name_H-M   'P 1'
_cell_length_a   7.75259504
_cell_length_b   7.75362730
_cell_length_c   7.77348100
_cell_angle_alpha   106.28552597
_cell_angle_beta   110.71030014
_cell_angle_gamma   111.32686610
_symmetry_Int_Tables_number   1
_chemical_formula_structural   Sc12ReNi4Sn
_chemical_formula_sum   'Sc12 Re1 Ni4 Sn1'
_cell_volume   359.49283413
_cell_formula_units_Z   1
loop_
 _symmetry_equiv_pos_site_id
 _symmetry_equiv_pos_as_xyz
  1  'x, y, z'
loop_
 _atom_site_type_symbol
 _atom_site_label
 _atom_site_symmetry_multiplicity
 _atom_site_fract_x
 _atom_site_fract_y
 _atom_site_fract_z
 _atom_site_occupancy
  Sc  Sc0  1  0.695921  0.272525  0.968478  1
  Sc  Sc1  1  0.303944  0.727600  0.031505  1
  Sc  Sc2  1  0.696194  0.727009  0.423237  1
  Sc  Sc3  1  0.303723  0.272992  0.576716  1
  Sc  Sc4  1  0.800462  0.119740  0.319470  1
  Sc  Sc5  1  0.800206  0.480857  0.680381  1
  Sc  Sc6  1  0.199632  0.880309  0.680462  1
  Sc  Sc7  1  0.199746  0.519058  0.319555  1
  Sc  Sc8  1  0.591803  0.773817  0.817894  1
  Sc  Sc9  1  0.955932  0.774033  0.181981  1
  Sc  Sc10  1  0.044031  0.225947  0.818011  1
  Sc  Sc11  1  0.408246  0.226243  0.182127  1
  Re  Re12  1  0.499904  0.500039  0.999992  1
  Ni  Ni13  1  0.855166  0.499636  0.354680  1
  Ni  Ni14  1  0.144595  0.500312  0.645470  1
  Ni  Ni15  1  0.000211  0.123738  0.123889  1
  Ni  Ni16  1  0.000108  0.875993  0.876081  1
  Sn  Sn17  1  0.500175  0.000149  0.500071  1
