# generated using pymatgen
data_K2MnNiF6
_symmetry_space_group_name_H-M   'P 1'
_cell_length_a   5.89461309
_cell_length_b   5.89461298
_cell_length_c   5.89461200
_cell_angle_alpha   119.99999453
_cell_angle_beta   119.99999386
_cell_angle_gamma   59.99998723
_symmetry_Int_Tables_number   1
_chemical_formula_structural   K2MnNiF6
_chemical_formula_sum   'K2 Mn1 Ni1 F6'
_cell_volume   144.82742943
_cell_formula_units_Z   1
loop_
 _symmetry_equiv_pos_site_id
 _symmetry_equiv_pos_as_xyz
  1  'x, y, z'
loop_
 _atom_site_type_symbol
 _atom_site_label
 _atom_site_symmetry_multiplicity
 _atom_site_fract_x
 _atom_site_fract_y
 _atom_site_fract_z
 _atom_site_occupancy
  K  K0  1  0.750000  0.750000  0.250001  1
  K  K1  1  0.249999  0.249999  0.749999  1
  Mn  Mn2  1  0.000000  0.000000  0.000000  1
  Ni  Ni3  1  0.500000  0.500000  0.500000  1
  F  F4  1  0.256073  0.256073  0.256074  1
  F  F5  1  0.743926  0.256075  0.256075  1
  F  F6  1  0.256075  0.743926  0.256075  1
  F  F7  1  0.743926  0.743926  0.743926  1
  F  F8  1  0.743926  0.256073  0.743926  1
  F  F9  1  0.256073  0.743926  0.743926  1
