# generated using pymatgen
data_Li8La7YSn8
_symmetry_space_group_name_H-M   'P 1'
_cell_length_a   9.62007500
_cell_length_b   9.62007496
_cell_length_c   7.84005800
_cell_angle_alpha   90.00000000
_cell_angle_beta   90.00000000
_cell_angle_gamma   120.00000358
_symmetry_Int_Tables_number   1
_chemical_formula_structural   Li8La7YSn8
_chemical_formula_sum   'Li8 La7 Y1 Sn8'
_cell_volume   628.35750345
_cell_formula_units_Z   1
loop_
 _symmetry_equiv_pos_site_id
 _symmetry_equiv_pos_as_xyz
  1  'x, y, z'
loop_
 _atom_site_type_symbol
 _atom_site_label
 _atom_site_symmetry_multiplicity
 _atom_site_fract_x
 _atom_site_fract_y
 _atom_site_fract_z
 _atom_site_occupancy
  Li  Li0  1  0.166404  0.833596  0.190688  1
  Li  Li1  1  0.331148  0.165574  0.687586  1
  Li  Li2  1  0.834426  0.668852  0.687586  1
  Li  Li3  1  0.166404  0.332806  0.190688  1
  Li  Li4  1  0.667194  0.833596  0.190688  1
  Li  Li5  1  0.834426  0.165574  0.687586  1
  Li  Li6  1  0.333333  0.666667  0.816207  1
  Li  Li7  1  0.666667  0.333333  0.318847  1
  La  La8  1  0.512436  0.487564  0.990122  1
  La  La9  1  0.025111  0.512556  0.490060  1
  La  La10  1  0.487444  0.974889  0.490060  1
  La  La11  1  0.512436  0.024872  0.990122  1
  La  La12  1  0.975128  0.487564  0.990122  1
  La  La13  1  0.487444  0.512556  0.490060  1
  La  La14  1  0.000000  0.000000  0.986013  1
  Y  Y15  1  0.000000  0.000000  0.484509  1
  Sn  Sn16  1  0.165363  0.834637  0.760100  1
  Sn  Sn17  1  0.328412  0.164206  0.266234  1
  Sn  Sn18  1  0.835794  0.671588  0.266234  1
  Sn  Sn19  1  0.165363  0.330724  0.760100  1
  Sn  Sn20  1  0.669276  0.834637  0.760100  1
  Sn  Sn21  1  0.835794  0.164206  0.266234  1
  Sn  Sn22  1  0.333333  0.666667  0.213864  1
  Sn  Sn23  1  0.666667  0.333333  0.716190  1
