# generated using pymatgen
data_Rb4(CuO2)3
_symmetry_space_group_name_H-M   'P 1'
_cell_length_a   5.75822616
_cell_length_b   5.75822651
_cell_length_c   8.07452414
_cell_angle_alpha   88.48905859
_cell_angle_beta   88.48906073
_cell_angle_gamma   67.44311801
_symmetry_Int_Tables_number   1
_chemical_formula_structural   Rb4(CuO2)3
_chemical_formula_sum   'Rb4 Cu3 O6'
_cell_volume   247.12265431
_cell_formula_units_Z   1
loop_
 _symmetry_equiv_pos_site_id
 _symmetry_equiv_pos_as_xyz
  1  'x, y, z'
loop_
 _atom_site_type_symbol
 _atom_site_label
 _atom_site_symmetry_multiplicity
 _atom_site_fract_x
 _atom_site_fract_y
 _atom_site_fract_z
 _atom_site_occupancy
  Rb  Rb0  1  0.679110  0.679110  0.623685  1
  Rb  Rb1  1  0.320890  0.320890  0.376315  1
  Rb  Rb2  1  0.653895  0.653895  0.110120  1
  Rb  Rb3  1  0.346105  0.346105  0.889880  1
  Cu  Cu4  1  0.000000  0.000000  0.000000  1
  Cu  Cu5  1  0.965981  0.965981  0.328072  1
  Cu  Cu6  1  0.034019  0.034019  0.671928  1
  O  O7  1  0.132446  0.738587  0.156964  1
  O  O8  1  0.738587  0.132446  0.156964  1
  O  O9  1  0.867554  0.261413  0.843036  1
  O  O10  1  0.261413  0.867554  0.843036  1
  O  O11  1  0.193300  0.806700  0.500000  1
  O  O12  1  0.806700  0.193300  0.500000  1
