# generated using pymatgen
data_TbYPa2(Ni2Sn)2
_symmetry_space_group_name_H-M   'P 1'
_cell_length_a   7.40804219
_cell_length_b   7.40884273
_cell_length_c   3.62400700
_cell_angle_alpha   90.00000000
_cell_angle_beta   90.00000000
_cell_angle_gamma   93.62037989
_symmetry_Int_Tables_number   1
_chemical_formula_structural   TbYPa2(Ni2Sn)2
_chemical_formula_sum   'Tb1 Y1 Pa2 Ni4 Sn2'
_cell_volume   198.50674909
_cell_formula_units_Z   1
loop_
 _symmetry_equiv_pos_site_id
 _symmetry_equiv_pos_as_xyz
  1  'x, y, z'
loop_
 _atom_site_type_symbol
 _atom_site_label
 _atom_site_symmetry_multiplicity
 _atom_site_fract_x
 _atom_site_fract_y
 _atom_site_fract_z
 _atom_site_occupancy
  Tb  Tb0  1  0.825634  0.674345  0.500000  1
  Y  Y1  1  0.174514  0.325469  0.500000  1
  Pa  Pa2  1  0.675478  0.175568  0.500000  1
  Pa  Pa3  1  0.324463  0.824543  0.500000  1
  Ni  Ni4  1  0.867004  0.367243  0.000000  1
  Ni  Ni5  1  0.132801  0.633042  0.000000  1
  Ni  Ni6  1  0.384309  0.115648  0.000000  1
  Ni  Ni7  1  0.615811  0.884155  0.000000  1
  Sn  Sn8  1  0.499862  0.499842  0.000000  1
  Sn  Sn9  1  0.000124  0.000146  0.000000  1
