# generated using pymatgen
data_Tm6Lu6Ir3Rh
_symmetry_space_group_name_H-M   'P 1'
_cell_length_a   6.31081047
_cell_length_b   7.14323213
_cell_length_c   8.97722005
_cell_angle_alpha   90.00415500
_cell_angle_beta   90.25214370
_cell_angle_gamma   90.06427321
_symmetry_Int_Tables_number   1
_chemical_formula_structural   Tm6Lu6Ir3Rh
_chemical_formula_sum   'Tm6 Lu6 Ir3 Rh1'
_cell_volume   404.68517150
_cell_formula_units_Z   1
loop_
 _symmetry_equiv_pos_site_id
 _symmetry_equiv_pos_as_xyz
  1  'x, y, z'
loop_
 _atom_site_type_symbol
 _atom_site_label
 _atom_site_symmetry_multiplicity
 _atom_site_fract_x
 _atom_site_fract_y
 _atom_site_fract_z
 _atom_site_occupancy
  Tm  Tm0  1  0.326824  0.678361  0.060250  1
  Tm  Tm1  1  0.173956  0.179036  0.439355  1
  Tm  Tm2  1  0.875633  0.532081  0.250337  1
  Tm  Tm3  1  0.623641  0.032432  0.249709  1
  Tm  Tm4  1  0.122781  0.467724  0.749845  1
  Tm  Tm5  1  0.377080  0.967937  0.750150  1
  Lu  Lu6  1  0.673740  0.321862  0.561186  1
  Lu  Lu7  1  0.825689  0.821728  0.937930  1
  Lu  Lu8  1  0.673933  0.321476  0.938535  1
  Lu  Lu9  1  0.825420  0.821378  0.562310  1
  Lu  Lu10  1  0.327660  0.677604  0.439772  1
  Lu  Lu11  1  0.173302  0.178432  0.060556  1
  Ir  Ir12  1  0.459160  0.386062  0.250262  1
  Ir  Ir13  1  0.958532  0.113764  0.751086  1
  Ir  Ir14  1  0.541537  0.613837  0.749078  1
  Rh  Rh15  1  0.041114  0.886289  0.249640  1
