# generated using pymatgen
data_Pr20Ir9Os2Rh
_symmetry_space_group_name_H-M   'P 1'
_cell_length_a   11.34597400
_cell_length_b   11.34597400
_cell_length_c   6.67814300
_cell_angle_alpha   90.00000000
_cell_angle_beta   90.00000000
_cell_angle_gamma   90.00000000
_symmetry_Int_Tables_number   1
_chemical_formula_structural   Pr20Ir9Os2Rh
_chemical_formula_sum   'Pr20 Ir9 Os2 Rh1'
_cell_volume   859.68486804
_cell_formula_units_Z   1
loop_
 _symmetry_equiv_pos_site_id
 _symmetry_equiv_pos_as_xyz
  1  'x, y, z'
loop_
 _atom_site_type_symbol
 _atom_site_label
 _atom_site_symmetry_multiplicity
 _atom_site_fract_x
 _atom_site_fract_y
 _atom_site_fract_z
 _atom_site_occupancy
  Pr  Pr0  1  0.291432  0.089946  0.386130  1
  Pr  Pr1  1  0.290585  0.909464  0.883227  1
  Pr  Pr2  1  0.709415  0.090536  0.883227  1
  Pr  Pr3  1  0.708568  0.910054  0.386130  1
  Pr  Pr4  1  0.590536  0.790585  0.883227  1
  Pr  Pr5  1  0.589946  0.208568  0.386130  1
  Pr  Pr6  1  0.410054  0.791432  0.386130  1
  Pr  Pr7  1  0.409464  0.209415  0.883227  1
  Pr  Pr8  1  0.205372  0.412015  0.615214  1
  Pr  Pr9  1  0.205587  0.588593  0.115511  1
  Pr  Pr10  1  0.794413  0.411407  0.115511  1
  Pr  Pr11  1  0.794628  0.587985  0.615214  1
  Pr  Pr12  1  0.911407  0.705587  0.115511  1
  Pr  Pr13  1  0.912015  0.294628  0.615214  1
  Pr  Pr14  1  0.087985  0.705372  0.615214  1
  Pr  Pr15  1  0.088593  0.294413  0.115511  1
  Pr  Pr16  1  0.000000  0.000000  0.502682  1
  Pr  Pr17  1  0.000000  0.000000  0.002878  1
  Pr  Pr18  1  0.500000  0.500000  0.002878  1
  Pr  Pr19  1  0.500000  0.500000  0.502682  1
  Ir  Ir20  1  0.844194  0.150411  0.250344  1
  Ir  Ir21  1  0.845634  0.848319  0.749352  1
  Ir  Ir22  1  0.154366  0.151681  0.749352  1
  Ir  Ir23  1  0.155806  0.849589  0.250344  1
  Ir  Ir24  1  0.651681  0.345634  0.749352  1
  Ir  Ir25  1  0.650411  0.655806  0.250344  1
  Ir  Ir26  1  0.349589  0.344194  0.250344  1
  Ir  Ir27  1  0.348319  0.654366  0.749352  1
  Ir  Ir28  1  0.500000  0.000000  0.622658  1
  Os  Os29  1  0.000000  0.500000  0.876778  1
  Os  Os30  1  0.000000  0.500000  0.375683  1
  Rh  Rh31  1  0.500000  0.000000  0.114655  1
