# generated using pymatgen
data_NpCrCl10
_symmetry_space_group_name_H-M   'P 1'
_cell_length_a   6.67336501
_cell_length_b   7.28617940
_cell_length_c   11.54269380
_cell_angle_alpha   97.29011154
_cell_angle_beta   92.68649804
_cell_angle_gamma   114.82824675
_symmetry_Int_Tables_number   1
_chemical_formula_structural   NpCrCl10
_chemical_formula_sum   'Np1 Cr1 Cl10'
_cell_volume   502.11469785
_cell_formula_units_Z   1
loop_
 _symmetry_equiv_pos_site_id
 _symmetry_equiv_pos_as_xyz
  1  'x, y, z'
loop_
 _atom_site_type_symbol
 _atom_site_label
 _atom_site_symmetry_multiplicity
 _atom_site_fract_x
 _atom_site_fract_y
 _atom_site_fract_z
 _atom_site_occupancy
  Np  Np0  1  0.897448  0.789431  0.791014  1
  Cr  Cr1  1  0.143754  0.294351  0.292491  1
  Cl  Cl2  1  0.955899  0.212993  0.435641  1
  Cl  Cl3  1  0.068415  0.830067  0.606342  1
  Cl  Cl4  1  0.206196  0.109066  0.889082  1
  Cl  Cl5  1  0.727857  0.749092  0.976211  1
  Cl  Cl6  1  0.101005  0.594124  0.844839  1
  Cl  Cl7  1  0.945149  0.327051  0.155768  1
  Cl  Cl8  1  0.693707  0.984566  0.736760  1
  Cl  Cl9  1  0.245391  0.063224  0.233056  1
  Cl  Cl10  1  0.587955  0.470135  0.693049  1
  Cl  Cl11  1  0.427222  0.575901  0.345746  1
