# generated using pymatgen
data_V11Ga4Ir16W
_symmetry_space_group_name_H-M   'P 1'
_cell_length_a   8.76505633
_cell_length_b   8.76484088
_cell_length_c   6.70032379
_cell_angle_alpha   69.62189731
_cell_angle_beta   69.62473584
_cell_angle_gamma   80.39259113
_symmetry_Int_Tables_number   1
_chemical_formula_structural   V11Ga4Ir16W
_chemical_formula_sum   'V11 Ga4 Ir16 W1'
_cell_volume   451.73051015
_cell_formula_units_Z   1
loop_
 _symmetry_equiv_pos_site_id
 _symmetry_equiv_pos_as_xyz
  1  'x, y, z'
loop_
 _atom_site_type_symbol
 _atom_site_label
 _atom_site_symmetry_multiplicity
 _atom_site_fract_x
 _atom_site_fract_y
 _atom_site_fract_z
 _atom_site_occupancy
  V  V0  1  0.262857  0.012465  0.276275  1
  V  V1  1  0.762571  0.512934  0.276054  1
  V  V2  1  0.512904  0.762876  0.276483  1
  V  V3  1  0.126503  0.376300  0.500609  1
  V  V4  1  0.373539  0.125324  0.499044  1
  V  V5  1  0.875466  0.623679  0.498776  1
  V  V6  1  0.624074  0.874253  0.500348  1
  V  V7  1  0.735592  0.985681  0.726174  1
  V  V8  1  0.987364  0.737182  0.723730  1
  V  V9  1  0.487122  0.237297  0.723824  1
  V  V10  1  0.239109  0.489032  0.721354  1
  Ga  Ga11  1  0.873662  0.123764  0.000660  1
  Ga  Ga12  1  0.125925  0.875466  0.001450  1
  Ga  Ga13  1  0.625472  0.375976  0.001370  1
  Ga  Ga14  1  0.376289  0.626159  0.999317  1
  Ir  Ir15  1  0.323330  0.321978  0.103283  1
  Ir  Ir16  1  0.052619  0.050868  0.645099  1
  Ir  Ir17  1  0.820630  0.820084  0.106467  1
  Ir  Ir18  1  0.553540  0.553345  0.640684  1
  Ir  Ir19  1  0.446952  0.446529  0.359532  1
  Ir  Ir20  1  0.180223  0.179817  0.890766  1
  Ir  Ir21  1  0.945315  0.944614  0.360611  1
  Ir  Ir22  1  0.680218  0.679517  0.893344  1
  Ir  Ir23  1  0.072093  0.573322  0.103140  1
  Ir  Ir24  1  0.569985  0.070622  0.106624  1
  Ir  Ir25  1  0.800867  0.302703  0.644976  1
  Ir  Ir26  1  0.303286  0.803413  0.640899  1
  Ir  Ir27  1  0.196613  0.696915  0.359483  1
  Ir  Ir28  1  0.694565  0.195352  0.360669  1
  Ir  Ir29  1  0.929865  0.430314  0.890577  1
  Ir  Ir30  1  0.429458  0.930171  0.893543  1
  W  W31  1  0.011993  0.262046  0.274836  1
