# generated using pymatgen
data_Lu3Mn(P3Ir4)2
_symmetry_space_group_name_H-M   'P 1'
_cell_length_a   3.94050300
_cell_length_b   11.24358800
_cell_length_c   12.43396000
_cell_angle_alpha   90.00000000
_cell_angle_beta   90.00000000
_cell_angle_gamma   90.00000000
_symmetry_Int_Tables_number   1
_chemical_formula_structural   Lu3Mn(P3Ir4)2
_chemical_formula_sum   'Lu6 Mn2 P12 Ir16'
_cell_volume   550.89147496
_cell_formula_units_Z   2
loop_
 _symmetry_equiv_pos_site_id
 _symmetry_equiv_pos_as_xyz
  1  'x, y, z'
loop_
 _atom_site_type_symbol
 _atom_site_label
 _atom_site_symmetry_multiplicity
 _atom_site_fract_x
 _atom_site_fract_y
 _atom_site_fract_z
 _atom_site_occupancy
  Lu  Lu0  1  0.000000  0.500000  0.524978  1
  Lu  Lu1  1  0.500000  0.000000  0.475022  1
  Lu  Lu2  1  0.500000  0.822891  0.201014  1
  Lu  Lu3  1  0.500000  0.177109  0.201014  1
  Lu  Lu4  1  0.000000  0.677109  0.798986  1
  Lu  Lu5  1  0.000000  0.322891  0.798986  1
  Mn  Mn6  1  0.000000  0.500000  0.996689  1
  Mn  Mn7  1  0.500000  0.000000  0.003311  1
  P  P8  1  0.500000  0.500000  0.882753  1
  P  P9  1  0.000000  0.000000  0.117247  1
  P  P10  1  0.500000  0.500000  0.357177  1
  P  P11  1  0.000000  0.000000  0.642823  1
  P  P12  1  0.500000  0.315207  0.620766  1
  P  P13  1  0.500000  0.684793  0.620766  1
  P  P14  1  0.000000  0.184793  0.379234  1
  P  P15  1  0.000000  0.815207  0.379234  1
  P  P16  1  0.500000  0.845098  0.897249  1
  P  P17  1  0.500000  0.154902  0.897249  1
  P  P18  1  0.000000  0.654902  0.102751  1
  P  P19  1  0.000000  0.345098  0.102751  1
  Ir  Ir20  1  0.500000  0.500000  0.169807  1
  Ir  Ir21  1  0.000000  0.000000  0.830193  1
  Ir  Ir22  1  0.500000  0.500000  0.698269  1
  Ir  Ir23  1  0.000000  0.000000  0.301731  1
  Ir  Ir24  1  0.500000  0.335499  0.991322  1
  Ir  Ir25  1  0.500000  0.664501  0.991322  1
  Ir  Ir26  1  0.000000  0.164501  0.008678  1
  Ir  Ir27  1  0.000000  0.835499  0.008678  1
  Ir  Ir28  1  0.500000  0.296978  0.429119  1
  Ir  Ir29  1  0.500000  0.703022  0.429119  1
  Ir  Ir30  1  0.000000  0.203022  0.570881  1
  Ir  Ir31  1  0.000000  0.796978  0.570881  1
  Ir  Ir32  1  0.500000  0.867909  0.715942  1
  Ir  Ir33  1  0.500000  0.132091  0.715942  1
  Ir  Ir34  1  0.000000  0.632091  0.284058  1
  Ir  Ir35  1  0.000000  0.367909  0.284058  1
