# generated using pymatgen
data_Yb15Er4TmPt16
_symmetry_space_group_name_H-M   'P 1'
_cell_length_a   7.45508942
_cell_length_b   7.53701456
_cell_length_c   14.51643705
_cell_angle_alpha   90.06490033
_cell_angle_beta   90.01485152
_cell_angle_gamma   90.01916218
_symmetry_Int_Tables_number   1
_chemical_formula_structural   Yb15Er4TmPt16
_chemical_formula_sum   'Yb15 Er4 Tm1 Pt16'
_cell_volume   815.66519122
_cell_formula_units_Z   1
loop_
 _symmetry_equiv_pos_site_id
 _symmetry_equiv_pos_as_xyz
  1  'x, y, z'
loop_
 _atom_site_type_symbol
 _atom_site_label
 _atom_site_symmetry_multiplicity
 _atom_site_fract_x
 _atom_site_fract_y
 _atom_site_fract_z
 _atom_site_occupancy
  Yb  Yb0  1  0.851899  0.666519  0.122055  1
  Yb  Yb1  1  0.647328  0.166913  0.878116  1
  Yb  Yb2  1  0.146856  0.332959  0.621533  1
  Yb  Yb3  1  0.490600  0.675053  0.595509  1
  Yb  Yb4  1  0.990434  0.823585  0.905710  1
  Yb  Yb5  1  0.510186  0.322387  0.093532  1
  Yb  Yb6  1  0.007509  0.178224  0.405581  1
  Yb  Yb7  1  0.508908  0.322003  0.404604  1
  Yb  Yb8  1  0.007423  0.180613  0.094050  1
  Yb  Yb9  1  0.491290  0.679498  0.904510  1
  Yb  Yb10  1  0.991219  0.819611  0.596182  1
  Yb  Yb11  1  0.808718  0.506157  0.750443  1
  Yb  Yb12  1  0.308103  0.992293  0.750157  1
  Yb  Yb13  1  0.189703  0.489750  0.248951  1
  Yb  Yb14  1  0.694907  0.008614  0.249035  1
  Er  Er15  1  0.648318  0.162129  0.623148  1
  Er  Er16  1  0.148927  0.336147  0.876287  1
  Er  Er17  1  0.352484  0.835993  0.123607  1
  Er  Er18  1  0.852596  0.664611  0.376852  1
  Tm  Tm19  1  0.352247  0.833648  0.377186  1
  Pt  Pt20  1  0.684032  0.958941  0.458785  1
  Pt  Pt21  1  0.189692  0.539743  0.039466  1
  Pt  Pt22  1  0.310220  0.040426  0.960852  1
  Pt  Pt23  1  0.812212  0.458261  0.538937  1
  Pt  Pt24  1  0.322863  0.030194  0.541055  1
  Pt  Pt25  1  0.827140  0.467035  0.957017  1
  Pt  Pt26  1  0.674110  0.966791  0.043465  1
  Pt  Pt27  1  0.178080  0.541993  0.456950  1
  Pt  Pt28  1  0.442915  0.378765  0.747016  1
  Pt  Pt29  1  0.942674  0.119434  0.751736  1
  Pt  Pt30  1  0.553507  0.623173  0.251920  1
  Pt  Pt31  1  0.060474  0.879289  0.253677  1
  Pt  Pt32  1  0.678997  0.862927  0.747060  1
  Pt  Pt33  1  0.179118  0.636174  0.753286  1
  Pt  Pt34  1  0.326089  0.134324  0.249403  1
  Pt  Pt35  1  0.818220  0.365825  0.252328  1
