# generated using pymatgen
data_Rb6NdInAs4
_symmetry_space_group_name_H-M   'P 1'
_cell_length_a   9.72867885
_cell_length_b   9.72867995
_cell_length_c   9.72867919
_cell_angle_alpha   128.81424111
_cell_angle_beta   69.20457061
_cell_angle_gamma   136.73862331
_symmetry_Int_Tables_number   1
_chemical_formula_structural   Rb6NdInAs4
_chemical_formula_sum   'Rb6 Nd1 In1 As4'
_cell_volume   482.74814296
_cell_formula_units_Z   1
loop_
 _symmetry_equiv_pos_site_id
 _symmetry_equiv_pos_as_xyz
  1  'x, y, z'
loop_
 _atom_site_type_symbol
 _atom_site_label
 _atom_site_symmetry_multiplicity
 _atom_site_fract_x
 _atom_site_fract_y
 _atom_site_fract_z
 _atom_site_occupancy
  Rb  Rb0  1  0.792991  0.177677  0.006405  1
  Rb  Rb1  1  0.707009  0.713415  0.384688  1
  Rb  Rb2  1  0.750000  0.250000  0.500000  1
  Rb  Rb3  1  0.250000  0.750000  0.500001  1
  Rb  Rb4  1  0.328728  0.322322  0.615313  1
  Rb  Rb5  1  0.171272  0.786585  0.993594  1
  Nd  Nd6  1  0.250000  0.250000  0.000000  1
  In  In7  1  0.750000  0.750000  0.000000  1
  As  As8  1  0.414424  0.702136  0.089884  1
  As  As9  1  0.085576  0.175461  0.287712  1
  As  As10  1  0.887747  0.797864  0.712288  1
  As  As11  1  0.612252  0.324540  0.910116  1
