# generated using pymatgen
data_Ho5Tm11(TlRh)4
_symmetry_space_group_name_H-M   'P 1'
_cell_length_a   9.55579734
_cell_length_b   9.55331410
_cell_length_c   9.55331400
_cell_angle_alpha   60.01549100
_cell_angle_beta   59.99909765
_cell_angle_gamma   59.99910452
_symmetry_Int_Tables_number   1
_chemical_formula_structural   Ho5Tm11(TlRh)4
_chemical_formula_sum   'Ho5 Tm11 Tl4 Rh4'
_cell_volume   616.74403555
_cell_formula_units_Z   1
loop_
 _symmetry_equiv_pos_site_id
 _symmetry_equiv_pos_as_xyz
  1  'x, y, z'
loop_
 _atom_site_type_symbol
 _atom_site_label
 _atom_site_symmetry_multiplicity
 _atom_site_fract_x
 _atom_site_fract_y
 _atom_site_fract_z
 _atom_site_occupancy
  Ho  Ho0  1  0.061733  0.062051  0.438135  1
  Ho  Ho1  1  0.438393  0.061612  0.438356  1
  Ho  Ho2  1  0.061733  0.438135  0.062051  1
  Ho  Ho3  1  0.049270  0.650265  0.650265  1
  Ho  Ho4  1  0.438393  0.438356  0.061612  1
  Tm  Tm5  1  0.650474  0.048662  0.650423  1
  Tm  Tm6  1  0.187876  0.812282  0.187535  1
  Tm  Tm7  1  0.187876  0.187535  0.812282  1
  Tm  Tm8  1  0.811913  0.812072  0.188016  1
  Tm  Tm9  1  0.439440  0.060550  0.060550  1
  Tm  Tm10  1  0.812078  0.187826  0.187826  1
  Tm  Tm11  1  0.060666  0.439174  0.439174  1
  Tm  Tm12  1  0.811913  0.188016  0.812072  1
  Tm  Tm13  1  0.187733  0.812459  0.812459  1
  Tm  Tm14  1  0.650474  0.650423  0.048662  1
  Tm  Tm15  1  0.650451  0.650460  0.650460  1
  Tl  Tl16  1  0.414676  0.414708  0.414708  1
  Tl  Tl17  1  0.755902  0.414826  0.414826  1
  Tl  Tl18  1  0.415455  0.755828  0.414081  1
  Tl  Tl19  1  0.415455  0.414081  0.755828  1
  Rh  Rh20  1  0.857036  0.857584  0.427059  1
  Rh  Rh21  1  0.856203  0.858362  0.858362  1
  Rh  Rh22  1  0.427818  0.857673  0.857673  1
  Rh  Rh23  1  0.857036  0.427059  0.857584  1
