# generated using pymatgen
data_Hf5Mn6Si12W
_symmetry_space_group_name_H-M   'P 1'
_cell_length_a   9.71620236
_cell_length_b   9.69311436
_cell_length_c   9.69311336
_cell_angle_alpha   149.57650790
_cell_angle_beta   132.58921477
_cell_angle_gamma   57.35919513
_symmetry_Int_Tables_number   1
_chemical_formula_structural   Hf5Mn6Si12W
_chemical_formula_sum   'Hf5 Mn6 Si12 W1'
_cell_volume   337.94394143
_cell_formula_units_Z   1
loop_
 _symmetry_equiv_pos_site_id
 _symmetry_equiv_pos_as_xyz
  1  'x, y, z'
loop_
 _atom_site_type_symbol
 _atom_site_label
 _atom_site_symmetry_multiplicity
 _atom_site_fract_x
 _atom_site_fract_y
 _atom_site_fract_z
 _atom_site_occupancy
  Hf  Hf0  1  0.145350  0.406959  0.738391  1
  Hf  Hf1  1  0.667089  0.407348  0.259742  1
  Hf  Hf2  1  0.332533  0.594662  0.737872  1
  Hf  Hf3  1  0.137091  0.140980  0.996111  1
  Hf  Hf4  1  0.856940  0.857350  0.999590  1
  Mn  Mn5  1  0.748249  0.000070  0.748179  1
  Mn  Mn6  1  0.999386  0.001307  0.500511  1
  Mn  Mn7  1  0.498432  0.500162  0.502055  1
  Mn  Mn8  1  0.498432  0.996377  0.998270  1
  Mn  Mn9  1  0.252263  0.001621  0.250642  1
  Mn  Mn10  1  0.999386  0.498874  0.998079  1
  Si  Si11  1  0.486599  0.136415  0.350184  1
  Si  Si12  1  0.512303  0.863013  0.649291  1
  Si  Si13  1  0.213941  0.864096  0.349847  1
  Si  Si14  1  0.784267  0.134143  0.650123  1
  Si  Si15  1  0.705141  0.696792  0.008349  1
  Si  Si16  1  0.300357  0.299146  0.001211  1
  Si  Si17  1  0.506164  0.744391  0.246586  1
  Si  Si18  1  0.506164  0.259578  0.761773  1
  Si  Si19  1  0.996807  0.257096  0.252544  1
  Si  Si20  1  0.205689  0.710148  0.495542  1
  Si  Si21  1  0.996807  0.744263  0.739711  1
  Si  Si22  1  0.787109  0.289010  0.498099  1
  W  W23  1  0.863498  0.596198  0.267301  1
