# generated using pymatgen
data_Ac2(ZnAu2)3
_symmetry_space_group_name_H-M   'P 1'
_cell_length_a   8.95077819
_cell_length_b   8.95077782
_cell_length_c   8.95077860
_cell_angle_alpha   57.37198432
_cell_angle_beta   57.37198416
_cell_angle_gamma   57.37198504
_symmetry_Int_Tables_number   1
_chemical_formula_structural   Ac2(ZnAu2)3
_chemical_formula_sum   'Ac4 Zn6 Au12'
_cell_volume   476.40043787
_cell_formula_units_Z   2
loop_
 _symmetry_equiv_pos_site_id
 _symmetry_equiv_pos_as_xyz
  1  'x, y, z'
loop_
 _atom_site_type_symbol
 _atom_site_label
 _atom_site_symmetry_multiplicity
 _atom_site_fract_x
 _atom_site_fract_y
 _atom_site_fract_z
 _atom_site_occupancy
  Ac  Ac0  1  0.907266  0.907266  0.907266  1
  Ac  Ac1  1  0.407266  0.407266  0.407266  1
  Ac  Ac2  1  0.092734  0.092734  0.092734  1
  Ac  Ac3  1  0.592734  0.592734  0.592734  1
  Zn  Zn4  1  0.556874  0.750000  0.943126  1
  Zn  Zn5  1  0.943126  0.556874  0.750000  1
  Zn  Zn6  1  0.750000  0.943126  0.556874  1
  Zn  Zn7  1  0.443126  0.250000  0.056874  1
  Zn  Zn8  1  0.056874  0.443126  0.250000  1
  Zn  Zn9  1  0.250000  0.056874  0.443126  1
  Au  Au10  1  0.479445  0.863350  0.207036  1
  Au  Au11  1  0.207036  0.479445  0.863350  1
  Au  Au12  1  0.863350  0.207036  0.479445  1
  Au  Au13  1  0.707036  0.363350  0.979445  1
  Au  Au14  1  0.979445  0.707036  0.363350  1
  Au  Au15  1  0.363350  0.979445  0.707036  1
  Au  Au16  1  0.520555  0.136650  0.792964  1
  Au  Au17  1  0.792964  0.520555  0.136650  1
  Au  Au18  1  0.136650  0.792964  0.520555  1
  Au  Au19  1  0.292964  0.636650  0.020555  1
  Au  Au20  1  0.020555  0.292964  0.636650  1
  Au  Au21  1  0.636650  0.020555  0.292964  1
