# generated using pymatgen
data_Sc4Ta3TiOs8
_symmetry_space_group_name_H-M   'P 1'
_cell_length_a   6.35478800
_cell_length_b   4.51131800
_cell_length_c   9.01278600
_cell_angle_alpha   90.00000000
_cell_angle_beta   89.99921284
_cell_angle_gamma   90.00000000
_symmetry_Int_Tables_number   1
_chemical_formula_structural   Sc4Ta3TiOs8
_chemical_formula_sum   'Sc4 Ta3 Ti1 Os8'
_cell_volume   258.38278045
_cell_formula_units_Z   1
loop_
 _symmetry_equiv_pos_site_id
 _symmetry_equiv_pos_as_xyz
  1  'x, y, z'
loop_
 _atom_site_type_symbol
 _atom_site_label
 _atom_site_symmetry_multiplicity
 _atom_site_fract_x
 _atom_site_fract_y
 _atom_site_fract_z
 _atom_site_occupancy
  Sc  Sc0  1  0.750020  0.250000  0.125014  1
  Sc  Sc1  1  0.250004  0.749999  0.372317  1
  Sc  Sc2  1  0.749994  0.250000  0.625012  1
  Sc  Sc3  1  0.249995  0.749999  0.877673  1
  Ta  Ta4  1  0.750008  0.749999  0.373350  1
  Ta  Ta5  1  0.249994  0.250000  0.625005  1
  Ta  Ta6  1  0.749991  0.749999  0.876654  1
  Ti  Ti7  1  0.250009  0.250000  0.124992  1
  Os  Os8  1  0.499827  0.749999  0.125003  1
  Os  Os9  1  0.000174  0.749999  0.125003  1
  Os  Os10  1  0.499400  0.250000  0.374998  1
  Os  Os11  1  0.000610  0.250000  0.374998  1
  Os  Os12  1  0.000186  0.749999  0.625004  1
  Os  Os13  1  0.499806  0.749999  0.625005  1
  Os  Os14  1  0.000591  0.250000  0.874985  1
  Os  Os15  1  0.499397  0.250000  0.874987  1
