# generated using pymatgen
data_Dy4Al2Ga2Ir3Pt
_symmetry_space_group_name_H-M   'P 1'
_cell_length_a   4.30152700
_cell_length_b   6.85702159
_cell_length_c   7.88014496
_cell_angle_alpha   89.82585474
_cell_angle_beta   90.00000000
_cell_angle_gamma   90.00000000
_symmetry_Int_Tables_number   1
_chemical_formula_structural   Dy4Al2Ga2Ir3Pt
_chemical_formula_sum   'Dy4 Al2 Ga2 Ir3 Pt1'
_cell_volume   232.42903054
_cell_formula_units_Z   1
loop_
 _symmetry_equiv_pos_site_id
 _symmetry_equiv_pos_as_xyz
  1  'x, y, z'
loop_
 _atom_site_type_symbol
 _atom_site_label
 _atom_site_symmetry_multiplicity
 _atom_site_fract_x
 _atom_site_fract_y
 _atom_site_fract_z
 _atom_site_occupancy
  Dy  Dy0  1  0.250000  0.472695  0.181557  1
  Dy  Dy1  1  0.750000  0.534090  0.820348  1
  Dy  Dy2  1  0.750000  0.029303  0.681776  1
  Dy  Dy3  1  0.250000  0.968401  0.316137  1
  Al  Al4  1  0.750000  0.640015  0.437535  1
  Al  Al5  1  0.250000  0.361138  0.559941  1
  Ga  Ga6  1  0.250000  0.849812  0.935850  1
  Ga  Ga7  1  0.750000  0.145091  0.066633  1
  Ir  Ir8  1  0.250000  0.732313  0.616489  1
  Ir  Ir9  1  0.750000  0.268033  0.385049  1
  Ir  Ir10  1  0.750000  0.765100  0.122455  1
  Pt  Pt11  1  0.250000  0.234008  0.876229  1
