# generated using pymatgen
data_Y2FeCo16
_symmetry_space_group_name_H-M   'P 1'
_cell_length_a   6.27713942
_cell_length_b   6.27713969
_cell_length_c   6.27713955
_cell_angle_alpha   83.05768810
_cell_angle_beta   83.05769057
_cell_angle_gamma   83.05769512
_symmetry_Int_Tables_number   1
_chemical_formula_structural   Y2FeCo16
_chemical_formula_sum   'Y2 Fe1 Co16'
_cell_volume   242.30021782
_cell_formula_units_Z   1
loop_
 _symmetry_equiv_pos_site_id
 _symmetry_equiv_pos_as_xyz
  1  'x, y, z'
loop_
 _atom_site_type_symbol
 _atom_site_label
 _atom_site_symmetry_multiplicity
 _atom_site_fract_x
 _atom_site_fract_y
 _atom_site_fract_z
 _atom_site_occupancy
  Y  Y0  1  0.655596  0.655596  0.655596  1
  Y  Y1  1  0.345996  0.345997  0.345997  1
  Fe  Fe2  1  0.096203  0.096203  0.096203  1
  Co  Co3  1  0.346570  0.346570  0.849652  1
  Co  Co4  1  0.849652  0.346570  0.346570  1
  Co  Co5  1  0.346570  0.849652  0.346570  1
  Co  Co6  1  0.654382  0.654382  0.151100  1
  Co  Co7  1  0.151100  0.654382  0.654382  1
  Co  Co8  1  0.654382  0.151100  0.654382  1
  Co  Co9  1  0.710508  0.289131  0.999265  1
  Co  Co10  1  0.999265  0.710508  0.289131  1
  Co  Co11  1  0.289131  0.999265  0.710508  1
  Co  Co12  1  0.999265  0.289131  0.710508  1
  Co  Co13  1  0.710508  0.999265  0.289131  1
  Co  Co14  1  0.289131  0.710508  0.999265  1
  Co  Co15  1  0.998969  0.998969  0.501523  1
  Co  Co16  1  0.501523  0.998969  0.998969  1
  Co  Co17  1  0.998969  0.501523  0.998969  1
  Co  Co18  1  0.902276  0.902276  0.902276  1
