# generated using pymatgen
data_NpPPd
_symmetry_space_group_name_H-M   'P 1'
_cell_length_a   4.07684200
_cell_length_b   6.87300300
_cell_length_c   7.82551900
_cell_angle_alpha   90.00000000
_cell_angle_beta   90.00000000
_cell_angle_gamma   90.00000000
_symmetry_Int_Tables_number   1
_chemical_formula_structural   NpPPd
_chemical_formula_sum   'Np4 P4 Pd4'
_cell_volume   219.27219505
_cell_formula_units_Z   4
loop_
 _symmetry_equiv_pos_site_id
 _symmetry_equiv_pos_as_xyz
  1  'x, y, z'
loop_
 _atom_site_type_symbol
 _atom_site_label
 _atom_site_symmetry_multiplicity
 _atom_site_fract_x
 _atom_site_fract_y
 _atom_site_fract_z
 _atom_site_occupancy
  Np  Np0  1  0.250000  0.526424  0.179708  1
  Np  Np1  1  0.750000  0.473576  0.820292  1
  Np  Np2  1  0.750000  0.973576  0.679708  1
  Np  Np3  1  0.250000  0.026424  0.320292  1
  P  P4  1  0.250000  0.762796  0.874205  1
  P  P5  1  0.750000  0.237204  0.125795  1
  P  P6  1  0.750000  0.737204  0.374205  1
  P  P7  1  0.250000  0.262796  0.625795  1
  Pd  Pd8  1  0.250000  0.645377  0.558461  1
  Pd  Pd9  1  0.750000  0.354623  0.441539  1
  Pd  Pd10  1  0.750000  0.854623  0.058461  1
  Pd  Pd11  1  0.250000  0.145377  0.941539  1
