# generated using pymatgen
data_Nd7Dy12YSn16
_symmetry_space_group_name_H-M   'P 1'
_cell_length_a   8.07168084
_cell_length_b   8.21249407
_cell_length_c   15.48720900
_cell_angle_alpha   89.95996094
_cell_angle_beta   90.13629594
_cell_angle_gamma   90.19406715
_symmetry_Int_Tables_number   1
_chemical_formula_structural   Nd7Dy12YSn16
_chemical_formula_sum   'Nd7 Dy12 Y1 Sn16'
_cell_volume   1026.61684403
_cell_formula_units_Z   1
loop_
 _symmetry_equiv_pos_site_id
 _symmetry_equiv_pos_as_xyz
  1  'x, y, z'
loop_
 _atom_site_type_symbol
 _atom_site_label
 _atom_site_symmetry_multiplicity
 _atom_site_fract_x
 _atom_site_fract_y
 _atom_site_fract_z
 _atom_site_occupancy
  Nd  Nd0  1  0.513766  0.320061  0.903513  1
  Nd  Nd1  1  0.012200  0.178404  0.595888  1
  Nd  Nd2  1  0.486831  0.678586  0.403704  1
  Nd  Nd3  1  0.985382  0.822280  0.096120  1
  Nd  Nd4  1  0.486274  0.679396  0.095886  1
  Nd  Nd5  1  0.987010  0.821367  0.403673  1
  Nd  Nd6  1  0.513649  0.320586  0.597661  1
  Dy  Dy7  1  0.362898  0.836084  0.877959  1
  Dy  Dy8  1  0.861825  0.663892  0.623976  1
  Dy  Dy9  1  0.638611  0.164660  0.377353  1
  Dy  Dy10  1  0.136758  0.335571  0.122684  1
  Dy  Dy11  1  0.636485  0.163866  0.121759  1
  Dy  Dy12  1  0.138465  0.335401  0.376912  1
  Dy  Dy13  1  0.360903  0.835756  0.623195  1
  Dy  Dy14  1  0.862489  0.664779  0.877107  1
  Dy  Dy15  1  0.194487  0.502811  0.750468  1
  Dy  Dy16  1  0.694768  0.998044  0.750714  1
  Dy  Dy17  1  0.805265  0.497461  0.249753  1
  Dy  Dy18  1  0.304818  0.002569  0.249641  1
  Y  Y19  1  0.017391  0.177981  0.902472  1
  Sn  Sn20  1  0.297575  0.042327  0.040097  1
  Sn  Sn21  1  0.803366  0.459965  0.458765  1
  Sn  Sn22  1  0.696620  0.958144  0.541614  1
  Sn  Sn23  1  0.196510  0.537602  0.957897  1
  Sn  Sn24  1  0.703210  0.963121  0.957146  1
  Sn  Sn25  1  0.196925  0.539941  0.541703  1
  Sn  Sn26  1  0.303080  0.040751  0.458567  1
  Sn  Sn27  1  0.802809  0.459536  0.041229  1
  Sn  Sn28  1  0.561057  0.621933  0.750386  1
  Sn  Sn29  1  0.061036  0.879801  0.750419  1
  Sn  Sn30  1  0.438928  0.377504  0.249528  1
  Sn  Sn31  1  0.938169  0.121654  0.249779  1
  Sn  Sn32  1  0.321159  0.142748  0.750781  1
  Sn  Sn33  1  0.826434  0.354981  0.751854  1
  Sn  Sn34  1  0.676382  0.857722  0.249951  1
  Sn  Sn35  1  0.176464  0.642712  0.249848  1
