# generated using pymatgen
data_Pa2V3Co9As7
_symmetry_space_group_name_H-M   'P 1'
_cell_length_a   3.82244200
_cell_length_b   9.37831595
_cell_length_c   9.37831600
_cell_angle_alpha   119.99999217
_cell_angle_beta   90.00000000
_cell_angle_gamma   90.00000000
_symmetry_Int_Tables_number   1
_chemical_formula_structural   Pa2V3Co9As7
_chemical_formula_sum   'Pa2 V3 Co9 As7'
_cell_volume   291.15301535
_cell_formula_units_Z   1
loop_
 _symmetry_equiv_pos_site_id
 _symmetry_equiv_pos_as_xyz
  1  'x, y, z'
loop_
 _atom_site_type_symbol
 _atom_site_label
 _atom_site_symmetry_multiplicity
 _atom_site_fract_x
 _atom_site_fract_y
 _atom_site_fract_z
 _atom_site_occupancy
  Pa  Pa0  1  0.000000  0.666667  0.333333  1
  Pa  Pa1  1  0.500000  0.333333  0.666667  1
  V  V2  1  0.500000  0.785058  0.897922  1
  V  V3  1  0.500000  0.112865  0.214942  1
  V  V4  1  0.500000  0.102078  0.887135  1
  Co  Co5  1  0.000000  0.562067  0.931309  1
  Co  Co6  1  0.000000  0.369241  0.437933  1
  Co  Co7  1  0.000000  0.068691  0.630759  1
  Co  Co8  1  0.000000  0.869584  0.152589  1
  Co  Co9  1  0.000000  0.283005  0.130416  1
  Co  Co10  1  0.000000  0.847411  0.716995  1
  Co  Co11  1  0.500000  0.943665  0.378939  1
  Co  Co12  1  0.500000  0.435273  0.056335  1
  Co  Co13  1  0.500000  0.621061  0.564727  1
  As  As14  1  0.000000  0.000000  0.000000  1
  As  As15  1  0.500000  0.705268  0.108286  1
  As  As16  1  0.500000  0.403018  0.294732  1
  As  As17  1  0.500000  0.891714  0.596982  1
  As  As18  1  0.000000  0.595382  0.702264  1
  As  As19  1  0.000000  0.106883  0.404618  1
  As  As20  1  0.000000  0.297736  0.893117  1
