# generated using pymatgen
data_Sc2Al9TcNi2
_symmetry_space_group_name_H-M   'P 1'
_cell_length_a   7.33856499
_cell_length_b   7.33856530
_cell_length_c   9.17740100
_cell_angle_alpha   90.00000000
_cell_angle_beta   90.00000000
_cell_angle_gamma   117.89174507
_symmetry_Int_Tables_number   1
_chemical_formula_structural   Sc2Al9TcNi2
_chemical_formula_sum   'Sc4 Al18 Tc2 Ni4'
_cell_volume   436.82978969
_cell_formula_units_Z   2
loop_
 _symmetry_equiv_pos_site_id
 _symmetry_equiv_pos_as_xyz
  1  'x, y, z'
loop_
 _atom_site_type_symbol
 _atom_site_label
 _atom_site_symmetry_multiplicity
 _atom_site_fract_x
 _atom_site_fract_y
 _atom_site_fract_z
 _atom_site_occupancy
  Sc  Sc0  1  0.992986  0.689298  0.250000  1
  Sc  Sc1  1  0.007014  0.310702  0.750000  1
  Sc  Sc2  1  0.689298  0.992986  0.250000  1
  Sc  Sc3  1  0.310702  0.007014  0.750000  1
  Al  Al4  1  0.995899  0.341686  0.077491  1
  Al  Al5  1  0.004101  0.658314  0.922509  1
  Al  Al6  1  0.004101  0.658314  0.577491  1
  Al  Al7  1  0.341686  0.995899  0.422509  1
  Al  Al8  1  0.995899  0.341686  0.422509  1
  Al  Al9  1  0.658314  0.004101  0.577491  1
  Al  Al10  1  0.658314  0.004101  0.922509  1
  Al  Al11  1  0.341686  0.995899  0.077491  1
  Al  Al12  1  0.343895  0.569733  0.250000  1
  Al  Al13  1  0.656105  0.430267  0.750000  1
  Al  Al14  1  0.569733  0.343895  0.250000  1
  Al  Al15  1  0.430267  0.656105  0.750000  1
  Al  Al16  1  0.333179  0.333179  0.548556  1
  Al  Al17  1  0.666821  0.666821  0.451444  1
  Al  Al18  1  0.666821  0.666821  0.048556  1
  Al  Al19  1  0.333179  0.333179  0.951444  1
  Al  Al20  1  0.136802  0.136802  0.250000  1
  Al  Al21  1  0.863198  0.863198  0.750000  1
  Tc  Tc22  1  0.000000  0.000000  0.000000  1
  Tc  Tc23  1  0.000000  0.000000  0.500000  1
  Ni  Ni24  1  0.670530  0.329470  0.000000  1
  Ni  Ni25  1  0.329470  0.670530  0.000000  1
  Ni  Ni26  1  0.329470  0.670530  0.500000  1
  Ni  Ni27  1  0.670530  0.329470  0.500000  1
