# generated using pymatgen
data_Nd10C4Cl17
_symmetry_space_group_name_H-M   'P 1'
_cell_length_a   8.86093089
_cell_length_b   9.51382981
_cell_length_c   11.94339445
_cell_angle_alpha   104.62341808
_cell_angle_beta   96.12905119
_cell_angle_gamma   110.91995048
_symmetry_Int_Tables_number   1
_chemical_formula_structural   Nd10C4Cl17
_chemical_formula_sum   'Nd10 C4 Cl17'
_cell_volume   888.14801963
_cell_formula_units_Z   1
loop_
 _symmetry_equiv_pos_site_id
 _symmetry_equiv_pos_as_xyz
  1  'x, y, z'
loop_
 _atom_site_type_symbol
 _atom_site_label
 _atom_site_symmetry_multiplicity
 _atom_site_fract_x
 _atom_site_fract_y
 _atom_site_fract_z
 _atom_site_occupancy
  Nd  Nd0  1  0.653074  0.487333  0.438296  1
  Nd  Nd1  1  0.346931  0.512671  0.561704  1
  Nd  Nd2  1  0.078668  0.424093  0.269014  1
  Nd  Nd3  1  0.921332  0.575907  0.730985  1
  Nd  Nd4  1  0.409422  0.367670  0.135376  1
  Nd  Nd5  1  0.590576  0.632333  0.864627  1
  Nd  Nd6  1  0.492378  0.782599  0.341153  1
  Nd  Nd7  1  0.507622  0.217401  0.658846  1
  Nd  Nd8  1  0.205734  0.096295  0.307804  1
  Nd  Nd9  1  0.794266  0.903707  0.692196  1
  C  C10  1  0.396235  0.526046  0.342469  1
  C  C11  1  0.603765  0.473955  0.657531  1
  C  C12  1  0.326390  0.364615  0.337392  1
  C  C13  1  0.673610  0.635387  0.662608  1
  Cl  Cl14  1  0.103835  0.349073  0.039398  1
  Cl  Cl15  1  0.896165  0.650925  0.960602  1
  Cl  Cl16  1  0.811328  0.820480  0.444879  1
  Cl  Cl17  1  0.188673  0.179518  0.555120  1
  Cl  Cl18  1  0.999999  0.499999  0.500000  1
  Cl  Cl19  1  0.297329  0.042869  0.094754  1
  Cl  Cl20  1  0.702671  0.957130  0.905246  1
  Cl  Cl21  1  0.903211  0.103857  0.248163  1
  Cl  Cl22  1  0.096788  0.896142  0.751836  1
  Cl  Cl23  1  0.543031  0.133255  0.412336  1
  Cl  Cl24  1  0.456970  0.866746  0.587665  1
  Cl  Cl25  1  0.739354  0.414537  0.211594  1
  Cl  Cl26  1  0.260646  0.585462  0.788407  1
  Cl  Cl27  1  0.165578  0.755617  0.286736  1
  Cl  Cl28  1  0.834422  0.244383  0.713263  1
  Cl  Cl29  1  0.535288  0.684231  0.111124  1
  Cl  Cl30  1  0.464713  0.315767  0.888876  1
