# generated using pymatgen
data_La7Dy(CdRu)2
_symmetry_space_group_name_H-M   'P 1'
_cell_length_a   9.99366043
_cell_length_b   10.07908452
_cell_length_c   9.99366211
_cell_angle_alpha   59.71683733
_cell_angle_beta   60.56632395
_cell_angle_gamma   59.71683483
_symmetry_Int_Tables_number   1
_chemical_formula_structural   La7Dy(CdRu)2
_chemical_formula_sum   'La14 Dy2 Cd4 Ru4'
_cell_volume   711.69073317
_cell_formula_units_Z   2
loop_
 _symmetry_equiv_pos_site_id
 _symmetry_equiv_pos_as_xyz
  1  'x, y, z'
loop_
 _atom_site_type_symbol
 _atom_site_label
 _atom_site_symmetry_multiplicity
 _atom_site_fract_x
 _atom_site_fract_y
 _atom_site_fract_z
 _atom_site_occupancy
  La  La0  1  0.440518  0.440518  0.059482  1
  La  La1  1  0.059482  0.059482  0.440518  1
  La  La2  1  0.440518  0.059482  0.059482  1
  La  La3  1  0.844375  0.851206  0.844375  1
  La  La4  1  0.685749  0.314251  0.314251  1
  La  La5  1  0.059482  0.440518  0.440518  1
  La  La6  1  0.314251  0.685749  0.685749  1
  La  La7  1  0.314251  0.314251  0.685749  1
  La  La8  1  0.851206  0.844375  0.460044  1
  La  La9  1  0.685749  0.685749  0.314251  1
  La  La10  1  0.460044  0.844375  0.851206  1
  La  La11  1  0.056697  0.443303  0.056697  1
  La  La12  1  0.844375  0.460044  0.844375  1
  La  La13  1  0.443303  0.056697  0.443303  1
  Dy  Dy14  1  0.309100  0.690900  0.309100  1
  Dy  Dy15  1  0.690900  0.309100  0.690900  1
  Cd  Cd16  1  0.080459  0.763013  0.080459  1
  Cd  Cd17  1  0.076071  0.080459  0.763013  1
  Cd  Cd18  1  0.763013  0.080459  0.076071  1
  Cd  Cd19  1  0.080459  0.076071  0.080459  1
  Ru  Ru20  1  0.635461  0.089086  0.635461  1
  Ru  Ru21  1  0.635461  0.639990  0.635461  1
  Ru  Ru22  1  0.639990  0.635461  0.089086  1
  Ru  Ru23  1  0.089086  0.635461  0.639990  1
