# generated using pymatgen
data_V12ReMo6Ru5
_symmetry_space_group_name_H-M   'P 1'
_cell_length_a   4.30159600
_cell_length_b   6.09206200
_cell_length_c   12.96894000
_cell_angle_alpha   90.00000000
_cell_angle_beta   90.00015984
_cell_angle_gamma   90.00000000
_symmetry_Int_Tables_number   1
_chemical_formula_structural   V12ReMo6Ru5
_chemical_formula_sum   'V12 Re1 Mo6 Ru5'
_cell_volume   339.85871829
_cell_formula_units_Z   1
loop_
 _symmetry_equiv_pos_site_id
 _symmetry_equiv_pos_as_xyz
  1  'x, y, z'
loop_
 _atom_site_type_symbol
 _atom_site_label
 _atom_site_symmetry_multiplicity
 _atom_site_fract_x
 _atom_site_fract_y
 _atom_site_fract_z
 _atom_site_occupancy
  V  V0  1  0.500000  0.251757  0.000000  1
  V  V1  1  0.500000  0.748243  0.000000  1
  V  V2  1  0.000085  0.250659  0.165907  1
  V  V3  1  0.000085  0.749341  0.165907  1
  V  V4  1  0.500092  0.249985  0.333456  1
  V  V5  1  0.500092  0.750014  0.333456  1
  V  V6  1  0.000000  0.249865  0.500000  1
  V  V7  1  0.000000  0.750136  0.500000  1
  V  V8  1  0.499909  0.249985  0.666543  1
  V  V9  1  0.499909  0.750014  0.666543  1
  V  V10  1  0.999914  0.250659  0.834093  1
  V  V11  1  0.999914  0.749341  0.834093  1
  Re  Re12  1  0.000000  0.500000  0.000000  1
  Mo  Mo13  1  0.000000  0.000000  0.000000  1
  Mo  Mo14  1  0.500087  0.500000  0.167612  1
  Mo  Mo15  1  0.000080  0.000000  0.333855  1
  Mo  Mo16  1  0.500001  0.500000  0.500000  1
  Mo  Mo17  1  0.999922  0.000000  0.666145  1
  Mo  Mo18  1  0.499914  0.500000  0.832388  1
  Ru  Ru19  1  0.500097  0.000000  0.167086  1
  Ru  Ru20  1  0.000094  0.500000  0.333659  1
  Ru  Ru21  1  0.500001  0.000000  0.500000  1
  Ru  Ru22  1  0.999907  0.500000  0.666341  1
  Ru  Ru23  1  0.499902  0.000000  0.832914  1
