# generated using pymatgen
data_YThAlGaIr2
_symmetry_space_group_name_H-M   'P 1'
_cell_length_a   4.36214200
_cell_length_b   6.93239700
_cell_length_c   7.96417400
_cell_angle_alpha   90.00000000
_cell_angle_beta   90.00000000
_cell_angle_gamma   90.00000000
_symmetry_Int_Tables_number   1
_chemical_formula_structural   YThAlGaIr2
_chemical_formula_sum   'Y2 Th2 Al2 Ga2 Ir4'
_cell_volume   240.83741909
_cell_formula_units_Z   2
loop_
 _symmetry_equiv_pos_site_id
 _symmetry_equiv_pos_as_xyz
  1  'x, y, z'
loop_
 _atom_site_type_symbol
 _atom_site_label
 _atom_site_symmetry_multiplicity
 _atom_site_fract_x
 _atom_site_fract_y
 _atom_site_fract_z
 _atom_site_occupancy
  Y  Y0  1  0.750000  0.032838  0.686733  1
  Y  Y1  1  0.750000  0.532838  0.813267  1
  Th  Th2  1  0.250000  0.970050  0.320394  1
  Th  Th3  1  0.250000  0.470050  0.179606  1
  Al  Al4  1  0.750000  0.639992  0.445513  1
  Al  Al5  1  0.750000  0.139992  0.054487  1
  Ga  Ga6  1  0.250000  0.356991  0.573136  1
  Ga  Ga7  1  0.250000  0.856991  0.926864  1
  Ir  Ir8  1  0.250000  0.235901  0.889258  1
  Ir  Ir9  1  0.250000  0.735901  0.610742  1
  Ir  Ir10  1  0.750000  0.764228  0.127422  1
  Ir  Ir11  1  0.750000  0.264228  0.372578  1
