# generated using pymatgen
data_Th8Ti12Si15P
_symmetry_space_group_name_H-M   'P 1'
_cell_length_a   7.18920224
_cell_length_b   7.18652130
_cell_length_c   13.25384583
_cell_angle_alpha   90.00533636
_cell_angle_beta   89.80494925
_cell_angle_gamma   90.08264955
_symmetry_Int_Tables_number   1
_chemical_formula_structural   Th8Ti12Si15P
_chemical_formula_sum   'Th8 Ti12 Si15 P1'
_cell_volume   684.75996802
_cell_formula_units_Z   1
loop_
 _symmetry_equiv_pos_site_id
 _symmetry_equiv_pos_as_xyz
  1  'x, y, z'
loop_
 _atom_site_type_symbol
 _atom_site_label
 _atom_site_symmetry_multiplicity
 _atom_site_fract_x
 _atom_site_fract_y
 _atom_site_fract_z
 _atom_site_occupancy
  Th  Th0  1  0.996711  0.662433  0.031716  1
  Th  Th1  1  0.002978  0.342364  0.530499  1
  Th  Th2  1  0.662881  0.996004  0.968221  1
  Th  Th3  1  0.162595  0.503116  0.781237  1
  Th  Th4  1  0.838928  0.498822  0.282035  1
  Th  Th5  1  0.502771  0.162701  0.218642  1
  Th  Th6  1  0.497280  0.839045  0.718499  1
  Th  Th7  1  0.335112  0.999504  0.468546  1
  Ti  Ti8  1  0.336177  0.509314  0.375658  1
  Ti  Ti9  1  0.843242  0.988999  0.376174  1
  Ti  Ti10  1  0.007298  0.160351  0.124656  1
  Ti  Ti11  1  0.994445  0.838955  0.620412  1
  Ti  Ti12  1  0.508581  0.338807  0.625422  1
  Ti  Ti13  1  0.159582  0.007383  0.875626  1
  Ti  Ti14  1  0.673547  0.673079  0.499446  1
  Ti  Ti15  1  0.827790  0.172860  0.749521  1
  Ti  Ti16  1  0.170749  0.826232  0.251821  1
  Ti  Ti17  1  0.327293  0.327571  0.000263  1
  Ti  Ti18  1  0.492801  0.658920  0.125920  1
  Ti  Ti19  1  0.660226  0.493096  0.874415  1
  Si  Si20  1  0.958201  0.286983  0.934870  1
  Si  Si21  1  0.713834  0.042644  0.564720  1
  Si  Si22  1  0.213186  0.458569  0.185047  1
  Si  Si23  1  0.786677  0.542479  0.685176  1
  Si  Si24  1  0.458227  0.214057  0.815774  1
  Si  Si25  1  0.541862  0.786042  0.314921  1
  Si  Si26  1  0.286666  0.958092  0.065679  1
  Si  Si27  1  0.802771  0.877072  0.187074  1
  Si  Si28  1  0.310715  0.620300  0.566322  1
  Si  Si29  1  0.697230  0.375939  0.063486  1
  Si  Si30  1  0.622107  0.303237  0.436657  1
  Si  Si31  1  0.376280  0.696125  0.937255  1
  Si  Si32  1  0.123297  0.197107  0.313290  1
  Si  Si33  1  0.194785  0.123314  0.686177  1
  Si  Si34  1  0.876806  0.803624  0.811727  1
  P  P35  1  0.036364  0.714861  0.433092  1
