# generated using pymatgen
data_Er5Mn2Co17P12
_symmetry_space_group_name_H-M   'P 1'
_cell_length_a   12.00090600
_cell_length_b   11.99208050
_cell_length_c   3.65318200
_cell_angle_alpha   90.00000000
_cell_angle_beta   90.00000000
_cell_angle_gamma   119.97567408
_symmetry_Int_Tables_number   1
_chemical_formula_structural   Er5Mn2Co17P12
_chemical_formula_sum   'Er5 Mn2 Co17 P12'
_cell_volume   455.42504935
_cell_formula_units_Z   1
loop_
 _symmetry_equiv_pos_site_id
 _symmetry_equiv_pos_as_xyz
  1  'x, y, z'
loop_
 _atom_site_type_symbol
 _atom_site_label
 _atom_site_symmetry_multiplicity
 _atom_site_fract_x
 _atom_site_fract_y
 _atom_site_fract_z
 _atom_site_occupancy
  Er  Er0  1  0.666668  0.333182  0.000000  1
  Er  Er1  1  0.333332  0.666516  0.000000  1
  Er  Er2  1  0.813382  0.814030  0.500000  1
  Er  Er3  1  0.186618  0.000648  0.500000  1
  Er  Er4  1  0.000000  0.187990  0.500000  1
  Mn  Mn5  1  0.443446  0.443149  0.000000  1
  Mn  Mn6  1  0.556554  0.999703  0.000000  1
  Co  Co7  1  0.874956  0.358970  0.500000  1
  Co  Co8  1  0.643199  0.517156  0.500000  1
  Co  Co9  1  0.483283  0.126008  0.500000  1
  Co  Co10  1  0.356801  0.873957  0.500000  1
  Co  Co11  1  0.516717  0.642725  0.500000  1
  Co  Co12  1  0.125044  0.484014  0.500000  1
  Co  Co13  1  0.000000  0.552031  0.000000  1
  Co  Co14  1  0.801396  0.179284  0.000000  1
  Co  Co15  1  0.822891  0.622504  0.000000  1
  Co  Co16  1  0.376603  0.198410  0.000000  1
  Co  Co17  1  0.177109  0.799613  0.000000  1
  Co  Co18  1  0.623397  0.821807  0.000000  1
  Co  Co19  1  0.198604  0.377889  0.000000  1
  Co  Co20  1  0.283115  0.283385  0.500000  1
  Co  Co21  1  0.716885  0.000270  0.500000  1
  Co  Co22  1  0.000000  0.715290  0.500000  1
  Co  Co23  1  0.000000  0.999005  0.000000  1
  P  P24  1  0.685824  0.166573  0.500000  1
  P  P25  1  0.834249  0.519600  0.500000  1
  P  P26  1  0.480272  0.314151  0.500000  1
  P  P27  1  0.165751  0.685351  0.500000  1
  P  P28  1  0.519728  0.833880  0.500000  1
  P  P29  1  0.314176  0.480749  0.500000  1
  P  P30  1  0.179590  0.180149  0.000000  1
  P  P31  1  0.820410  0.000559  0.000000  1
  P  P32  1  0.000000  0.819133  0.000000  1
  P  P33  1  0.635792  0.635347  0.000000  1
  P  P34  1  0.364208  0.999555  0.000000  1
  P  P35  1  0.000000  0.367416  0.000000  1
