# generated using pymatgen
data_KCe(PrB12)2
_symmetry_space_group_name_H-M   'P 1'
_cell_length_a   7.18766356
_cell_length_b   7.18766300
_cell_length_c   5.90230200
_cell_angle_alpha   90.00000000
_cell_angle_beta   90.00000000
_cell_angle_gamma   109.27014546
_symmetry_Int_Tables_number   1
_chemical_formula_structural   KCe(PrB12)2
_chemical_formula_sum   'K1 Ce1 Pr2 B24'
_cell_volume   287.84352559
_cell_formula_units_Z   1
loop_
 _symmetry_equiv_pos_site_id
 _symmetry_equiv_pos_as_xyz
  1  'x, y, z'
loop_
 _atom_site_type_symbol
 _atom_site_label
 _atom_site_symmetry_multiplicity
 _atom_site_fract_x
 _atom_site_fract_y
 _atom_site_fract_z
 _atom_site_occupancy
  K  K0  1  0.000000  0.000000  0.000000  1
  Ce  Ce1  1  0.500000  0.500000  0.000000  1
  Pr  Pr2  1  0.751963  0.248037  0.500000  1
  Pr  Pr3  1  0.248037  0.751963  0.500000  1
  B  B4  1  0.176422  0.325822  0.650016  1
  B  B5  1  0.923767  0.574484  0.148452  1
  B  B6  1  0.674178  0.823578  0.650016  1
  B  B7  1  0.425516  0.076233  0.148452  1
  B  B8  1  0.176422  0.325822  0.349984  1
  B  B9  1  0.923767  0.574484  0.851548  1
  B  B10  1  0.674178  0.823578  0.349984  1
  B  B11  1  0.425516  0.076233  0.851548  1
  B  B12  1  0.400411  0.400411  0.500000  1
  B  B13  1  0.148630  0.650658  0.000000  1
  B  B14  1  0.898795  0.898795  0.500000  1
  B  B15  1  0.650658  0.148630  0.000000  1
  B  B16  1  0.325822  0.176422  0.650016  1
  B  B17  1  0.076233  0.425516  0.148452  1
  B  B18  1  0.823578  0.674178  0.650016  1
  B  B19  1  0.574484  0.923767  0.148452  1
  B  B20  1  0.101205  0.101205  0.500000  1
  B  B21  1  0.851370  0.349342  0.000000  1
  B  B22  1  0.599589  0.599589  0.500000  1
  B  B23  1  0.349342  0.851370  0.000000  1
  B  B24  1  0.325822  0.176422  0.349984  1
  B  B25  1  0.076233  0.425516  0.851548  1
  B  B26  1  0.823578  0.674178  0.349984  1
  B  B27  1  0.574484  0.923767  0.851548  1
