# generated using pymatgen
data_PrGdAs2Cl2O5
_symmetry_space_group_name_H-M   'P 1'
_cell_length_a   6.88517629
_cell_length_b   7.20468924
_cell_length_c   9.69028336
_cell_angle_alpha   111.25961071
_cell_angle_beta   98.00501027
_cell_angle_gamma   99.69581696
_symmetry_Int_Tables_number   1
_chemical_formula_structural   PrGdAs2Cl2O5
_chemical_formula_sum   'Pr2 Gd2 As4 Cl4 O10'
_cell_volume   430.95287509
_cell_formula_units_Z   2
loop_
 _symmetry_equiv_pos_site_id
 _symmetry_equiv_pos_as_xyz
  1  'x, y, z'
loop_
 _atom_site_type_symbol
 _atom_site_label
 _atom_site_symmetry_multiplicity
 _atom_site_fract_x
 _atom_site_fract_y
 _atom_site_fract_z
 _atom_site_occupancy
  Pr  Pr0  1  0.383764  0.756474  0.552712  1
  Pr  Pr1  1  0.616236  0.243526  0.447288  1
  Gd  Gd2  1  0.839716  0.742145  0.342198  1
  Gd  Gd3  1  0.160284  0.257855  0.657802  1
  As  As4  1  0.896988  0.807262  0.710903  1
  As  As5  1  0.103012  0.192738  0.289097  1
  As  As6  1  0.700513  0.244934  0.798685  1
  As  As7  1  0.299487  0.755066  0.201315  1
  Cl  Cl8  1  0.318877  0.672082  0.806915  1
  Cl  Cl9  1  0.681123  0.327918  0.193085  1
  Cl  Cl10  1  0.833771  0.755697  0.069035  1
  Cl  Cl11  1  0.166229  0.244303  0.930965  1
  O  O12  1  0.847918  0.319940  0.681018  1
  O  O13  1  0.152082  0.680060  0.318982  1
  O  O14  1  0.536088  0.837446  0.350829  1
  O  O15  1  0.463912  0.162554  0.649171  1
  O  O16  1  0.709281  0.968516  0.723407  1
  O  O17  1  0.290719  0.031484  0.276593  1
  O  O18  1  0.714314  0.616885  0.537163  1
  O  O19  1  0.285686  0.383115  0.462837  1
  O  O20  1  0.052568  0.892586  0.595311  1
  O  O21  1  0.947432  0.107414  0.404689  1
