# generated using pymatgen
data_Eu2Ga7Ni2Sn
_symmetry_space_group_name_H-M   'P 1'
_cell_length_a   4.25257143
_cell_length_b   6.62577883
_cell_length_c   8.23306446
_cell_angle_alpha   90.14879160
_cell_angle_beta   104.96695554
_cell_angle_gamma   90.00000172
_symmetry_Int_Tables_number   1
_chemical_formula_structural   Eu2Ga7Ni2Sn
_chemical_formula_sum   'Eu2 Ga7 Ni2 Sn1'
_cell_volume   224.10900772
_cell_formula_units_Z   1
loop_
 _symmetry_equiv_pos_site_id
 _symmetry_equiv_pos_as_xyz
  1  'x, y, z'
loop_
 _atom_site_type_symbol
 _atom_site_label
 _atom_site_symmetry_multiplicity
 _atom_site_fract_x
 _atom_site_fract_y
 _atom_site_fract_z
 _atom_site_occupancy
  Eu  Eu0  1  0.881288  0.754680  0.762575  1
  Eu  Eu1  1  0.118712  0.245320  0.237425  1
  Ga  Ga2  1  0.500000  0.000000  0.000000  1
  Ga  Ga3  1  0.075266  0.762593  0.150532  1
  Ga  Ga4  1  0.924734  0.237407  0.849468  1
  Ga  Ga5  1  0.691729  0.552699  0.383459  1
  Ga  Ga6  1  0.308271  0.447301  0.616541  1
  Ga  Ga7  1  0.688702  0.947484  0.377404  1
  Ga  Ga8  1  0.311298  0.052516  0.622596  1
  Ni  Ni9  1  0.222787  0.750322  0.445576  1
  Ni  Ni10  1  0.777213  0.249678  0.554424  1
  Sn  Sn11  1  0.500000  0.500000  0.000000  1
