# generated using pymatgen
data_Na3NbSe3O
_symmetry_space_group_name_H-M   'P 1'
_cell_length_a   8.20621610
_cell_length_b   8.20621580
_cell_length_c   6.25835400
_cell_angle_alpha   90.00000000
_cell_angle_beta   90.00000000
_cell_angle_gamma   102.28388602
_symmetry_Int_Tables_number   1
_chemical_formula_structural   Na3NbSe3O
_chemical_formula_sum   'Na6 Nb2 Se6 O2'
_cell_volume   411.80104376
_cell_formula_units_Z   2
loop_
 _symmetry_equiv_pos_site_id
 _symmetry_equiv_pos_as_xyz
  1  'x, y, z'
loop_
 _atom_site_type_symbol
 _atom_site_label
 _atom_site_symmetry_multiplicity
 _atom_site_fract_x
 _atom_site_fract_y
 _atom_site_fract_z
 _atom_site_occupancy
  Na  Na0  1  0.876123  0.123877  0.464070  1
  Na  Na1  1  0.824358  0.580386  0.484933  1
  Na  Na2  1  0.419614  0.175642  0.484933  1
  Na  Na3  1  0.580386  0.824358  0.984933  1
  Na  Na4  1  0.123877  0.876123  0.964070  1
  Na  Na5  1  0.175642  0.419614  0.984933  1
  Nb  Nb6  1  0.296038  0.703962  0.383084  1
  Nb  Nb7  1  0.703962  0.296038  0.883084  1
  Se  Se8  1  0.580247  0.819190  0.502307  1
  Se  Se9  1  0.889089  0.110911  0.984902  1
  Se  Se10  1  0.180810  0.419753  0.502307  1
  Se  Se11  1  0.819190  0.580247  0.002307  1
  Se  Se12  1  0.419753  0.180810  0.002307  1
  Se  Se13  1  0.110911  0.889089  0.484902  1
  O  O14  1  0.699079  0.300921  0.592025  1
  O  O15  1  0.300921  0.699079  0.092025  1
