# generated using pymatgen
data_Tb5Er11(CdPd)4
_symmetry_space_group_name_H-M   'P 1'
_cell_length_a   9.65443168
_cell_length_b   9.64880041
_cell_length_c   9.64879959
_cell_angle_alpha   59.99766094
_cell_angle_beta   59.98068827
_cell_angle_gamma   59.98069128
_symmetry_Int_Tables_number   1
_chemical_formula_structural   Tb5Er11(CdPd)4
_chemical_formula_sum   'Tb5 Er11 Cd4 Pd4'
_cell_volume   635.36579461
_cell_formula_units_Z   1
loop_
 _symmetry_equiv_pos_site_id
 _symmetry_equiv_pos_as_xyz
  1  'x, y, z'
loop_
 _atom_site_type_symbol
 _atom_site_label
 _atom_site_symmetry_multiplicity
 _atom_site_fract_x
 _atom_site_fract_y
 _atom_site_fract_z
 _atom_site_occupancy
  Tb  Tb0  1  0.565161  0.934839  0.934839  1
  Tb  Tb1  1  0.566046  0.934094  0.565336  1
  Tb  Tb2  1  0.934524  0.565336  0.934094  1
  Tb  Tb3  1  0.566046  0.565336  0.934094  1
  Tb  Tb4  1  0.934524  0.934094  0.565336  1
  Er  Er5  1  0.352506  0.353727  0.353727  1
  Er  Er6  1  0.353503  0.354378  0.938616  1
  Er  Er7  1  0.353503  0.938616  0.354378  1
  Er  Er8  1  0.940041  0.353727  0.353727  1
  Er  Er9  1  0.810694  0.189306  0.189306  1
  Er  Er10  1  0.188721  0.811279  0.811279  1
  Er  Er11  1  0.188843  0.810985  0.189180  1
  Er  Er12  1  0.810992  0.189180  0.810985  1
  Er  Er13  1  0.188843  0.189180  0.810985  1
  Er  Er14  1  0.810992  0.810985  0.189180  1
  Er  Er15  1  0.934376  0.565624  0.565624  1
  Cd  Cd16  1  0.582254  0.581645  0.581645  1
  Cd  Cd17  1  0.581861  0.581650  0.254627  1
  Cd  Cd18  1  0.581861  0.254627  0.581650  1
  Cd  Cd19  1  0.254455  0.581645  0.581645  1
  Pd  Pd20  1  0.144717  0.144192  0.144192  1
  Pd  Pd21  1  0.144318  0.144226  0.567138  1
  Pd  Pd22  1  0.144318  0.567138  0.144226  1
  Pd  Pd23  1  0.566899  0.144192  0.144192  1
