# generated using pymatgen
data_Ta4Si3PRu4
_symmetry_space_group_name_H-M   'P 1'
_cell_length_a   3.83541800
_cell_length_b   6.33407114
_cell_length_c   7.28060345
_cell_angle_alpha   90.09403175
_cell_angle_beta   90.00000000
_cell_angle_gamma   90.00000000
_symmetry_Int_Tables_number   1
_chemical_formula_structural   Ta4Si3PRu4
_chemical_formula_sum   'Ta4 Si3 P1 Ru4'
_cell_volume   176.87336190
_cell_formula_units_Z   1
loop_
 _symmetry_equiv_pos_site_id
 _symmetry_equiv_pos_as_xyz
  1  'x, y, z'
loop_
 _atom_site_type_symbol
 _atom_site_label
 _atom_site_symmetry_multiplicity
 _atom_site_fract_x
 _atom_site_fract_y
 _atom_site_fract_z
 _atom_site_occupancy
  Ta  Ta0  1  0.250000  0.021562  0.821868  1
  Ta  Ta1  1  0.250000  0.521655  0.679712  1
  Ta  Ta2  1  0.750000  0.977063  0.177220  1
  Ta  Ta3  1  0.750000  0.477056  0.322006  1
  Si  Si4  1  0.250000  0.772641  0.375532  1
  Si  Si5  1  0.250000  0.273200  0.122872  1
  Si  Si6  1  0.750000  0.225533  0.624061  1
  P  P7  1  0.750000  0.728358  0.877823  1
  Ru  Ru8  1  0.250000  0.151265  0.437408  1
  Ru  Ru9  1  0.250000  0.654520  0.056350  1
  Ru  Ru10  1  0.750000  0.845480  0.566926  1
  Ru  Ru11  1  0.750000  0.351665  0.938222  1
