# generated using pymatgen
data_Sc21Pa3Fe7Co
_symmetry_space_group_name_H-M   'P 1'
_cell_length_a   5.87728591
_cell_length_b   8.63534200
_cell_length_c   13.12238937
_cell_angle_alpha   90.00000000
_cell_angle_beta   90.77394859
_cell_angle_gamma   90.00000000
_symmetry_Int_Tables_number   1
_chemical_formula_structural   Sc21Pa3Fe7Co
_chemical_formula_sum   'Sc21 Pa3 Fe7 Co1'
_cell_volume   665.93165174
_cell_formula_units_Z   1
loop_
 _symmetry_equiv_pos_site_id
 _symmetry_equiv_pos_as_xyz
  1  'x, y, z'
loop_
 _atom_site_type_symbol
 _atom_site_label
 _atom_site_symmetry_multiplicity
 _atom_site_fract_x
 _atom_site_fract_y
 _atom_site_fract_z
 _atom_site_occupancy
  Sc  Sc0  1  0.949484  0.750000  0.854154  1
  Sc  Sc1  1  0.790149  0.750000  0.103988  1
  Sc  Sc2  1  0.303102  0.250000  0.396636  1
  Sc  Sc3  1  0.193046  0.250000  0.894675  1
  Sc  Sc4  1  0.701735  0.750000  0.610116  1
  Sc  Sc5  1  0.401879  0.930747  0.791515  1
  Sc  Sc6  1  0.901772  0.064362  0.712004  1
  Sc  Sc7  1  0.596810  0.432547  0.208178  1
  Sc  Sc8  1  0.096427  0.566984  0.291493  1
  Sc  Sc9  1  0.596810  0.067453  0.208178  1
  Sc  Sc10  1  0.096427  0.933016  0.291493  1
  Sc  Sc11  1  0.401879  0.569253  0.791515  1
  Sc  Sc12  1  0.901772  0.435638  0.712004  1
  Sc  Sc13  1  0.235905  0.933580  0.535680  1
  Sc  Sc14  1  0.734294  0.061874  0.961844  1
  Sc  Sc15  1  0.766150  0.432654  0.464841  1
  Sc  Sc16  1  0.258253  0.569417  0.034605  1
  Sc  Sc17  1  0.766150  0.067346  0.464841  1
  Sc  Sc18  1  0.258253  0.930583  0.034605  1
  Sc  Sc19  1  0.235905  0.566420  0.535680  1
  Sc  Sc20  1  0.734294  0.438126  0.961844  1
  Pa  Pa21  1  0.581323  0.750000  0.350590  1
  Pa  Pa22  1  0.079496  0.250000  0.149336  1
  Pa  Pa23  1  0.423263  0.250000  0.649958  1
  Fe  Fe24  1  0.918550  0.750000  0.439648  1
  Fe  Fe25  1  0.416862  0.250000  0.061206  1
  Fe  Fe26  1  0.079590  0.250000  0.564630  1
  Fe  Fe27  1  0.557896  0.750000  0.940738  1
  Fe  Fe28  1  0.406889  0.750000  0.196800  1
  Fe  Fe29  1  0.912396  0.250000  0.302007  1
  Fe  Fe30  1  0.587713  0.250000  0.804292  1
  Co  Co31  1  0.115529  0.750000  0.680904  1
