# generated using pymatgen
data_NdDy5(Er2Sb3)2
_symmetry_space_group_name_H-M   'P 1'
_cell_length_a   6.30915500
_cell_length_b   8.94082705
_cell_length_c   9.00672475
_cell_angle_alpha   119.75827717
_cell_angle_beta   90.00020099
_cell_angle_gamma   89.99960342
_symmetry_Int_Tables_number   1
_chemical_formula_structural   NdDy5(Er2Sb3)2
_chemical_formula_sum   'Nd1 Dy5 Er4 Sb6'
_cell_volume   441.06145459
_cell_formula_units_Z   1
loop_
 _symmetry_equiv_pos_site_id
 _symmetry_equiv_pos_as_xyz
  1  'x, y, z'
loop_
 _atom_site_type_symbol
 _atom_site_label
 _atom_site_symmetry_multiplicity
 _atom_site_fract_x
 _atom_site_fract_y
 _atom_site_fract_z
 _atom_site_occupancy
  Nd  Nd0  1  0.750009  0.245005  0.000000  1
  Dy  Dy1  1  0.749998  0.752161  0.752288  1
  Dy  Dy2  1  0.749998  0.999873  0.247712  1
  Dy  Dy3  1  0.249992  0.754717  0.000000  1
  Dy  Dy4  1  0.250001  0.247750  0.247980  1
  Dy  Dy5  1  0.250001  0.999770  0.752020  1
  Er  Er6  1  0.499866  0.333678  0.667647  1
  Er  Er7  1  0.499866  0.666031  0.332353  1
  Er  Er8  1  0.000134  0.666012  0.332358  1
  Er  Er9  1  0.000134  0.333654  0.667642  1
  Sb  Sb10  1  0.750001  0.613300  0.000000  1
  Sb  Sb11  1  0.750001  0.390885  0.394853  1
  Sb  Sb12  1  0.750001  0.996033  0.605147  1
  Sb  Sb13  1  0.250003  0.390616  0.000000  1
  Sb  Sb14  1  0.250000  0.610367  0.610217  1
  Sb  Sb15  1  0.250000  0.000149  0.389783  1
