# generated using pymatgen
data_MoIr4OsW2
_symmetry_space_group_name_H-M   'P 1'
_cell_length_a   5.59540461
_cell_length_b   5.54154645
_cell_length_c   4.44294900
_cell_angle_alpha   90.00000000
_cell_angle_beta   90.00000000
_cell_angle_gamma   119.68211221
_symmetry_Int_Tables_number   1
_chemical_formula_structural   MoIr4OsW2
_chemical_formula_sum   'Mo1 Ir4 Os1 W2'
_cell_volume   119.68692069
_cell_formula_units_Z   1
loop_
 _symmetry_equiv_pos_site_id
 _symmetry_equiv_pos_as_xyz
  1  'x, y, z'
loop_
 _atom_site_type_symbol
 _atom_site_label
 _atom_site_symmetry_multiplicity
 _atom_site_fract_x
 _atom_site_fract_y
 _atom_site_fract_z
 _atom_site_occupancy
  Mo  Mo0  1  0.669101  0.834551  0.750000  1
  Ir  Ir1  1  0.832286  0.167139  0.250000  1
  Ir  Ir2  1  0.172507  0.333038  0.750000  1
  Ir  Ir3  1  0.172507  0.839469  0.750000  1
  Ir  Ir4  1  0.832286  0.665146  0.250000  1
  Os  Os5  1  0.331298  0.165649  0.250000  1
  W  W6  1  0.661729  0.330864  0.750000  1
  W  W7  1  0.328284  0.664143  0.250000  1
