# generated using pymatgen
data_Pr16Hg4Ru3Pt
_symmetry_space_group_name_H-M   'P 1'
_cell_length_a   9.98697436
_cell_length_b   9.98697448
_cell_length_c   9.98697540
_cell_angle_alpha   60.11391584
_cell_angle_beta   60.11391472
_cell_angle_gamma   60.11391810
_symmetry_Int_Tables_number   1
_chemical_formula_structural   Pr16Hg4Ru3Pt
_chemical_formula_sum   'Pr16 Hg4 Ru3 Pt1'
_cell_volume   706.16515811
_cell_formula_units_Z   1
loop_
 _symmetry_equiv_pos_site_id
 _symmetry_equiv_pos_as_xyz
  1  'x, y, z'
loop_
 _atom_site_type_symbol
 _atom_site_label
 _atom_site_symmetry_multiplicity
 _atom_site_fract_x
 _atom_site_fract_y
 _atom_site_fract_z
 _atom_site_occupancy
  Pr  Pr0  1  0.346735  0.346735  0.346735  1
  Pr  Pr1  1  0.350841  0.350841  0.951178  1
  Pr  Pr2  1  0.350841  0.951178  0.350841  1
  Pr  Pr3  1  0.951178  0.350841  0.350841  1
  Pr  Pr4  1  0.801730  0.192647  0.192647  1
  Pr  Pr5  1  0.190179  0.809149  0.809149  1
  Pr  Pr6  1  0.192647  0.801730  0.192647  1
  Pr  Pr7  1  0.809149  0.190179  0.809149  1
  Pr  Pr8  1  0.192647  0.192647  0.801730  1
  Pr  Pr9  1  0.809149  0.809149  0.190179  1
  Pr  Pr10  1  0.940966  0.561450  0.561450  1
  Pr  Pr11  1  0.563104  0.939806  0.939806  1
  Pr  Pr12  1  0.561450  0.940966  0.561450  1
  Pr  Pr13  1  0.939806  0.563104  0.939806  1
  Pr  Pr14  1  0.561450  0.561450  0.940966  1
  Pr  Pr15  1  0.939806  0.939806  0.563104  1
  Hg  Hg16  1  0.582644  0.582644  0.582644  1
  Hg  Hg17  1  0.583514  0.583514  0.249955  1
  Hg  Hg18  1  0.583514  0.249955  0.583514  1
  Hg  Hg19  1  0.249955  0.583514  0.583514  1
  Ru  Ru20  1  0.137928  0.137928  0.581576  1
  Ru  Ru21  1  0.137928  0.581576  0.137928  1
  Ru  Ru22  1  0.581576  0.137928  0.137928  1
  Pt  Pt23  1  0.141259  0.141259  0.141259  1
