# generated using pymatgen
data_Tm3Sc2Sn3
_symmetry_space_group_name_H-M   'P 1'
_cell_length_a   6.22795300
_cell_length_b   8.71144457
_cell_length_c   8.71176811
_cell_angle_alpha   119.99876559
_cell_angle_beta   90.00000000
_cell_angle_gamma   90.00000000
_symmetry_Int_Tables_number   1
_chemical_formula_structural   Tm3Sc2Sn3
_chemical_formula_sum   'Tm6 Sc4 Sn6'
_cell_volume   409.33402369
_cell_formula_units_Z   2
loop_
 _symmetry_equiv_pos_site_id
 _symmetry_equiv_pos_as_xyz
  1  'x, y, z'
loop_
 _atom_site_type_symbol
 _atom_site_label
 _atom_site_symmetry_multiplicity
 _atom_site_fract_x
 _atom_site_fract_y
 _atom_site_fract_z
 _atom_site_occupancy
  Tm  Tm0  1  0.750003  0.238923  0.000000  1
  Tm  Tm1  1  0.750000  0.760994  0.761033  1
  Tm  Tm2  1  0.750000  0.999961  0.238967  1
  Tm  Tm3  1  0.250003  0.761077  0.000000  1
  Tm  Tm4  1  0.250000  0.239006  0.238967  1
  Tm  Tm5  1  0.250000  0.000039  0.761033  1
  Sc  Sc6  1  0.499995  0.333361  0.666726  1
  Sc  Sc7  1  0.499995  0.666635  0.333274  1
  Sc  Sc8  1  0.999995  0.666639  0.333274  1
  Sc  Sc9  1  0.999995  0.333365  0.666726  1
  Sn  Sn10  1  0.749994  0.601505  0.000000  1
  Sn  Sn11  1  0.750005  0.398449  0.398458  1
  Sn  Sn12  1  0.750005  0.999991  0.601542  1
  Sn  Sn13  1  0.249994  0.398495  0.000000  1
  Sn  Sn14  1  0.250005  0.601551  0.601542  1
  Sn  Sn15  1  0.250005  0.000009  0.398458  1
