# generated using pymatgen
data_Ta9MnBS6
_symmetry_space_group_name_H-M   'P 1'
_cell_length_a   10.21261900
_cell_length_b   10.21262019
_cell_length_c   6.67046500
_cell_angle_alpha   90.00000000
_cell_angle_beta   90.00000000
_cell_angle_gamma   120.00000026
_symmetry_Int_Tables_number   1
_chemical_formula_structural   Ta9MnBS6
_chemical_formula_sum   'Ta18 Mn2 B2 S12'
_cell_volume   602.50554899
_cell_formula_units_Z   2
loop_
 _symmetry_equiv_pos_site_id
 _symmetry_equiv_pos_as_xyz
  1  'x, y, z'
loop_
 _atom_site_type_symbol
 _atom_site_label
 _atom_site_symmetry_multiplicity
 _atom_site_fract_x
 _atom_site_fract_y
 _atom_site_fract_z
 _atom_site_occupancy
  Ta  Ta0  1  0.732724  0.205579  0.500000  1
  Ta  Ta1  1  0.473962  0.262991  0.000000  1
  Ta  Ta2  1  0.552601  0.535523  0.250777  1
  Ta  Ta3  1  0.982921  0.447399  0.749223  1
  Ta  Ta4  1  0.546543  0.809690  0.500000  1
  Ta  Ta5  1  0.190310  0.736852  0.500000  1
  Ta  Ta6  1  0.263148  0.453457  0.500000  1
  Ta  Ta7  1  0.464477  0.017079  0.749223  1
  Ta  Ta8  1  0.794421  0.527147  0.500000  1
  Ta  Ta9  1  0.737009  0.210972  0.000000  1
  Ta  Ta10  1  0.266116  0.473722  0.000000  1
  Ta  Ta11  1  0.789028  0.526038  0.000000  1
  Ta  Ta12  1  0.982921  0.447399  0.250777  1
  Ta  Ta13  1  0.526278  0.792394  0.000000  1
  Ta  Ta14  1  0.472853  0.267276  0.500000  1
  Ta  Ta15  1  0.552601  0.535523  0.749223  1
  Ta  Ta16  1  0.464477  0.017079  0.250777  1
  Ta  Ta17  1  0.207606  0.733884  0.000000  1
  Mn  Mn18  1  0.333333  0.666667  0.725446  1
  Mn  Mn19  1  0.333333  0.666667  0.274554  1
  B  B20  1  0.666667  0.333333  0.250747  1
  B  B21  1  0.666667  0.333333  0.749253  1
  S  S22  1  0.299412  0.292015  0.756896  1
  S  S23  1  0.707985  0.007398  0.756896  1
  S  S24  1  0.730385  0.726370  0.500000  1
  S  S25  1  0.272454  0.998900  0.000000  1
  S  S26  1  0.992602  0.700588  0.756896  1
  S  S27  1  0.299412  0.292015  0.243104  1
  S  S28  1  0.992602  0.700588  0.243104  1
  S  S29  1  0.995986  0.269615  0.500000  1
  S  S30  1  0.001100  0.273555  0.000000  1
  S  S31  1  0.726445  0.727546  0.000000  1
  S  S32  1  0.707985  0.007398  0.243104  1
  S  S33  1  0.273630  0.004014  0.500000  1
