# generated using pymatgen
data_Y4TmB4Pt15
_symmetry_space_group_name_H-M   'P 1'
_cell_length_a   4.02989700
_cell_length_b   4.02989700
_cell_length_c   24.13762400
_cell_angle_alpha   90.00000000
_cell_angle_beta   90.00000000
_cell_angle_gamma   90.00000000
_symmetry_Int_Tables_number   1
_chemical_formula_structural   Y4TmB4Pt15
_chemical_formula_sum   'Y4 Tm1 B4 Pt15'
_cell_volume   391.99669930
_cell_formula_units_Z   1
loop_
 _symmetry_equiv_pos_site_id
 _symmetry_equiv_pos_as_xyz
  1  'x, y, z'
loop_
 _atom_site_type_symbol
 _atom_site_label
 _atom_site_symmetry_multiplicity
 _atom_site_fract_x
 _atom_site_fract_y
 _atom_site_fract_z
 _atom_site_occupancy
  Y  Y0  1  0.000000  0.000000  0.901019  1
  Y  Y1  1  0.000000  0.000000  0.098981  1
  Y  Y2  1  0.000000  0.000000  0.305385  1
  Y  Y3  1  0.000000  0.000000  0.694615  1
  Tm  Tm4  1  0.000000  0.000000  0.500000  1
  B  B5  1  0.500000  0.500000  0.163344  1
  B  B6  1  0.500000  0.500000  0.370838  1
  B  B7  1  0.500000  0.500000  0.629162  1
  B  B8  1  0.500000  0.500000  0.836656  1
  Pt  Pt9  1  0.500000  0.500000  0.920881  1
  Pt  Pt10  1  0.500000  0.500000  0.079119  1
  Pt  Pt11  1  0.500000  0.500000  0.285457  1
  Pt  Pt12  1  0.500000  0.500000  0.500000  1
  Pt  Pt13  1  0.500000  0.500000  0.714543  1
  Pt  Pt14  1  0.500000  0.000000  0.000000  1
  Pt  Pt15  1  0.500000  0.000000  0.202049  1
  Pt  Pt16  1  0.500000  0.000000  0.409772  1
  Pt  Pt17  1  0.500000  0.000000  0.590228  1
  Pt  Pt18  1  0.500000  0.000000  0.797951  1
  Pt  Pt19  1  0.000000  0.500000  0.000000  1
  Pt  Pt20  1  0.000000  0.500000  0.202049  1
  Pt  Pt21  1  0.000000  0.500000  0.409772  1
  Pt  Pt22  1  0.000000  0.500000  0.590228  1
  Pt  Pt23  1  0.000000  0.500000  0.797951  1
