# generated using pymatgen
data_V9B4MoAs2
_symmetry_space_group_name_H-M   'P 1'
_cell_length_a   5.83612130
_cell_length_b   5.83612054
_cell_length_c   6.83120225
_cell_angle_alpha   115.20781348
_cell_angle_beta   115.20780339
_cell_angle_gamma   90.24771717
_symmetry_Int_Tables_number   1
_chemical_formula_structural   V9B4MoAs2
_chemical_formula_sum   'V9 B4 Mo1 As2'
_cell_volume   185.50123045
_cell_formula_units_Z   1
loop_
 _symmetry_equiv_pos_site_id
 _symmetry_equiv_pos_as_xyz
  1  'x, y, z'
loop_
 _atom_site_type_symbol
 _atom_site_label
 _atom_site_symmetry_multiplicity
 _atom_site_fract_x
 _atom_site_fract_y
 _atom_site_fract_z
 _atom_site_occupancy
  V  V0  1  0.501041  0.499196  0.000794  1
  V  V1  1  0.999196  0.001041  0.000794  1
  V  V2  1  0.696436  0.196436  0.731515  1
  V  V3  1  0.196737  0.032449  0.728949  1
  V  V4  1  0.532449  0.696737  0.728949  1
  V  V5  1  0.968507  0.468507  0.272572  1
  V  V6  1  0.301867  0.801867  0.270904  1
  V  V7  1  0.804160  0.969487  0.270471  1
  V  V8  1  0.469487  0.304160  0.270471  1
  B  B9  1  0.615344  0.115344  0.999513  1
  B  B10  1  0.386947  0.886947  0.001922  1
  B  B11  1  0.881587  0.617766  0.003768  1
  B  B12  1  0.117766  0.381587  0.003768  1
  Mo  Mo13  1  0.029118  0.529118  0.724545  1
  As  As14  1  0.254510  0.244847  0.495533  1
  As  As15  1  0.744847  0.754510  0.495533  1
