# generated using pymatgen
data_Rb(Nb3Se4)4
_symmetry_space_group_name_H-M   'P 1'
_cell_length_a   6.95143359
_cell_length_b   10.26393296
_cell_length_c   10.83522109
_cell_angle_alpha   118.19526210
_cell_angle_beta   108.71729757
_cell_angle_gamma   89.97147147
_symmetry_Int_Tables_number   1
_chemical_formula_structural   Rb(Nb3Se4)4
_chemical_formula_sum   'Rb1 Nb12 Se16'
_cell_volume   634.65300263
_cell_formula_units_Z   1
loop_
 _symmetry_equiv_pos_site_id
 _symmetry_equiv_pos_as_xyz
  1  'x, y, z'
loop_
 _atom_site_type_symbol
 _atom_site_label
 _atom_site_symmetry_multiplicity
 _atom_site_fract_x
 _atom_site_fract_y
 _atom_site_fract_z
 _atom_site_occupancy
  Rb  Rb0  1  0.000000  0.000000  0.000000  1
  Nb  Nb1  1  0.677170  0.617722  0.106414  1
  Nb  Nb2  1  0.178408  0.618254  0.106021  1
  Nb  Nb3  1  0.881787  0.894056  0.511521  1
  Nb  Nb4  1  0.379870  0.893196  0.512532  1
  Nb  Nb5  1  0.814304  0.487518  0.380932  1
  Nb  Nb6  1  0.317318  0.488647  0.382807  1
  Nb  Nb7  1  0.821592  0.381746  0.893979  1
  Nb  Nb8  1  0.322830  0.382278  0.893586  1
  Nb  Nb9  1  0.620130  0.106804  0.487468  1
  Nb  Nb10  1  0.118213  0.105944  0.488479  1
  Nb  Nb11  1  0.682682  0.511353  0.617193  1
  Nb  Nb12  1  0.185696  0.512482  0.619068  1
  Se  Se13  1  0.268183  0.936859  0.283688  1
  Se  Se14  1  0.765799  0.938248  0.281461  1
  Se  Se15  1  0.453407  0.718695  0.656807  1
  Se  Se16  1  0.952770  0.716449  0.653163  1
  Se  Se17  1  0.157972  0.346034  0.062720  1
  Se  Se18  1  0.655631  0.343142  0.061783  1
  Se  Se19  1  0.234201  0.061752  0.718539  1
  Se  Se20  1  0.731817  0.063141  0.716312  1
  Se  Se21  1  0.047230  0.283551  0.346837  1
  Se  Se22  1  0.546593  0.281305  0.343193  1
  Se  Se23  1  0.344369  0.656858  0.938217  1
  Se  Se24  1  0.842028  0.653966  0.937280  1
  Se  Se25  1  0.458241  0.333109  0.666447  1
  Se  Se26  1  0.958478  0.333545  0.666888  1
  Se  Se27  1  0.041522  0.666455  0.333112  1
  Se  Se28  1  0.541759  0.666891  0.333553  1
