# generated using pymatgen
data_LaHo2Al7Pd2
_symmetry_space_group_name_H-M   'P 1'
_cell_length_a   9.22887385
_cell_length_b   9.22887418
_cell_length_c   9.22887400
_cell_angle_alpha   35.14509316
_cell_angle_beta   35.14507952
_cell_angle_gamma   35.14508657
_symmetry_Int_Tables_number   1
_chemical_formula_structural   LaHo2Al7Pd2
_chemical_formula_sum   'La1 Ho2 Al7 Pd2'
_cell_volume   232.62841848
_cell_formula_units_Z   1
loop_
 _symmetry_equiv_pos_site_id
 _symmetry_equiv_pos_as_xyz
  1  'x, y, z'
loop_
 _atom_site_type_symbol
 _atom_site_label
 _atom_site_symmetry_multiplicity
 _atom_site_fract_x
 _atom_site_fract_y
 _atom_site_fract_z
 _atom_site_occupancy
  La  La0  1  0.000000  0.000000  0.000000  1
  Ho  Ho1  1  0.856679  0.856679  0.856679  1
  Ho  Ho2  1  0.143321  0.143321  0.143321  1
  Al  Al3  1  0.416033  0.416033  0.926219  1
  Al  Al4  1  0.926219  0.416033  0.416033  1
  Al  Al5  1  0.416033  0.926219  0.416033  1
  Al  Al6  1  0.500000  0.500000  0.500000  1
  Al  Al7  1  0.583967  0.073781  0.583967  1
  Al  Al8  1  0.073781  0.583967  0.583967  1
  Al  Al9  1  0.583967  0.583967  0.073781  1
  Pd  Pd10  1  0.664229  0.664229  0.664229  1
  Pd  Pd11  1  0.335771  0.335771  0.335771  1
