# generated using pymatgen
data_Er16Cd4Co3Ni
_symmetry_space_group_name_H-M   'P 1'
_cell_length_a   9.42459258
_cell_length_b   9.40393669
_cell_length_c   9.40393700
_cell_angle_alpha   59.99999540
_cell_angle_beta   60.07246983
_cell_angle_gamma   60.07247415
_symmetry_Int_Tables_number   1
_chemical_formula_structural   Er16Cd4Co3Ni
_chemical_formula_sum   'Er16 Cd4 Co3 Ni1'
_cell_volume   589.98618742
_cell_formula_units_Z   1
loop_
 _symmetry_equiv_pos_site_id
 _symmetry_equiv_pos_as_xyz
  1  'x, y, z'
loop_
 _atom_site_type_symbol
 _atom_site_label
 _atom_site_symmetry_multiplicity
 _atom_site_fract_x
 _atom_site_fract_y
 _atom_site_fract_z
 _atom_site_occupancy
  Er  Er0  1  0.344240  0.348369  0.348369  1
  Er  Er1  1  0.344240  0.348369  0.959022  1
  Er  Er2  1  0.344240  0.959022  0.348369  1
  Er  Er3  1  0.961638  0.346121  0.346121  1
  Er  Er4  1  0.816367  0.187577  0.187577  1
  Er  Er5  1  0.187579  0.812586  0.812586  1
  Er  Er6  1  0.187579  0.812586  0.187249  1
  Er  Er7  1  0.816367  0.187577  0.808479  1
  Er  Er8  1  0.187579  0.187249  0.812586  1
  Er  Er9  1  0.816367  0.808479  0.187577  1
  Er  Er10  1  0.936072  0.563095  0.563095  1
  Er  Er11  1  0.561317  0.937209  0.937209  1
  Er  Er12  1  0.561317  0.937209  0.564266  1
  Er  Er13  1  0.936072  0.563095  0.937738  1
  Er  Er14  1  0.561317  0.564266  0.937209  1
  Er  Er15  1  0.936072  0.937738  0.563095  1
  Cd  Cd16  1  0.581342  0.580213  0.580213  1
  Cd  Cd17  1  0.581342  0.580213  0.258232  1
  Cd  Cd18  1  0.581342  0.258232  0.580213  1
  Cd  Cd19  1  0.256805  0.581065  0.581065  1
  Co  Co20  1  0.141865  0.141008  0.141008  1
  Co  Co21  1  0.141865  0.141008  0.576119  1
  Co  Co22  1  0.141865  0.576119  0.141008  1
  Ni  Ni23  1  0.575213  0.141596  0.141596  1
