# generated using pymatgen
data_Ba3Sc2Cu2Se2O5
_symmetry_space_group_name_H-M   'P 1'
_cell_length_a   4.20872157
_cell_length_b   4.20872216
_cell_length_c   14.34832310
_cell_angle_alpha   98.43357292
_cell_angle_beta   98.43357213
_cell_angle_gamma   89.99999508
_symmetry_Int_Tables_number   1
_chemical_formula_structural   Ba3Sc2Cu2Se2O5
_chemical_formula_sum   'Ba3 Sc2 Cu2 Se2 O5'
_cell_volume   248.62973062
_cell_formula_units_Z   1
loop_
 _symmetry_equiv_pos_site_id
 _symmetry_equiv_pos_as_xyz
  1  'x, y, z'
loop_
 _atom_site_type_symbol
 _atom_site_label
 _atom_site_symmetry_multiplicity
 _atom_site_fract_x
 _atom_site_fract_y
 _atom_site_fract_z
 _atom_site_occupancy
  Ba  Ba0  1  0.500000  0.500000  0.000000  1
  Ba  Ba1  1  0.642888  0.642888  0.285777  1
  Ba  Ba2  1  0.357112  0.357112  0.714223  1
  Sc  Sc3  1  0.071138  0.071138  0.142276  1
  Sc  Sc4  1  0.928863  0.928863  0.857724  1
  Cu  Cu5  1  0.750000  0.250000  0.500000  1
  Cu  Cu6  1  0.250000  0.750000  0.500000  1
  Se  Se7  1  0.199717  0.199717  0.399436  1
  Se  Se8  1  0.800283  0.800283  0.600564  1
  O  O9  1  0.000000  0.000000  0.000000  1
  O  O10  1  0.581219  0.081219  0.162439  1
  O  O11  1  0.081219  0.581219  0.162439  1
  O  O12  1  0.918781  0.418781  0.837561  1
  O  O13  1  0.418781  0.918781  0.837561  1
