# generated using pymatgen
data_Rb4Hf4Zr2BBr18
_symmetry_space_group_name_H-M   'P 1'
_cell_length_a   10.58896964
_cell_length_b   10.84750576
_cell_length_c   10.94414347
_cell_angle_alpha   118.47002225
_cell_angle_beta   100.43222582
_cell_angle_gamma   104.09930214
_symmetry_Int_Tables_number   1
_chemical_formula_structural   Rb4Hf4Zr2BBr18
_chemical_formula_sum   'Rb4 Hf4 Zr2 B1 Br18'
_cell_volume   1004.54889958
_cell_formula_units_Z   1
loop_
 _symmetry_equiv_pos_site_id
 _symmetry_equiv_pos_as_xyz
  1  'x, y, z'
loop_
 _atom_site_type_symbol
 _atom_site_label
 _atom_site_symmetry_multiplicity
 _atom_site_fract_x
 _atom_site_fract_y
 _atom_site_fract_z
 _atom_site_occupancy
  Rb  Rb0  1  0.189357  0.728229  0.564889  1
  Rb  Rb1  1  0.844782  0.964770  0.772838  1
  Rb  Rb2  1  0.155640  0.037793  0.228838  1
  Rb  Rb3  1  0.810167  0.275119  0.436482  1
  Hf  Hf4  1  0.354913  0.445919  0.776219  1
  Hf  Hf5  1  0.366385  0.621968  0.128655  1
  Hf  Hf6  1  0.640565  0.730566  0.041647  1
  Hf  Hf7  1  0.644800  0.550314  0.221730  1
  Zr  Zr8  1  0.360614  0.266890  0.956863  1
  Zr  Zr9  1  0.632963  0.374958  0.870097  1
  B  B10  1  0.499897  0.503226  0.001528  1
  Br  Br11  1  0.818164  0.428201  0.112310  1
  Br  Br12  1  0.517124  0.700123  0.398699  1
  Br  Br13  1  0.180481  0.986388  0.901570  1
  Br  Br14  1  0.184703  0.572984  0.891283  1
  Br  Br15  1  0.822894  0.822800  0.302067  1
  Br  Br16  1  0.506302  0.300600  0.209831  1
  Br  Br17  1  0.792758  0.232837  0.718681  1
  Br  Br18  1  0.174373  0.175803  0.694160  1
  Br  Br19  1  0.509154  0.899607  0.191991  1
  Br  Br20  1  0.812695  0.628556  0.908066  1
  Br  Br21  1  0.211862  0.767448  0.279128  1
  Br  Br22  1  0.172967  0.383048  0.511206  1
  Br  Br23  1  0.495111  0.700567  0.794781  1
  Br  Br24  1  0.814068  0.009728  0.098955  1
  Br  Br25  1  0.481431  0.300227  0.597416  1
  Br  Br26  1  0.187845  0.376709  0.094831  1
  Br  Br27  1  0.826873  0.621029  0.490574  1
  Br  Br28  1  0.491112  0.093591  0.804665  1
