# generated using pymatgen
data_Gd3Lu2InSn2
_symmetry_space_group_name_H-M   'P 1'
_cell_length_a   8.91643400
_cell_length_b   8.92886326
_cell_length_c   6.52191800
_cell_angle_alpha   90.00000000
_cell_angle_beta   90.00000000
_cell_angle_gamma   120.04612354
_symmetry_Int_Tables_number   1
_chemical_formula_structural   Gd3Lu2InSn2
_chemical_formula_sum   'Gd6 Lu4 In2 Sn4'
_cell_volume   449.46026303
_cell_formula_units_Z   2
loop_
 _symmetry_equiv_pos_site_id
 _symmetry_equiv_pos_as_xyz
  1  'x, y, z'
loop_
 _atom_site_type_symbol
 _atom_site_label
 _atom_site_symmetry_multiplicity
 _atom_site_fract_x
 _atom_site_fract_y
 _atom_site_fract_z
 _atom_site_occupancy
  Gd  Gd0  1  0.758732  0.760964  0.750000  1
  Gd  Gd1  1  0.241268  0.002233  0.750000  1
  Gd  Gd2  1  0.000000  0.241082  0.750000  1
  Gd  Gd3  1  0.238952  0.237958  0.250000  1
  Gd  Gd4  1  0.761048  0.999006  0.250000  1
  Gd  Gd5  1  0.000000  0.758576  0.250000  1
  Lu  Lu6  1  0.665783  0.332557  0.997721  1
  Lu  Lu7  1  0.334217  0.666775  0.997721  1
  Lu  Lu8  1  0.334217  0.666775  0.502279  1
  Lu  Lu9  1  0.665783  0.332557  0.502279  1
  In  In10  1  0.398249  0.399124  0.750000  1
  In  In11  1  0.601751  0.000875  0.750000  1
  Sn  Sn12  1  0.000000  0.604461  0.750000  1
  Sn  Sn13  1  0.602226  0.600792  0.250000  1
  Sn  Sn14  1  0.397774  0.998565  0.250000  1
  Sn  Sn15  1  0.000000  0.397698  0.250000  1
