# generated using pymatgen
data_Gd5Bi3O14
_symmetry_space_group_name_H-M   'P 1'
_cell_length_a   6.65018999
_cell_length_b   6.67559966
_cell_length_c   7.82538188
_cell_angle_alpha   106.74728364
_cell_angle_beta   89.64519240
_cell_angle_gamma   98.46934052
_symmetry_Int_Tables_number   1
_chemical_formula_structural   Gd5Bi3O14
_chemical_formula_sum   'Gd5 Bi3 O14'
_cell_volume   328.79628018
_cell_formula_units_Z   1
loop_
 _symmetry_equiv_pos_site_id
 _symmetry_equiv_pos_as_xyz
  1  'x, y, z'
loop_
 _atom_site_type_symbol
 _atom_site_label
 _atom_site_symmetry_multiplicity
 _atom_site_fract_x
 _atom_site_fract_y
 _atom_site_fract_z
 _atom_site_occupancy
  Gd  Gd0  1  0.461109  0.005422  0.253546  1
  Gd  Gd1  1  0.537713  0.000019  0.750021  1
  Gd  Gd2  1  0.269580  0.533532  0.882046  1
  Gd  Gd3  1  0.738872  0.462290  0.114329  1
  Gd  Gd4  1  0.745164  0.481255  0.618701  1
  Bi  Bi5  1  0.994433  0.999571  0.500380  1
  Bi  Bi6  1  0.999414  0.996651  0.997714  1
  Bi  Bi7  1  0.281702  0.530412  0.388430  1
  O  O8  1  0.449226  0.648656  0.167658  1
  O  O9  1  0.557379  0.355626  0.835128  1
  O  O10  1  0.299796  0.920498  0.950800  1
  O  O11  1  0.700801  0.076193  0.050143  1
  O  O12  1  0.294685  0.929204  0.515727  1
  O  O13  1  0.701328  0.086176  0.491875  1
  O  O14  1  0.547846  0.362168  0.344047  1
  O  O15  1  0.460088  0.639175  0.655069  1
  O  O16  1  0.925506  0.663766  0.950766  1
  O  O17  1  0.070945  0.324268  0.029345  1
  O  O18  1  0.069593  0.338688  0.626667  1
  O  O19  1  0.902490  0.666321  0.382152  1
  O  O20  1  0.875452  0.903988  0.726643  1
  O  O21  1  0.116879  0.076123  0.268813  1
