# generated using pymatgen
data_Ga2GeBr8
_symmetry_space_group_name_H-M   'P 1'
_cell_length_a   7.62559000
_cell_length_b   7.74675022
_cell_length_c   14.24468700
_cell_angle_alpha   87.18454174
_cell_angle_beta   90.00000000
_cell_angle_gamma   90.00000000
_symmetry_Int_Tables_number   1
_chemical_formula_structural   Ga2GeBr8
_chemical_formula_sum   'Ga4 Ge2 Br16'
_cell_volume   840.46836473
_cell_formula_units_Z   2
loop_
 _symmetry_equiv_pos_site_id
 _symmetry_equiv_pos_as_xyz
  1  'x, y, z'
loop_
 _atom_site_type_symbol
 _atom_site_label
 _atom_site_symmetry_multiplicity
 _atom_site_fract_x
 _atom_site_fract_y
 _atom_site_fract_z
 _atom_site_occupancy
  Ga  Ga0  1  0.938135  0.218921  0.578303  1
  Ga  Ga1  1  0.061865  0.218921  0.078303  1
  Ga  Ga2  1  0.567856  0.640289  0.778115  1
  Ga  Ga3  1  0.432144  0.640289  0.278115  1
  Ge  Ge4  1  0.756492  0.067301  0.805081  1
  Ge  Ge5  1  0.243508  0.067301  0.305081  1
  Br  Br6  1  0.424465  0.616761  0.637527  1
  Br  Br7  1  0.575535  0.616761  0.137527  1
  Br  Br8  1  0.868941  0.743622  0.760761  1
  Br  Br9  1  0.131059  0.743622  0.260761  1
  Br  Br10  1  0.933778  0.481909  0.497272  1
  Br  Br11  1  0.066222  0.481909  0.997272  1
  Br  Br12  1  0.923005  0.995001  0.998787  1
  Br  Br13  1  0.076995  0.995001  0.498787  1
  Br  Br14  1  0.643079  0.124099  0.623721  1
  Br  Br15  1  0.356921  0.124099  0.123721  1
  Br  Br16  1  0.569500  0.381629  0.874427  1
  Br  Br17  1  0.430500  0.381629  0.374427  1
  Br  Br18  1  0.450163  0.872686  0.864701  1
  Br  Br19  1  0.549837  0.872686  0.364701  1
  Br  Br20  1  0.935516  0.225182  0.233506  1
  Br  Br21  1  0.064484  0.225182  0.733506  1
