# generated using pymatgen
data_Tm10Al5SbC8
_symmetry_space_group_name_H-M   'P 1'
_cell_length_a   10.77954100
_cell_length_b   10.77954100
_cell_length_c   3.48016800
_cell_angle_alpha   90.00000000
_cell_angle_beta   90.00000000
_cell_angle_gamma   90.00000000
_symmetry_Int_Tables_number   1
_chemical_formula_structural   Tm10Al5SbC8
_chemical_formula_sum   'Tm10 Al5 Sb1 C8'
_cell_volume   404.39031586
_cell_formula_units_Z   1
loop_
 _symmetry_equiv_pos_site_id
 _symmetry_equiv_pos_as_xyz
  1  'x, y, z'
loop_
 _atom_site_type_symbol
 _atom_site_label
 _atom_site_symmetry_multiplicity
 _atom_site_fract_x
 _atom_site_fract_y
 _atom_site_fract_z
 _atom_site_occupancy
  Tm  Tm0  1  0.550199  0.735108  0.500000  1
  Tm  Tm1  1  0.449801  0.264892  0.500000  1
  Tm  Tm2  1  0.049720  0.769081  0.500000  1
  Tm  Tm3  1  0.950280  0.230919  0.500000  1
  Tm  Tm4  1  0.264892  0.550199  0.500000  1
  Tm  Tm5  1  0.735108  0.449801  0.500000  1
  Tm  Tm6  1  0.230919  0.049720  0.500000  1
  Tm  Tm7  1  0.769081  0.950280  0.500000  1
  Tm  Tm8  1  0.500000  0.000000  0.000000  1
  Tm  Tm9  1  0.000000  0.500000  0.000000  1
  Al  Al10  1  0.709242  0.196479  0.000000  1
  Al  Al11  1  0.290758  0.803521  0.000000  1
  Al  Al12  1  0.196479  0.290758  0.000000  1
  Al  Al13  1  0.803521  0.709242  0.000000  1
  Al  Al14  1  0.000000  0.000000  0.000000  1
  Sb  Sb15  1  0.500000  0.500000  0.000000  1
  C  C16  1  0.627858  0.128684  0.500000  1
  C  C17  1  0.372142  0.871316  0.500000  1
  C  C18  1  0.128684  0.372142  0.500000  1
  C  C19  1  0.871316  0.627858  0.500000  1
  C  C20  1  0.163591  0.660976  0.000000  1
  C  C21  1  0.836409  0.339024  0.000000  1
  C  C22  1  0.660976  0.836409  0.000000  1
  C  C23  1  0.339024  0.163591  0.000000  1
