# generated using pymatgen
data_TbPr2Dy(Zn5Sn)2
_symmetry_space_group_name_H-M   'P 1'
_cell_length_a   8.49507803
_cell_length_b   8.49507862
_cell_length_c   9.04795700
_cell_angle_alpha   90.00000000
_cell_angle_beta   90.00000000
_cell_angle_gamma   149.68259373
_symmetry_Int_Tables_number   1
_chemical_formula_structural   TbPr2Dy(Zn5Sn)2
_chemical_formula_sum   'Tb1 Pr2 Dy1 Zn10 Sn2'
_cell_volume   329.60664369
_cell_formula_units_Z   1
loop_
 _symmetry_equiv_pos_site_id
 _symmetry_equiv_pos_as_xyz
  1  'x, y, z'
loop_
 _atom_site_type_symbol
 _atom_site_label
 _atom_site_symmetry_multiplicity
 _atom_site_fract_x
 _atom_site_fract_y
 _atom_site_fract_z
 _atom_site_occupancy
  Tb  Tb0  1  0.205467  0.794533  0.250000  1
  Pr  Pr1  1  0.999989  0.000011  0.500022  1
  Pr  Pr2  1  0.999989  0.000011  0.999978  1
  Dy  Dy3  1  0.794517  0.205483  0.750000  1
  Zn  Zn4  1  0.812445  0.187555  0.390490  1
  Zn  Zn5  1  0.187576  0.812424  0.609581  1
  Zn  Zn6  1  0.812445  0.187555  0.109510  1
  Zn  Zn7  1  0.187576  0.812424  0.890419  1
  Zn  Zn8  1  0.658185  0.341815  0.482587  1
  Zn  Zn9  1  0.341820  0.658180  0.517475  1
  Zn  Zn10  1  0.658185  0.341815  0.017413  1
  Zn  Zn11  1  0.341820  0.658180  0.982525  1
  Zn  Zn12  1  0.394283  0.605717  0.250000  1
  Zn  Zn13  1  0.605745  0.394255  0.750000  1
  Sn  Sn14  1  0.557004  0.442996  0.250000  1
  Sn  Sn15  1  0.442955  0.557045  0.750000  1
