# generated using pymatgen
data_Er4Al4Pd2RuPt
_symmetry_space_group_name_H-M   'P 1'
_cell_length_a   4.31200900
_cell_length_b   6.85181671
_cell_length_c   7.87723444
_cell_angle_alpha   89.86312495
_cell_angle_beta   90.00000000
_cell_angle_gamma   90.00000000
_symmetry_Int_Tables_number   1
_chemical_formula_structural   Er4Al4Pd2RuPt
_chemical_formula_sum   'Er4 Al4 Pd2 Ru1 Pt1'
_cell_volume   232.73297831
_cell_formula_units_Z   1
loop_
 _symmetry_equiv_pos_site_id
 _symmetry_equiv_pos_as_xyz
  1  'x, y, z'
loop_
 _atom_site_type_symbol
 _atom_site_label
 _atom_site_symmetry_multiplicity
 _atom_site_fract_x
 _atom_site_fract_y
 _atom_site_fract_z
 _atom_site_occupancy
  Er  Er0  1  0.250000  0.472030  0.180127  1
  Er  Er1  1  0.750000  0.537222  0.816723  1
  Er  Er2  1  0.750000  0.021955  0.677847  1
  Er  Er3  1  0.250000  0.963055  0.321670  1
  Al  Al4  1  0.250000  0.855340  0.938309  1
  Al  Al5  1  0.750000  0.138612  0.060756  1
  Al  Al6  1  0.750000  0.644809  0.440855  1
  Al  Al7  1  0.250000  0.365383  0.561187  1
  Pd  Pd8  1  0.750000  0.268678  0.378012  1
  Pd  Pd9  1  0.250000  0.229201  0.880091  1
  Ru  Ru10  1  0.250000  0.737319  0.621287  1
  Pt  Pt11  1  0.750000  0.766396  0.123138  1
