# generated using pymatgen
data_Er2Sc10Co4SnRh
_symmetry_space_group_name_H-M   'P 1'
_cell_length_a   7.79394262
_cell_length_b   7.79394255
_cell_length_c   7.83170351
_cell_angle_alpha   110.82508920
_cell_angle_beta   111.17783860
_cell_angle_gamma   106.24511923
_symmetry_Int_Tables_number   1
_chemical_formula_structural   Er2Sc10Co4SnRh
_chemical_formula_sum   'Er2 Sc10 Co4 Sn1 Rh1'
_cell_volume   366.34510190
_cell_formula_units_Z   1
loop_
 _symmetry_equiv_pos_site_id
 _symmetry_equiv_pos_as_xyz
  1  'x, y, z'
loop_
 _atom_site_type_symbol
 _atom_site_label
 _atom_site_symmetry_multiplicity
 _atom_site_fract_x
 _atom_site_fract_y
 _atom_site_fract_z
 _atom_site_occupancy
  Er  Er0  1  0.188112  0.715703  0.903815  1
  Er  Er1  1  0.811888  0.284297  0.096185  1
  Sc  Sc2  1  0.316494  0.617580  0.307420  1
  Sc  Sc3  1  0.683506  0.382421  0.692580  1
  Sc  Sc4  1  0.310159  0.009073  0.692580  1
  Sc  Sc5  1  0.689841  0.990927  0.307420  1
  Sc  Sc6  1  0.416927  0.222714  0.203138  1
  Sc  Sc7  1  0.583073  0.777286  0.796862  1
  Sc  Sc8  1  0.019576  0.213789  0.796862  1
  Sc  Sc9  1  0.980424  0.786211  0.203138  1
  Sc  Sc10  1  0.190043  0.283581  0.473624  1
  Sc  Sc11  1  0.809957  0.716419  0.526376  1
  Co  Co12  1  0.118543  0.618543  0.500000  1
  Co  Co13  1  0.881458  0.381458  0.500000  1
  Co  Co14  1  0.367867  0.003612  0.371479  1
  Co  Co15  1  0.632133  0.996388  0.628521  1
  Sn  Sn16  1  0.500000  0.500000  0.000000  1
  Rh  Rh17  1  0.000000  0.000000  0.000000  1
