# generated using pymatgen
data_K7RbBa2(NbSe4)4
_symmetry_space_group_name_H-M   'P 1'
_cell_length_a   12.33066440
_cell_length_b   12.33066432
_cell_length_c   12.35487374
_cell_angle_alpha   133.82479895
_cell_angle_beta   128.74019660
_cell_angle_gamma   71.28664911
_symmetry_Int_Tables_number   1
_chemical_formula_structural   K7RbBa2(NbSe4)4
_chemical_formula_sum   'K7 Rb1 Ba2 Nb4 Se16'
_cell_volume   1035.75540513
_cell_formula_units_Z   1
loop_
 _symmetry_equiv_pos_site_id
 _symmetry_equiv_pos_as_xyz
  1  'x, y, z'
loop_
 _atom_site_type_symbol
 _atom_site_label
 _atom_site_symmetry_multiplicity
 _atom_site_fract_x
 _atom_site_fract_y
 _atom_site_fract_z
 _atom_site_occupancy
  K  K0  1  0.999663  0.749663  0.250000  1
  K  K1  1  0.576902  0.699834  0.123044  1
  K  K2  1  0.423106  0.300198  0.876725  1
  K  K3  1  0.499673  0.749673  0.750000  1
  K  K4  1  0.076790  0.453858  0.376956  1
  K  K5  1  0.923474  0.546381  0.623275  1
  K  K6  1  0.000302  0.250302  0.750000  1
  Rb  Rb7  1  0.500121  0.250121  0.250000  1
  Ba  Ba8  1  0.250011  0.000011  0.250000  1
  Ba  Ba9  1  0.749991  0.999991  0.750000  1
  Nb  Nb10  1  0.131696  0.925972  0.792444  1
  Nb  Nb11  1  0.867848  0.072999  0.206035  1
  Nb  Nb12  1  0.366963  0.661813  0.293965  1
  Nb  Nb13  1  0.633528  0.339251  0.707556  1
  Se  Se14  1  0.599348  0.603415  0.372917  1
  Se  Se15  1  0.748480  0.973226  0.226725  1
  Se  Se16  1  0.897242  0.859864  0.962963  1
  Se  Se17  1  0.769899  0.396945  0.996804  1
  Se  Se18  1  0.730497  0.226431  0.127083  1
  Se  Se19  1  0.756481  0.482942  0.734747  1
  Se  Se20  1  0.248195  0.021733  0.765253  1
  Se  Se21  1  0.230066  0.602970  0.003720  1
  Se  Se22  1  0.246500  0.521756  0.273275  1
  Se  Se23  1  0.270201  0.773486  0.872705  1
  Se  Se24  1  0.102321  0.139424  0.035794  1
  Se  Se25  1  0.900142  0.773095  0.503196  1
  Se  Se26  1  0.099249  0.226346  0.496280  1
  Se  Se27  1  0.603629  0.066526  0.464206  1
  Se  Se28  1  0.400781  0.397495  0.627295  1
  Se  Se29  1  0.396901  0.934279  0.537037  1
