# generated using pymatgen
data_Tb20SiIr4Au7
_symmetry_space_group_name_H-M   'P 1'
_cell_length_a   7.56336757
_cell_length_b   9.03555771
_cell_length_c   12.06895654
_cell_angle_alpha   90.51453955
_cell_angle_beta   89.87832391
_cell_angle_gamma   89.98012048
_symmetry_Int_Tables_number   1
_chemical_formula_structural   Tb20SiIr4Au7
_chemical_formula_sum   'Tb20 Si1 Ir4 Au7'
_cell_volume   824.74819528
_cell_formula_units_Z   1
loop_
 _symmetry_equiv_pos_site_id
 _symmetry_equiv_pos_as_xyz
  1  'x, y, z'
loop_
 _atom_site_type_symbol
 _atom_site_label
 _atom_site_symmetry_multiplicity
 _atom_site_fract_x
 _atom_site_fract_y
 _atom_site_fract_z
 _atom_site_occupancy
  Tb  Tb0  1  0.663500  0.745245  0.722473  1
  Tb  Tb1  1  0.334861  0.252117  0.278053  1
  Tb  Tb2  1  0.169631  0.257356  0.780552  1
  Tb  Tb3  1  0.835171  0.749330  0.220807  1
  Tb  Tb4  1  0.144163  0.742166  0.807324  1
  Tb  Tb5  1  0.856233  0.251098  0.191425  1
  Tb  Tb6  1  0.640355  0.257555  0.693639  1
  Tb  Tb7  1  0.356896  0.748681  0.308379  1
  Tb  Tb8  1  0.540341  0.742355  0.000751  1
  Tb  Tb9  1  0.457745  0.253232  0.996667  1
  Tb  Tb10  1  0.043736  0.249236  0.498538  1
  Tb  Tb11  1  0.956663  0.751953  0.502387  1
  Tb  Tb12  1  0.817944  0.466747  0.916019  1
  Tb  Tb13  1  0.178765  0.531121  0.077509  1
  Tb  Tb14  1  0.325710  0.531200  0.585976  1
  Tb  Tb15  1  0.177101  0.968026  0.083228  1
  Tb  Tb16  1  0.677485  0.469065  0.418277  1
  Tb  Tb17  1  0.823407  0.029951  0.914392  1
  Tb  Tb18  1  0.674830  0.032366  0.415682  1
  Tb  Tb19  1  0.326067  0.970906  0.587799  1
  Si  Si20  1  0.439726  0.505645  0.832543  1
  Ir  Ir21  1  0.933198  0.748865  0.995911  1
  Ir  Ir22  1  0.065281  0.248296  0.003938  1
  Ir  Ir23  1  0.433505  0.250425  0.503375  1
  Ir  Ir24  1  0.566136  0.751113  0.497381  1
  Au  Au25  1  0.938376  0.009112  0.668401  1
  Au  Au26  1  0.061474  0.992931  0.332124  1
  Au  Au27  1  0.435443  0.991587  0.835356  1
  Au  Au28  1  0.062459  0.507928  0.332488  1
  Au  Au29  1  0.562780  0.007684  0.163155  1
  Au  Au30  1  0.938384  0.494711  0.665768  1
  Au  Au31  1  0.562634  0.491998  0.169682  1
