# generated using pymatgen
data_Dy3Al12Os3Rh
_symmetry_space_group_name_H-M   'P 1'
_cell_length_a   8.80399500
_cell_length_b   8.84425938
_cell_length_c   9.58433446
_cell_angle_alpha   89.79367530
_cell_angle_beta   90.00000000
_cell_angle_gamma   119.84951139
_symmetry_Int_Tables_number   1
_chemical_formula_structural   Dy3Al12Os3Rh
_chemical_formula_sum   'Dy6 Al24 Os6 Rh2'
_cell_volume   647.27179932
_cell_formula_units_Z   2
loop_
 _symmetry_equiv_pos_site_id
 _symmetry_equiv_pos_as_xyz
  1  'x, y, z'
loop_
 _atom_site_type_symbol
 _atom_site_label
 _atom_site_symmetry_multiplicity
 _atom_site_fract_x
 _atom_site_fract_y
 _atom_site_fract_z
 _atom_site_occupancy
  Dy  Dy0  1  0.192469  0.384939  0.253590  1
  Dy  Dy1  1  0.807531  0.615061  0.746410  1
  Dy  Dy2  1  0.613542  0.809938  0.252275  1
  Dy  Dy3  1  0.386458  0.190062  0.747725  1
  Dy  Dy4  1  0.196395  0.809938  0.252275  1
  Dy  Dy5  1  0.803605  0.190062  0.747725  1
  Al  Al6  1  0.333854  0.667708  0.022833  1
  Al  Al7  1  0.666146  0.332292  0.977167  1
  Al  Al8  1  0.666618  0.333235  0.519796  1
  Al  Al9  1  0.333382  0.666765  0.480204  1
  Al  Al10  1  0.163531  0.327064  0.576561  1
  Al  Al11  1  0.836469  0.672936  0.423439  1
  Al  Al12  1  0.671857  0.834837  0.575220  1
  Al  Al13  1  0.837209  0.674418  0.077654  1
  Al  Al14  1  0.328143  0.165163  0.424780  1
  Al  Al15  1  0.162791  0.325582  0.922346  1
  Al  Al16  1  0.162980  0.834837  0.575220  1
  Al  Al17  1  0.327184  0.162286  0.075684  1
  Al  Al18  1  0.837020  0.165163  0.424780  1
  Al  Al19  1  0.672816  0.837714  0.924316  1
  Al  Al20  1  0.835103  0.162286  0.075684  1
  Al  Al21  1  0.164897  0.837714  0.924316  1
  Al  Al22  1  0.562399  0.124797  0.249094  1
  Al  Al23  1  0.437601  0.875203  0.750906  1
  Al  Al24  1  0.877382  0.439300  0.249616  1
  Al  Al25  1  0.122618  0.560700  0.750384  1
  Al  Al26  1  0.561918  0.439300  0.249616  1
  Al  Al27  1  0.438082  0.560700  0.750384  1
  Al  Al28  1  0.000554  0.001109  0.250140  1
  Al  Al29  1  0.999446  0.998891  0.749860  1
  Os  Os30  1  0.500000  0.000000  0.000000  1
  Os  Os31  1  0.500000  0.000000  0.500000  1
  Os  Os32  1  0.000000  0.500000  0.500000  1
  Os  Os33  1  0.500000  0.500000  0.500000  1
  Os  Os34  1  0.000000  0.000000  0.000000  1
  Os  Os35  1  0.000000  0.000000  0.500000  1
  Rh  Rh36  1  0.000000  0.500000  0.000000  1
  Rh  Rh37  1  0.500000  0.500000  0.000000  1
