# generated using pymatgen
data_Sm4Tc3B16W
_symmetry_space_group_name_H-M   'P 1'
_cell_length_a   6.04730958
_cell_length_b   11.70709780
_cell_length_c   3.65132900
_cell_angle_alpha   90.00000000
_cell_angle_beta   90.00000000
_cell_angle_gamma   89.97324481
_symmetry_Int_Tables_number   1
_chemical_formula_structural   Sm4Tc3B16W
_chemical_formula_sum   'Sm4 Tc3 B16 W1'
_cell_volume   258.50108331
_cell_formula_units_Z   1
loop_
 _symmetry_equiv_pos_site_id
 _symmetry_equiv_pos_as_xyz
  1  'x, y, z'
loop_
 _atom_site_type_symbol
 _atom_site_label
 _atom_site_symmetry_multiplicity
 _atom_site_fract_x
 _atom_site_fract_y
 _atom_site_fract_z
 _atom_site_occupancy
  Sm  Sm0  1  0.625596  0.347497  0.000000  1
  Sm  Sm1  1  0.372838  0.652394  0.000000  1
  Sm  Sm2  1  0.126064  0.148951  0.000000  1
  Sm  Sm3  1  0.873599  0.851612  0.000000  1
  Tc  Tc4  1  0.633396  0.087536  0.000000  1
  Tc  Tc5  1  0.367510  0.913772  0.000000  1
  Tc  Tc6  1  0.127985  0.414976  0.000000  1
  B  B7  1  0.784031  0.183762  0.500000  1
  B  B8  1  0.217203  0.816739  0.500000  1
  B  B9  1  0.284312  0.315655  0.500000  1
  B  B10  1  0.713272  0.685928  0.500000  1
  B  B11  1  0.861591  0.031870  0.500000  1
  B  B12  1  0.138787  0.968649  0.500000  1
  B  B13  1  0.362597  0.466734  0.500000  1
  B  B14  1  0.635089  0.531085  0.500000  1
  B  B15  1  0.888229  0.451567  0.500000  1
  B  B16  1  0.115469  0.545171  0.500000  1
  B  B17  1  0.387866  0.046590  0.500000  1
  B  B18  1  0.612218  0.954231  0.500000  1
  B  B19  1  0.977655  0.308017  0.500000  1
  B  B20  1  0.025153  0.692155  0.500000  1
  B  B21  1  0.475574  0.190407  0.500000  1
  B  B22  1  0.523152  0.810192  0.500000  1
  W  W23  1  0.870814  0.584511  0.000000  1
