# generated using pymatgen
data_Ba5HoOs3O16
_symmetry_space_group_name_H-M   'P 1'
_cell_length_a   6.02795650
_cell_length_b   6.02977326
_cell_length_c   10.67124738
_cell_angle_alpha   92.99342352
_cell_angle_beta   92.97612288
_cell_angle_gamma   90.07227601
_symmetry_Int_Tables_number   1
_chemical_formula_structural   Ba5HoOs3O16
_chemical_formula_sum   'Ba5 Ho1 Os3 O16'
_cell_volume   386.81535235
_cell_formula_units_Z   1
loop_
 _symmetry_equiv_pos_site_id
 _symmetry_equiv_pos_as_xyz
  1  'x, y, z'
loop_
 _atom_site_type_symbol
 _atom_site_label
 _atom_site_symmetry_multiplicity
 _atom_site_fract_x
 _atom_site_fract_y
 _atom_site_fract_z
 _atom_site_occupancy
  Ba  Ba0  1  0.511092  0.027562  0.202501  1
  Ba  Ba1  1  0.027643  0.510889  0.202553  1
  Ba  Ba2  1  0.000032  0.000046  0.499954  1
  Ba  Ba3  1  0.972406  0.489030  0.797468  1
  Ba  Ba4  1  0.488946  0.972453  0.797509  1
  Ho  Ho5  1  0.500027  0.499973  0.999990  1
  Os  Os6  1  0.000065  0.999953  0.000077  1
  Os  Os7  1  0.562042  0.562100  0.393664  1
  Os  Os8  1  0.437791  0.437970  0.606232  1
  O  O9  1  0.764773  0.232633  0.999773  1
  O  O10  1  0.770777  0.768339  0.018480  1
  O  O11  1  0.039765  0.040537  0.172511  1
  O  O12  1  0.482142  0.481527  0.205578  1
  O  O13  1  0.763039  0.763297  0.332199  1
  O  O14  1  0.318730  0.747977  0.376374  1
  O  O15  1  0.748815  0.319381  0.376669  1
  O  O16  1  0.326860  0.326167  0.438732  1
  O  O17  1  0.673024  0.673858  0.561210  1
  O  O18  1  0.251124  0.680695  0.623302  1
  O  O19  1  0.681226  0.252069  0.623577  1
  O  O20  1  0.236890  0.236650  0.667796  1
  O  O21  1  0.517845  0.518493  0.794390  1
  O  O22  1  0.960337  0.959454  0.827608  1
  O  O23  1  0.229312  0.231621  0.981577  1
  O  O24  1  0.235297  0.767313  0.000285  1
