# generated using pymatgen
data_CaDy(Ga2Ag)2
_symmetry_space_group_name_H-M   'P 1'
_cell_length_a   4.38043600
_cell_length_b   7.01746171
_cell_length_c   10.43678229
_cell_angle_alpha   90.77169359
_cell_angle_beta   90.00000000
_cell_angle_gamma   90.00000000
_symmetry_Int_Tables_number   1
_chemical_formula_structural   CaDy(Ga2Ag)2
_chemical_formula_sum   'Ca2 Dy2 Ga8 Ag4'
_cell_volume   320.79280777
_cell_formula_units_Z   2
loop_
 _symmetry_equiv_pos_site_id
 _symmetry_equiv_pos_as_xyz
  1  'x, y, z'
loop_
 _atom_site_type_symbol
 _atom_site_label
 _atom_site_symmetry_multiplicity
 _atom_site_fract_x
 _atom_site_fract_y
 _atom_site_fract_z
 _atom_site_occupancy
  Ca  Ca0  1  0.750000  0.723985  0.327483  1
  Ca  Ca1  1  0.250000  0.276015  0.672517  1
  Dy  Dy2  1  0.250000  0.777675  0.828988  1
  Dy  Dy3  1  0.750000  0.222325  0.171012  1
  Ga  Ga4  1  0.250000  0.702288  0.535817  1
  Ga  Ga5  1  0.750000  0.297712  0.464183  1
  Ga  Ga6  1  0.750000  0.796162  0.035032  1
  Ga  Ga7  1  0.250000  0.203838  0.964968  1
  Ga  Ga8  1  0.250000  0.927546  0.150207  1
  Ga  Ga9  1  0.750000  0.072454  0.849793  1
  Ga  Ga10  1  0.750000  0.574573  0.652661  1
  Ga  Ga11  1  0.250000  0.425427  0.347339  1
  Ag  Ag12  1  0.250000  0.542989  0.098545  1
  Ag  Ag13  1  0.750000  0.457011  0.901455  1
  Ag  Ag14  1  0.750000  0.958437  0.599127  1
  Ag  Ag15  1  0.250000  0.041563  0.400873  1
