# generated using pymatgen
data_Zr10Ga3CuBi4
_symmetry_space_group_name_H-M   'P 1'
_cell_length_a   8.71206789
_cell_length_b   8.71206783
_cell_length_c   5.88379749
_cell_angle_alpha   89.92922404
_cell_angle_beta   89.92922452
_cell_angle_gamma   119.94903334
_symmetry_Int_Tables_number   1
_chemical_formula_structural   Zr10Ga3CuBi4
_chemical_formula_sum   'Zr10 Ga3 Cu1 Bi4'
_cell_volume   386.94776059
_cell_formula_units_Z   1
loop_
 _symmetry_equiv_pos_site_id
 _symmetry_equiv_pos_as_xyz
  1  'x, y, z'
loop_
 _atom_site_type_symbol
 _atom_site_label
 _atom_site_symmetry_multiplicity
 _atom_site_fract_x
 _atom_site_fract_y
 _atom_site_fract_z
 _atom_site_occupancy
  Zr  Zr0  1  0.667527  0.326626  0.007958  1
  Zr  Zr1  1  0.326626  0.667527  0.007958  1
  Zr  Zr2  1  0.327854  0.667778  0.492756  1
  Zr  Zr3  1  0.667778  0.327854  0.492756  1
  Zr  Zr4  1  0.740777  0.740777  0.749437  1
  Zr  Zr5  1  0.256817  0.997025  0.751305  1
  Zr  Zr6  1  0.997025  0.256817  0.751305  1
  Zr  Zr7  1  0.264137  0.264137  0.248922  1
  Zr  Zr8  1  0.735097  0.019450  0.249163  1
  Zr  Zr9  1  0.019450  0.735097  0.249163  1
  Ga  Ga10  1  0.997904  0.997904  0.483844  1
  Ga  Ga11  1  0.385137  0.002988  0.249448  1
  Ga  Ga12  1  0.002988  0.385137  0.249448  1
  Cu  Cu13  1  0.997966  0.997966  0.018210  1
  Bi  Bi14  1  0.387918  0.387918  0.749439  1
  Bi  Bi15  1  0.605340  0.996976  0.750005  1
  Bi  Bi16  1  0.996976  0.605340  0.750005  1
  Bi  Bi17  1  0.622683  0.622683  0.248875  1
