# generated using pymatgen
data_Tb8Ho5Er3(InIr)4
_symmetry_space_group_name_H-M   'P 1'
_cell_length_a   9.67659668
_cell_length_b   9.67321908
_cell_length_c   9.66804210
_cell_angle_alpha   59.98200486
_cell_angle_beta   59.94676124
_cell_angle_gamma   59.95409019
_symmetry_Int_Tables_number   1
_chemical_formula_structural   Tb8Ho5Er3(InIr)4
_chemical_formula_sum   'Tb8 Ho5 Er3 In4 Ir4'
_cell_volume   639.34070523
_cell_formula_units_Z   1
loop_
 _symmetry_equiv_pos_site_id
 _symmetry_equiv_pos_as_xyz
  1  'x, y, z'
loop_
 _atom_site_type_symbol
 _atom_site_label
 _atom_site_symmetry_multiplicity
 _atom_site_fract_x
 _atom_site_fract_y
 _atom_site_fract_z
 _atom_site_occupancy
  Tb  Tb0  1  0.099387  0.100422  0.702266  1
  Tb  Tb1  1  0.689789  0.311265  0.689496  1
  Tb  Tb2  1  0.690548  0.689691  0.310396  1
  Tb  Tb3  1  0.690016  0.311284  0.310532  1
  Tb  Tb4  1  0.309067  0.690368  0.690928  1
  Tb  Tb5  1  0.559661  0.939559  0.559407  1
  Tb  Tb6  1  0.702894  0.099917  0.099418  1
  Tb  Tb7  1  0.559102  0.939783  0.940415  1
  Ho  Ho8  1  0.309305  0.690449  0.310690  1
  Ho  Ho9  1  0.940585  0.559354  0.559309  1
  Ho  Ho10  1  0.309584  0.311719  0.689980  1
  Ho  Ho11  1  0.097530  0.098659  0.098271  1
  Ho  Ho12  1  0.559062  0.558927  0.940286  1
  Er  Er13  1  0.099371  0.703302  0.099877  1
  Er  Er14  1  0.941358  0.939306  0.558685  1
  Er  Er15  1  0.941460  0.558453  0.939969  1
  In  In16  1  0.332693  0.334048  0.333184  1
  In  In17  1  0.001704  0.332880  0.332216  1
  In  In18  1  0.332362  0.001224  0.332415  1
  In  In19  1  0.332406  0.332970  0.001024  1
  Ir  Ir20  1  0.893050  0.888496  0.890756  1
  Ir  Ir21  1  0.893006  0.890190  0.326274  1
  Ir  Ir22  1  0.324903  0.889720  0.892862  1
  Ir  Ir23  1  0.891157  0.328013  0.891344  1
