# generated using pymatgen
data_Tm5Cd2(HgPd)2
_symmetry_space_group_name_H-M   'P 1'
_cell_length_a   3.58754200
_cell_length_b   7.90125800
_cell_length_c   18.22982700
_cell_angle_alpha   90.00000000
_cell_angle_beta   90.00000000
_cell_angle_gamma   90.00000000
_symmetry_Int_Tables_number   1
_chemical_formula_structural   Tm5Cd2(HgPd)2
_chemical_formula_sum   'Tm10 Cd4 Hg4 Pd4'
_cell_volume   516.74440666
_cell_formula_units_Z   2
loop_
 _symmetry_equiv_pos_site_id
 _symmetry_equiv_pos_as_xyz
  1  'x, y, z'
loop_
 _atom_site_type_symbol
 _atom_site_label
 _atom_site_symmetry_multiplicity
 _atom_site_fract_x
 _atom_site_fract_y
 _atom_site_fract_z
 _atom_site_occupancy
  Tm  Tm0  1  0.000000  0.110011  0.416131  1
  Tm  Tm1  1  0.000000  0.889989  0.583869  1
  Tm  Tm2  1  0.000000  0.389989  0.916131  1
  Tm  Tm3  1  0.000000  0.610011  0.083869  1
  Tm  Tm4  1  0.000000  0.242567  0.215815  1
  Tm  Tm5  1  0.000000  0.757433  0.784185  1
  Tm  Tm6  1  0.000000  0.257433  0.715815  1
  Tm  Tm7  1  0.000000  0.742567  0.284185  1
  Tm  Tm8  1  0.000000  0.000000  0.000000  1
  Tm  Tm9  1  0.000000  0.500000  0.500000  1
  Cd  Cd10  1  0.500000  0.421125  0.351586  1
  Cd  Cd11  1  0.500000  0.578875  0.648414  1
  Cd  Cd12  1  0.500000  0.078875  0.851586  1
  Cd  Cd13  1  0.500000  0.921125  0.148414  1
  Hg  Hg14  1  0.500000  0.284023  0.063289  1
  Hg  Hg15  1  0.500000  0.715977  0.936711  1
  Hg  Hg16  1  0.500000  0.215977  0.563289  1
  Hg  Hg17  1  0.500000  0.784023  0.436711  1
  Pd  Pd18  1  0.500000  0.031366  0.302586  1
  Pd  Pd19  1  0.500000  0.968634  0.697414  1
  Pd  Pd20  1  0.500000  0.468634  0.802586  1
  Pd  Pd21  1  0.500000  0.531366  0.197414  1
