# generated using pymatgen
data_Dy3Er2In2Bi
_symmetry_space_group_name_H-M   'P 1'
_cell_length_a   9.02858421
_cell_length_b   9.01909682
_cell_length_c   6.57800800
_cell_angle_alpha   90.00000000
_cell_angle_beta   90.00000000
_cell_angle_gamma   119.96524174
_symmetry_Int_Tables_number   1
_chemical_formula_structural   Dy3Er2In2Bi
_chemical_formula_sum   'Dy6 Er4 In4 Bi2'
_cell_volume   464.04461257
_cell_formula_units_Z   2
loop_
 _symmetry_equiv_pos_site_id
 _symmetry_equiv_pos_as_xyz
  1  'x, y, z'
loop_
 _atom_site_type_symbol
 _atom_site_label
 _atom_site_symmetry_multiplicity
 _atom_site_fract_x
 _atom_site_fract_y
 _atom_site_fract_z
 _atom_site_occupancy
  Dy  Dy0  1  0.769621  0.760758  0.750000  1
  Dy  Dy1  1  0.230379  0.991136  0.750000  1
  Dy  Dy2  1  0.000000  0.241094  0.750000  1
  Dy  Dy3  1  0.237329  0.237703  0.250000  1
  Dy  Dy4  1  0.762671  0.000375  0.250000  1
  Dy  Dy5  1  0.000000  0.761423  0.250000  1
  Er  Er6  1  0.670729  0.338096  0.006633  1
  Er  Er7  1  0.329271  0.667367  0.006633  1
  Er  Er8  1  0.329271  0.667367  0.493367  1
  Er  Er9  1  0.670729  0.338096  0.493367  1
  In  In10  1  0.000000  0.596556  0.750000  1
  In  In11  1  0.603287  0.605700  0.250000  1
  In  In12  1  0.396713  0.002413  0.250000  1
  In  In13  1  0.000000  0.397911  0.250000  1
  Bi  Bi14  1  0.395544  0.394775  0.750000  1
  Bi  Bi15  1  0.604456  0.999231  0.750000  1
