# generated using pymatgen
data_Ac3YbAu4
_symmetry_space_group_name_H-M   'P 1'
_cell_length_a   4.95558200
_cell_length_b   6.10527947
_cell_length_c   7.78632411
_cell_angle_alpha   88.39961566
_cell_angle_beta   90.00000000
_cell_angle_gamma   90.00000000
_symmetry_Int_Tables_number   1
_chemical_formula_structural   Ac3YbAu4
_chemical_formula_sum   'Ac3 Yb1 Au4'
_cell_volume   235.48500280
_cell_formula_units_Z   1
loop_
 _symmetry_equiv_pos_site_id
 _symmetry_equiv_pos_as_xyz
  1  'x, y, z'
loop_
 _atom_site_type_symbol
 _atom_site_label
 _atom_site_symmetry_multiplicity
 _atom_site_fract_x
 _atom_site_fract_y
 _atom_site_fract_z
 _atom_site_occupancy
  Ac  Ac0  1  0.250000  0.355443  0.687999  1
  Ac  Ac1  1  0.250000  0.142692  0.183127  1
  Ac  Ac2  1  0.750000  0.643827  0.312527  1
  Yb  Yb3  1  0.750000  0.855144  0.814766  1
  Au  Au4  1  0.250000  0.851994  0.550954  1
  Au  Au5  1  0.250000  0.658604  0.030534  1
  Au  Au6  1  0.750000  0.143352  0.465787  1
  Au  Au7  1  0.750000  0.348945  0.954307  1
