# generated using pymatgen
data_ErInAsPt8
_symmetry_space_group_name_H-M   'P 1'
_cell_length_a   4.07292400
_cell_length_b   4.07292400
_cell_length_c   11.33144000
_cell_angle_alpha   90.00000000
_cell_angle_beta   90.00000000
_cell_angle_gamma   90.00000000
_symmetry_Int_Tables_number   1
_chemical_formula_structural   ErInAsPt8
_chemical_formula_sum   'Er1 In1 As1 Pt8'
_cell_volume   187.97397102
_cell_formula_units_Z   1
loop_
 _symmetry_equiv_pos_site_id
 _symmetry_equiv_pos_as_xyz
  1  'x, y, z'
loop_
 _atom_site_type_symbol
 _atom_site_label
 _atom_site_symmetry_multiplicity
 _atom_site_fract_x
 _atom_site_fract_y
 _atom_site_fract_z
 _atom_site_occupancy
  Er  Er0  1  0.500000  0.500000  0.820281  1
  In  In1  1  0.500000  0.500000  0.181731  1
  As  As2  1  0.000000  0.000000  0.498114  1
  Pt  Pt3  1  0.500000  0.000000  0.001898  1
  Pt  Pt4  1  0.000000  0.500000  0.001898  1
  Pt  Pt5  1  0.500000  0.000000  0.635645  1
  Pt  Pt6  1  0.000000  0.500000  0.635645  1
  Pt  Pt7  1  0.500000  0.000000  0.361933  1
  Pt  Pt8  1  0.000000  0.500000  0.361933  1
  Pt  Pt9  1  0.000000  0.000000  0.820088  1
  Pt  Pt10  1  0.000000  0.000000  0.180833  1
