# generated using pymatgen
data_Na2InPt3
_symmetry_space_group_name_H-M   'P 1'
_cell_length_a   5.44968677
_cell_length_b   5.54666517
_cell_length_c   5.54666600
_cell_angle_alpha   59.99999503
_cell_angle_beta   59.40956680
_cell_angle_gamma   59.40957084
_symmetry_Int_Tables_number   1
_chemical_formula_structural   Na2InPt3
_chemical_formula_sum   'Na2 In1 Pt3'
_cell_volume   117.48609911
_cell_formula_units_Z   1
loop_
 _symmetry_equiv_pos_site_id
 _symmetry_equiv_pos_as_xyz
  1  'x, y, z'
loop_
 _atom_site_type_symbol
 _atom_site_label
 _atom_site_symmetry_multiplicity
 _atom_site_fract_x
 _atom_site_fract_y
 _atom_site_fract_z
 _atom_site_occupancy
  Na  Na0  1  0.485476  0.504841  0.504841  1
  Na  Na1  1  0.764524  0.745159  0.745159  1
  In  In2  1  0.625000  0.125000  0.125000  1
  Pt  Pt3  1  0.125000  0.125000  0.125000  1
  Pt  Pt4  1  0.125000  0.625000  0.125000  1
  Pt  Pt5  1  0.125000  0.125000  0.625000  1
