# generated using pymatgen
data_Li3AsPd4
_symmetry_space_group_name_H-M   'P 1'
_cell_length_a   7.35002107
_cell_length_b   7.35002036
_cell_length_c   7.35002177
_cell_angle_alpha   33.96281291
_cell_angle_beta   33.96281794
_cell_angle_gamma   33.96281718
_symmetry_Int_Tables_number   1
_chemical_formula_structural   Li3AsPd4
_chemical_formula_sum   'Li3 As1 Pd4'
_cell_volume   110.45538341
_cell_formula_units_Z   1
loop_
 _symmetry_equiv_pos_site_id
 _symmetry_equiv_pos_as_xyz
  1  'x, y, z'
loop_
 _atom_site_type_symbol
 _atom_site_label
 _atom_site_symmetry_multiplicity
 _atom_site_fract_x
 _atom_site_fract_y
 _atom_site_fract_z
 _atom_site_occupancy
  Li  Li0  1  0.251717  0.251717  0.251717  1
  Li  Li1  1  0.748283  0.748283  0.748283  1
  Li  Li2  1  0.000000  0.000000  0.000000  1
  As  As3  1  0.500000  0.500000  0.500000  1
  Pd  Pd4  1  0.623442  0.623442  0.623442  1
  Pd  Pd5  1  0.125796  0.125796  0.125796  1
  Pd  Pd6  1  0.874204  0.874204  0.874204  1
  Pd  Pd7  1  0.376558  0.376558  0.376558  1
