# generated using pymatgen
data_Pr2Eu(SiSe4)2
_symmetry_space_group_name_H-M   'P 1'
_cell_length_a   10.79513419
_cell_length_b   10.87042732
_cell_length_c   10.87042760
_cell_angle_alpha   51.64531131
_cell_angle_beta   51.58086288
_cell_angle_gamma   51.58086451
_symmetry_Int_Tables_number   1
_chemical_formula_structural   Pr2Eu(SiSe4)2
_chemical_formula_sum   'Pr4 Eu2 Si4 Se16'
_cell_volume   723.71511338
_cell_formula_units_Z   2
loop_
 _symmetry_equiv_pos_site_id
 _symmetry_equiv_pos_as_xyz
  1  'x, y, z'
loop_
 _atom_site_type_symbol
 _atom_site_label
 _atom_site_symmetry_multiplicity
 _atom_site_fract_x
 _atom_site_fract_y
 _atom_site_fract_z
 _atom_site_occupancy
  Pr  Pr0  1  0.248831  0.559779  0.938268  1
  Pr  Pr1  1  0.438215  0.062291  0.749477  1
  Pr  Pr2  1  0.748831  0.438268  0.059779  1
  Pr  Pr3  1  0.938215  0.249477  0.562291  1
  Eu  Eu4  1  0.573584  0.927545  0.251480  1
  Eu  Eu5  1  0.073584  0.751480  0.427545  1
  Si  Si6  1  0.843098  0.843155  0.836829  1
  Si  Si7  1  0.656871  0.656829  0.663499  1
  Si  Si8  1  0.343098  0.336829  0.343155  1
  Si  Si9  1  0.156871  0.163499  0.156829  1
  Se  Se10  1  0.214184  0.957756  0.394934  1
  Se  Se11  1  0.714184  0.894934  0.457756  1
  Se  Se12  1  0.435574  0.413477  0.419245  1
  Se  Se13  1  0.276016  0.105593  0.567254  1
  Se  Se14  1  0.935573  0.919246  0.913477  1
  Se  Se15  1  0.054237  0.603118  0.782142  1
  Se  Se16  1  0.576174  0.568062  0.587580  1
  Se  Se17  1  0.100868  0.546755  0.286346  1
  Se  Se18  1  0.437580  0.717910  0.901551  1
  Se  Se19  1  0.776016  0.067254  0.605593  1
  Se  Se20  1  0.600868  0.786346  0.046755  1
  Se  Se21  1  0.076174  0.087581  0.068062  1
  Se  Se22  1  0.894767  0.436232  0.722892  1
  Se  Se23  1  0.394767  0.222892  0.936232  1
  Se  Se24  1  0.554237  0.282142  0.103118  1
  Se  Se25  1  0.937580  0.401551  0.217910  1
