# generated using pymatgen
data_Tb2Dy2Ga3Fe(WO6)4
_symmetry_space_group_name_H-M   'P 1'
_cell_length_a   5.24063300
_cell_length_b   7.43950430
_cell_length_c   11.10281500
_cell_angle_alpha   90.00012322
_cell_angle_beta   90.00032799
_cell_angle_gamma   89.98373431
_symmetry_Int_Tables_number   1
_chemical_formula_structural   Tb2Dy2Ga3Fe(WO6)4
_chemical_formula_sum   'Tb2 Dy2 Ga3 Fe1 W4 O24'
_cell_volume   432.87333325
_cell_formula_units_Z   1
loop_
 _symmetry_equiv_pos_site_id
 _symmetry_equiv_pos_as_xyz
  1  'x, y, z'
loop_
 _atom_site_type_symbol
 _atom_site_label
 _atom_site_symmetry_multiplicity
 _atom_site_fract_x
 _atom_site_fract_y
 _atom_site_fract_z
 _atom_site_occupancy
  Tb  Tb0  1  0.543926  0.253164  0.543572  1
  Tb  Tb1  1  0.044346  0.752215  0.955717  1
  Dy  Dy2  1  0.954165  0.253923  0.045718  1
  Dy  Dy3  1  0.454564  0.753174  0.455075  1
  Ga  Ga4  1  0.459643  0.509928  0.140303  1
  Ga  Ga5  1  0.958851  0.009560  0.359816  1
  Ga  Ga6  1  0.039844  0.510305  0.639988  1
  Fe  Fe7  1  0.542097  0.008664  0.860598  1
  W  W8  1  0.448708  0.997988  0.143094  1
  W  W9  1  0.950171  0.497825  0.357183  1
  W  W10  1  0.050036  0.997102  0.641779  1
  W  W11  1  0.549384  0.496446  0.857285  1
  O  O12  1  0.740860  0.541821  0.021760  1
  O  O13  1  0.736827  0.960913  0.029722  1
  O  O14  1  0.328425  0.754013  0.118222  1
  O  O15  1  0.562025  0.248148  0.143348  1
  O  O16  1  0.124451  0.068282  0.208083  1
  O  O17  1  0.116805  0.439081  0.212607  1
  O  O18  1  0.615804  0.939053  0.287466  1
  O  O19  1  0.624683  0.568015  0.292934  1
  O  O20  1  0.062198  0.747900  0.356402  1
  O  O21  1  0.828180  0.254002  0.381388  1
  O  O22  1  0.236858  0.461044  0.470762  1
  O  O23  1  0.240781  0.040493  0.477695  1
  O  O24  1  0.758718  0.542406  0.520934  1
  O  O25  1  0.762535  0.959612  0.528662  1
  O  O26  1  0.174796  0.753371  0.617484  1
  O  O27  1  0.938207  0.247793  0.642653  1
  O  O28  1  0.374345  0.068960  0.705594  1
  O  O29  1  0.382295  0.438141  0.713184  1
  O  O30  1  0.889180  0.937002  0.786890  1
  O  O31  1  0.873939  0.567764  0.792324  1
  O  O32  1  0.437042  0.745939  0.857047  1
  O  O33  1  0.676040  0.255136  0.882386  1
  O  O34  1  0.262966  0.458367  0.971485  1
  O  O35  1  0.256306  0.042857  0.980842  1
