# generated using pymatgen
data_Dy4Ho3Th(ReB6)4
_symmetry_space_group_name_H-M   'P 1'
_cell_length_a   3.70511300
_cell_length_b   9.19260066
_cell_length_c   11.59682202
_cell_angle_alpha   90.04702994
_cell_angle_beta   90.00000000
_cell_angle_gamma   90.00000000
_symmetry_Int_Tables_number   1
_chemical_formula_structural   Dy4Ho3Th(ReB6)4
_chemical_formula_sum   'Dy4 Ho3 Th1 Re4 B24'
_cell_volume   394.98326711
_cell_formula_units_Z   1
loop_
 _symmetry_equiv_pos_site_id
 _symmetry_equiv_pos_as_xyz
  1  'x, y, z'
loop_
 _atom_site_type_symbol
 _atom_site_label
 _atom_site_symmetry_multiplicity
 _atom_site_fract_x
 _atom_site_fract_y
 _atom_site_fract_z
 _atom_site_occupancy
  Dy  Dy0  1  0.000000  0.677603  0.587266  1
  Dy  Dy1  1  0.000000  0.823475  0.085245  1
  Dy  Dy2  1  0.000000  0.175905  0.913927  1
  Dy  Dy3  1  0.000000  0.942208  0.369609  1
  Ho  Ho4  1  0.000000  0.055849  0.631310  1
  Ho  Ho5  1  0.000000  0.443642  0.128385  1
  Ho  Ho6  1  0.000000  0.557214  0.870431  1
  Th  Th7  1  0.000000  0.322620  0.414060  1
  Re  Re8  1  0.000000  0.638865  0.320510  1
  Re  Re9  1  0.000000  0.361753  0.680224  1
  Re  Re10  1  0.000000  0.138505  0.178264  1
  Re  Re11  1  0.000000  0.861486  0.820874  1
  B  B12  1  0.500000  0.555912  0.432232  1
  B  B13  1  0.500000  0.446793  0.569497  1
  B  B14  1  0.500000  0.053188  0.066526  1
  B  B15  1  0.500000  0.946492  0.932875  1
  B  B16  1  0.500000  0.749978  0.418342  1
  B  B17  1  0.500000  0.250626  0.584717  1
  B  B18  1  0.500000  0.248942  0.080281  1
  B  B19  1  0.500000  0.750719  0.918436  1
  B  B20  1  0.500000  0.791989  0.265162  1
  B  B21  1  0.500000  0.207966  0.735794  1
  B  B22  1  0.500000  0.290642  0.232237  1
  B  B23  1  0.500000  0.707973  0.765693  1
  B  B24  1  0.500000  0.631915  0.184643  1
  B  B25  1  0.500000  0.369564  0.815029  1
  B  B26  1  0.500000  0.129499  0.312229  1
  B  B27  1  0.500000  0.868883  0.686089  1
  B  B28  1  0.500000  0.982358  0.211080  1
  B  B29  1  0.500000  0.016882  0.788412  1
  B  B30  1  0.500000  0.485754  0.286250  1
  B  B31  1  0.500000  0.517840  0.713490  1
  B  B32  1  0.500000  0.601052  0.027652  1
  B  B33  1  0.500000  0.399501  0.971604  1
  B  B34  1  0.500000  0.097494  0.473065  1
  B  B35  1  0.500000  0.898908  0.528562  1
