# generated using pymatgen
data_Tm8Sc12Si15Pt
_symmetry_space_group_name_H-M   'P 1'
_cell_length_a   7.07131839
_cell_length_b   7.33241582
_cell_length_c   13.96860352
_cell_angle_alpha   89.93762082
_cell_angle_beta   89.71364657
_cell_angle_gamma   90.22146165
_symmetry_Int_Tables_number   1
_chemical_formula_structural   Tm8Sc12Si15Pt
_chemical_formula_sum   'Tm8 Sc12 Si15 Pt1'
_cell_volume   724.25505211
_cell_formula_units_Z   1
loop_
 _symmetry_equiv_pos_site_id
 _symmetry_equiv_pos_as_xyz
  1  'x, y, z'
loop_
 _atom_site_type_symbol
 _atom_site_label
 _atom_site_symmetry_multiplicity
 _atom_site_fract_x
 _atom_site_fract_y
 _atom_site_fract_z
 _atom_site_occupancy
  Tm  Tm0  1  0.012759  0.176353  0.097095  1
  Tm  Tm1  1  0.987437  0.823444  0.903262  1
  Tm  Tm2  1  0.487314  0.677219  0.903083  1
  Tm  Tm3  1  0.988916  0.822181  0.596869  1
  Tm  Tm4  1  0.512118  0.323183  0.096638  1
  Tm  Tm5  1  0.012465  0.178190  0.402439  1
  Tm  Tm6  1  0.508435  0.325564  0.403579  1
  Tm  Tm7  1  0.485554  0.671747  0.597524  1
  Sc  Sc8  1  0.162778  0.502769  0.747120  1
  Sc  Sc9  1  0.837730  0.497366  0.251102  1
  Sc  Sc10  1  0.338200  0.002272  0.250058  1
  Sc  Sc11  1  0.662890  0.995189  0.750040  1
  Sc  Sc12  1  0.332595  0.182302  0.622835  1
  Sc  Sc13  1  0.668888  0.823035  0.374426  1
  Sc  Sc14  1  0.170397  0.670338  0.376237  1
  Sc  Sc15  1  0.670052  0.824075  0.125541  1
  Sc  Sc16  1  0.832472  0.326226  0.624197  1
  Sc  Sc17  1  0.328844  0.176086  0.875636  1
  Sc  Sc18  1  0.830115  0.322955  0.875574  1
  Sc  Sc19  1  0.170028  0.676940  0.125010  1
  Si  Si20  1  0.033542  0.114134  0.750671  1
  Si  Si21  1  0.968445  0.886248  0.249872  1
  Si  Si22  1  0.467441  0.613753  0.248915  1
  Si  Si23  1  0.535860  0.386166  0.752358  1
  Si  Si24  1  0.284849  0.873370  0.750733  1
  Si  Si25  1  0.713934  0.129958  0.249518  1
  Si  Si26  1  0.215984  0.369823  0.248046  1
  Si  Si27  1  0.784386  0.628622  0.752539  1
  Si  Si28  1  0.836904  0.535651  0.460035  1
  Si  Si29  1  0.342139  0.965056  0.460219  1
  Si  Si30  1  0.842383  0.535014  0.038773  1
  Si  Si31  1  0.657817  0.034000  0.538672  1
  Si  Si32  1  0.156937  0.465234  0.961339  1
  Si  Si33  1  0.658202  0.034155  0.961489  1
  Si  Si34  1  0.342333  0.965100  0.038933  1
  Pt  Pt35  1  0.158856  0.466281  0.539622  1
