# generated using pymatgen
data_TbSm2Hf(Co4P3)2
_symmetry_space_group_name_H-M   'P 1'
_cell_length_a   3.75087700
_cell_length_b   10.75155700
_cell_length_c   12.48555100
_cell_angle_alpha   90.00000000
_cell_angle_beta   90.00000000
_cell_angle_gamma   90.00000000
_symmetry_Int_Tables_number   1
_chemical_formula_structural   TbSm2Hf(Co4P3)2
_chemical_formula_sum   'Tb2 Sm4 Hf2 Co16 P12'
_cell_volume   503.51440240
_cell_formula_units_Z   2
loop_
 _symmetry_equiv_pos_site_id
 _symmetry_equiv_pos_as_xyz
  1  'x, y, z'
loop_
 _atom_site_type_symbol
 _atom_site_label
 _atom_site_symmetry_multiplicity
 _atom_site_fract_x
 _atom_site_fract_y
 _atom_site_fract_z
 _atom_site_occupancy
  Tb  Tb0  1  0.500000  0.821515  0.204547  1
  Tb  Tb1  1  0.500000  0.178485  0.204547  1
  Sm  Sm2  1  0.000000  0.500000  0.528232  1
  Sm  Sm3  1  0.500000  0.000000  0.470962  1
  Sm  Sm4  1  0.000000  0.678743  0.795117  1
  Sm  Sm5  1  0.000000  0.321257  0.795117  1
  Hf  Hf6  1  0.500000  0.500000  0.156010  1
  Hf  Hf7  1  0.000000  0.000000  0.844382  1
  Co  Co8  1  0.500000  0.500000  0.703836  1
  Co  Co9  1  0.000000  0.000000  0.295033  1
  Co  Co10  1  0.000000  0.500000  0.988016  1
  Co  Co11  1  0.500000  0.000000  0.014066  1
  Co  Co12  1  0.500000  0.331578  0.994568  1
  Co  Co13  1  0.500000  0.668422  0.994568  1
  Co  Co14  1  0.000000  0.167487  0.007433  1
  Co  Co15  1  0.000000  0.832513  0.007433  1
  Co  Co16  1  0.500000  0.295195  0.431749  1
  Co  Co17  1  0.500000  0.704805  0.431749  1
  Co  Co18  1  0.000000  0.204255  0.566559  1
  Co  Co19  1  0.000000  0.795745  0.566559  1
  Co  Co20  1  0.500000  0.879357  0.703281  1
  Co  Co21  1  0.500000  0.120643  0.703281  1
  Co  Co22  1  0.000000  0.621518  0.295785  1
  Co  Co23  1  0.000000  0.378482  0.295785  1
  P  P24  1  0.500000  0.500000  0.885955  1
  P  P25  1  0.000000  0.000000  0.116391  1
  P  P26  1  0.500000  0.500000  0.358932  1
  P  P27  1  0.000000  0.000000  0.640907  1
  P  P28  1  0.500000  0.307124  0.614226  1
  P  P29  1  0.500000  0.692876  0.614226  1
  P  P30  1  0.000000  0.191892  0.383632  1
  P  P31  1  0.000000  0.808108  0.383632  1
  P  P32  1  0.500000  0.840038  0.895484  1
  P  P33  1  0.500000  0.159962  0.895484  1
  P  P34  1  0.000000  0.661207  0.106257  1
  P  P35  1  0.000000  0.338793  0.106257  1
