# generated using pymatgen
data_Dy14Ho5LuSn16
_symmetry_space_group_name_H-M   'P 1'
_cell_length_a   8.02171104
_cell_length_b   8.15947249
_cell_length_c   15.45150103
_cell_angle_alpha   90.00697655
_cell_angle_beta   90.00131680
_cell_angle_gamma   89.95306042
_symmetry_Int_Tables_number   1
_chemical_formula_structural   Dy14Ho5LuSn16
_chemical_formula_sum   'Dy14 Ho5 Lu1 Sn16'
_cell_volume   1011.34567773
_cell_formula_units_Z   1
loop_
 _symmetry_equiv_pos_site_id
 _symmetry_equiv_pos_as_xyz
  1  'x, y, z'
loop_
 _atom_site_type_symbol
 _atom_site_label
 _atom_site_symmetry_multiplicity
 _atom_site_fract_x
 _atom_site_fract_y
 _atom_site_fract_z
 _atom_site_occupancy
  Dy  Dy0  1  0.632068  0.163027  0.377916  1
  Dy  Dy1  1  0.132116  0.337045  0.121583  1
  Dy  Dy2  1  0.632092  0.163069  0.122115  1
  Dy  Dy3  1  0.132128  0.337015  0.378398  1
  Dy  Dy4  1  0.367656  0.836896  0.622434  1
  Dy  Dy5  1  0.868154  0.662697  0.877655  1
  Dy  Dy6  1  0.520750  0.321039  0.902425  1
  Dy  Dy7  1  0.021194  0.179596  0.597634  1
  Dy  Dy8  1  0.479314  0.679357  0.402889  1
  Dy  Dy9  1  0.979231  0.820619  0.097429  1
  Dy  Dy10  1  0.479302  0.679355  0.097075  1
  Dy  Dy11  1  0.979219  0.820625  0.402615  1
  Dy  Dy12  1  0.520775  0.321082  0.597590  1
  Dy  Dy13  1  0.021227  0.179545  0.902353  1
  Ho  Ho14  1  0.367574  0.836904  0.877561  1
  Ho  Ho15  1  0.868085  0.662668  0.622363  1
  Ho  Ho16  1  0.698706  0.997241  0.749997  1
  Ho  Ho17  1  0.800906  0.496864  0.249996  1
  Ho  Ho18  1  0.300927  0.002958  0.249990  1
  Lu  Lu19  1  0.198985  0.503482  0.749973  1
  Sn  Sn20  1  0.292518  0.035876  0.041396  1
  Sn  Sn21  1  0.792378  0.463818  0.458535  1
  Sn  Sn22  1  0.707865  0.963806  0.542006  1
  Sn  Sn23  1  0.207840  0.535971  0.957096  1
  Sn  Sn24  1  0.707575  0.963941  0.958015  1
  Sn  Sn25  1  0.207537  0.535841  0.542888  1
  Sn  Sn26  1  0.292470  0.035999  0.458494  1
  Sn  Sn27  1  0.792317  0.463698  0.041577  1
  Sn  Sn28  1  0.563768  0.617780  0.750001  1
  Sn  Sn29  1  0.065642  0.880443  0.750004  1
  Sn  Sn30  1  0.433919  0.381166  0.249995  1
  Sn  Sn31  1  0.934525  0.118918  0.250004  1
  Sn  Sn32  1  0.329748  0.149882  0.750042  1
  Sn  Sn33  1  0.831019  0.352580  0.749962  1
  Sn  Sn34  1  0.670067  0.851823  0.249995  1
  Sn  Sn35  1  0.170402  0.647379  0.250001  1
