# generated using pymatgen
data_Sm2B10Pt
_symmetry_space_group_name_H-M   'P 1'
_cell_length_a   4.20022000
_cell_length_b   5.72620200
_cell_length_c   11.44075900
_cell_angle_alpha   90.00000000
_cell_angle_beta   90.00000000
_cell_angle_gamma   90.00000000
_symmetry_Int_Tables_number   1
_chemical_formula_structural   Sm2B10Pt
_chemical_formula_sum   'Sm4 B20 Pt2'
_cell_volume   275.16522034
_cell_formula_units_Z   2
loop_
 _symmetry_equiv_pos_site_id
 _symmetry_equiv_pos_as_xyz
  1  'x, y, z'
loop_
 _atom_site_type_symbol
 _atom_site_label
 _atom_site_symmetry_multiplicity
 _atom_site_fract_x
 _atom_site_fract_y
 _atom_site_fract_z
 _atom_site_occupancy
  Sm  Sm0  1  0.500000  0.190973  0.360022  1
  Sm  Sm1  1  0.500000  0.809027  0.639978  1
  Sm  Sm2  1  0.500000  0.309027  0.860022  1
  Sm  Sm3  1  0.500000  0.690973  0.139978  1
  B  B4  1  0.000000  0.383383  0.044077  1
  B  B5  1  0.000000  0.616617  0.955923  1
  B  B6  1  0.000000  0.116617  0.544077  1
  B  B7  1  0.000000  0.883383  0.455923  1
  B  B8  1  0.000000  0.360709  0.197341  1
  B  B9  1  0.000000  0.639291  0.802659  1
  B  B10  1  0.000000  0.139291  0.697341  1
  B  B11  1  0.000000  0.860709  0.302659  1
  B  B12  1  0.000000  0.054344  0.193995  1
  B  B13  1  0.000000  0.945656  0.806005  1
  B  B14  1  0.000000  0.445656  0.693995  1
  B  B15  1  0.000000  0.554344  0.306005  1
  B  B16  1  0.302181  0.217975  0.119953  1
  B  B17  1  0.697819  0.782025  0.880047  1
  B  B18  1  0.302181  0.782025  0.880047  1
  B  B19  1  0.697819  0.282025  0.619953  1
  B  B20  1  0.697819  0.217975  0.119953  1
  B  B21  1  0.302181  0.717975  0.380047  1
  B  B22  1  0.697819  0.717975  0.380047  1
  B  B23  1  0.302181  0.282025  0.619953  1
  Pt  Pt24  1  0.000000  0.000000  0.000000  1
  Pt  Pt25  1  0.000000  0.500000  0.500000  1
