# generated using pymatgen
data_Ho4OsWC4
_symmetry_space_group_name_H-M   'P 1'
_cell_length_a   5.07527600
_cell_length_b   6.57405923
_cell_length_c   9.86400211
_cell_angle_alpha   89.17199865
_cell_angle_beta   90.00000000
_cell_angle_gamma   90.00000000
_symmetry_Int_Tables_number   1
_chemical_formula_structural   Ho4OsWC4
_chemical_formula_sum   'Ho8 Os2 W2 C8'
_cell_volume   329.07969241
_cell_formula_units_Z   2
loop_
 _symmetry_equiv_pos_site_id
 _symmetry_equiv_pos_as_xyz
  1  'x, y, z'
loop_
 _atom_site_type_symbol
 _atom_site_label
 _atom_site_symmetry_multiplicity
 _atom_site_fract_x
 _atom_site_fract_y
 _atom_site_fract_z
 _atom_site_occupancy
  Ho  Ho0  1  0.250000  0.679299  0.556507  1
  Ho  Ho1  1  0.750000  0.320701  0.443493  1
  Ho  Ho2  1  0.750000  0.822110  0.057630  1
  Ho  Ho3  1  0.250000  0.177890  0.942370  1
  Ho  Ho4  1  0.250000  0.537486  0.218782  1
  Ho  Ho5  1  0.750000  0.462514  0.781218  1
  Ho  Ho6  1  0.750000  0.969979  0.717702  1
  Ho  Ho7  1  0.250000  0.030021  0.282298  1
  Os  Os8  1  0.750000  0.777698  0.366513  1
  Os  Os9  1  0.250000  0.222302  0.633487  1
  W  W10  1  0.250000  0.717637  0.867736  1
  W  W11  1  0.750000  0.282363  0.132264  1
  C  C12  1  0.250000  0.451885  0.758250  1
  C  C13  1  0.750000  0.548115  0.241750  1
  C  C14  1  0.750000  0.044556  0.260094  1
  C  C15  1  0.250000  0.955444  0.739906  1
  C  C16  1  0.250000  0.825026  0.053961  1
  C  C17  1  0.750000  0.174974  0.946039  1
  C  C18  1  0.750000  0.676531  0.549658  1
  C  C19  1  0.250000  0.323469  0.450342  1
