# generated using pymatgen
data_ErTm7Ti11NbSi16
_symmetry_space_group_name_H-M   'P 1'
_cell_length_a   7.00851878
_cell_length_b   7.00906336
_cell_length_c   12.87561126
_cell_angle_alpha   89.94244865
_cell_angle_beta   90.04470216
_cell_angle_gamma   89.99774370
_symmetry_Int_Tables_number   1
_chemical_formula_structural   ErTm7Ti11NbSi16
_chemical_formula_sum   'Er1 Tm7 Ti11 Nb1 Si16'
_cell_volume   632.49009957
_cell_formula_units_Z   1
loop_
 _symmetry_equiv_pos_site_id
 _symmetry_equiv_pos_as_xyz
  1  'x, y, z'
loop_
 _atom_site_type_symbol
 _atom_site_label
 _atom_site_symmetry_multiplicity
 _atom_site_fract_x
 _atom_site_fract_y
 _atom_site_fract_z
 _atom_site_occupancy
  Er  Er0  1  0.998033  0.658662  0.033360  1
  Tm  Tm1  1  0.340952  0.002193  0.466810  1
  Tm  Tm2  1  0.497996  0.840318  0.716770  1
  Tm  Tm3  1  0.501491  0.158585  0.216497  1
  Tm  Tm4  1  0.840261  0.497903  0.283312  1
  Tm  Tm5  1  0.158644  0.501417  0.783393  1
  Tm  Tm6  1  0.658073  0.998643  0.966547  1
  Tm  Tm7  1  0.002191  0.340916  0.533233  1
  Ti  Ti8  1  0.173338  0.826994  0.250288  1
  Ti  Ti9  1  0.826904  0.173293  0.749764  1
  Ti  Ti10  1  0.673011  0.673036  0.500001  1
  Ti  Ti11  1  0.152396  0.008345  0.875770  1
  Ti  Ti12  1  0.492266  0.650432  0.125027  1
  Ti  Ti13  1  0.507512  0.349249  0.625414  1
  Ti  Ti14  1  0.650365  0.492120  0.874935  1
  Ti  Ti15  1  0.349339  0.507464  0.374629  1
  Ti  Ti16  1  0.848535  0.992852  0.375678  1
  Ti  Ti17  1  0.008282  0.152519  0.124174  1
  Ti  Ti18  1  0.992790  0.848600  0.624348  1
  Nb  Nb19  1  0.327148  0.326718  0.999974  1
  Si  Si20  1  0.202722  0.131453  0.683059  1
  Si  Si21  1  0.368880  0.704135  0.932799  1
  Si  Si22  1  0.631821  0.297166  0.433374  1
  Si  Si23  1  0.703755  0.368081  0.067088  1
  Si  Si24  1  0.297186  0.631830  0.566622  1
  Si  Si25  1  0.796930  0.868727  0.183812  1
  Si  Si26  1  0.131469  0.202736  0.316947  1
  Si  Si27  1  0.868363  0.797359  0.816315  1
  Si  Si28  1  0.292110  0.952124  0.065069  1
  Si  Si29  1  0.546691  0.792219  0.314743  1
  Si  Si30  1  0.454511  0.207032  0.813153  1
  Si  Si31  1  0.792193  0.546665  0.685250  1
  Si  Si32  1  0.207308  0.454147  0.187054  1
  Si  Si33  1  0.708206  0.046587  0.564612  1
  Si  Si34  1  0.951730  0.291282  0.934793  1
  Si  Si35  1  0.046603  0.708200  0.435388  1
