# generated using pymatgen
data_Zr2Sc6Ta3Nb9Si15As
_symmetry_space_group_name_H-M   'P 1'
_cell_length_a   6.72341162
_cell_length_b   6.90954120
_cell_length_c   13.16453300
_cell_angle_alpha   89.95579391
_cell_angle_beta   90.20159286
_cell_angle_gamma   90.07657664
_symmetry_Int_Tables_number   1
_chemical_formula_structural   Zr2Sc6Ta3Nb9Si15As
_chemical_formula_sum   'Zr2 Sc6 Ta3 Nb9 Si15 As1'
_cell_volume   611.56294711
_cell_formula_units_Z   1
loop_
 _symmetry_equiv_pos_site_id
 _symmetry_equiv_pos_as_xyz
  1  'x, y, z'
loop_
 _atom_site_type_symbol
 _atom_site_label
 _atom_site_symmetry_multiplicity
 _atom_site_fract_x
 _atom_site_fract_y
 _atom_site_fract_z
 _atom_site_occupancy
  Zr  Zr0  1  0.498015  0.675291  0.596050  1
  Zr  Zr1  1  0.000674  0.824959  0.904034  1
  Sc  Sc2  1  0.499347  0.325917  0.094691  1
  Sc  Sc3  1  0.005000  0.177131  0.403482  1
  Sc  Sc4  1  0.499202  0.326098  0.405044  1
  Sc  Sc5  1  0.999628  0.173578  0.094551  1
  Sc  Sc6  1  0.499254  0.674817  0.905603  1
  Sc  Sc7  1  0.997623  0.822745  0.596525  1
  Ta  Ta8  1  0.837398  0.495045  0.750636  1
  Ta  Ta9  1  0.337547  0.005012  0.748897  1
  Ta  Ta10  1  0.162881  0.505943  0.250072  1
  Nb  Nb11  1  0.660160  0.173349  0.624870  1
  Nb  Nb12  1  0.163091  0.326682  0.875931  1
  Nb  Nb13  1  0.336281  0.827077  0.124371  1
  Nb  Nb14  1  0.839009  0.669127  0.374867  1
  Nb  Nb15  1  0.337944  0.827336  0.376622  1
  Nb  Nb16  1  0.836528  0.673581  0.124041  1
  Nb  Nb17  1  0.664837  0.171912  0.875104  1
  Nb  Nb18  1  0.163443  0.329522  0.625139  1
  Nb  Nb19  1  0.662798  0.994082  0.248941  1
  Si  Si20  1  0.168065  0.532214  0.040103  1
  Si  Si21  1  0.332685  0.034117  0.960492  1
  Si  Si22  1  0.831322  0.465097  0.539739  1
  Si  Si23  1  0.318630  0.036254  0.540655  1
  Si  Si24  1  0.830974  0.465720  0.960631  1
  Si  Si25  1  0.668776  0.967222  0.039543  1
  Si  Si26  1  0.170433  0.533652  0.460324  1
  Si  Si27  1  0.459923  0.386241  0.751222  1
  Si  Si28  1  0.959476  0.114430  0.749317  1
  Si  Si29  1  0.539595  0.612947  0.249664  1
  Si  Si30  1  0.041230  0.885145  0.249997  1
  Si  Si31  1  0.703662  0.861881  0.750766  1
  Si  Si32  1  0.204554  0.637520  0.750835  1
  Si  Si33  1  0.295375  0.139453  0.249129  1
  Si  Si34  1  0.795891  0.361380  0.248972  1
  As  As35  1  0.678748  0.967529  0.459138  1
