# generated using pymatgen
data_Eu2Zn17InCu4
_symmetry_space_group_name_H-M   'P 1'
_cell_length_a   8.29750374
_cell_length_b   8.29750400
_cell_length_c   8.29750336
_cell_angle_alpha   99.64200023
_cell_angle_beta   99.64200364
_cell_angle_gamma   131.68363240
_symmetry_Int_Tables_number   1
_chemical_formula_structural   Eu2Zn17InCu4
_chemical_formula_sum   'Eu2 Zn17 In1 Cu4'
_cell_volume   389.27578991
_cell_formula_units_Z   1
loop_
 _symmetry_equiv_pos_site_id
 _symmetry_equiv_pos_as_xyz
  1  'x, y, z'
loop_
 _atom_site_type_symbol
 _atom_site_label
 _atom_site_symmetry_multiplicity
 _atom_site_fract_x
 _atom_site_fract_y
 _atom_site_fract_z
 _atom_site_occupancy
  Eu  Eu0  1  0.000000  0.000000  0.000000  1
  Eu  Eu1  1  0.250000  0.750000  0.500000  1
  Zn  Zn2  1  0.500000  0.500000  0.000000  1
  Zn  Zn3  1  0.187985  0.513771  0.082226  1
  Zn  Zn4  1  0.187985  0.105760  0.674215  1
  Zn  Zn5  1  0.764191  0.933225  0.584137  1
  Zn  Zn6  1  0.764191  0.180054  0.830965  1
  Zn  Zn7  1  0.431546  0.513771  0.325785  1
  Zn  Zn8  1  0.431546  0.105760  0.917774  1
  Zn  Zn9  1  0.349087  0.933225  0.169035  1
  Zn  Zn10  1  0.349087  0.180054  0.415863  1
  Zn  Zn11  1  0.066775  0.235809  0.415863  1
  Zn  Zn12  1  0.066775  0.650913  0.830965  1
  Zn  Zn13  1  0.486229  0.812015  0.917774  1
  Zn  Zn14  1  0.486229  0.568454  0.674215  1
  Zn  Zn15  1  0.819946  0.235809  0.169035  1
  Zn  Zn16  1  0.819946  0.650913  0.584137  1
  Zn  Zn17  1  0.894240  0.812015  0.325785  1
  Zn  Zn18  1  0.894240  0.568454  0.082226  1
  In  In19  1  0.750000  0.250000  0.500000  1
  Cu  Cu20  1  0.128992  0.375353  0.753638  1
  Cu  Cu21  1  0.624647  0.871008  0.246362  1
  Cu  Cu22  1  0.624647  0.378285  0.753638  1
  Cu  Cu23  1  0.621715  0.375353  0.246362  1
