# generated using pymatgen
data_Np4Fe(Si2Pt)5
_symmetry_space_group_name_H-M   'P 1'
_cell_length_a   8.16394096
_cell_length_b   8.16394138
_cell_length_c   8.16394128
_cell_angle_alpha   137.16109570
_cell_angle_beta   104.62089558
_cell_angle_gamma   90.81989940
_symmetry_Int_Tables_number   1
_chemical_formula_structural   Np4Fe(Si2Pt)5
_chemical_formula_sum   'Np4 Fe1 Si10 Pt5'
_cell_volume   341.15391129
_cell_formula_units_Z   1
loop_
 _symmetry_equiv_pos_site_id
 _symmetry_equiv_pos_as_xyz
  1  'x, y, z'
loop_
 _atom_site_type_symbol
 _atom_site_label
 _atom_site_symmetry_multiplicity
 _atom_site_fract_x
 _atom_site_fract_y
 _atom_site_fract_z
 _atom_site_occupancy
  Np  Np0  1  0.101269  0.870640  0.233240  1
  Np  Np1  1  0.898731  0.131971  0.769371  1
  Np  Np2  1  0.637400  0.368029  0.266760  1
  Np  Np3  1  0.362600  0.629360  0.730629  1
  Fe  Fe4  1  0.500000  0.750000  0.250000  1
  Si  Si5  1  0.000000  0.750000  0.750000  1
  Si  Si6  1  0.000000  0.250000  0.250000  1
  Si  Si7  1  0.274250  0.024250  0.750000  1
  Si  Si8  1  0.725750  0.475750  0.750000  1
  Si  Si9  1  0.721279  0.971279  0.250000  1
  Si  Si10  1  0.278721  0.528721  0.250000  1
  Si  Si11  1  0.753927  0.620238  0.164354  1
  Si  Si12  1  0.246073  0.410426  0.866311  1
  Si  Si13  1  0.455886  0.089574  0.335646  1
  Si  Si14  1  0.544114  0.879762  0.633689  1
  Pt  Pt15  1  0.500000  0.250000  0.750000  1
  Pt  Pt16  1  0.025628  0.636924  0.385796  1
  Pt  Pt17  1  0.974372  0.360168  0.611296  1
  Pt  Pt18  1  0.251128  0.139832  0.114204  1
  Pt  Pt19  1  0.748872  0.863076  0.888704  1
