# generated using pymatgen
data_Ho16Er3MgIr12
_symmetry_space_group_name_H-M   'P 1'
_cell_length_a   10.80417300
_cell_length_b   10.80417300
_cell_length_c   6.29217100
_cell_angle_alpha   90.00000000
_cell_angle_beta   90.00000000
_cell_angle_gamma   90.00000000
_symmetry_Int_Tables_number   1
_chemical_formula_structural   Ho16Er3MgIr12
_chemical_formula_sum   'Ho16 Er3 Mg1 Ir12'
_cell_volume   734.48609117
_cell_formula_units_Z   1
loop_
 _symmetry_equiv_pos_site_id
 _symmetry_equiv_pos_as_xyz
  1  'x, y, z'
loop_
 _atom_site_type_symbol
 _atom_site_label
 _atom_site_symmetry_multiplicity
 _atom_site_fract_x
 _atom_site_fract_y
 _atom_site_fract_z
 _atom_site_occupancy
  Ho  Ho0  1  0.284960  0.085021  0.378398  1
  Ho  Ho1  1  0.290304  0.911961  0.878943  1
  Ho  Ho2  1  0.709696  0.088039  0.878943  1
  Ho  Ho3  1  0.715040  0.914979  0.378398  1
  Ho  Ho4  1  0.588650  0.791617  0.878784  1
  Ho  Ho5  1  0.587992  0.208216  0.377190  1
  Ho  Ho6  1  0.412008  0.791784  0.377190  1
  Ho  Ho7  1  0.411350  0.208383  0.878784  1
  Ho  Ho8  1  0.208216  0.412008  0.622810  1
  Ho  Ho9  1  0.208383  0.588650  0.121216  1
  Ho  Ho10  1  0.791617  0.411350  0.121216  1
  Ho  Ho11  1  0.791784  0.587992  0.622810  1
  Ho  Ho12  1  0.911961  0.709696  0.121057  1
  Ho  Ho13  1  0.914979  0.284960  0.621602  1
  Ho  Ho14  1  0.085021  0.715040  0.621602  1
  Ho  Ho15  1  0.088039  0.290304  0.121057  1
  Er  Er16  1  0.000000  0.000000  0.000000  1
  Er  Er17  1  0.500000  0.500000  0.000000  1
  Er  Er18  1  0.500000  0.500000  0.500000  1
  Mg  Mg19  1  0.000000  0.000000  0.500000  1
  Ir  Ir20  1  0.846357  0.153963  0.248111  1
  Ir  Ir21  1  0.846037  0.846357  0.751889  1
  Ir  Ir22  1  0.153963  0.153643  0.751889  1
  Ir  Ir23  1  0.153643  0.846037  0.248111  1
  Ir  Ir24  1  0.654130  0.346393  0.748479  1
  Ir  Ir25  1  0.653607  0.654130  0.251521  1
  Ir  Ir26  1  0.346393  0.345870  0.251521  1
  Ir  Ir27  1  0.345870  0.653607  0.748479  1
  Ir  Ir28  1  0.500000  0.000000  0.123467  1
  Ir  Ir29  1  0.500000  0.000000  0.620528  1
  Ir  Ir30  1  0.000000  0.500000  0.876533  1
  Ir  Ir31  1  0.000000  0.500000  0.379472  1
