# generated using pymatgen
data_Dy3Y6Er(CoBi2)2
_symmetry_space_group_name_H-M   'P 1'
_cell_length_a   8.02087329
_cell_length_b   8.84748890
_cell_length_c   12.44068520
_cell_angle_alpha   89.96079969
_cell_angle_beta   90.05574269
_cell_angle_gamma   89.96644557
_symmetry_Int_Tables_number   1
_chemical_formula_structural   Dy3Y6Er(CoBi2)2
_chemical_formula_sum   'Dy6 Y12 Er2 Co4 Bi8'
_cell_volume   882.84731616
_cell_formula_units_Z   2
loop_
 _symmetry_equiv_pos_site_id
 _symmetry_equiv_pos_as_xyz
  1  'x, y, z'
loop_
 _atom_site_type_symbol
 _atom_site_label
 _atom_site_symmetry_multiplicity
 _atom_site_fract_x
 _atom_site_fract_y
 _atom_site_fract_z
 _atom_site_occupancy
  Dy  Dy0  1  0.175054  0.964988  0.936513  1
  Dy  Dy1  1  0.325044  0.534963  0.436600  1
  Dy  Dy2  1  0.824946  0.035012  0.063487  1
  Dy  Dy3  1  0.674956  0.465037  0.563400  1
  Dy  Dy4  1  0.824919  0.464986  0.063462  1
  Dy  Dy5  1  0.175081  0.535014  0.936538  1
  Y  Y6  1  0.846491  0.750078  0.800537  1
  Y  Y7  1  0.153509  0.249922  0.199463  1
  Y  Y8  1  0.346947  0.249784  0.699096  1
  Y  Y9  1  0.653053  0.750216  0.300904  1
  Y  Y10  1  0.378359  0.750432  0.689323  1
  Y  Y11  1  0.621641  0.249568  0.310677  1
  Y  Y12  1  0.878090  0.250007  0.810167  1
  Y  Y13  1  0.121910  0.749993  0.189833  1
  Y  Y14  1  0.952797  0.750354  0.502337  1
  Y  Y15  1  0.047203  0.249646  0.497663  1
  Y  Y16  1  0.453014  0.249978  0.997704  1
  Y  Y17  1  0.546986  0.750022  0.002296  1
  Er  Er18  1  0.673336  0.035061  0.563115  1
  Er  Er19  1  0.326664  0.964939  0.436885  1
  Co  Co20  1  0.560369  0.750815  0.507977  1
  Co  Co21  1  0.439631  0.249185  0.492023  1
  Co  Co22  1  0.060722  0.250004  0.991806  1
  Co  Co23  1  0.939278  0.749996  0.008194  1
  Bi  Bi24  1  0.569299  0.492342  0.825955  1
  Bi  Bi25  1  0.430701  0.507658  0.174045  1
  Bi  Bi26  1  0.069301  0.507690  0.673999  1
  Bi  Bi27  1  0.430550  0.992320  0.174198  1
  Bi  Bi28  1  0.930699  0.492310  0.326001  1
  Bi  Bi29  1  0.569450  0.007680  0.825802  1
  Bi  Bi30  1  0.931346  0.007625  0.326136  1
  Bi  Bi31  1  0.068654  0.992375  0.673864  1
