# generated using pymatgen
data_Ti6Br11
_symmetry_space_group_name_H-M   'P 1'
_cell_length_a   10.76539900
_cell_length_b   12.75891700
_cell_length_c   15.03053000
_cell_angle_alpha   90.00000000
_cell_angle_beta   90.00000000
_cell_angle_gamma   90.00000000
_symmetry_Int_Tables_number   1
_chemical_formula_structural   Ti6Br11
_chemical_formula_sum   'Ti24 Br44'
_cell_volume   2064.51592772
_cell_formula_units_Z   4
loop_
 _symmetry_equiv_pos_site_id
 _symmetry_equiv_pos_as_xyz
  1  'x, y, z'
loop_
 _atom_site_type_symbol
 _atom_site_label
 _atom_site_symmetry_multiplicity
 _atom_site_fract_x
 _atom_site_fract_y
 _atom_site_fract_z
 _atom_site_occupancy
  Ti  Ti0  1  0.605766  0.978047  0.113151  1
  Ti  Ti1  1  0.105766  0.521953  0.886849  1
  Ti  Ti2  1  0.105766  0.021953  0.613151  1
  Ti  Ti3  1  0.605766  0.478047  0.386849  1
  Ti  Ti4  1  0.394234  0.021953  0.886849  1
  Ti  Ti5  1  0.894234  0.478047  0.113151  1
  Ti  Ti6  1  0.894234  0.978047  0.386849  1
  Ti  Ti7  1  0.394234  0.521953  0.613151  1
  Ti  Ti8  1  0.639533  0.091404  0.947146  1
  Ti  Ti9  1  0.139533  0.408596  0.052854  1
  Ti  Ti10  1  0.139533  0.908596  0.447146  1
  Ti  Ti11  1  0.639533  0.591404  0.552854  1
  Ti  Ti12  1  0.360467  0.908596  0.052854  1
  Ti  Ti13  1  0.860467  0.591404  0.947146  1
  Ti  Ti14  1  0.860467  0.091404  0.552854  1
  Ti  Ti15  1  0.360467  0.408596  0.447146  1
  Ti  Ti16  1  0.419268  0.131305  0.054460  1
  Ti  Ti17  1  0.919268  0.368695  0.945540  1
  Ti  Ti18  1  0.919268  0.868695  0.554460  1
  Ti  Ti19  1  0.419268  0.631305  0.445540  1
  Ti  Ti20  1  0.580732  0.868695  0.945540  1
  Ti  Ti21  1  0.080732  0.631305  0.054460  1
  Ti  Ti22  1  0.080732  0.131305  0.445540  1
  Ti  Ti23  1  0.580732  0.368695  0.554460  1
  Br  Br24  1  0.645408  0.180962  0.106552  1
  Br  Br25  1  0.145408  0.319038  0.893448  1
  Br  Br26  1  0.145408  0.819038  0.606552  1
  Br  Br27  1  0.645408  0.680962  0.393448  1
  Br  Br28  1  0.354592  0.819038  0.893448  1
  Br  Br29  1  0.854592  0.680962  0.106552  1
  Br  Br30  1  0.854592  0.180962  0.393448  1
  Br  Br31  1  0.354592  0.319038  0.606552  1
  Br  Br32  1  0.536815  0.778639  0.101810  1
  Br  Br33  1  0.036815  0.721361  0.898190  1
  Br  Br34  1  0.036815  0.221361  0.601810  1
  Br  Br35  1  0.536815  0.278639  0.398190  1
  Br  Br36  1  0.463185  0.221361  0.898190  1
  Br  Br37  1  0.963185  0.278639  0.101810  1
  Br  Br38  1  0.963185  0.778639  0.398190  1
  Br  Br39  1  0.463185  0.721361  0.601810  1
  Br  Br40  1  0.400270  0.017506  0.200771  1
  Br  Br41  1  0.900270  0.482494  0.799229  1
  Br  Br42  1  0.900270  0.982494  0.700771  1
  Br  Br43  1  0.400270  0.517506  0.299229  1
  Br  Br44  1  0.599730  0.982494  0.799229  1
  Br  Br45  1  0.099730  0.517506  0.200771  1
  Br  Br46  1  0.099730  0.017506  0.299229  1
  Br  Br47  1  0.599730  0.482494  0.700771  1
  Br  Br48  1  0.794270  0.945461  0.002806  1
  Br  Br49  1  0.294270  0.554539  0.997194  1
  Br  Br50  1  0.294270  0.054539  0.502806  1
  Br  Br51  1  0.794270  0.445461  0.497194  1
  Br  Br52  1  0.205730  0.054539  0.997194  1
  Br  Br53  1  0.705730  0.445461  0.002806  1
  Br  Br54  1  0.705730  0.945461  0.497194  1
  Br  Br55  1  0.205730  0.554539  0.502806  1
  Br  Br56  1  0.321051  0.299676  0.125016  1
  Br  Br57  1  0.821051  0.200324  0.874984  1
  Br  Br58  1  0.821051  0.700324  0.625016  1
  Br  Br59  1  0.321051  0.799676  0.374984  1
  Br  Br60  1  0.678949  0.700324  0.874984  1
  Br  Br61  1  0.178949  0.799676  0.125016  1
  Br  Br62  1  0.178949  0.299676  0.374984  1
  Br  Br63  1  0.678949  0.200324  0.625016  1
  Br  Br64  1  0.750000  0.938464  0.250000  1
  Br  Br65  1  0.250000  0.561536  0.750000  1
  Br  Br66  1  0.250000  0.061536  0.750000  1
  Br  Br67  1  0.750000  0.438464  0.250000  1
