# generated using pymatgen
data_Ho10IrOs2Ru
_symmetry_space_group_name_H-M   'P 1'
_cell_length_a   6.37582328
_cell_length_b   7.31369461
_cell_length_c   8.39803169
_cell_angle_alpha   96.70186913
_cell_angle_beta   112.23830857
_cell_angle_gamma   90.07486028
_symmetry_Int_Tables_number   1
_chemical_formula_structural   Ho10IrOs2Ru
_chemical_formula_sum   'Ho10 Ir1 Os2 Ru1'
_cell_volume   359.56093156
_cell_formula_units_Z   1
loop_
 _symmetry_equiv_pos_site_id
 _symmetry_equiv_pos_as_xyz
  1  'x, y, z'
loop_
 _atom_site_type_symbol
 _atom_site_label
 _atom_site_symmetry_multiplicity
 _atom_site_fract_x
 _atom_site_fract_y
 _atom_site_fract_z
 _atom_site_occupancy
  Ho  Ho0  1  0.971848  0.915531  0.180563  1
  Ho  Ho1  1  0.792587  0.583189  0.817833  1
  Ho  Ho2  1  0.023870  0.085025  0.814581  1
  Ho  Ho3  1  0.208829  0.418465  0.184214  1
  Ho  Ho4  1  0.650422  0.816551  0.439082  1
  Ho  Ho5  1  0.210575  0.683041  0.562836  1
  Ho  Ho6  1  0.351863  0.181381  0.563497  1
  Ho  Ho7  1  0.791019  0.317968  0.437143  1
  Ho  Ho8  1  0.422849  0.748693  0.999329  1
  Ho  Ho9  1  0.577432  0.250278  0.999533  1
  Ir  Ir10  1  0.395135  0.076057  0.220876  1
  Os  Os11  1  0.823117  0.575079  0.218283  1
  Os  Os12  1  0.607039  0.924911  0.781811  1
  Ru  Ru13  1  0.173415  0.423833  0.780419  1
