# generated using pymatgen
data_CeY(Al4Ni)2
_symmetry_space_group_name_H-M   'P 1'
_cell_length_a   8.04818067
_cell_length_b   8.04817937
_cell_length_c   6.62695300
_cell_angle_alpha   90.00000000
_cell_angle_beta   90.00000000
_cell_angle_gamma   150.54968298
_symmetry_Int_Tables_number   1
_chemical_formula_structural   CeY(Al4Ni)2
_chemical_formula_sum   'Ce1 Y1 Al8 Ni2'
_cell_volume   211.04826355
_cell_formula_units_Z   1
loop_
 _symmetry_equiv_pos_site_id
 _symmetry_equiv_pos_as_xyz
  1  'x, y, z'
loop_
 _atom_site_type_symbol
 _atom_site_label
 _atom_site_symmetry_multiplicity
 _atom_site_fract_x
 _atom_site_fract_y
 _atom_site_fract_z
 _atom_site_occupancy
  Ce  Ce0  1  0.885380  0.114620  0.250000  1
  Y  Y1  1  0.114175  0.885825  0.750000  1
  Al  Al2  1  0.310550  0.689450  0.554189  1
  Al  Al3  1  0.689104  0.310896  0.448880  1
  Al  Al4  1  0.689104  0.310896  0.051120  1
  Al  Al5  1  0.310550  0.689450  0.945811  1
  Al  Al6  1  0.499726  0.500274  0.999728  1
  Al  Al7  1  0.499726  0.500274  0.500272  1
  Al  Al8  1  0.923317  0.076683  0.750000  1
  Al  Al9  1  0.077256  0.922744  0.250000  1
  Ni  Ni10  1  0.226554  0.773446  0.250000  1
  Ni  Ni11  1  0.774556  0.225444  0.750000  1
