# generated using pymatgen
data_Yb8Si16(TcMo3)3
_symmetry_space_group_name_H-M   'P 1'
_cell_length_a   6.70167841
_cell_length_b   6.89806553
_cell_length_c   12.96518300
_cell_angle_alpha   90.00000000
_cell_angle_beta   90.00000000
_cell_angle_gamma   90.03536404
_symmetry_Int_Tables_number   1
_chemical_formula_structural   Yb8Si16(TcMo3)3
_chemical_formula_sum   'Yb8 Si16 Tc3 Mo9'
_cell_volume   599.36236262
_cell_formula_units_Z   1
loop_
 _symmetry_equiv_pos_site_id
 _symmetry_equiv_pos_as_xyz
  1  'x, y, z'
loop_
 _atom_site_type_symbol
 _atom_site_label
 _atom_site_symmetry_multiplicity
 _atom_site_fract_x
 _atom_site_fract_y
 _atom_site_fract_z
 _atom_site_occupancy
  Yb  Yb0  1  0.497864  0.334432  0.090173  1
  Yb  Yb1  1  0.997239  0.166248  0.409844  1
  Yb  Yb2  1  0.503239  0.664933  0.590671  1
  Yb  Yb3  1  0.002890  0.835783  0.909682  1
  Yb  Yb4  1  0.503239  0.664933  0.909329  1
  Yb  Yb5  1  0.002890  0.835783  0.590318  1
  Yb  Yb6  1  0.497864  0.334432  0.409827  1
  Yb  Yb7  1  0.997239  0.166248  0.090156  1
  Si  Si8  1  0.657133  0.043251  0.547332  1
  Si  Si9  1  0.156879  0.456685  0.952023  1
  Si  Si10  1  0.341942  0.955207  0.046489  1
  Si  Si11  1  0.842432  0.543565  0.455032  1
  Si  Si12  1  0.341942  0.955207  0.453511  1
  Si  Si13  1  0.842432  0.543565  0.044968  1
  Si  Si14  1  0.657133  0.043251  0.952668  1
  Si  Si15  1  0.156879  0.456685  0.547977  1
  Si  Si16  1  0.531368  0.367410  0.750000  1
  Si  Si17  1  0.032010  0.132453  0.750000  1
  Si  Si18  1  0.465197  0.630792  0.250000  1
  Si  Si19  1  0.970058  0.873738  0.250000  1
  Si  Si20  1  0.805704  0.632587  0.750000  1
  Si  Si21  1  0.304796  0.867831  0.750000  1
  Si  Si22  1  0.198925  0.366123  0.250000  1
  Si  Si23  1  0.695609  0.130430  0.250000  1
  Tc  Tc24  1  0.663590  0.002256  0.750000  1
  Tc  Tc25  1  0.164292  0.498055  0.750000  1
  Tc  Tc26  1  0.336632  0.994485  0.250000  1
  Mo  Mo27  1  0.831122  0.333175  0.627923  1
  Mo  Mo28  1  0.331153  0.166335  0.872850  1
  Mo  Mo29  1  0.166986  0.666438  0.127242  1
  Mo  Mo30  1  0.667650  0.831937  0.372858  1
  Mo  Mo31  1  0.166986  0.666438  0.372758  1
  Mo  Mo32  1  0.667650  0.831937  0.127142  1
  Mo  Mo33  1  0.831122  0.333175  0.872077  1
  Mo  Mo34  1  0.331153  0.166335  0.627150  1
  Mo  Mo35  1  0.838765  0.507856  0.250000  1
