# generated using pymatgen
data_CaYb7Zr2N8
_symmetry_space_group_name_H-M   'P 1'
_cell_length_a   6.09110508
_cell_length_b   6.10044938
_cell_length_c   9.24435835
_cell_angle_alpha   71.17411176
_cell_angle_beta   81.12198000
_cell_angle_gamma   68.27252956
_symmetry_Int_Tables_number   1
_chemical_formula_structural   CaYb7Zr2N8
_chemical_formula_sum   'Ca1 Yb7 Zr2 N8'
_cell_volume   301.79348192
_cell_formula_units_Z   1
loop_
 _symmetry_equiv_pos_site_id
 _symmetry_equiv_pos_as_xyz
  1  'x, y, z'
loop_
 _atom_site_type_symbol
 _atom_site_label
 _atom_site_symmetry_multiplicity
 _atom_site_fract_x
 _atom_site_fract_y
 _atom_site_fract_z
 _atom_site_occupancy
  Ca  Ca0  1  0.242438  0.759044  0.009050  1
  Yb  Yb1  1  0.246063  0.944859  0.595062  1
  Yb  Yb2  1  0.735878  0.608149  0.196214  1
  Yb  Yb3  1  0.751877  0.247625  0.990994  1
  Yb  Yb4  1  0.266504  0.520592  0.427795  1
  Yb  Yb5  1  0.756769  0.052461  0.404024  1
  Yb  Yb6  1  0.267739  0.387749  0.803605  1
  Yb  Yb7  1  0.736325  0.476428  0.572806  1
  Zr  Zr8  1  0.718229  0.844406  0.764761  1
  Zr  Zr9  1  0.283047  0.154491  0.235170  1
  N  N10  1  0.988891  0.697417  0.613865  1
  N  N11  1  0.512620  0.186177  0.616931  1
  N  N12  1  0.014236  0.300164  0.387070  1
  N  N13  1  0.507826  0.622756  0.800446  1
  N  N14  1  0.146844  0.156209  0.042288  1
  N  N15  1  0.489778  0.811439  0.381860  1
  N  N16  1  0.493637  0.375612  0.199250  1
  N  N17  1  0.841300  0.854421  0.958807  1
