# generated using pymatgen
data_YLu2NiRh8
_symmetry_space_group_name_H-M   'P 1'
_cell_length_a   5.23645200
_cell_length_b   5.23645334
_cell_length_c   17.24607700
_cell_angle_alpha   90.00000000
_cell_angle_beta   90.00000000
_cell_angle_gamma   119.99999156
_symmetry_Int_Tables_number   1
_chemical_formula_structural   YLu2NiRh8
_chemical_formula_sum   'Y2 Lu4 Ni2 Rh16'
_cell_volume   409.53908349
_cell_formula_units_Z   2
loop_
 _symmetry_equiv_pos_site_id
 _symmetry_equiv_pos_as_xyz
  1  'x, y, z'
loop_
 _atom_site_type_symbol
 _atom_site_label
 _atom_site_symmetry_multiplicity
 _atom_site_fract_x
 _atom_site_fract_y
 _atom_site_fract_z
 _atom_site_occupancy
  Y  Y0  1  0.333333  0.666667  0.750000  1
  Y  Y1  1  0.666667  0.333333  0.250000  1
  Lu  Lu2  1  0.333333  0.666667  0.958207  1
  Lu  Lu3  1  0.666667  0.333333  0.041793  1
  Lu  Lu4  1  0.666667  0.333333  0.458207  1
  Lu  Lu5  1  0.333333  0.666667  0.541793  1
  Ni  Ni6  1  0.333333  0.666667  0.250000  1
  Ni  Ni7  1  0.666667  0.333333  0.750000  1
  Rh  Rh8  1  0.169052  0.830948  0.373870  1
  Rh  Rh9  1  0.169052  0.338105  0.373870  1
  Rh  Rh10  1  0.661895  0.830948  0.373870  1
  Rh  Rh11  1  0.830948  0.169052  0.626130  1
  Rh  Rh12  1  0.830948  0.661895  0.626130  1
  Rh  Rh13  1  0.338105  0.169052  0.626130  1
  Rh  Rh14  1  0.830948  0.169052  0.873870  1
  Rh  Rh15  1  0.830948  0.661895  0.873870  1
  Rh  Rh16  1  0.338105  0.169052  0.873870  1
  Rh  Rh17  1  0.169052  0.830948  0.126130  1
  Rh  Rh18  1  0.169052  0.338105  0.126130  1
  Rh  Rh19  1  0.661895  0.830948  0.126130  1
  Rh  Rh20  1  0.000000  0.000000  0.250000  1
  Rh  Rh21  1  0.000000  0.000000  0.750000  1
  Rh  Rh22  1  0.000000  0.000000  0.500000  1
  Rh  Rh23  1  0.000000  0.000000  0.000000  1
