# generated using pymatgen
data_Tb6Ho10Cd4NiIr3
_symmetry_space_group_name_H-M   'P 1'
_cell_length_a   9.58829638
_cell_length_b   9.58829611
_cell_length_c   9.58829660
_cell_angle_alpha   60.29087657
_cell_angle_beta   60.29088529
_cell_angle_gamma   60.29088173
_symmetry_Int_Tables_number   1
_chemical_formula_structural   Tb6Ho10Cd4NiIr3
_chemical_formula_sum   'Tb6 Ho10 Cd4 Ni1 Ir3'
_cell_volume   627.42071781
_cell_formula_units_Z   1
loop_
 _symmetry_equiv_pos_site_id
 _symmetry_equiv_pos_as_xyz
  1  'x, y, z'
loop_
 _atom_site_type_symbol
 _atom_site_label
 _atom_site_symmetry_multiplicity
 _atom_site_fract_x
 _atom_site_fract_y
 _atom_site_fract_z
 _atom_site_occupancy
  Tb  Tb0  1  0.188836  0.811547  0.811547  1
  Tb  Tb1  1  0.813700  0.187654  0.187654  1
  Tb  Tb2  1  0.811547  0.188836  0.811547  1
  Tb  Tb3  1  0.187654  0.813700  0.187654  1
  Tb  Tb4  1  0.811547  0.811547  0.188836  1
  Tb  Tb5  1  0.187654  0.187654  0.813700  1
  Ho  Ho6  1  0.598470  0.598470  0.598470  1
  Ho  Ho7  1  0.597930  0.597930  0.204031  1
  Ho  Ho8  1  0.597930  0.204031  0.597930  1
  Ho  Ho9  1  0.204031  0.597930  0.597930  1
  Ho  Ho10  1  0.061976  0.439200  0.439200  1
  Ho  Ho11  1  0.437555  0.060884  0.060884  1
  Ho  Ho12  1  0.439200  0.061976  0.439200  1
  Ho  Ho13  1  0.060884  0.437555  0.060884  1
  Ho  Ho14  1  0.439200  0.439200  0.061976  1
  Ho  Ho15  1  0.060884  0.060884  0.437555  1
  Cd  Cd16  1  0.830299  0.830299  0.830299  1
  Cd  Cd17  1  0.831131  0.831131  0.507247  1
  Cd  Cd18  1  0.831131  0.507247  0.831131  1
  Cd  Cd19  1  0.507247  0.831131  0.831131  1
  Ni  Ni20  1  0.391956  0.391956  0.391956  1
  Ir  Ir21  1  0.392294  0.392294  0.824653  1
  Ir  Ir22  1  0.392294  0.824653  0.392294  1
  Ir  Ir23  1  0.824653  0.392294  0.392294  1
