# generated using pymatgen
data_Tb4Zn8Cd3Ag
_symmetry_space_group_name_H-M   'P 1'
_cell_length_a   4.41394400
_cell_length_b   7.23113033
_cell_length_c   10.09031492
_cell_angle_alpha   90.02620127
_cell_angle_beta   90.00000000
_cell_angle_gamma   90.00000000
_symmetry_Int_Tables_number   1
_chemical_formula_structural   Tb4Zn8Cd3Ag
_chemical_formula_sum   'Tb4 Zn8 Cd3 Ag1'
_cell_volume   322.06066362
_cell_formula_units_Z   1
loop_
 _symmetry_equiv_pos_site_id
 _symmetry_equiv_pos_as_xyz
  1  'x, y, z'
loop_
 _atom_site_type_symbol
 _atom_site_label
 _atom_site_symmetry_multiplicity
 _atom_site_fract_x
 _atom_site_fract_y
 _atom_site_fract_z
 _atom_site_occupancy
  Tb  Tb0  1  0.250000  0.300190  0.674645  1
  Tb  Tb1  1  0.250000  0.808218  0.821987  1
  Tb  Tb2  1  0.750000  0.696222  0.327527  1
  Tb  Tb3  1  0.750000  0.195400  0.174672  1
  Zn  Zn4  1  0.250000  0.911329  0.145075  1
  Zn  Zn5  1  0.250000  0.411303  0.357027  1
  Zn  Zn6  1  0.750000  0.089347  0.850683  1
  Zn  Zn7  1  0.750000  0.593869  0.645126  1
  Zn  Zn8  1  0.250000  0.185351  0.964319  1
  Zn  Zn9  1  0.250000  0.686861  0.536536  1
  Zn  Zn10  1  0.750000  0.813344  0.035646  1
  Zn  Zn11  1  0.750000  0.307625  0.465188  1
  Cd  Cd12  1  0.250000  0.530929  0.098494  1
  Cd  Cd13  1  0.250000  0.029917  0.404819  1
  Cd  Cd14  1  0.750000  0.470726  0.901491  1
  Ag  Ag15  1  0.750000  0.969370  0.596764  1
