# generated using pymatgen
data_K10Ti4Zn4S17
_symmetry_space_group_name_H-M   'P 1'
_cell_length_a   9.92408026
_cell_length_b   9.92407997
_cell_length_c   9.92408096
_cell_angle_alpha   89.38671350
_cell_angle_beta   89.38671807
_cell_angle_gamma   89.38671225
_symmetry_Int_Tables_number   1
_chemical_formula_structural   K10Ti4Zn4S17
_chemical_formula_sum   'K10 Ti4 Zn4 S17'
_cell_volume   977.22981192
_cell_formula_units_Z   1
loop_
 _symmetry_equiv_pos_site_id
 _symmetry_equiv_pos_as_xyz
  1  'x, y, z'
loop_
 _atom_site_type_symbol
 _atom_site_label
 _atom_site_symmetry_multiplicity
 _atom_site_fract_x
 _atom_site_fract_y
 _atom_site_fract_z
 _atom_site_occupancy
  K  K0  1  0.999928  0.999928  0.499290  1
  K  K1  1  0.499290  0.999928  0.999928  1
  K  K2  1  0.999928  0.499290  0.999928  1
  K  K3  1  0.498013  0.962066  0.498013  1
  K  K4  1  0.498013  0.498013  0.962066  1
  K  K5  1  0.962066  0.498013  0.498013  1
  K  K6  1  0.659034  0.326679  0.326679  1
  K  K7  1  0.326679  0.659034  0.326679  1
  K  K8  1  0.326679  0.326679  0.659034  1
  K  K9  1  0.675411  0.675411  0.675411  1
  Ti  Ti10  1  0.217549  0.217549  0.217549  1
  Ti  Ti11  1  0.221971  0.779528  0.779528  1
  Ti  Ti12  1  0.779528  0.779528  0.221971  1
  Ti  Ti13  1  0.779528  0.221971  0.779528  1
  Zn  Zn14  1  0.864831  0.134534  0.134534  1
  Zn  Zn15  1  0.134534  0.864831  0.134534  1
  Zn  Zn16  1  0.134534  0.134534  0.864831  1
  Zn  Zn17  1  0.866109  0.866109  0.866109  1
  S  S18  1  0.999263  0.999263  0.999263  1
  S  S19  1  0.344413  0.344413  0.344413  1
  S  S20  1  0.357106  0.653092  0.653092  1
  S  S21  1  0.653092  0.653092  0.357106  1
  S  S22  1  0.653092  0.357106  0.653092  1
  S  S23  1  0.271720  0.996205  0.271720  1
  S  S24  1  0.271720  0.271720  0.996205  1
  S  S25  1  0.996205  0.271720  0.271720  1
  S  S26  1  0.273441  0.000073  0.725542  1
  S  S27  1  0.273441  0.725542  0.000073  1
  S  S28  1  0.001846  0.726801  0.726801  1
  S  S29  1  0.725542  0.000073  0.273441  1
  S  S30  1  0.726801  0.726801  0.001846  1
  S  S31  1  0.000073  0.725542  0.273441  1
  S  S32  1  0.726801  0.001846  0.726801  1
  S  S33  1  0.725542  0.273441  0.000073  1
  S  S34  1  0.000073  0.273441  0.725542  1
