# generated using pymatgen
data_Sr2Ga3PIr4
_symmetry_space_group_name_H-M   'P 1'
_cell_length_a   8.44606155
_cell_length_b   7.39458717
_cell_length_c   5.96731932
_cell_angle_alpha   77.59858149
_cell_angle_beta   57.38877907
_cell_angle_gamma   43.63294642
_symmetry_Int_Tables_number   1
_chemical_formula_structural   Sr2Ga3PIr4
_chemical_formula_sum   'Sr2 Ga3 P1 Ir4'
_cell_volume   206.53800169
_cell_formula_units_Z   1
loop_
 _symmetry_equiv_pos_site_id
 _symmetry_equiv_pos_as_xyz
  1  'x, y, z'
loop_
 _atom_site_type_symbol
 _atom_site_label
 _atom_site_symmetry_multiplicity
 _atom_site_fract_x
 _atom_site_fract_y
 _atom_site_fract_z
 _atom_site_occupancy
  Sr  Sr0  1  0.502423  0.497577  0.502423  1
  Sr  Sr1  1  0.751212  0.748788  0.751212  1
  Ga  Ga2  1  0.183942  0.816058  0.183942  1
  Ga  Ga3  1  0.434119  0.065881  0.434119  1
  Ga  Ga4  1  0.067565  0.432435  0.067565  1
  P  P5  1  0.822443  0.177557  0.822443  1
  Ir  Ir6  1  0.091540  0.133247  0.893008  1
  Ir  Ir7  1  0.893008  0.882205  0.091540  1
  Ir  Ir8  1  0.110475  0.139661  0.393270  1
  Ir  Ir9  1  0.393270  0.356593  0.110475  1
