# generated using pymatgen
data_Dy2BeSi4Ni
_symmetry_space_group_name_H-M   'P 1'
_cell_length_a   8.46194266
_cell_length_b   8.46194196
_cell_length_c   3.91628700
_cell_angle_alpha   90.00000000
_cell_angle_beta   90.00000000
_cell_angle_gamma   152.59942065
_symmetry_Int_Tables_number   1
_chemical_formula_structural   Dy2BeSi4Ni
_chemical_formula_sum   'Dy2 Be1 Si4 Ni1'
_cell_volume   129.05341876
_cell_formula_units_Z   1
loop_
 _symmetry_equiv_pos_site_id
 _symmetry_equiv_pos_as_xyz
  1  'x, y, z'
loop_
 _atom_site_type_symbol
 _atom_site_label
 _atom_site_symmetry_multiplicity
 _atom_site_fract_x
 _atom_site_fract_y
 _atom_site_fract_z
 _atom_site_occupancy
  Dy  Dy0  1  0.106726  0.893274  0.250000  1
  Dy  Dy1  1  0.898162  0.101838  0.750000  1
  Be  Be2  1  0.672794  0.327206  0.750000  1
  Si  Si3  1  0.751572  0.248428  0.250000  1
  Si  Si4  1  0.249682  0.750318  0.750000  1
  Si  Si5  1  0.538848  0.461152  0.750000  1
  Si  Si6  1  0.459883  0.540117  0.250000  1
  Ni  Ni7  1  0.322333  0.677667  0.250000  1
