# generated using pymatgen
data_Ac5Pb3O
_symmetry_space_group_name_H-M   'P 1'
_cell_length_a   9.99094782
_cell_length_b   9.99092772
_cell_length_c   9.99093210
_cell_angle_alpha   125.52602747
_cell_angle_beta   125.52612808
_cell_angle_gamma   80.66855544
_symmetry_Int_Tables_number   1
_chemical_formula_structural   Ac5Pb3O
_chemical_formula_sum   'Ac10 Pb6 O2'
_cell_volume   636.94458111
_cell_formula_units_Z   2
loop_
 _symmetry_equiv_pos_site_id
 _symmetry_equiv_pos_as_xyz
  1  'x, y, z'
loop_
 _atom_site_type_symbol
 _atom_site_label
 _atom_site_symmetry_multiplicity
 _atom_site_fract_x
 _atom_site_fract_y
 _atom_site_fract_z
 _atom_site_occupancy
  Ac  Ac0  1  0.000907  0.198037  0.500000  1
  Ac  Ac1  1  0.801962  0.301963  0.802869  1
  Ac  Ac2  1  0.500907  0.000908  0.802871  1
  Ac  Ac3  1  0.499093  0.999092  0.197129  1
  Ac  Ac4  1  0.999093  0.801963  0.500000  1
  Ac  Ac5  1  0.500000  0.500000  0.000000  1
  Ac  Ac6  1  0.198038  0.698037  0.197131  1
  Ac  Ac7  1  0.698036  0.500907  0.500000  1
  Ac  Ac8  1  0.301964  0.499093  0.500000  1
  Ac  Ac9  1  0.000000  0.000000  0.000000  1
  Pb  Pb10  1  0.857322  0.357322  0.214644  1
  Pb  Pb11  1  0.142678  0.642678  0.785356  1
  Pb  Pb12  1  0.357322  0.142678  0.500000  1
  Pb  Pb13  1  0.750000  0.750000  0.000000  1
  Pb  Pb14  1  0.642678  0.857322  0.500000  1
  Pb  Pb15  1  0.250000  0.250000  0.000000  1
  O  O16  1  0.750000  0.250000  0.500000  1
  O  O17  1  0.250000  0.750000  0.500000  1
