# generated using pymatgen
data_Dy4Al6TcRu
_symmetry_space_group_name_H-M   'P 1'
_cell_length_a   5.51422400
_cell_length_b   5.51422481
_cell_length_c   8.89243300
_cell_angle_alpha   90.00000000
_cell_angle_beta   90.00000000
_cell_angle_gamma   119.99999515
_symmetry_Int_Tables_number   1
_chemical_formula_structural   Dy4Al6TcRu
_chemical_formula_sum   'Dy4 Al6 Tc1 Ru1'
_cell_volume   234.16399916
_cell_formula_units_Z   1
loop_
 _symmetry_equiv_pos_site_id
 _symmetry_equiv_pos_as_xyz
  1  'x, y, z'
loop_
 _atom_site_type_symbol
 _atom_site_label
 _atom_site_symmetry_multiplicity
 _atom_site_fract_x
 _atom_site_fract_y
 _atom_site_fract_z
 _atom_site_occupancy
  Dy  Dy0  1  0.333333  0.666667  0.946784  1
  Dy  Dy1  1  0.666667  0.333333  0.053216  1
  Dy  Dy2  1  0.666667  0.333333  0.448119  1
  Dy  Dy3  1  0.333333  0.666667  0.551881  1
  Al  Al4  1  0.837696  0.162304  0.748367  1
  Al  Al5  1  0.837696  0.675393  0.748367  1
  Al  Al6  1  0.324607  0.162304  0.748367  1
  Al  Al7  1  0.162304  0.837696  0.251633  1
  Al  Al8  1  0.162304  0.324607  0.251633  1
  Al  Al9  1  0.675393  0.837696  0.251633  1
  Tc  Tc10  1  0.000000  0.000000  0.000000  1
  Ru  Ru11  1  0.000000  0.000000  0.500000  1
