# generated using pymatgen
data_Tb8Tm2Si5As
_symmetry_space_group_name_H-M   'P 1'
_cell_length_a   8.48203349
_cell_length_b   8.48203298
_cell_length_c   6.32964921
_cell_angle_alpha   90.01485087
_cell_angle_beta   90.01484677
_cell_angle_gamma   120.11701642
_symmetry_Int_Tables_number   1
_chemical_formula_structural   Tb8Tm2Si5As
_chemical_formula_sum   'Tb8 Tm2 Si5 As1'
_cell_volume   393.90986258
_cell_formula_units_Z   1
loop_
 _symmetry_equiv_pos_site_id
 _symmetry_equiv_pos_as_xyz
  1  'x, y, z'
loop_
 _atom_site_type_symbol
 _atom_site_label
 _atom_site_symmetry_multiplicity
 _atom_site_fract_x
 _atom_site_fract_y
 _atom_site_fract_z
 _atom_site_occupancy
  Tb  Tb0  1  0.669127  0.332953  0.501442  1
  Tb  Tb1  1  0.332953  0.669127  0.501442  1
  Tb  Tb2  1  0.757444  0.757444  0.248463  1
  Tb  Tb3  1  0.243569  0.996366  0.248334  1
  Tb  Tb4  1  0.996366  0.243569  0.248334  1
  Tb  Tb5  1  0.243869  0.243869  0.751522  1
  Tb  Tb6  1  0.755416  0.000331  0.751669  1
  Tb  Tb7  1  0.000331  0.755416  0.751669  1
  Tm  Tm8  1  0.333085  0.668958  0.998523  1
  Tm  Tm9  1  0.668958  0.333085  0.998523  1
  Si  Si10  1  0.605526  0.999824  0.244024  1
  Si  Si11  1  0.999824  0.605526  0.244024  1
  Si  Si12  1  0.606489  0.606489  0.755272  1
  Si  Si13  1  0.394555  0.000897  0.756198  1
  Si  Si14  1  0.000897  0.394555  0.756198  1
  As  As15  1  0.391589  0.391589  0.244362  1
