# generated using pymatgen
data_Pa2MnCo5P4
_symmetry_space_group_name_H-M   'P 1'
_cell_length_a   3.76481100
_cell_length_b   10.44197700
_cell_length_c   12.21154700
_cell_angle_alpha   90.00000000
_cell_angle_beta   90.00000000
_cell_angle_gamma   90.00000000
_symmetry_Int_Tables_number   1
_chemical_formula_structural   Pa2MnCo5P4
_chemical_formula_sum   'Pa6 Mn3 Co15 P12'
_cell_volume   480.06118890
_cell_formula_units_Z   3
loop_
 _symmetry_equiv_pos_site_id
 _symmetry_equiv_pos_as_xyz
  1  'x, y, z'
loop_
 _atom_site_type_symbol
 _atom_site_label
 _atom_site_symmetry_multiplicity
 _atom_site_fract_x
 _atom_site_fract_y
 _atom_site_fract_z
 _atom_site_occupancy
  Pa  Pa0  1  0.000000  0.500000  0.521287  1
  Pa  Pa1  1  0.500000  0.000000  0.477796  1
  Pa  Pa2  1  0.500000  0.817432  0.207915  1
  Pa  Pa3  1  0.500000  0.182568  0.207915  1
  Pa  Pa4  1  0.000000  0.680434  0.793548  1
  Pa  Pa5  1  0.000000  0.319566  0.793548  1
  Mn  Mn6  1  0.500000  0.500000  0.151617  1
  Mn  Mn7  1  0.000000  0.000000  0.845293  1
  Mn  Mn8  1  0.000000  0.500000  0.983889  1
  Co  Co9  1  0.500000  0.500000  0.699786  1
  Co  Co10  1  0.000000  0.000000  0.300283  1
  Co  Co11  1  0.500000  0.000000  0.018557  1
  Co  Co12  1  0.500000  0.330363  0.992861  1
  Co  Co13  1  0.500000  0.669637  0.992861  1
  Co  Co14  1  0.000000  0.166540  0.006694  1
  Co  Co15  1  0.000000  0.833460  0.006694  1
  Co  Co16  1  0.500000  0.304005  0.428983  1
  Co  Co17  1  0.500000  0.695995  0.428983  1
  Co  Co18  1  0.000000  0.196586  0.570966  1
  Co  Co19  1  0.000000  0.803414  0.570966  1
  Co  Co20  1  0.500000  0.876510  0.713795  1
  Co  Co21  1  0.500000  0.123490  0.713795  1
  Co  Co22  1  0.000000  0.623392  0.286069  1
  Co  Co23  1  0.000000  0.376608  0.286069  1
  P  P24  1  0.500000  0.500000  0.883194  1
  P  P25  1  0.000000  0.000000  0.118825  1
  P  P26  1  0.500000  0.500000  0.336533  1
  P  P27  1  0.000000  0.000000  0.661402  1
  P  P28  1  0.500000  0.308720  0.613103  1
  P  P29  1  0.500000  0.691280  0.613103  1
  P  P30  1  0.000000  0.191093  0.387360  1
  P  P31  1  0.000000  0.808907  0.387360  1
  P  P32  1  0.500000  0.849595  0.895715  1
  P  P33  1  0.500000  0.150405  0.895715  1
  P  P34  1  0.000000  0.651902  0.103759  1
  P  P35  1  0.000000  0.348098  0.103759  1
