# generated using pymatgen
data_Sr2La4P17Pd6
_symmetry_space_group_name_H-M   'P 1'
_cell_length_a   9.06269781
_cell_length_b   9.10997392
_cell_length_c   9.15713764
_cell_angle_alpha   109.83041520
_cell_angle_beta   109.17210002
_cell_angle_gamma   109.41158418
_symmetry_Int_Tables_number   1
_chemical_formula_structural   Sr2La4P17Pd6
_chemical_formula_sum   'Sr2 La4 P17 Pd6'
_cell_volume   581.96801296
_cell_formula_units_Z   1
loop_
 _symmetry_equiv_pos_site_id
 _symmetry_equiv_pos_as_xyz
  1  'x, y, z'
loop_
 _atom_site_type_symbol
 _atom_site_label
 _atom_site_symmetry_multiplicity
 _atom_site_fract_x
 _atom_site_fract_y
 _atom_site_fract_z
 _atom_site_occupancy
  Sr  Sr0  1  0.285375  0.284503  0.999522  1
  Sr  Sr1  1  0.000872  0.715497  0.715018  1
  La  La2  1  0.999802  0.283446  0.282932  1
  La  La3  1  0.280952  0.000000  0.279344  1
  La  La4  1  0.720357  0.000000  0.719888  1
  La  La5  1  0.716356  0.716554  0.999487  1
  P  P6  1  0.637765  0.421397  0.639565  1
  P  P7  1  0.783732  0.000000  0.358821  1
  P  P8  1  0.363983  0.000000  0.781564  1
  P  P9  1  0.782142  0.359334  0.999845  1
  P  P10  1  0.216179  0.216064  0.574291  1
  P  P11  1  0.580487  0.217953  0.219828  1
  P  P12  1  0.997929  0.359127  0.781930  1
  P  P13  1  0.000115  0.783936  0.358227  1
  P  P14  1  0.362534  0.782047  0.001875  1
  P  P15  1  0.638801  0.640873  0.422802  1
  P  P16  1  0.422808  0.640666  0.640511  1
  P  P17  1  0.216368  0.578603  0.218168  1
  P  P18  1  0.434949  0.434781  0.436317  1
  P  P19  1  0.998212  0.000000  0.562632  1
  P  P20  1  0.565792  0.000000  0.999875  1
  P  P21  1  0.000168  0.565219  0.001535  1
  P  P22  1  0.993422  0.000000  0.007211  1
  Pd  Pd23  1  0.251061  0.751188  0.499522  1
  Pd  Pd24  1  0.499873  0.248812  0.748334  1
  Pd  Pd25  1  0.500333  0.750641  0.250920  1
  Pd  Pd26  1  0.249650  0.499358  0.749558  1
  Pd  Pd27  1  0.750292  0.500642  0.250200  1
  Pd  Pd28  1  0.749692  0.249359  0.500279  1
