# generated using pymatgen
data_Pr8Cu3Si12Pd
_symmetry_space_group_name_H-M   'P 1'
_cell_length_a   8.18603300
_cell_length_b   8.18603315
_cell_length_c   8.62261200
_cell_angle_alpha   90.00000000
_cell_angle_beta   90.00000000
_cell_angle_gamma   119.99999534
_symmetry_Int_Tables_number   1
_chemical_formula_structural   Pr8Cu3Si12Pd
_chemical_formula_sum   'Pr8 Cu3 Si12 Pd1'
_cell_volume   500.39906154
_cell_formula_units_Z   1
loop_
 _symmetry_equiv_pos_site_id
 _symmetry_equiv_pos_as_xyz
  1  'x, y, z'
loop_
 _atom_site_type_symbol
 _atom_site_label
 _atom_site_symmetry_multiplicity
 _atom_site_fract_x
 _atom_site_fract_y
 _atom_site_fract_z
 _atom_site_occupancy
  Pr  Pr0  1  0.498992  0.501008  0.750687  1
  Pr  Pr1  1  0.499034  0.500966  0.249308  1
  Pr  Pr2  1  0.002018  0.501008  0.750687  1
  Pr  Pr3  1  0.001931  0.500966  0.249308  1
  Pr  Pr4  1  0.498992  0.997982  0.750687  1
  Pr  Pr5  1  0.499034  0.998069  0.249308  1
  Pr  Pr6  1  0.000000  0.000000  0.750648  1
  Pr  Pr7  1  0.000000  0.000000  0.249343  1
  Cu  Cu8  1  0.666667  0.333333  0.999818  1
  Cu  Cu9  1  0.333333  0.666667  0.000509  1
  Cu  Cu10  1  0.333333  0.666667  0.499682  1
  Si  Si11  1  0.830746  0.169254  0.000033  1
  Si  Si12  1  0.168945  0.831055  0.999953  1
  Si  Si13  1  0.338509  0.169254  0.000033  1
  Si  Si14  1  0.168537  0.831463  0.499888  1
  Si  Si15  1  0.662110  0.831055  0.999953  1
  Si  Si16  1  0.833799  0.166201  0.500119  1
  Si  Si17  1  0.830746  0.661491  0.000033  1
  Si  Si18  1  0.662925  0.831463  0.499888  1
  Si  Si19  1  0.168945  0.337890  0.999953  1
  Si  Si20  1  0.332402  0.166201  0.500119  1
  Si  Si21  1  0.168537  0.337075  0.499888  1
  Si  Si22  1  0.833799  0.667598  0.500119  1
  Pd  Pd23  1  0.666667  0.333333  0.500030  1
