# generated using pymatgen
data_Tb3Lu5Sc12Si15Ir
_symmetry_space_group_name_H-M   'P 1'
_cell_length_a   7.04830338
_cell_length_b   7.40089352
_cell_length_c   13.89756683
_cell_angle_alpha   90.06097852
_cell_angle_beta   89.94065433
_cell_angle_gamma   90.13950482
_symmetry_Int_Tables_number   1
_chemical_formula_structural   Tb3Lu5Sc12Si15Ir
_chemical_formula_sum   'Tb3 Lu5 Sc12 Si15 Ir1'
_cell_volume   724.94615586
_cell_formula_units_Z   1
loop_
 _symmetry_equiv_pos_site_id
 _symmetry_equiv_pos_as_xyz
  1  'x, y, z'
loop_
 _atom_site_type_symbol
 _atom_site_label
 _atom_site_symmetry_multiplicity
 _atom_site_fract_x
 _atom_site_fract_y
 _atom_site_fract_z
 _atom_site_occupancy
  Tb  Tb0  1  0.010697  0.178866  0.404400  1
  Tb  Tb1  1  0.511749  0.324069  0.403777  1
  Tb  Tb2  1  0.489811  0.675959  0.595353  1
  Lu  Lu3  1  0.011835  0.180751  0.095242  1
  Lu  Lu4  1  0.990060  0.825442  0.905329  1
  Lu  Lu5  1  0.488978  0.678169  0.904900  1
  Lu  Lu6  1  0.990620  0.825695  0.597339  1
  Lu  Lu7  1  0.511737  0.322347  0.095478  1
  Sc  Sc8  1  0.158780  0.503189  0.750771  1
  Sc  Sc9  1  0.837822  0.496276  0.248653  1
  Sc  Sc10  1  0.339499  0.006247  0.248735  1
  Sc  Sc11  1  0.667093  0.995227  0.750769  1
  Sc  Sc12  1  0.318860  0.170962  0.628269  1
  Sc  Sc13  1  0.672761  0.827036  0.372701  1
  Sc  Sc14  1  0.170680  0.678472  0.373542  1
  Sc  Sc15  1  0.671990  0.825548  0.124880  1
  Sc  Sc16  1  0.835696  0.320030  0.628895  1
  Sc  Sc17  1  0.318388  0.172013  0.873474  1
  Sc  Sc18  1  0.837069  0.318935  0.873270  1
  Sc  Sc19  1  0.170583  0.678112  0.124426  1
  Si  Si20  1  0.969623  0.887445  0.248206  1
  Si  Si21  1  0.468773  0.614197  0.248379  1
  Si  Si22  1  0.529976  0.388254  0.751826  1
  Si  Si23  1  0.286372  0.864077  0.751941  1
  Si  Si24  1  0.713997  0.132263  0.247043  1
  Si  Si25  1  0.214033  0.371077  0.247185  1
  Si  Si26  1  0.780327  0.627008  0.752206  1
  Si  Si27  1  0.157637  0.469516  0.538701  1
  Si  Si28  1  0.843501  0.539282  0.462731  1
  Si  Si29  1  0.345298  0.965860  0.460738  1
  Si  Si30  1  0.840736  0.534836  0.038021  1
  Si  Si31  1  0.657986  0.033193  0.539166  1
  Si  Si32  1  0.161644  0.468713  0.961944  1
  Si  Si33  1  0.656938  0.033038  0.961021  1
  Si  Si34  1  0.343226  0.967935  0.039723  1
  Ir  Ir35  1  0.025221  0.099960  0.750964  1
