# generated using pymatgen
data_CaNd11Th4(CdIr)4
_symmetry_space_group_name_H-M   'P 1'
_cell_length_a   10.00439060
_cell_length_b   9.97147656
_cell_length_c   9.97147665
_cell_angle_alpha   60.23082598
_cell_angle_beta   59.89074041
_cell_angle_gamma   59.89074560
_symmetry_Int_Tables_number   1
_chemical_formula_structural   CaNd11Th4(CdIr)4
_chemical_formula_sum   'Ca1 Nd11 Th4 Cd4 Ir4'
_cell_volume   703.43629929
_cell_formula_units_Z   1
loop_
 _symmetry_equiv_pos_site_id
 _symmetry_equiv_pos_as_xyz
  1  'x, y, z'
loop_
 _atom_site_type_symbol
 _atom_site_label
 _atom_site_symmetry_multiplicity
 _atom_site_fract_x
 _atom_site_fract_y
 _atom_site_fract_z
 _atom_site_occupancy
  Ca  Ca0  1  0.808390  0.191610  0.191610  1
  Nd  Nd1  1  0.190051  0.809949  0.809949  1
  Nd  Nd2  1  0.189239  0.810896  0.190437  1
  Nd  Nd3  1  0.809427  0.190437  0.810896  1
  Nd  Nd4  1  0.189239  0.190437  0.810896  1
  Nd  Nd5  1  0.809427  0.810896  0.190437  1
  Nd  Nd6  1  0.937855  0.562145  0.562145  1
  Nd  Nd7  1  0.561755  0.938245  0.938245  1
  Nd  Nd8  1  0.562084  0.939281  0.561507  1
  Nd  Nd9  1  0.937129  0.561507  0.939281  1
  Nd  Nd10  1  0.562084  0.561507  0.939281  1
  Nd  Nd11  1  0.937129  0.939281  0.561507  1
  Th  Th12  1  0.348937  0.345525  0.345525  1
  Th  Th13  1  0.347148  0.347350  0.958355  1
  Th  Th14  1  0.347148  0.958355  0.347350  1
  Th  Th15  1  0.960015  0.345525  0.345525  1
  Cd  Cd16  1  0.580566  0.580064  0.580064  1
  Cd  Cd17  1  0.580282  0.580403  0.259032  1
  Cd  Cd18  1  0.580282  0.259032  0.580403  1
  Cd  Cd19  1  0.259304  0.580064  0.580064  1
  Ir  Ir20  1  0.149586  0.144393  0.144393  1
  Ir  Ir21  1  0.145647  0.146198  0.562506  1
  Ir  Ir22  1  0.145647  0.562506  0.146198  1
  Ir  Ir23  1  0.561626  0.144393  0.144393  1
