# generated using pymatgen
data_La4In2CuPd3
_symmetry_space_group_name_H-M   'P 1'
_cell_length_a   7.95967449
_cell_length_b   7.95967449
_cell_length_c   3.95227000
_cell_angle_alpha   90.00000000
_cell_angle_beta   90.00000000
_cell_angle_gamma   89.89263079
_symmetry_Int_Tables_number   1
_chemical_formula_structural   La4In2CuPd3
_chemical_formula_sum   'La4 In2 Cu1 Pd3'
_cell_volume   250.40123070
_cell_formula_units_Z   1
loop_
 _symmetry_equiv_pos_site_id
 _symmetry_equiv_pos_as_xyz
  1  'x, y, z'
loop_
 _atom_site_type_symbol
 _atom_site_label
 _atom_site_symmetry_multiplicity
 _atom_site_fract_x
 _atom_site_fract_y
 _atom_site_fract_z
 _atom_site_occupancy
  La  La0  1  0.677229  0.180306  0.500000  1
  La  La1  1  0.178910  0.321090  0.500000  1
  La  La2  1  0.823502  0.676498  0.500000  1
  La  La3  1  0.319694  0.822771  0.500000  1
  In  In4  1  0.998292  0.999199  0.000000  1
  In  In5  1  0.500801  0.501708  0.000000  1
  Cu  Cu6  1  0.620502  0.879498  0.000000  1
  Pd  Pd7  1  0.381076  0.118924  0.000000  1
  Pd  Pd8  1  0.873030  0.373038  0.000000  1
  Pd  Pd9  1  0.126962  0.626970  0.000000  1
