# generated using pymatgen
data_Nd4Dy2RuBr10
_symmetry_space_group_name_H-M   'P 1'
_cell_length_a   7.53943037
_cell_length_b   9.51553855
_cell_length_c   9.48078758
_cell_angle_alpha   108.95420246
_cell_angle_beta   95.85597694
_cell_angle_gamma   105.88483958
_symmetry_Int_Tables_number   1
_chemical_formula_structural   Nd4Dy2RuBr10
_chemical_formula_sum   'Nd4 Dy2 Ru1 Br10'
_cell_volume   604.94137609
_cell_formula_units_Z   1
loop_
 _symmetry_equiv_pos_site_id
 _symmetry_equiv_pos_as_xyz
  1  'x, y, z'
loop_
 _atom_site_type_symbol
 _atom_site_label
 _atom_site_symmetry_multiplicity
 _atom_site_fract_x
 _atom_site_fract_y
 _atom_site_fract_z
 _atom_site_occupancy
  Nd  Nd0  1  0.125917  0.043999  0.752933  1
  Nd  Nd1  1  0.874083  0.956001  0.247067  1
  Nd  Nd2  1  0.975033  0.296797  0.095470  1
  Nd  Nd3  1  0.024967  0.703203  0.904530  1
  Dy  Dy4  1  0.365171  0.137405  0.180706  1
  Dy  Dy5  1  0.634829  0.862595  0.819294  1
  Ru  Ru6  1  0.000000  0.000000  0.000000  1
  Br  Br7  1  0.549246  0.169953  0.919679  1
  Br  Br8  1  0.450754  0.830047  0.080321  1
  Br  Br9  1  0.365197  0.447809  0.273145  1
  Br  Br10  1  0.634803  0.552191  0.726855  1
  Br  Br11  1  0.260436  0.086890  0.450091  1
  Br  Br12  1  0.739564  0.913110  0.549909  1
  Br  Br13  1  0.780779  0.257567  0.349481  1
  Br  Br14  1  0.219221  0.742433  0.650519  1
  Br  Br15  1  0.088739  0.365559  0.826110  1
  Br  Br16  1  0.911261  0.634441  0.173890  1
