# generated using pymatgen
data_HfCoH6
_symmetry_space_group_name_H-M   'P 1'
_cell_length_a   4.35390148
_cell_length_b   4.35539743
_cell_length_c   4.36323877
_cell_angle_alpha   120.04378306
_cell_angle_beta   90.02277453
_cell_angle_gamma   119.88420908
_symmetry_Int_Tables_number   1
_chemical_formula_structural   HfCoH6
_chemical_formula_sum   'Hf1 Co1 H6'
_cell_volume   58.55790127
_cell_formula_units_Z   1
loop_
 _symmetry_equiv_pos_site_id
 _symmetry_equiv_pos_as_xyz
  1  'x, y, z'
loop_
 _atom_site_type_symbol
 _atom_site_label
 _atom_site_symmetry_multiplicity
 _atom_site_fract_x
 _atom_site_fract_y
 _atom_site_fract_z
 _atom_site_occupancy
  Hf  Hf0  1  0.377546  0.033014  0.893378  1
  Co  Co1  1  0.127445  0.534060  0.143855  1
  H  H2  1  0.375346  0.524307  0.394713  1
  H  H3  1  0.875767  0.545181  0.400324  1
  H  H4  1  0.373411  0.523051  0.881278  1
  H  H5  1  0.869546  0.025745  0.889763  1
  H  H6  1  0.875213  0.546904  0.900741  1
  H  H7  1  0.395449  0.041779  0.397677  1
