# generated using pymatgen
data_Tm2MgB2Ir5
_symmetry_space_group_name_H-M   'P 1'
_cell_length_a   9.70895700
_cell_length_b   9.70895700
_cell_length_c   3.10075700
_cell_angle_alpha   90.00000000
_cell_angle_beta   90.00000000
_cell_angle_gamma   90.00000000
_symmetry_Int_Tables_number   1
_chemical_formula_structural   Tm2MgB2Ir5
_chemical_formula_sum   'Tm4 Mg2 B4 Ir10'
_cell_volume   292.28928042
_cell_formula_units_Z   2
loop_
 _symmetry_equiv_pos_site_id
 _symmetry_equiv_pos_as_xyz
  1  'x, y, z'
loop_
 _atom_site_type_symbol
 _atom_site_label
 _atom_site_symmetry_multiplicity
 _atom_site_fract_x
 _atom_site_fract_y
 _atom_site_fract_z
 _atom_site_occupancy
  Tm  Tm0  1  0.177998  0.677998  0.000000  1
  Tm  Tm1  1  0.322002  0.177998  0.000000  1
  Tm  Tm2  1  0.677998  0.822002  0.000000  1
  Tm  Tm3  1  0.822002  0.322002  0.000000  1
  Mg  Mg4  1  0.000000  0.000000  0.000000  1
  Mg  Mg5  1  0.500000  0.500000  0.000000  1
  B  B6  1  0.124458  0.375542  0.000000  1
  B  B7  1  0.375542  0.875542  0.000000  1
  B  B8  1  0.624458  0.124458  0.000000  1
  B  B9  1  0.875542  0.624458  0.000000  1
  Ir  Ir10  1  0.000000  0.500000  0.500000  1
  Ir  Ir11  1  0.068292  0.223194  0.500000  1
  Ir  Ir12  1  0.223194  0.931708  0.500000  1
  Ir  Ir13  1  0.276806  0.431708  0.500000  1
  Ir  Ir14  1  0.431708  0.723194  0.500000  1
  Ir  Ir15  1  0.500000  0.000000  0.500000  1
  Ir  Ir16  1  0.568292  0.276806  0.500000  1
  Ir  Ir17  1  0.723194  0.568292  0.500000  1
  Ir  Ir18  1  0.776806  0.068292  0.500000  1
  Ir  Ir19  1  0.931708  0.776806  0.500000  1
