# generated using pymatgen
data_Tm4Si2(TcOs)3
_symmetry_space_group_name_H-M   'P 1'
_cell_length_a   5.23523900
_cell_length_b   5.27671845
_cell_length_c   8.70608000
_cell_angle_alpha   90.00000000
_cell_angle_beta   90.00000000
_cell_angle_gamma   120.52736216
_symmetry_Int_Tables_number   1
_chemical_formula_structural   Tm4Si2(TcOs)3
_chemical_formula_sum   'Tm4 Si2 Tc3 Os3'
_cell_volume   207.16731705
_cell_formula_units_Z   1
loop_
 _symmetry_equiv_pos_site_id
 _symmetry_equiv_pos_as_xyz
  1  'x, y, z'
loop_
 _atom_site_type_symbol
 _atom_site_label
 _atom_site_symmetry_multiplicity
 _atom_site_fract_x
 _atom_site_fract_y
 _atom_site_fract_z
 _atom_site_occupancy
  Tm  Tm0  1  0.333019  0.665198  0.436141  1
  Tm  Tm1  1  0.664552  0.330366  0.561397  1
  Tm  Tm2  1  0.664552  0.330366  0.938603  1
  Tm  Tm3  1  0.333019  0.665198  0.063859  1
  Si  Si4  1  0.171978  0.339501  0.750000  1
  Si  Si5  1  0.338891  0.173378  0.250000  1
  Tc  Tc6  1  0.176621  0.826081  0.750000  1
  Tc  Tc7  1  0.831519  0.668138  0.250000  1
  Tc  Tc8  1  0.662749  0.830963  0.750000  1
  Os  Os9  1  0.999698  0.995289  0.999738  1
  Os  Os10  1  0.823706  0.180233  0.250000  1
  Os  Os11  1  0.999698  0.995289  0.500262  1
