# generated using pymatgen
data_NdPa5I24
_symmetry_space_group_name_H-M   'P 1'
_cell_length_a   9.28797700
_cell_length_b   9.30207259
_cell_length_c   19.52930023
_cell_angle_alpha   76.87569360
_cell_angle_beta   90.00000000
_cell_angle_gamma   90.00000000
_symmetry_Int_Tables_number   1
_chemical_formula_structural   NdPa5I24
_chemical_formula_sum   'Nd1 Pa5 I24'
_cell_volume   1643.20922013
_cell_formula_units_Z   1
loop_
 _symmetry_equiv_pos_site_id
 _symmetry_equiv_pos_as_xyz
  1  'x, y, z'
loop_
 _atom_site_type_symbol
 _atom_site_label
 _atom_site_symmetry_multiplicity
 _atom_site_fract_x
 _atom_site_fract_y
 _atom_site_fract_z
 _atom_site_occupancy
  Nd  Nd0  1  0.396858  0.000000  0.250000  1
  Pa  Pa1  1  0.879630  0.828768  0.582102  1
  Pa  Pa2  1  0.118570  0.172896  0.415974  1
  Pa  Pa3  1  0.630899  0.000000  0.750000  1
  Pa  Pa4  1  0.879630  0.171232  0.917898  1
  Pa  Pa5  1  0.118570  0.827104  0.084026  1
  I  I6  1  0.105356  0.391556  0.907076  1
  I  I7  1  0.594930  0.750101  0.261406  1
  I  I8  1  0.114275  0.071159  0.578631  1
  I  I9  1  0.349643  0.373672  0.427729  1
  I  I10  1  0.117480  0.774479  0.240685  1
  I  I11  1  0.117480  0.225521  0.259315  1
  I  I12  1  0.114275  0.928841  0.921369  1
  I  I13  1  0.417714  0.232500  0.740238  1
  I  I14  1  0.894419  0.608635  0.089243  1
  I  I15  1  0.876861  0.227353  0.755527  1
  I  I16  1  0.417714  0.767500  0.759762  1
  I  I17  1  0.894419  0.391365  0.410757  1
  I  I18  1  0.594930  0.249899  0.238594  1
  I  I19  1  0.654175  0.076593  0.588313  1
  I  I20  1  0.336748  0.925414  0.416507  1
  I  I21  1  0.876861  0.772647  0.744473  1
  I  I22  1  0.105356  0.608444  0.592924  1
  I  I23  1  0.647079  0.374012  0.928499  1
  I  I24  1  0.336748  0.074586  0.083493  1
  I  I25  1  0.879239  0.066980  0.078827  1
  I  I26  1  0.647079  0.625988  0.571501  1
  I  I27  1  0.654175  0.923407  0.911687  1
  I  I28  1  0.349643  0.626328  0.072271  1
  I  I29  1  0.879239  0.933020  0.421173  1
