# generated using pymatgen
data_Dy8ReSi16Tc11
_symmetry_space_group_name_H-M   'P 1'
_cell_length_a   6.80141378
_cell_length_b   6.79937690
_cell_length_c   12.72164001
_cell_angle_alpha   90.23355761
_cell_angle_beta   90.10105331
_cell_angle_gamma   89.94307917
_symmetry_Int_Tables_number   1
_chemical_formula_structural   Dy8ReSi16Tc11
_chemical_formula_sum   'Dy8 Re1 Si16 Tc11'
_cell_volume   588.31093288
_cell_formula_units_Z   1
loop_
 _symmetry_equiv_pos_site_id
 _symmetry_equiv_pos_as_xyz
  1  'x, y, z'
loop_
 _atom_site_type_symbol
 _atom_site_label
 _atom_site_symmetry_multiplicity
 _atom_site_fract_x
 _atom_site_fract_y
 _atom_site_fract_z
 _atom_site_occupancy
  Dy  Dy0  1  0.006503  0.662093  0.031531  1
  Dy  Dy1  1  0.996692  0.335345  0.529952  1
  Dy  Dy2  1  0.664446  0.003525  0.969640  1
  Dy  Dy3  1  0.161619  0.495507  0.780485  1
  Dy  Dy4  1  0.838945  0.503501  0.280404  1
  Dy  Dy5  1  0.497751  0.162357  0.220080  1
  Dy  Dy6  1  0.504253  0.837603  0.719272  1
  Dy  Dy7  1  0.338519  0.994064  0.468520  1
  Re  Re8  1  0.678567  0.516797  0.875801  1
  Si  Si9  1  0.019355  0.725355  0.437899  1
  Si  Si10  1  0.976465  0.277948  0.936141  1
  Si  Si11  1  0.724332  0.021954  0.563656  1
  Si  Si12  1  0.232687  0.481949  0.188309  1
  Si  Si13  1  0.778783  0.524438  0.684552  1
  Si  Si14  1  0.474044  0.219808  0.814752  1
  Si  Si15  1  0.518309  0.768119  0.311280  1
  Si  Si16  1  0.277822  0.979914  0.063116  1
  Si  Si17  1  0.808710  0.886476  0.187203  1
  Si  Si18  1  0.305080  0.615821  0.563547  1
  Si  Si19  1  0.694283  0.385771  0.062798  1
  Si  Si20  1  0.613507  0.307412  0.437715  1
  Si  Si21  1  0.382703  0.695012  0.936122  1
  Si  Si22  1  0.113521  0.191458  0.312642  1
  Si  Si23  1  0.191721  0.114958  0.687670  1
  Si  Si24  1  0.884350  0.806440  0.812578  1
  Tc  Tc25  1  0.310929  0.477740  0.381044  1
  Tc  Tc26  1  0.814883  0.017361  0.372514  1
  Tc  Tc27  1  0.983841  0.182919  0.126151  1
  Tc  Tc28  1  0.018809  0.815533  0.628920  1
  Tc  Tc29  1  0.481772  0.321615  0.624855  1
  Tc  Tc30  1  0.181308  0.982801  0.872714  1
  Tc  Tc31  1  0.665023  0.664865  0.500126  1
  Tc  Tc32  1  0.833570  0.165472  0.750104  1
  Tc  Tc33  1  0.167129  0.834073  0.249899  1
  Tc  Tc34  1  0.336107  0.334967  0.999759  1
  Tc  Tc35  1  0.523658  0.689032  0.118245  1
