# generated using pymatgen
data_Na10ZrSnP6
_symmetry_space_group_name_H-M   'P 1'
_cell_length_a   7.46933700
_cell_length_b   8.33233275
_cell_length_c   15.80205050
_cell_angle_alpha   57.98177338
_cell_angle_beta   90.00000000
_cell_angle_gamma   90.00000000
_symmetry_Int_Tables_number   1
_chemical_formula_structural   Na10ZrSnP6
_chemical_formula_sum   'Na20 Zr2 Sn2 P12'
_cell_volume   833.86592758
_cell_formula_units_Z   2
loop_
 _symmetry_equiv_pos_site_id
 _symmetry_equiv_pos_as_xyz
  1  'x, y, z'
loop_
 _atom_site_type_symbol
 _atom_site_label
 _atom_site_symmetry_multiplicity
 _atom_site_fract_x
 _atom_site_fract_y
 _atom_site_fract_z
 _atom_site_occupancy
  Na  Na0  1  0.495276  0.091614  0.239509  1
  Na  Na1  1  0.995276  0.908386  0.260491  1
  Na  Na2  1  0.505064  0.910531  0.759102  1
  Na  Na3  1  0.005064  0.089469  0.740898  1
  Na  Na4  1  0.040993  0.410828  0.411862  1
  Na  Na5  1  0.540993  0.589172  0.088138  1
  Na  Na6  1  0.964447  0.588583  0.588337  1
  Na  Na7  1  0.464447  0.411417  0.911663  1
  Na  Na8  1  0.519039  0.252857  0.410306  1
  Na  Na9  1  0.019039  0.747143  0.089694  1
  Na  Na10  1  0.477601  0.748520  0.589226  1
  Na  Na11  1  0.977601  0.251480  0.910774  1
  Na  Na12  1  0.659235  0.993099  0.082953  1
  Na  Na13  1  0.159235  0.006901  0.417047  1
  Na  Na14  1  0.339585  0.003899  0.918582  1
  Na  Na15  1  0.839585  0.996101  0.581418  1
  Na  Na16  1  0.854835  0.316504  0.259940  1
  Na  Na17  1  0.354835  0.683496  0.240060  1
  Na  Na18  1  0.143450  0.686194  0.742401  1
  Na  Na19  1  0.643450  0.313806  0.757599  1
  Zr  Zr20  1  0.640052  0.651664  0.417190  1
  Zr  Zr21  1  0.140052  0.348336  0.082810  1
  Sn  Sn22  1  0.357849  0.342939  0.586260  1
  Sn  Sn23  1  0.857849  0.657061  0.913740  1
  P  P24  1  0.710075  0.329993  0.574288  1
  P  P25  1  0.210075  0.670007  0.925712  1
  P  P26  1  0.296057  0.669527  0.425242  1
  P  P27  1  0.796057  0.330473  0.074758  1
  P  P28  1  0.762455  0.933330  0.419530  1
  P  P29  1  0.262455  0.066670  0.080470  1
  P  P30  1  0.236133  0.063355  0.581090  1
  P  P31  1  0.736133  0.936645  0.918910  1
  P  P32  1  0.739297  0.640583  0.267337  1
  P  P33  1  0.239297  0.359417  0.232663  1
  P  P34  1  0.258557  0.364586  0.733500  1
  P  P35  1  0.758557  0.635414  0.766500  1
