# generated using pymatgen
data_ScTi2Nb3(B2Ru5)2
_symmetry_space_group_name_H-M   'P 1'
_cell_length_a   9.36110888
_cell_length_b   9.36110795
_cell_length_c   3.03282600
_cell_angle_alpha   90.00000000
_cell_angle_beta   90.00000000
_cell_angle_gamma   89.93168752
_symmetry_Int_Tables_number   1
_chemical_formula_structural   ScTi2Nb3(B2Ru5)2
_chemical_formula_sum   'Sc1 Ti2 Nb3 B4 Ru10'
_cell_volume   265.76741711
_cell_formula_units_Z   1
loop_
 _symmetry_equiv_pos_site_id
 _symmetry_equiv_pos_as_xyz
  1  'x, y, z'
loop_
 _atom_site_type_symbol
 _atom_site_label
 _atom_site_symmetry_multiplicity
 _atom_site_fract_x
 _atom_site_fract_y
 _atom_site_fract_z
 _atom_site_occupancy
  Sc  Sc0  1  0.823887  0.676113  0.000000  1
  Ti  Ti1  1  0.502059  0.501124  0.000000  1
  Ti  Ti2  1  0.998876  0.997941  0.000000  1
  Nb  Nb3  1  0.176119  0.323881  0.000000  1
  Nb  Nb4  1  0.324123  0.822521  0.000000  1
  Nb  Nb5  1  0.677479  0.175877  0.000000  1
  B  B6  1  0.624717  0.875283  0.000000  1
  B  B7  1  0.375543  0.124457  0.000000  1
  B  B8  1  0.122346  0.623070  0.000000  1
  B  B9  1  0.876930  0.377654  0.000000  1
  Ru  Ru10  1  0.563595  0.718224  0.500000  1
  Ru  Ru11  1  0.428528  0.284964  0.500000  1
  Ru  Ru12  1  0.077062  0.785585  0.500000  1
  Ru  Ru13  1  0.931031  0.215015  0.500000  1
  Ru  Ru14  1  0.284985  0.568969  0.500000  1
  Ru  Ru15  1  0.714415  0.422938  0.500000  1
  Ru  Ru16  1  0.215036  0.071472  0.500000  1
  Ru  Ru17  1  0.781776  0.936405  0.500000  1
  Ru  Ru18  1  0.498420  0.001580  0.500000  1
  Ru  Ru19  1  0.003074  0.496926  0.500000  1
