# generated using pymatgen
data_LaYb(CuSn)2
_symmetry_space_group_name_H-M   'P 1'
_cell_length_a   4.62350000
_cell_length_b   7.57813017
_cell_length_c   7.85469586
_cell_angle_alpha   90.18874924
_cell_angle_beta   90.00000000
_cell_angle_gamma   90.00000000
_symmetry_Int_Tables_number   1
_chemical_formula_structural   LaYb(CuSn)2
_chemical_formula_sum   'La2 Yb2 Cu4 Sn4'
_cell_volume   275.20729385
_cell_formula_units_Z   2
loop_
 _symmetry_equiv_pos_site_id
 _symmetry_equiv_pos_as_xyz
  1  'x, y, z'
loop_
 _atom_site_type_symbol
 _atom_site_label
 _atom_site_symmetry_multiplicity
 _atom_site_fract_x
 _atom_site_fract_y
 _atom_site_fract_z
 _atom_site_occupancy
  La  La0  1  0.250000  0.508567  0.212459  1
  La  La1  1  0.750000  0.491433  0.787541  1
  Yb  Yb2  1  0.750000  0.990161  0.707291  1
  Yb  Yb3  1  0.250000  0.009839  0.292709  1
  Cu  Cu4  1  0.250000  0.821343  0.915453  1
  Cu  Cu5  1  0.750000  0.178657  0.084547  1
  Cu  Cu6  1  0.750000  0.703325  0.419966  1
  Cu  Cu7  1  0.250000  0.296675  0.580034  1
  Sn  Sn8  1  0.250000  0.704234  0.590180  1
  Sn  Sn9  1  0.750000  0.295766  0.409820  1
  Sn  Sn10  1  0.750000  0.806431  0.089401  1
  Sn  Sn11  1  0.250000  0.193569  0.910599  1
