# generated using pymatgen
data_Li3Dy4Co9(Ni2P3)4
_symmetry_space_group_name_H-M   'P 1'
_cell_length_a   3.71333800
_cell_length_b   10.33356959
_cell_length_c   11.91477642
_cell_angle_alpha   90.24804016
_cell_angle_beta   90.00000000
_cell_angle_gamma   90.00000000
_symmetry_Int_Tables_number   1
_chemical_formula_structural   Li3Dy4Co9(Ni2P3)4
_chemical_formula_sum   'Li3 Dy4 Co9 Ni8 P12'
_cell_volume   457.18995314
_cell_formula_units_Z   1
loop_
 _symmetry_equiv_pos_site_id
 _symmetry_equiv_pos_as_xyz
  1  'x, y, z'
loop_
 _atom_site_type_symbol
 _atom_site_label
 _atom_site_symmetry_multiplicity
 _atom_site_fract_x
 _atom_site_fract_y
 _atom_site_fract_z
 _atom_site_occupancy
  Li  Li0  1  0.250000  0.701962  0.991392  1
  Li  Li1  1  0.250000  0.797973  0.491836  1
  Li  Li2  1  0.750000  0.297467  0.007322  1
  Dy  Dy3  1  0.250000  0.580497  0.703472  1
  Dy  Dy4  1  0.250000  0.918723  0.204629  1
  Dy  Dy5  1  0.750000  0.419091  0.294532  1
  Dy  Dy6  1  0.750000  0.080356  0.795358  1
  Co  Co7  1  0.250000  0.275527  0.671814  1
  Co  Co8  1  0.250000  0.880809  0.699320  1
  Co  Co9  1  0.250000  0.620840  0.199440  1
  Co  Co10  1  0.750000  0.120509  0.302897  1
  Co  Co11  1  0.750000  0.377985  0.798027  1
  Co  Co12  1  0.250000  0.465834  0.931196  1
  Co  Co13  1  0.250000  0.033726  0.432885  1
  Co  Co14  1  0.750000  0.532676  0.066964  1
  Co  Co15  1  0.750000  0.967483  0.566365  1
  Ni  Ni16  1  0.750000  0.209925  0.510383  1
  Ni  Ni17  1  0.250000  0.406041  0.484999  1
  Ni  Ni18  1  0.250000  0.094406  0.988939  1
  Ni  Ni19  1  0.750000  0.592345  0.512802  1
  Ni  Ni20  1  0.750000  0.906828  0.013264  1
  Ni  Ni21  1  0.250000  0.221818  0.176368  1
  Ni  Ni22  1  0.750000  0.779187  0.826836  1
  Ni  Ni23  1  0.750000  0.721350  0.326933  1
  P  P24  1  0.250000  0.426263  0.113749  1
  P  P25  1  0.250000  0.076004  0.613206  1
  P  P26  1  0.750000  0.572672  0.884787  1
  P  P27  1  0.750000  0.926464  0.385686  1
  P  P28  1  0.250000  0.272202  0.858400  1
  P  P29  1  0.250000  0.228065  0.366086  1
  P  P30  1  0.750000  0.726229  0.138922  1
  P  P31  1  0.750000  0.774203  0.639152  1
  P  P32  1  0.250000  0.598677  0.390396  1
  P  P33  1  0.250000  0.901126  0.890699  1
  P  P34  1  0.750000  0.393355  0.609252  1
  P  P35  1  0.750000  0.101380  0.111695  1
