# generated using pymatgen
data_MgFeP3Rh4
_symmetry_space_group_name_H-M   'P 1'
_cell_length_a   3.74761100
_cell_length_b   10.72308700
_cell_length_c   12.41511200
_cell_angle_alpha   90.00000000
_cell_angle_beta   90.00000000
_cell_angle_gamma   90.00000000
_symmetry_Int_Tables_number   1
_chemical_formula_structural   MgFeP3Rh4
_chemical_formula_sum   'Mg4 Fe4 P12 Rh16'
_cell_volume   498.91317927
_cell_formula_units_Z   4
loop_
 _symmetry_equiv_pos_site_id
 _symmetry_equiv_pos_as_xyz
  1  'x, y, z'
loop_
 _atom_site_type_symbol
 _atom_site_label
 _atom_site_symmetry_multiplicity
 _atom_site_fract_x
 _atom_site_fract_y
 _atom_site_fract_z
 _atom_site_occupancy
  Mg  Mg0  1  0.250000  0.582499  0.712321  1
  Mg  Mg1  1  0.250000  0.917501  0.212321  1
  Mg  Mg2  1  0.750000  0.417501  0.287679  1
  Mg  Mg3  1  0.750000  0.082499  0.787679  1
  Fe  Fe4  1  0.250000  0.462865  0.932282  1
  Fe  Fe5  1  0.250000  0.037135  0.432282  1
  Fe  Fe6  1  0.750000  0.537135  0.067718  1
  Fe  Fe7  1  0.750000  0.962865  0.567718  1
  P  P8  1  0.250000  0.427948  0.104240  1
  P  P9  1  0.250000  0.072052  0.604240  1
  P  P10  1  0.750000  0.572052  0.895760  1
  P  P11  1  0.750000  0.927948  0.395760  1
  P  P12  1  0.250000  0.269326  0.867061  1
  P  P13  1  0.250000  0.230674  0.367061  1
  P  P14  1  0.750000  0.730674  0.132939  1
  P  P15  1  0.750000  0.769326  0.632939  1
  P  P16  1  0.250000  0.601353  0.391716  1
  P  P17  1  0.250000  0.898647  0.891716  1
  P  P18  1  0.750000  0.398647  0.608284  1
  P  P19  1  0.750000  0.101353  0.108284  1
  Rh  Rh20  1  0.250000  0.711997  0.990460  1
  Rh  Rh21  1  0.250000  0.788003  0.490460  1
  Rh  Rh22  1  0.750000  0.288003  0.009540  1
  Rh  Rh23  1  0.750000  0.211997  0.509540  1
  Rh  Rh24  1  0.250000  0.407742  0.475699  1
  Rh  Rh25  1  0.250000  0.092258  0.975699  1
  Rh  Rh26  1  0.750000  0.592258  0.524301  1
  Rh  Rh27  1  0.750000  0.907742  0.024301  1
  Rh  Rh28  1  0.250000  0.234926  0.177050  1
  Rh  Rh29  1  0.250000  0.265074  0.677050  1
  Rh  Rh30  1  0.750000  0.765074  0.822950  1
  Rh  Rh31  1  0.750000  0.734926  0.322950  1
  Rh  Rh32  1  0.250000  0.890325  0.706064  1
  Rh  Rh33  1  0.250000  0.609675  0.206064  1
  Rh  Rh34  1  0.750000  0.109675  0.293936  1
  Rh  Rh35  1  0.750000  0.390325  0.793936  1
