# generated using pymatgen
data_Zr3Sc17(Bi2Te)4
_symmetry_space_group_name_H-M   'P 1'
_cell_length_a   7.70304886
_cell_length_b   8.90706849
_cell_length_c   11.24951477
_cell_angle_alpha   89.89591109
_cell_angle_beta   89.98174882
_cell_angle_gamma   90.15173968
_symmetry_Int_Tables_number   1
_chemical_formula_structural   Zr3Sc17(Bi2Te)4
_chemical_formula_sum   'Zr3 Sc17 Bi8 Te4'
_cell_volume   771.84300422
_cell_formula_units_Z   1
loop_
 _symmetry_equiv_pos_site_id
 _symmetry_equiv_pos_as_xyz
  1  'x, y, z'
loop_
 _atom_site_type_symbol
 _atom_site_label
 _atom_site_symmetry_multiplicity
 _atom_site_fract_x
 _atom_site_fract_y
 _atom_site_fract_z
 _atom_site_occupancy
  Zr  Zr0  1  0.187315  0.064263  0.938842  1
  Zr  Zr1  1  0.313788  0.067300  0.438308  1
  Zr  Zr2  1  0.315047  0.433565  0.437607  1
  Sc  Sc3  1  0.331148  0.750941  0.724580  1
  Sc  Sc4  1  0.480961  0.751562  0.004511  1
  Sc  Sc5  1  0.157977  0.248565  0.211757  1
  Sc  Sc6  1  0.819759  0.937290  0.060266  1
  Sc  Sc7  1  0.654516  0.749414  0.287489  1
  Sc  Sc8  1  0.018881  0.749260  0.503838  1
  Sc  Sc9  1  0.681146  0.937919  0.560237  1
  Sc  Sc10  1  0.186430  0.433536  0.937449  1
  Sc  Sc11  1  0.342865  0.249383  0.710164  1
  Sc  Sc12  1  0.169073  0.751156  0.224749  1
  Sc  Sc13  1  0.984767  0.250881  0.493923  1
  Sc  Sc14  1  0.681332  0.562887  0.560772  1
  Sc  Sc15  1  0.662608  0.249917  0.278854  1
  Sc  Sc16  1  0.813420  0.563582  0.061236  1
  Sc  Sc17  1  0.517494  0.249290  0.995494  1
  Sc  Sc18  1  0.835040  0.248393  0.777823  1
  Sc  Sc19  1  0.844894  0.751464  0.787263  1
  Bi  Bi20  1  0.068159  0.491471  0.673852  1
  Bi  Bi21  1  0.568233  0.508738  0.825825  1
  Bi  Bi22  1  0.931164  0.991652  0.326093  1
  Bi  Bi23  1  0.431660  0.008128  0.174265  1
  Bi  Bi24  1  0.568002  0.992304  0.825893  1
  Bi  Bi25  1  0.432079  0.492198  0.174387  1
  Bi  Bi26  1  0.068300  0.008850  0.673964  1
  Bi  Bi27  1  0.931891  0.508508  0.324862  1
  Te  Te28  1  0.397028  0.750320  0.474015  1
  Te  Te29  1  0.102341  0.745936  0.973343  1
  Te  Te30  1  0.606860  0.250396  0.529631  1
  Te  Te31  1  0.895824  0.250928  0.028710  1
