# generated using pymatgen
data_Sc6FeNi(BIr2)4
_symmetry_space_group_name_H-M   'P 1'
_cell_length_a   3.06700800
_cell_length_b   9.46206315
_cell_length_c   9.46206315
_cell_angle_alpha   90.73785743
_cell_angle_beta   90.00000000
_cell_angle_gamma   90.00000000
_symmetry_Int_Tables_number   1
_chemical_formula_structural   Sc6FeNi(BIr2)4
_chemical_formula_sum   'Sc6 Fe1 Ni1 B4 Ir8'
_cell_volume   274.56841705
_cell_formula_units_Z   1
loop_
 _symmetry_equiv_pos_site_id
 _symmetry_equiv_pos_as_xyz
  1  'x, y, z'
loop_
 _atom_site_type_symbol
 _atom_site_label
 _atom_site_symmetry_multiplicity
 _atom_site_fract_x
 _atom_site_fract_y
 _atom_site_fract_z
 _atom_site_occupancy
  Sc  Sc0  1  0.000000  0.172959  0.672959  1
  Sc  Sc1  1  0.000000  0.827041  0.327041  1
  Sc  Sc2  1  0.000000  0.319524  0.180476  1
  Sc  Sc3  1  0.000000  0.680476  0.819524  1
  Sc  Sc4  1  0.000000  0.000000  0.000000  1
  Sc  Sc5  1  0.000000  0.500000  0.500000  1
  Fe  Fe6  1  0.500000  0.000000  0.500000  1
  Ni  Ni7  1  0.500000  0.500000  0.000000  1
  B  B8  1  0.000000  0.615229  0.115229  1
  B  B9  1  0.000000  0.384771  0.884771  1
  B  B10  1  0.000000  0.891335  0.608665  1
  B  B11  1  0.000000  0.108665  0.391335  1
  Ir  Ir12  1  0.500000  0.064946  0.227330  1
  Ir  Ir13  1  0.500000  0.935054  0.772670  1
  Ir  Ir14  1  0.500000  0.770302  0.062857  1
  Ir  Ir15  1  0.500000  0.437143  0.729698  1
  Ir  Ir16  1  0.500000  0.229698  0.937143  1
  Ir  Ir17  1  0.500000  0.562857  0.270302  1
  Ir  Ir18  1  0.500000  0.727330  0.564946  1
  Ir  Ir19  1  0.500000  0.272670  0.435054  1
