# generated using pymatgen
data_Ba6Ho2Fe4O15
_symmetry_space_group_name_H-M   'P 1'
_cell_length_a   6.07213300
_cell_length_b   8.16756901
_cell_length_c   18.70458700
_cell_angle_alpha   88.90482327
_cell_angle_beta   90.00000000
_cell_angle_gamma   90.00000000
_symmetry_Int_Tables_number   1
_chemical_formula_structural   Ba6Ho2Fe4O15
_chemical_formula_sum   'Ba12 Ho4 Fe8 O30'
_cell_volume   927.47640404
_cell_formula_units_Z   2
loop_
 _symmetry_equiv_pos_site_id
 _symmetry_equiv_pos_as_xyz
  1  'x, y, z'
loop_
 _atom_site_type_symbol
 _atom_site_label
 _atom_site_symmetry_multiplicity
 _atom_site_fract_x
 _atom_site_fract_y
 _atom_site_fract_z
 _atom_site_occupancy
  Ba  Ba0  1  0.275314  0.000000  0.250000  1
  Ba  Ba1  1  0.724686  0.000000  0.750000  1
  Ba  Ba2  1  0.332316  0.500000  0.250000  1
  Ba  Ba3  1  0.667684  0.500000  0.750000  1
  Ba  Ba4  1  0.748597  0.974338  0.088716  1
  Ba  Ba5  1  0.748597  0.025662  0.411284  1
  Ba  Ba6  1  0.251403  0.025662  0.911284  1
  Ba  Ba7  1  0.251403  0.974338  0.588716  1
  Ba  Ba8  1  0.248504  0.500083  0.577291  1
  Ba  Ba9  1  0.248504  0.499917  0.922709  1
  Ba  Ba10  1  0.751496  0.499917  0.422709  1
  Ba  Ba11  1  0.751496  0.500083  0.077291  1
  Ho  Ho12  1  0.251893  0.752794  0.409302  1
  Ho  Ho13  1  0.251893  0.247206  0.090698  1
  Ho  Ho14  1  0.748107  0.247206  0.590698  1
  Ho  Ho15  1  0.748107  0.752794  0.909302  1
  Fe  Fe16  1  0.253321  0.754467  0.059289  1
  Fe  Fe17  1  0.253321  0.245533  0.440711  1
  Fe  Fe18  1  0.746679  0.245533  0.940711  1
  Fe  Fe19  1  0.746679  0.754467  0.559289  1
  Fe  Fe20  1  0.775652  0.769590  0.266239  1
  Fe  Fe21  1  0.775652  0.230410  0.233761  1
  Fe  Fe22  1  0.224348  0.230410  0.733761  1
  Fe  Fe23  1  0.224348  0.769590  0.766239  1
  O  O24  1  0.800360  0.000000  0.250000  1
  O  O25  1  0.199640  0.000000  0.750000  1
  O  O26  1  0.765608  0.959145  0.608001  1
  O  O27  1  0.765608  0.040855  0.891999  1
  O  O28  1  0.234392  0.040855  0.391999  1
  O  O29  1  0.234392  0.959145  0.108001  1
  O  O30  1  0.242778  0.527804  0.088596  1
  O  O31  1  0.242778  0.472196  0.411404  1
  O  O32  1  0.757222  0.472196  0.911404  1
  O  O33  1  0.757222  0.527804  0.588596  1
  O  O34  1  0.055153  0.723907  0.307341  1
  O  O35  1  0.055153  0.276093  0.192659  1
  O  O36  1  0.944847  0.276093  0.692659  1
  O  O37  1  0.944847  0.723907  0.807341  1
  O  O38  1  0.553253  0.747609  0.338530  1
  O  O39  1  0.553253  0.252391  0.161470  1
  O  O40  1  0.446747  0.252391  0.661470  1
  O  O41  1  0.446747  0.747609  0.838530  1
  O  O42  1  0.486660  0.766283  0.501708  1
  O  O43  1  0.486660  0.233717  0.998292  1
  O  O44  1  0.513340  0.233717  0.498292  1
  O  O45  1  0.513340  0.766283  0.001708  1
  O  O46  1  0.014258  0.767494  0.991530  1
  O  O47  1  0.014258  0.232506  0.508470  1
  O  O48  1  0.985742  0.232506  0.008470  1
  O  O49  1  0.985742  0.767494  0.491530  1
  O  O50  1  0.336655  0.691557  0.680793  1
  O  O51  1  0.336655  0.308443  0.819207  1
  O  O52  1  0.663345  0.308443  0.319207  1
  O  O53  1  0.663345  0.691557  0.180793  1
