# generated using pymatgen
data_Tb5Dy2ErPt4
_symmetry_space_group_name_H-M   'P 1'
_cell_length_a   4.76741200
_cell_length_b   7.17532276
_cell_length_c   8.85882141
_cell_angle_alpha   89.99104327
_cell_angle_beta   90.00000000
_cell_angle_gamma   90.00000000
_symmetry_Int_Tables_number   1
_chemical_formula_structural   Tb5Dy2ErPt4
_chemical_formula_sum   'Tb5 Dy2 Er1 Pt4'
_cell_volume   303.04007681
_cell_formula_units_Z   1
loop_
 _symmetry_equiv_pos_site_id
 _symmetry_equiv_pos_as_xyz
  1  'x, y, z'
loop_
 _atom_site_type_symbol
 _atom_site_label
 _atom_site_symmetry_multiplicity
 _atom_site_fract_x
 _atom_site_fract_y
 _atom_site_fract_z
 _atom_site_occupancy
  Tb  Tb0  1  0.250000  0.855758  0.918300  1
  Tb  Tb1  1  0.750000  0.507489  0.831851  1
  Tb  Tb2  1  0.250000  0.492896  0.169054  1
  Tb  Tb3  1  0.750000  0.006892  0.667156  1
  Tb  Tb4  1  0.250000  0.991719  0.331846  1
  Dy  Dy5  1  0.250000  0.356226  0.580844  1
  Dy  Dy6  1  0.750000  0.144594  0.081886  1
  Er  Er7  1  0.750000  0.643594  0.418931  1
  Pt  Pt8  1  0.750000  0.242867  0.408338  1
  Pt  Pt9  1  0.250000  0.757474  0.589432  1
  Pt  Pt10  1  0.750000  0.741026  0.093513  1
  Pt  Pt11  1  0.250000  0.259465  0.908848  1
