# generated using pymatgen
data_Er8Tm2InPb5
_symmetry_space_group_name_H-M   'P 1'
_cell_length_a   6.59109401
_cell_length_b   8.95617176
_cell_length_c   8.96349506
_cell_angle_alpha   119.97298298
_cell_angle_beta   90.00237545
_cell_angle_gamma   89.99523977
_symmetry_Int_Tables_number   1
_chemical_formula_structural   Er8Tm2InPb5
_chemical_formula_sum   'Er8 Tm2 In1 Pb5'
_cell_volume   458.35935715
_cell_formula_units_Z   1
loop_
 _symmetry_equiv_pos_site_id
 _symmetry_equiv_pos_as_xyz
  1  'x, y, z'
loop_
 _atom_site_type_symbol
 _atom_site_label
 _atom_site_symmetry_multiplicity
 _atom_site_fract_x
 _atom_site_fract_y
 _atom_site_fract_z
 _atom_site_occupancy
  Er  Er0  1  0.501892  0.336194  0.669983  1
  Er  Er1  1  0.501892  0.666211  0.330017  1
  Er  Er2  1  0.750097  0.238202  0.000000  1
  Er  Er3  1  0.750131  0.762235  0.766694  1
  Er  Er4  1  0.750131  0.995541  0.233306  1
  Er  Er5  1  0.249868  0.763423  0.000000  1
  Er  Er6  1  0.249885  0.236512  0.236299  1
  Er  Er7  1  0.249885  0.000214  0.763701  1
  Tm  Tm8  1  0.998097  0.666257  0.330026  1
  Tm  Tm9  1  0.998097  0.336231  0.669974  1
  In  In10  1  0.750303  0.603144  0.000000  1
  Pb  Pb11  1  0.750341  0.393927  0.394480  1
  Pb  Pb12  1  0.750341  0.999446  0.605520  1
  Pb  Pb13  1  0.249667  0.395911  0.000000  1
  Pb  Pb14  1  0.249687  0.605181  0.603809  1
  Pb  Pb15  1  0.249687  0.001372  0.396191  1
