# generated using pymatgen
data_Ta7NbGa6(BMo)2
_symmetry_space_group_name_H-M   'P 1'
_cell_length_a   7.76439600
_cell_length_b   7.76195984
_cell_length_c   5.29304400
_cell_angle_alpha   90.00117525
_cell_angle_beta   89.99765762
_cell_angle_gamma   120.01038291
_symmetry_Int_Tables_number   1
_chemical_formula_structural   Ta7NbGa6(BMo)2
_chemical_formula_sum   'Ta7 Nb1 Ga6 B2 Mo2'
_cell_volume   276.22930885
_cell_formula_units_Z   1
loop_
 _symmetry_equiv_pos_site_id
 _symmetry_equiv_pos_as_xyz
  1  'x, y, z'
loop_
 _atom_site_type_symbol
 _atom_site_label
 _atom_site_symmetry_multiplicity
 _atom_site_fract_x
 _atom_site_fract_y
 _atom_site_fract_z
 _atom_site_occupancy
  Ta  Ta0  1  0.757410  0.000000  0.745084  1
  Ta  Ta1  1  0.999916  0.242535  0.254999  1
  Ta  Ta2  1  0.999683  0.757236  0.745185  1
  Ta  Ta3  1  0.757381  0.757465  0.254999  1
  Ta  Ta4  1  0.242446  0.242764  0.745185  1
  Ta  Ta5  1  0.667024  0.333597  0.500188  1
  Ta  Ta6  1  0.333426  0.666403  0.500188  1
  Nb  Nb7  1  0.242813  0.000000  0.254930  1
  Ga  Ga8  1  0.596897  0.000000  0.241202  1
  Ga  Ga9  1  0.402813  0.000000  0.758767  1
  Ga  Ga10  1  0.000072  0.597204  0.241201  1
  Ga  Ga11  1  0.999997  0.402941  0.758784  1
  Ga  Ga12  1  0.402868  0.402796  0.241201  1
  Ga  Ga13  1  0.597056  0.597059  0.758784  1
  B  B14  1  0.999808  0.000000  0.999989  1
  B  B15  1  0.999879  0.000000  0.499866  1
  Mo  Mo16  1  0.333468  0.666425  0.999723  1
  Mo  Mo17  1  0.667044  0.333575  0.999723  1
