# generated using pymatgen
data_LiDy8Co2Ag
_symmetry_space_group_name_H-M   'P 1'
_cell_length_a   9.45619070
_cell_length_b   9.45362448
_cell_length_c   9.45619150
_cell_angle_alpha   60.00897679
_cell_angle_beta   60.19749352
_cell_angle_gamma   60.00897814
_symmetry_Int_Tables_number   1
_chemical_formula_structural   LiDy8Co2Ag
_chemical_formula_sum   'Li2 Dy16 Co4 Ag2'
_cell_volume   598.71335269
_cell_formula_units_Z   2
loop_
 _symmetry_equiv_pos_site_id
 _symmetry_equiv_pos_as_xyz
  1  'x, y, z'
loop_
 _atom_site_type_symbol
 _atom_site_label
 _atom_site_symmetry_multiplicity
 _atom_site_fract_x
 _atom_site_fract_y
 _atom_site_fract_z
 _atom_site_occupancy
  Li  Li0  1  0.931396  0.213689  0.931396  1
  Li  Li1  1  0.931396  0.923520  0.931396  1
  Dy  Dy2  1  0.153202  0.541499  0.153202  1
  Dy  Dy3  1  0.683658  0.316342  0.683658  1
  Dy  Dy4  1  0.684495  0.313538  0.313958  1
  Dy  Dy5  1  0.937191  0.563934  0.561688  1
  Dy  Dy6  1  0.531824  0.156370  0.155436  1
  Dy  Dy7  1  0.155436  0.156370  0.531824  1
  Dy  Dy8  1  0.937191  0.937186  0.561688  1
  Dy  Dy9  1  0.310079  0.689921  0.310079  1
  Dy  Dy10  1  0.561688  0.937186  0.937191  1
  Dy  Dy11  1  0.562894  0.937106  0.562894  1
  Dy  Dy12  1  0.684495  0.688009  0.313958  1
  Dy  Dy13  1  0.561688  0.563934  0.937191  1
  Dy  Dy14  1  0.939334  0.560666  0.939334  1
  Dy  Dy15  1  0.313958  0.688009  0.684495  1
  Dy  Dy16  1  0.153202  0.152097  0.153202  1
  Dy  Dy17  1  0.313958  0.313538  0.684495  1
  Co  Co18  1  0.353507  0.362290  0.921915  1
  Co  Co19  1  0.356250  0.925105  0.356250  1
  Co  Co20  1  0.921915  0.362290  0.353507  1
  Co  Co21  1  0.356250  0.362396  0.356250  1
  Ag  Ag22  1  0.915679  0.917504  0.249313  1
  Ag  Ag23  1  0.249313  0.917504  0.915679  1
