# generated using pymatgen
data_Ca12Y8Si15Ge
_symmetry_space_group_name_H-M   'P 1'
_cell_length_a   7.42824970
_cell_length_b   7.81734316
_cell_length_c   15.14411200
_cell_angle_alpha   89.92450069
_cell_angle_beta   90.04889415
_cell_angle_gamma   90.03396251
_symmetry_Int_Tables_number   1
_chemical_formula_structural   Ca12Y8Si15Ge
_chemical_formula_sum   'Ca12 Y8 Si15 Ge1'
_cell_volume   879.40488238
_cell_formula_units_Z   1
loop_
 _symmetry_equiv_pos_site_id
 _symmetry_equiv_pos_as_xyz
  1  'x, y, z'
loop_
 _atom_site_type_symbol
 _atom_site_label
 _atom_site_symmetry_multiplicity
 _atom_site_fract_x
 _atom_site_fract_y
 _atom_site_fract_z
 _atom_site_occupancy
  Ca  Ca0  1  0.971362  0.815551  0.403797  1
  Ca  Ca1  1  0.470849  0.684393  0.096012  1
  Ca  Ca2  1  0.527156  0.314564  0.595976  1
  Ca  Ca3  1  0.029175  0.184399  0.904060  1
  Ca  Ca4  1  0.029709  0.183893  0.595887  1
  Ca  Ca5  1  0.529184  0.315615  0.904008  1
  Ca  Ca6  1  0.470904  0.684799  0.403834  1
  Ca  Ca7  1  0.970804  0.815521  0.095964  1
  Ca  Ca8  1  0.354238  0.019344  0.750172  1
  Ca  Ca9  1  0.854526  0.481091  0.750670  1
  Ca  Ca10  1  0.145748  0.518946  0.249992  1
  Ca  Ca11  1  0.645497  0.980755  0.249961  1
  Y  Y12  1  0.313567  0.177148  0.121098  1
  Y  Y13  1  0.814609  0.322218  0.378458  1
  Y  Y14  1  0.186577  0.677206  0.878807  1
  Y  Y15  1  0.685409  0.825324  0.621962  1
  Y  Y16  1  0.314112  0.176477  0.378456  1
  Y  Y17  1  0.813507  0.322866  0.121124  1
  Y  Y18  1  0.187178  0.677030  0.621035  1
  Y  Y19  1  0.686559  0.822980  0.878923  1
  Si  Si20  1  0.359402  0.966376  0.961610  1
  Si  Si21  1  0.640852  0.033436  0.461585  1
  Si  Si22  1  0.140564  0.466400  0.038355  1
  Si  Si23  1  0.144798  0.465930  0.460902  1
  Si  Si24  1  0.640607  0.033577  0.038369  1
  Si  Si25  1  0.359282  0.966487  0.538287  1
  Si  Si26  1  0.859492  0.533622  0.961577  1
  Si  Si27  1  0.978516  0.884199  0.750011  1
  Si  Si28  1  0.478549  0.615916  0.750148  1
  Si  Si29  1  0.521730  0.384100  0.249857  1
  Si  Si30  1  0.021629  0.115475  0.249861  1
  Si  Si31  1  0.249530  0.395017  0.750029  1
  Si  Si32  1  0.749803  0.105619  0.750169  1
  Si  Si33  1  0.250320  0.894684  0.249926  1
  Si  Si34  1  0.750535  0.605054  0.249965  1
  Ge  Ge35  1  0.853719  0.533987  0.539152  1
