# generated using pymatgen
data_Pr5NdRh2
_symmetry_space_group_name_H-M   'P 1'
_cell_length_a   7.40352597
_cell_length_b   10.05879100
_cell_length_c   6.52126386
_cell_angle_alpha   90.00000000
_cell_angle_beta   90.05878915
_cell_angle_gamma   90.00000000
_symmetry_Int_Tables_number   1
_chemical_formula_structural   Pr5NdRh2
_chemical_formula_sum   'Pr10 Nd2 Rh4'
_cell_volume   485.64165780
_cell_formula_units_Z   2
loop_
 _symmetry_equiv_pos_site_id
 _symmetry_equiv_pos_as_xyz
  1  'x, y, z'
loop_
 _atom_site_type_symbol
 _atom_site_label
 _atom_site_symmetry_multiplicity
 _atom_site_fract_x
 _atom_site_fract_y
 _atom_site_fract_z
 _atom_site_occupancy
  Pr  Pr0  1  0.465228  0.750000  0.144904  1
  Pr  Pr1  1  0.675280  0.066607  0.332917  1
  Pr  Pr2  1  0.675280  0.433393  0.332917  1
  Pr  Pr3  1  0.965870  0.750000  0.355111  1
  Pr  Pr4  1  0.034837  0.250000  0.644483  1
  Pr  Pr5  1  0.324466  0.566297  0.667235  1
  Pr  Pr6  1  0.324466  0.933703  0.667235  1
  Pr  Pr7  1  0.824875  0.566378  0.832949  1
  Pr  Pr8  1  0.824875  0.933622  0.832949  1
  Pr  Pr9  1  0.534111  0.250000  0.855808  1
  Nd  Nd10  1  0.175220  0.067741  0.167263  1
  Nd  Nd11  1  0.175220  0.432259  0.167263  1
  Rh  Rh12  1  0.881815  0.250000  0.071497  1
  Rh  Rh13  1  0.378801  0.250000  0.426663  1
  Rh  Rh14  1  0.619807  0.750000  0.571112  1
  Rh  Rh15  1  0.119853  0.750000  0.929697  1
