# generated using pymatgen
data_Sr3Dy5(P7Ir8)2
_symmetry_space_group_name_H-M   'P 1'
_cell_length_a   3.96522700
_cell_length_b   12.82233140
_cell_length_c   13.19750168
_cell_angle_alpha   81.07512674
_cell_angle_beta   90.00000000
_cell_angle_gamma   90.00000000
_symmetry_Int_Tables_number   1
_chemical_formula_structural   Sr3Dy5(P7Ir8)2
_chemical_formula_sum   'Sr3 Dy5 P14 Ir16'
_cell_volume   662.88244021
_cell_formula_units_Z   1
loop_
 _symmetry_equiv_pos_site_id
 _symmetry_equiv_pos_as_xyz
  1  'x, y, z'
loop_
 _atom_site_type_symbol
 _atom_site_label
 _atom_site_symmetry_multiplicity
 _atom_site_fract_x
 _atom_site_fract_y
 _atom_site_fract_z
 _atom_site_occupancy
  Sr  Sr0  1  0.250000  0.108141  0.786925  1
  Sr  Sr1  1  0.750000  0.891108  0.212648  1
  Sr  Sr2  1  0.250000  0.282239  0.103493  1
  Dy  Dy3  1  0.750000  0.717479  0.896858  1
  Dy  Dy4  1  0.250000  0.520542  0.294103  1
  Dy  Dy5  1  0.750000  0.479995  0.706111  1
  Dy  Dy6  1  0.250000  0.209684  0.440490  1
  Dy  Dy7  1  0.750000  0.791866  0.559420  1
  P  P8  1  0.250000  0.053047  0.098569  1
  P  P9  1  0.750000  0.942293  0.900188  1
  P  P10  1  0.250000  0.318267  0.684920  1
  P  P11  1  0.750000  0.681566  0.314979  1
  P  P12  1  0.250000  0.609729  0.567460  1
  P  P13  1  0.750000  0.391925  0.435828  1
  P  P14  1  0.250000  0.841536  0.717872  1
  P  P15  1  0.750000  0.158594  0.283537  1
  P  P16  1  0.750000  0.257035  0.916748  1
  P  P17  1  0.250000  0.739010  0.077786  1
  P  P18  1  0.750000  0.092627  0.587137  1
  P  P19  1  0.250000  0.907211  0.413377  1
  P  P20  1  0.750000  0.473571  0.130033  1
  P  P21  1  0.250000  0.528128  0.870312  1
  Ir  Ir22  1  0.250000  0.986956  0.576629  1
  Ir  Ir23  1  0.750000  0.013246  0.424624  1
  Ir  Ir24  1  0.250000  0.662370  0.732171  1
  Ir  Ir25  1  0.750000  0.340575  0.274328  1
  Ir  Ir26  1  0.250000  0.554513  0.046078  1
  Ir  Ir27  1  0.750000  0.452987  0.947892  1
  Ir  Ir28  1  0.250000  0.064923  0.273214  1
  Ir  Ir29  1  0.750000  0.931688  0.727934  1
  Ir  Ir30  1  0.250000  0.424875  0.523016  1
  Ir  Ir31  1  0.750000  0.577824  0.479669  1
  Ir  Ir32  1  0.250000  0.913276  0.996519  1
  Ir  Ir33  1  0.750000  0.080572  0.000164  1
  Ir  Ir34  1  0.250000  0.727192  0.400890  1
  Ir  Ir35  1  0.750000  0.272724  0.599631  1
  Ir  Ir36  1  0.250000  0.344693  0.855607  1
  Ir  Ir37  1  0.750000  0.655994  0.142843  1
