# generated using pymatgen
data_Ac4Mg3ZnIr4
_symmetry_space_group_name_H-M   'P 1'
_cell_length_a   4.28619800
_cell_length_b   7.51843307
_cell_length_c   8.87827708
_cell_angle_alpha   89.96111929
_cell_angle_beta   90.00000000
_cell_angle_gamma   90.00000000
_symmetry_Int_Tables_number   1
_chemical_formula_structural   Ac4Mg3ZnIr4
_chemical_formula_sum   'Ac4 Mg3 Zn1 Ir4'
_cell_volume   286.10678804
_cell_formula_units_Z   1
loop_
 _symmetry_equiv_pos_site_id
 _symmetry_equiv_pos_as_xyz
  1  'x, y, z'
loop_
 _atom_site_type_symbol
 _atom_site_label
 _atom_site_symmetry_multiplicity
 _atom_site_fract_x
 _atom_site_fract_y
 _atom_site_fract_z
 _atom_site_occupancy
  Ac  Ac0  1  0.250000  0.534633  0.185400  1
  Ac  Ac1  1  0.750000  0.460269  0.816061  1
  Ac  Ac2  1  0.250000  0.045936  0.322846  1
  Ac  Ac3  1  0.750000  0.961712  0.679243  1
  Mg  Mg4  1  0.250000  0.129247  0.943816  1
  Mg  Mg5  1  0.750000  0.869601  0.056856  1
  Mg  Mg6  1  0.250000  0.625334  0.553160  1
  Zn  Zn7  1  0.750000  0.372493  0.445209  1
  Ir  Ir8  1  0.750000  0.737699  0.376032  1
  Ir  Ir9  1  0.250000  0.263260  0.622391  1
  Ir  Ir10  1  0.750000  0.239091  0.124915  1
  Ir  Ir11  1  0.250000  0.760724  0.874073  1
