# generated using pymatgen
data_La8Dy12Si15Cl
_symmetry_space_group_name_H-M   'P 1'
_cell_length_a   7.65912761
_cell_length_b   7.80752602
_cell_length_c   14.88962400
_cell_angle_alpha   89.75092944
_cell_angle_beta   86.69709436
_cell_angle_gamma   90.00004619
_symmetry_Int_Tables_number   1
_chemical_formula_structural   La8Dy12Si15Cl
_chemical_formula_sum   'La8 Dy12 Si15 Cl1'
_cell_volume   888.89476995
_cell_formula_units_Z   1
loop_
 _symmetry_equiv_pos_site_id
 _symmetry_equiv_pos_as_xyz
  1  'x, y, z'
loop_
 _atom_site_type_symbol
 _atom_site_label
 _atom_site_symmetry_multiplicity
 _atom_site_fract_x
 _atom_site_fract_y
 _atom_site_fract_z
 _atom_site_occupancy
  La  La0  1  0.009030  0.828363  0.102868  1
  La  La1  1  0.479454  0.680280  0.399104  1
  La  La2  1  0.490913  0.312704  0.899092  1
  La  La3  1  0.019921  0.176172  0.600254  1
  La  La4  1  0.997171  0.174688  0.900248  1
  La  La5  1  0.520181  0.318715  0.599482  1
  La  La6  1  0.496291  0.690083  0.102297  1
  La  La7  1  0.980256  0.819130  0.400220  1
  Dy  Dy8  1  0.672699  0.995685  0.247076  1
  Dy  Dy9  1  0.170392  0.505958  0.245468  1
  Dy  Dy10  1  0.830975  0.492222  0.743393  1
  Dy  Dy11  1  0.326436  0.005258  0.751935  1
  Dy  Dy12  1  0.638917  0.839835  0.878739  1
  Dy  Dy13  1  0.173607  0.675501  0.624207  1
  Dy  Dy14  1  0.858980  0.330182  0.122806  1
  Dy  Dy15  1  0.328293  0.178197  0.377499  1
  Dy  Dy16  1  0.358433  0.168421  0.119736  1
  Dy  Dy17  1  0.827771  0.323425  0.376771  1
  Dy  Dy18  1  0.154054  0.666910  0.880896  1
  Dy  Dy19  1  0.673136  0.820318  0.623696  1
  Si  Si20  1  0.786641  0.620360  0.250660  1
  Si  Si21  1  0.287796  0.882283  0.252054  1
  Si  Si22  1  0.710913  0.120139  0.749633  1
  Si  Si23  1  0.209832  0.377445  0.750265  1
  Si  Si24  1  0.048208  0.118747  0.251615  1
  Si  Si25  1  0.547863  0.385693  0.250038  1
  Si  Si26  1  0.455810  0.613509  0.752567  1
  Si  Si27  1  0.951821  0.878087  0.752544  1
  Si  Si28  1  0.357865  0.967611  0.540854  1
  Si  Si29  1  0.701277  0.039369  0.042430  1
  Si  Si30  1  0.144702  0.468530  0.460105  1
  Si  Si31  1  0.198568  0.464566  0.044232  1
  Si  Si32  1  0.644898  0.029726  0.459549  1
  Si  Si33  1  0.302828  0.963755  0.954530  1
  Si  Si34  1  0.858145  0.527993  0.541524  1
  Cl  Cl35  1  0.785924  0.540144  0.951612  1
