# generated using pymatgen
data_Y8In2PdPt
_symmetry_space_group_name_H-M   'P 1'
_cell_length_a   9.78599884
_cell_length_b   9.78608932
_cell_length_c   9.77210034
_cell_angle_alpha   59.86829157
_cell_angle_beta   59.86943931
_cell_angle_gamma   59.87115305
_symmetry_Int_Tables_number   1
_chemical_formula_structural   Y8In2PdPt
_chemical_formula_sum   'Y16 In4 Pd2 Pt2'
_cell_volume   659.78218970
_cell_formula_units_Z   2
loop_
 _symmetry_equiv_pos_site_id
 _symmetry_equiv_pos_as_xyz
  1  'x, y, z'
loop_
 _atom_site_type_symbol
 _atom_site_label
 _atom_site_symmetry_multiplicity
 _atom_site_fract_x
 _atom_site_fract_y
 _atom_site_fract_z
 _atom_site_occupancy
  Y  Y0  1  0.352139  0.352141  0.349259  1
  Y  Y1  1  0.352432  0.352430  0.944269  1
  Y  Y2  1  0.353569  0.943272  0.351093  1
  Y  Y3  1  0.943261  0.353572  0.351094  1
  Y  Y4  1  0.808529  0.190630  0.190320  1
  Y  Y5  1  0.191782  0.807623  0.810597  1
  Y  Y6  1  0.190636  0.808531  0.190318  1
  Y  Y7  1  0.807625  0.191779  0.810596  1
  Y  Y8  1  0.190635  0.190626  0.810165  1
  Y  Y9  1  0.809293  0.809290  0.191556  1
  Y  Y10  1  0.934971  0.564293  0.562780  1
  Y  Y11  1  0.563298  0.937260  0.937377  1
  Y  Y12  1  0.564297  0.934965  0.562787  1
  Y  Y13  1  0.937264  0.563291  0.937380  1
  Y  Y14  1  0.563085  0.563078  0.935271  1
  Y  Y15  1  0.936572  0.936566  0.563318  1
  In  In16  1  0.584053  0.584055  0.584163  1
  In  In17  1  0.583458  0.583462  0.250237  1
  In  In18  1  0.583411  0.250388  0.583335  1
  In  In19  1  0.250382  0.583413  0.583334  1
  Pd  Pd20  1  0.143619  0.143624  0.143912  1
  Pd  Pd21  1  0.142704  0.142715  0.570478  1
  Pt  Pt22  1  0.142317  0.570672  0.143184  1
  Pt  Pt23  1  0.570671  0.142323  0.143178  1
