# generated using pymatgen
data_Er4Ga18OsPd5
_symmetry_space_group_name_H-M   'P 1'
_cell_length_a   7.64314914
_cell_length_b   7.64314881
_cell_length_c   9.55754117
_cell_angle_alpha   90.05632664
_cell_angle_beta   90.05632144
_cell_angle_gamma   119.98424747
_symmetry_Int_Tables_number   1
_chemical_formula_structural   Er4Ga18OsPd5
_chemical_formula_sum   'Er4 Ga18 Os1 Pd5'
_cell_volume   483.60360976
_cell_formula_units_Z   1
loop_
 _symmetry_equiv_pos_site_id
 _symmetry_equiv_pos_as_xyz
  1  'x, y, z'
loop_
 _atom_site_type_symbol
 _atom_site_label
 _atom_site_symmetry_multiplicity
 _atom_site_fract_x
 _atom_site_fract_y
 _atom_site_fract_z
 _atom_site_occupancy
  Er  Er0  1  0.997162  0.666634  0.249650  1
  Er  Er1  1  0.002434  0.331687  0.751611  1
  Er  Er2  1  0.668313  0.997566  0.248389  1
  Er  Er3  1  0.333366  0.002838  0.750350  1
  Ga  Ga4  1  0.125503  0.127415  0.249626  1
  Ga  Ga5  1  0.872585  0.874497  0.750374  1
  Ga  Ga6  1  0.995334  0.333553  0.078056  1
  Ga  Ga7  1  0.999142  0.663966  0.921365  1
  Ga  Ga8  1  0.001593  0.665810  0.581246  1
  Ga  Ga9  1  0.334190  0.998407  0.418754  1
  Ga  Ga10  1  0.999045  0.333523  0.421427  1
  Ga  Ga11  1  0.666477  0.000955  0.578573  1
  Ga  Ga12  1  0.666447  0.004666  0.921944  1
  Ga  Ga13  1  0.336034  0.000858  0.078635  1
  Ga  Ga14  1  0.332091  0.332214  0.574963  1
  Ga  Ga15  1  0.667786  0.667910  0.425037  1
  Ga  Ga16  1  0.668490  0.664823  0.068141  1
  Ga  Ga17  1  0.335178  0.331510  0.931859  1
  Ga  Ga18  1  0.333714  0.542796  0.249086  1
  Ga  Ga19  1  0.663768  0.456434  0.752974  1
  Ga  Ga20  1  0.543566  0.336232  0.247026  1
  Ga  Ga21  1  0.457204  0.666286  0.750914  1
  Os  Os22  1  0.671033  0.328967  0.000000  1
  Pd  Pd23  1  0.328708  0.671292  0.000000  1
  Pd  Pd24  1  0.330495  0.669505  0.500000  1
  Pd  Pd25  1  0.669821  0.330179  0.500000  1
  Pd  Pd26  1  0.000177  0.999823  0.000000  1
  Pd  Pd27  1  0.000347  0.999653  0.500000  1
