# generated using pymatgen
data_Hf5ZrNb4(ZnSn3)2
_symmetry_space_group_name_H-M   'P 1'
_cell_length_a   8.51526601
_cell_length_b   8.51450730
_cell_length_c   5.74021100
_cell_angle_alpha   90.00000000
_cell_angle_beta   90.00000000
_cell_angle_gamma   119.99704109
_symmetry_Int_Tables_number   1
_chemical_formula_structural   Hf5ZrNb4(ZnSn3)2
_chemical_formula_sum   'Hf5 Zr1 Nb4 Zn2 Sn6'
_cell_volume   360.43684394
_cell_formula_units_Z   1
loop_
 _symmetry_equiv_pos_site_id
 _symmetry_equiv_pos_as_xyz
  1  'x, y, z'
loop_
 _atom_site_type_symbol
 _atom_site_label
 _atom_site_symmetry_multiplicity
 _atom_site_fract_x
 _atom_site_fract_y
 _atom_site_fract_z
 _atom_site_occupancy
  Hf  Hf0  1  0.728991  0.729443  0.750000  1
  Hf  Hf1  1  0.271009  0.000452  0.750000  1
  Hf  Hf2  1  0.000000  0.270667  0.750000  1
  Hf  Hf3  1  0.270601  0.270546  0.250000  1
  Hf  Hf4  1  0.729399  0.999945  0.250000  1
  Zr  Zr5  1  0.000000  0.729499  0.250000  1
  Nb  Nb6  1  0.666293  0.332906  0.999670  1
  Nb  Nb7  1  0.333707  0.666614  0.999670  1
  Nb  Nb8  1  0.333707  0.666614  0.500330  1
  Nb  Nb9  1  0.666293  0.332906  0.500330  1
  Zn  Zn10  1  0.000000  0.000455  0.999586  1
  Zn  Zn11  1  0.000000  0.000455  0.500414  1
  Sn  Sn12  1  0.386978  0.386940  0.750000  1
  Sn  Sn13  1  0.613022  0.999961  0.750000  1
  Sn  Sn14  1  0.000000  0.613008  0.750000  1
  Sn  Sn15  1  0.612568  0.612927  0.250000  1
  Sn  Sn16  1  0.387432  0.000359  0.250000  1
  Sn  Sn17  1  0.000000  0.386304  0.250000  1
