# generated using pymatgen
data_La3Yb9AgRu3
_symmetry_space_group_name_H-M   'P 1'
_cell_length_a   6.52951300
_cell_length_b   7.56216343
_cell_length_c   9.63047800
_cell_angle_alpha   90.00000000
_cell_angle_beta   90.00000000
_cell_angle_gamma   89.84014029
_symmetry_Int_Tables_number   1
_chemical_formula_structural   La3Yb9AgRu3
_chemical_formula_sum   'La3 Yb9 Ag1 Ru3'
_cell_volume   475.52461550
_cell_formula_units_Z   1
loop_
 _symmetry_equiv_pos_site_id
 _symmetry_equiv_pos_as_xyz
  1  'x, y, z'
loop_
 _atom_site_type_symbol
 _atom_site_label
 _atom_site_symmetry_multiplicity
 _atom_site_fract_x
 _atom_site_fract_y
 _atom_site_fract_z
 _atom_site_occupancy
  La  La0  1  0.607316  0.059229  0.250000  1
  La  La1  1  0.133656  0.444675  0.750000  1
  La  La2  1  0.360721  0.943623  0.750000  1
  Yb  Yb3  1  0.350952  0.658081  0.061902  1
  Yb  Yb4  1  0.156019  0.185249  0.440376  1
  Yb  Yb5  1  0.662235  0.330260  0.569799  1
  Yb  Yb6  1  0.835175  0.828843  0.926819  1
  Yb  Yb7  1  0.662235  0.330260  0.930201  1
  Yb  Yb8  1  0.835175  0.828843  0.573181  1
  Yb  Yb9  1  0.350952  0.658081  0.438098  1
  Yb  Yb10  1  0.156019  0.185249  0.059624  1
  Yb  Yb11  1  0.856057  0.531224  0.250000  1
  Ag  Ag12  1  0.061537  0.880087  0.250000  1
  Ru  Ru13  1  0.474900  0.351921  0.250000  1
  Ru  Ru14  1  0.985212  0.141122  0.750000  1
  Ru  Ru15  1  0.511833  0.643251  0.750000  1
