# generated using pymatgen
data_ErScMn(Fe3P2)3
_symmetry_space_group_name_H-M   'P 1'
_cell_length_a   3.63395700
_cell_length_b   10.22547600
_cell_length_c   11.79089200
_cell_angle_alpha   90.00000000
_cell_angle_beta   90.00000000
_cell_angle_gamma   90.00000000
_symmetry_Int_Tables_number   1
_chemical_formula_structural   ErScMn(Fe3P2)3
_chemical_formula_sum   'Er2 Sc2 Mn2 Fe18 P12'
_cell_volume   438.13704942
_cell_formula_units_Z   2
loop_
 _symmetry_equiv_pos_site_id
 _symmetry_equiv_pos_as_xyz
  1  'x, y, z'
loop_
 _atom_site_type_symbol
 _atom_site_label
 _atom_site_symmetry_multiplicity
 _atom_site_fract_x
 _atom_site_fract_y
 _atom_site_fract_z
 _atom_site_occupancy
  Er  Er0  1  0.250000  0.582050  0.704740  1
  Er  Er1  1  0.250000  0.917950  0.204740  1
  Sc  Sc2  1  0.750000  0.425373  0.296686  1
  Sc  Sc3  1  0.750000  0.074627  0.796686  1
  Mn  Mn4  1  0.250000  0.700704  0.989376  1
  Mn  Mn5  1  0.250000  0.799296  0.489376  1
  Fe  Fe6  1  0.750000  0.288829  0.009959  1
  Fe  Fe7  1  0.750000  0.211171  0.509959  1
  Fe  Fe8  1  0.250000  0.408379  0.487066  1
  Fe  Fe9  1  0.250000  0.091622  0.987066  1
  Fe  Fe10  1  0.750000  0.598657  0.510974  1
  Fe  Fe11  1  0.750000  0.901343  0.010974  1
  Fe  Fe12  1  0.250000  0.219195  0.175499  1
  Fe  Fe13  1  0.250000  0.280805  0.675499  1
  Fe  Fe14  1  0.750000  0.778391  0.828537  1
  Fe  Fe15  1  0.750000  0.721609  0.328537  1
  Fe  Fe16  1  0.250000  0.880959  0.701082  1
  Fe  Fe17  1  0.250000  0.619041  0.201082  1
  Fe  Fe18  1  0.750000  0.129841  0.297981  1
  Fe  Fe19  1  0.750000  0.370159  0.797981  1
  Fe  Fe20  1  0.250000  0.457151  0.932160  1
  Fe  Fe21  1  0.250000  0.042849  0.432160  1
  Fe  Fe22  1  0.750000  0.531380  0.066215  1
  Fe  Fe23  1  0.750000  0.968620  0.566215  1
  P  P24  1  0.250000  0.421764  0.116024  1
  P  P25  1  0.250000  0.078236  0.616024  1
  P  P26  1  0.750000  0.573863  0.885204  1
  P  P27  1  0.750000  0.926137  0.385204  1
  P  P28  1  0.250000  0.257431  0.868987  1
  P  P29  1  0.250000  0.242569  0.368987  1
  P  P30  1  0.750000  0.729280  0.137057  1
  P  P31  1  0.750000  0.770720  0.637057  1
  P  P32  1  0.250000  0.599032  0.389862  1
  P  P33  1  0.250000  0.900968  0.889862  1
  P  P34  1  0.750000  0.402154  0.602590  1
  P  P35  1  0.750000  0.097846  0.102590  1
