# generated using pymatgen
data_MgGa5(FeRh2)6
_symmetry_space_group_name_H-M   'P 1'
_cell_length_a   4.30261414
_cell_length_b   5.99157100
_cell_length_c   12.94698642
_cell_angle_alpha   89.99998614
_cell_angle_beta   89.97092974
_cell_angle_gamma   90.00099953
_symmetry_Int_Tables_number   1
_chemical_formula_structural   MgGa5(FeRh2)6
_chemical_formula_sum   'Mg1 Ga5 Fe6 Rh12'
_cell_volume   333.76573293
_cell_formula_units_Z   1
loop_
 _symmetry_equiv_pos_site_id
 _symmetry_equiv_pos_as_xyz
  1  'x, y, z'
loop_
 _atom_site_type_symbol
 _atom_site_label
 _atom_site_symmetry_multiplicity
 _atom_site_fract_x
 _atom_site_fract_y
 _atom_site_fract_z
 _atom_site_occupancy
  Mg  Mg0  1  0.000000  0.000000  0.000000  1
  Ga  Ga1  1  0.499864  0.500000  0.167703  1
  Ga  Ga2  1  0.999856  0.000000  0.333564  1
  Ga  Ga3  1  0.500001  0.500000  0.500000  1
  Ga  Ga4  1  0.000143  0.000000  0.666436  1
  Ga  Ga5  1  0.500135  0.500000  0.832297  1
  Fe  Fe6  1  0.000000  0.500000  0.000000  1
  Fe  Fe7  1  0.499824  0.000000  0.164094  1
  Fe  Fe8  1  0.999975  0.500001  0.334846  1
  Fe  Fe9  1  0.500001  0.000000  0.500000  1
  Fe  Fe10  1  0.000026  0.499999  0.665154  1
  Fe  Fe11  1  0.500177  0.000000  0.835906  1
  Rh  Rh12  1  0.500002  0.256479  0.000000  1
  Rh  Rh13  1  0.500000  0.743521  0.000000  1
  Rh  Rh14  1  0.999861  0.252626  0.170686  1
  Rh  Rh15  1  0.999862  0.747377  0.170685  1
  Rh  Rh16  1  0.499866  0.249008  0.334187  1
  Rh  Rh17  1  0.499865  0.750991  0.334187  1
  Rh  Rh18  1  0.000000  0.249336  0.500000  1
  Rh  Rh19  1  0.000000  0.750664  0.500000  1
  Rh  Rh20  1  0.500136  0.249007  0.665813  1
  Rh  Rh21  1  0.500135  0.750990  0.665813  1
  Rh  Rh22  1  0.000140  0.252624  0.829315  1
  Rh  Rh23  1  0.000141  0.747375  0.829314  1
