# generated using pymatgen
data_Y3ScIn2Ga2Pt
_symmetry_space_group_name_H-M   'P 1'
_cell_length_a   7.30708800
_cell_length_b   7.38461482
_cell_length_c   4.42013900
_cell_angle_alpha   90.00000000
_cell_angle_beta   90.00000000
_cell_angle_gamma   119.65331836
_symmetry_Int_Tables_number   1
_chemical_formula_structural   Y3ScIn2Ga2Pt
_chemical_formula_sum   'Y3 Sc1 In2 Ga2 Pt1'
_cell_volume   207.27423918
_cell_formula_units_Z   1
loop_
 _symmetry_equiv_pos_site_id
 _symmetry_equiv_pos_as_xyz
  1  'x, y, z'
loop_
 _atom_site_type_symbol
 _atom_site_label
 _atom_site_symmetry_multiplicity
 _atom_site_fract_x
 _atom_site_fract_y
 _atom_site_fract_z
 _atom_site_occupancy
  Y  Y0  1  0.406421  0.000000  0.500000  1
  Y  Y1  1  0.001485  0.411309  0.500000  1
  Y  Y2  1  0.590176  0.588691  0.500000  1
  Sc  Sc3  1  0.769222  0.000000  0.000000  1
  In  In4  1  0.250590  0.254130  0.000000  1
  In  In5  1  0.996461  0.745870  0.000000  1
  Ga  Ga6  1  0.664724  0.324275  0.000000  1
  Ga  Ga7  1  0.340448  0.675725  0.000000  1
  Pt  Pt8  1  0.980472  0.000000  0.500000  1
