# generated using pymatgen
data_Eu3C3BrF
_symmetry_space_group_name_H-M   'P 1'
_cell_length_a   7.10024388
_cell_length_b   7.10024444
_cell_length_c   11.34939600
_cell_angle_alpha   90.00000000
_cell_angle_beta   90.00000000
_cell_angle_gamma   147.75414401
_symmetry_Int_Tables_number   1
_chemical_formula_structural   Eu3C3BrF
_chemical_formula_sum   'Eu6 C6 Br2 F2'
_cell_volume   305.27916429
_cell_formula_units_Z   2
loop_
 _symmetry_equiv_pos_site_id
 _symmetry_equiv_pos_as_xyz
  1  'x, y, z'
loop_
 _atom_site_type_symbol
 _atom_site_label
 _atom_site_symmetry_multiplicity
 _atom_site_fract_x
 _atom_site_fract_y
 _atom_site_fract_z
 _atom_site_occupancy
  Eu  Eu0  1  0.661068  0.338932  0.580713  1
  Eu  Eu1  1  0.338932  0.661068  0.419287  1
  Eu  Eu2  1  0.338932  0.661068  0.080713  1
  Eu  Eu3  1  0.661068  0.338932  0.919287  1
  Eu  Eu4  1  0.099256  0.900744  0.250000  1
  Eu  Eu5  1  0.900744  0.099256  0.750000  1
  C  C6  1  0.281381  0.718619  0.632408  1
  C  C7  1  0.718619  0.281381  0.367592  1
  C  C8  1  0.718619  0.281381  0.132408  1
  C  C9  1  0.281381  0.718619  0.867592  1
  C  C10  1  0.729403  0.270597  0.250000  1
  C  C11  1  0.270597  0.729403  0.750000  1
  Br  Br12  1  0.000000  0.000000  0.000000  1
  Br  Br13  1  0.000000  0.000000  0.500000  1
  F  F14  1  0.533489  0.466511  0.750000  1
  F  F15  1  0.466511  0.533489  0.250000  1
