# generated using pymatgen
data_Hf3MnRe2Ge3
_symmetry_space_group_name_H-M   'P 1'
_cell_length_a   7.02340928
_cell_length_b   6.95268084
_cell_length_c   3.44924800
_cell_angle_alpha   90.00000000
_cell_angle_beta   90.00000000
_cell_angle_gamma   119.66743977
_symmetry_Int_Tables_number   1
_chemical_formula_structural   Hf3MnRe2Ge3
_chemical_formula_sum   'Hf3 Mn1 Re2 Ge3'
_cell_volume   146.35277262
_cell_formula_units_Z   1
loop_
 _symmetry_equiv_pos_site_id
 _symmetry_equiv_pos_as_xyz
  1  'x, y, z'
loop_
 _atom_site_type_symbol
 _atom_site_label
 _atom_site_symmetry_multiplicity
 _atom_site_fract_x
 _atom_site_fract_y
 _atom_site_fract_z
 _atom_site_occupancy
  Hf  Hf0  1  0.590333  0.990849  0.500000  1
  Hf  Hf1  1  0.409667  0.400518  0.500000  1
  Hf  Hf2  1  0.000000  0.600244  0.500000  1
  Mn  Mn3  1  0.000000  0.261144  0.000000  1
  Re  Re4  1  0.254607  0.999095  0.000000  1
  Re  Re5  1  0.745393  0.744487  0.000000  1
  Ge  Ge6  1  0.000000  0.020073  0.500000  1
  Ge  Ge7  1  0.325883  0.654738  0.000000  1
  Ge  Ge8  1  0.674117  0.328853  0.000000  1
