# generated using pymatgen
data_Tb7Ho9In4(PtRh)2
_symmetry_space_group_name_H-M   'P 1'
_cell_length_a   9.67666633
_cell_length_b   9.68087483
_cell_length_c   9.67754127
_cell_angle_alpha   59.98263478
_cell_angle_beta   60.09988270
_cell_angle_gamma   59.99159977
_symmetry_Int_Tables_number   1
_chemical_formula_structural   Tb7Ho9In4(PtRh)2
_chemical_formula_sum   'Tb7 Ho9 In4 Pt2 Rh2'
_cell_volume   641.40514420
_cell_formula_units_Z   1
loop_
 _symmetry_equiv_pos_site_id
 _symmetry_equiv_pos_as_xyz
  1  'x, y, z'
loop_
 _atom_site_type_symbol
 _atom_site_label
 _atom_site_symmetry_multiplicity
 _atom_site_fract_x
 _atom_site_fract_y
 _atom_site_fract_z
 _atom_site_occupancy
  Tb  Tb0  1  0.053771  0.650411  0.645688  1
  Tb  Tb1  1  0.437010  0.062913  0.061731  1
  Tb  Tb2  1  0.436861  0.063139  0.436861  1
  Tb  Tb3  1  0.060999  0.439001  0.060999  1
  Tb  Tb4  1  0.645688  0.650129  0.053771  1
  Tb  Tb5  1  0.189166  0.810834  0.189166  1
  Tb  Tb6  1  0.061731  0.438347  0.437010  1
  Ho  Ho7  1  0.809628  0.810391  0.192953  1
  Ho  Ho8  1  0.809316  0.190684  0.809316  1
  Ho  Ho9  1  0.192953  0.187027  0.809628  1
  Ho  Ho10  1  0.649448  0.047522  0.649300  1
  Ho  Ho11  1  0.060953  0.062345  0.437670  1
  Ho  Ho12  1  0.437670  0.439033  0.060953  1
  Ho  Ho13  1  0.649300  0.653730  0.649448  1
  Ho  Ho14  1  0.809445  0.187193  0.193055  1
  Ho  Ho15  1  0.193055  0.810306  0.809445  1
  In  In16  1  0.417588  0.416429  0.417201  1
  In  In17  1  0.418468  0.416899  0.748206  1
  In  In18  1  0.417201  0.748782  0.417588  1
  In  In19  1  0.748206  0.416425  0.418468  1
  Pt  Pt20  1  0.857979  0.426652  0.858534  1
  Pt  Pt21  1  0.858534  0.856837  0.857979  1
  Rh  Rh22  1  0.858420  0.857718  0.426609  1
  Rh  Rh23  1  0.426609  0.857254  0.858420  1
