# generated using pymatgen
data_Tb5Sn3Cl
_symmetry_space_group_name_H-M   'P 1'
_cell_length_a   9.15469300
_cell_length_b   9.15469164
_cell_length_c   6.57231200
_cell_angle_alpha   90.00000000
_cell_angle_beta   90.00000000
_cell_angle_gamma   119.99999407
_symmetry_Int_Tables_number   1
_chemical_formula_structural   Tb5Sn3Cl
_chemical_formula_sum   'Tb10 Sn6 Cl2'
_cell_volume   477.01972221
_cell_formula_units_Z   2
loop_
 _symmetry_equiv_pos_site_id
 _symmetry_equiv_pos_as_xyz
  1  'x, y, z'
loop_
 _atom_site_type_symbol
 _atom_site_label
 _atom_site_symmetry_multiplicity
 _atom_site_fract_x
 _atom_site_fract_y
 _atom_site_fract_z
 _atom_site_occupancy
  Tb  Tb0  1  0.666667  0.333333  0.000000  1
  Tb  Tb1  1  0.333333  0.666667  0.500000  1
  Tb  Tb2  1  0.666667  0.333333  0.500000  1
  Tb  Tb3  1  0.333333  0.666667  0.000000  1
  Tb  Tb4  1  0.739010  0.000000  0.750000  1
  Tb  Tb5  1  0.739010  0.739010  0.250000  1
  Tb  Tb6  1  0.000000  0.260990  0.250000  1
  Tb  Tb7  1  0.000000  0.739010  0.750000  1
  Tb  Tb8  1  0.260990  0.260990  0.750000  1
  Tb  Tb9  1  0.260990  0.000000  0.250000  1
  Sn  Sn10  1  0.611107  0.611107  0.750000  1
  Sn  Sn11  1  0.000000  0.611107  0.250000  1
  Sn  Sn12  1  0.611107  0.000000  0.250000  1
  Sn  Sn13  1  0.388893  0.000000  0.750000  1
  Sn  Sn14  1  0.000000  0.388893  0.750000  1
  Sn  Sn15  1  0.388893  0.388893  0.250000  1
  Cl  Cl16  1  0.000000  0.000000  0.500000  1
  Cl  Cl17  1  0.000000  0.000000  0.000000  1
