# generated using pymatgen
data_PrSm5Zn4Pd13
_symmetry_space_group_name_H-M   'P 1'
_cell_length_a   8.36009810
_cell_length_b   8.36009856
_cell_length_c   8.36009900
_cell_angle_alpha   109.47183818
_cell_angle_beta   109.47183896
_cell_angle_gamma   109.46998402
_symmetry_Int_Tables_number   1
_chemical_formula_structural   PrSm5Zn4Pd13
_chemical_formula_sum   'Pr1 Sm5 Zn4 Pd13'
_cell_volume   449.79259842
_cell_formula_units_Z   1
loop_
 _symmetry_equiv_pos_site_id
 _symmetry_equiv_pos_as_xyz
  1  'x, y, z'
loop_
 _atom_site_type_symbol
 _atom_site_label
 _atom_site_symmetry_multiplicity
 _atom_site_fract_x
 _atom_site_fract_y
 _atom_site_fract_z
 _atom_site_occupancy
  Pr  Pr0  1  0.700107  0.700107  0.000000  1
  Sm  Sm1  1  0.302641  0.000299  0.302342  1
  Sm  Sm2  1  0.000299  0.302641  0.302342  1
  Sm  Sm3  1  0.302139  0.302139  0.000000  1
  Sm  Sm4  1  0.697958  0.000299  0.697658  1
  Sm  Sm5  1  0.000299  0.697958  0.697658  1
  Zn  Zn6  1  0.000012  0.000012  0.500894  1
  Zn  Zn7  1  0.000012  0.499118  0.000000  1
  Zn  Zn8  1  0.499118  0.000012  0.000000  1
  Zn  Zn9  1  0.499118  0.499118  0.499106  1
  Pd  Pd10  1  0.330195  0.330195  0.661922  1
  Pd  Pd11  1  0.667194  0.000543  0.333349  1
  Pd  Pd12  1  0.000543  0.667194  0.333349  1
  Pd  Pd13  1  0.668274  0.330195  0.000000  1
  Pd  Pd14  1  0.332268  0.664443  0.332172  1
  Pd  Pd15  1  0.000096  0.332268  0.667828  1
  Pd  Pd16  1  0.330195  0.668274  0.000000  1
  Pd  Pd17  1  0.332268  0.000096  0.667828  1
  Pd  Pd18  1  0.664443  0.332268  0.332172  1
  Pd  Pd19  1  0.668274  0.668274  0.338078  1
  Pd  Pd20  1  0.667194  0.333844  0.666651  1
  Pd  Pd21  1  0.333844  0.667194  0.666651  1
  Pd  Pd22  1  0.003508  0.003508  0.000000  1
