# generated using pymatgen
data_CeSiPtRh
_symmetry_space_group_name_H-M   'P 1'
_cell_length_a   9.44876235
_cell_length_b   9.44876230
_cell_length_c   4.08695500
_cell_angle_alpha   90.00000000
_cell_angle_beta   90.00000000
_cell_angle_gamma   155.48674775
_symmetry_Int_Tables_number   1
_chemical_formula_structural   CeSiPtRh
_chemical_formula_sum   'Ce2 Si2 Pt2 Rh2'
_cell_volume   151.38993925
_cell_formula_units_Z   2
loop_
 _symmetry_equiv_pos_site_id
 _symmetry_equiv_pos_as_xyz
  1  'x, y, z'
loop_
 _atom_site_type_symbol
 _atom_site_label
 _atom_site_symmetry_multiplicity
 _atom_site_fract_x
 _atom_site_fract_y
 _atom_site_fract_z
 _atom_site_occupancy
  Ce  Ce0  1  0.103245  0.896755  0.750000  1
  Ce  Ce1  1  0.896755  0.103245  0.250000  1
  Si  Si2  1  0.318665  0.681335  0.750000  1
  Si  Si3  1  0.681335  0.318665  0.250000  1
  Pt  Pt4  1  0.550667  0.449333  0.250000  1
  Pt  Pt5  1  0.449333  0.550667  0.750000  1
  Rh  Rh6  1  0.250251  0.749749  0.250000  1
  Rh  Rh7  1  0.749749  0.250251  0.750000  1
