# generated using pymatgen
data_PrU(TaS2)8
_symmetry_space_group_name_H-M   'P 1'
_cell_length_a   6.67783800
_cell_length_b   6.67783770
_cell_length_c   14.27559300
_cell_angle_alpha   90.00000000
_cell_angle_beta   90.00000000
_cell_angle_gamma   120.00000150
_symmetry_Int_Tables_number   1
_chemical_formula_structural   PrU(TaS2)8
_chemical_formula_sum   'Pr1 U1 Ta8 S16'
_cell_volume   551.31082674
_cell_formula_units_Z   1
loop_
 _symmetry_equiv_pos_site_id
 _symmetry_equiv_pos_as_xyz
  1  'x, y, z'
loop_
 _atom_site_type_symbol
 _atom_site_label
 _atom_site_symmetry_multiplicity
 _atom_site_fract_x
 _atom_site_fract_y
 _atom_site_fract_z
 _atom_site_occupancy
  Pr  Pr0  1  0.000000  0.000000  0.500000  1
  U  U1  1  0.000000  0.000000  0.000000  1
  Ta  Ta2  1  0.504937  0.495063  0.753177  1
  Ta  Ta3  1  0.009873  0.504937  0.246823  1
  Ta  Ta4  1  0.495063  0.990127  0.246823  1
  Ta  Ta5  1  0.504937  0.009873  0.753177  1
  Ta  Ta6  1  0.990127  0.495063  0.753177  1
  Ta  Ta7  1  0.495063  0.504937  0.246823  1
  Ta  Ta8  1  0.000000  0.000000  0.752050  1
  Ta  Ta9  1  0.000000  0.000000  0.247950  1
  S  S10  1  0.829895  0.170105  0.356906  1
  S  S11  1  0.829895  0.659790  0.356906  1
  S  S12  1  0.340210  0.170105  0.356906  1
  S  S13  1  0.664790  0.832395  0.862706  1
  S  S14  1  0.170105  0.340210  0.643094  1
  S  S15  1  0.167605  0.832395  0.862706  1
  S  S16  1  0.167605  0.335210  0.862706  1
  S  S17  1  0.832395  0.167605  0.137294  1
  S  S18  1  0.335210  0.167605  0.137294  1
  S  S19  1  0.659790  0.829895  0.643094  1
  S  S20  1  0.333333  0.666667  0.134059  1
  S  S21  1  0.666667  0.333333  0.639855  1
  S  S22  1  0.666667  0.333333  0.865941  1
  S  S23  1  0.333333  0.666667  0.360145  1
  S  S24  1  0.832395  0.664790  0.137294  1
  S  S25  1  0.170105  0.829895  0.643094  1
