# generated using pymatgen
data_Pr3ZnHg2Pd2Rh
_symmetry_space_group_name_H-M   'P 1'
_cell_length_a   7.65027835
_cell_length_b   7.71707672
_cell_length_c   4.01023900
_cell_angle_alpha   90.00000000
_cell_angle_beta   90.00000000
_cell_angle_gamma   119.74918145
_symmetry_Int_Tables_number   1
_chemical_formula_structural   Pr3ZnHg2Pd2Rh
_chemical_formula_sum   'Pr3 Zn1 Hg2 Pd2 Rh1'
_cell_volume   205.55263362
_cell_formula_units_Z   1
loop_
 _symmetry_equiv_pos_site_id
 _symmetry_equiv_pos_as_xyz
  1  'x, y, z'
loop_
 _atom_site_type_symbol
 _atom_site_label
 _atom_site_symmetry_multiplicity
 _atom_site_fract_x
 _atom_site_fract_y
 _atom_site_fract_z
 _atom_site_occupancy
  Pr  Pr0  1  0.580617  0.989710  0.500000  1
  Pr  Pr1  1  0.400246  0.407254  0.500000  1
  Pr  Pr2  1  0.013015  0.603882  0.500000  1
  Zn  Zn3  1  0.253820  0.997578  0.000000  1
  Hg  Hg4  1  0.744688  0.744281  0.000000  1
  Hg  Hg5  1  0.998258  0.255075  0.000000  1
  Pd  Pd6  1  0.026906  0.001506  0.500000  1
  Pd  Pd7  1  0.652176  0.322361  0.000000  1
  Rh  Rh8  1  0.330275  0.678353  0.000000  1
