# generated using pymatgen
data_Cs4TaBiI12
_symmetry_space_group_name_H-M   'P 1'
_cell_length_a   8.43942400
_cell_length_b   8.43942400
_cell_length_c   12.16978000
_cell_angle_alpha   90.00000000
_cell_angle_beta   90.00000000
_cell_angle_gamma   90.00000000
_symmetry_Int_Tables_number   1
_chemical_formula_structural   Cs4TaBiI12
_chemical_formula_sum   'Cs4 Ta1 Bi1 I12'
_cell_volume   866.77891934
_cell_formula_units_Z   1
loop_
 _symmetry_equiv_pos_site_id
 _symmetry_equiv_pos_as_xyz
  1  'x, y, z'
loop_
 _atom_site_type_symbol
 _atom_site_label
 _atom_site_symmetry_multiplicity
 _atom_site_fract_x
 _atom_site_fract_y
 _atom_site_fract_z
 _atom_site_occupancy
  Cs  Cs0  1  0.500000  0.000000  0.718963  1
  Cs  Cs1  1  0.000000  0.500000  0.281037  1
  Cs  Cs2  1  0.500000  0.000000  0.281037  1
  Cs  Cs3  1  0.000000  0.500000  0.718963  1
  Ta  Ta4  1  0.000000  0.000000  0.000000  1
  Bi  Bi5  1  0.500000  0.500000  0.500000  1
  I  I6  1  0.000000  0.000000  0.771218  1
  I  I7  1  0.500000  0.500000  0.244500  1
  I  I8  1  0.758641  0.758641  0.500000  1
  I  I9  1  0.232096  0.232096  0.000000  1
  I  I10  1  0.758641  0.241359  0.500000  1
  I  I11  1  0.232096  0.767904  0.000000  1
  I  I12  1  0.000000  0.000000  0.228782  1
  I  I13  1  0.500000  0.500000  0.755500  1
  I  I14  1  0.241359  0.241359  0.500000  1
  I  I15  1  0.767904  0.767904  0.000000  1
  I  I16  1  0.241359  0.758641  0.500000  1
  I  I17  1  0.767904  0.232096  0.000000  1
