# generated using pymatgen
data_Mn3Be8V
_symmetry_space_group_name_H-M   'P 1'
_cell_length_a   4.20206000
_cell_length_b   4.20206025
_cell_length_c   6.87328300
_cell_angle_alpha   90.00000000
_cell_angle_beta   90.00000000
_cell_angle_gamma   119.99999801
_symmetry_Int_Tables_number   1
_chemical_formula_structural   Mn3Be8V
_chemical_formula_sum   'Mn3 Be8 V1'
_cell_volume   105.10403544
_cell_formula_units_Z   1
loop_
 _symmetry_equiv_pos_site_id
 _symmetry_equiv_pos_as_xyz
  1  'x, y, z'
loop_
 _atom_site_type_symbol
 _atom_site_label
 _atom_site_symmetry_multiplicity
 _atom_site_fract_x
 _atom_site_fract_y
 _atom_site_fract_z
 _atom_site_occupancy
  Mn  Mn0  1  0.666667  0.333333  0.562780  1
  Mn  Mn1  1  0.666667  0.333333  0.939344  1
  Mn  Mn2  1  0.333333  0.666667  0.435438  1
  Be  Be3  1  0.000000  0.000000  0.997668  1
  Be  Be4  1  0.000000  0.000000  0.500215  1
  Be  Be5  1  0.829752  0.659503  0.253842  1
  Be  Be6  1  0.169648  0.830352  0.746863  1
  Be  Be7  1  0.660703  0.830352  0.746863  1
  Be  Be8  1  0.340497  0.170248  0.253842  1
  Be  Be9  1  0.829752  0.170248  0.253842  1
  Be  Be10  1  0.169648  0.339297  0.746863  1
  V  V11  1  0.333333  0.666667  0.062440  1
