# generated using pymatgen
data_Yb2CoSi14Ir5
_symmetry_space_group_name_H-M   'P 1'
_cell_length_a   7.96560162
_cell_length_b   7.96560139
_cell_length_c   7.94113914
_cell_angle_alpha   57.07265061
_cell_angle_beta   57.07264475
_cell_angle_gamma   56.94357380
_symmetry_Int_Tables_number   1
_chemical_formula_structural   Yb2CoSi14Ir5
_chemical_formula_sum   'Yb2 Co1 Si14 Ir5'
_cell_volume   331.89103661
_cell_formula_units_Z   1
loop_
 _symmetry_equiv_pos_site_id
 _symmetry_equiv_pos_as_xyz
  1  'x, y, z'
loop_
 _atom_site_type_symbol
 _atom_site_label
 _atom_site_symmetry_multiplicity
 _atom_site_fract_x
 _atom_site_fract_y
 _atom_site_fract_z
 _atom_site_occupancy
  Yb  Yb0  1  0.499091  0.500495  0.499664  1
  Yb  Yb1  1  0.999505  0.000909  0.000336  1
  Co  Co2  1  0.930911  0.569089  0.250000  1
  Si  Si3  1  0.350857  0.172271  0.565523  1
  Si  Si4  1  0.567771  0.351073  0.171756  1
  Si  Si5  1  0.165980  0.566051  0.345776  1
  Si  Si6  1  0.063307  0.671005  0.859821  1
  Si  Si7  1  0.850766  0.067157  0.672619  1
  Si  Si8  1  0.680254  0.842223  0.073352  1
  Si  Si9  1  0.657777  0.819746  0.426648  1
  Si  Si10  1  0.432843  0.649234  0.827381  1
  Si  Si11  1  0.828995  0.436693  0.640179  1
  Si  Si12  1  0.933949  0.334020  0.154224  1
  Si  Si13  1  0.148927  0.932229  0.328244  1
  Si  Si14  1  0.327729  0.149143  0.934477  1
  Si  Si15  1  0.239892  0.260108  0.250000  1
  Si  Si16  1  0.750356  0.749644  0.750000  1
  Ir  Ir17  1  0.248879  0.929377  0.571301  1
  Ir  Ir18  1  0.570623  0.251121  0.928699  1
  Ir  Ir19  1  0.751099  0.070202  0.427836  1
  Ir  Ir20  1  0.429798  0.748901  0.072164  1
  Ir  Ir21  1  0.070692  0.429308  0.750000  1
