# generated using pymatgen
data_TmLu9(TcSb2)2
_symmetry_space_group_name_H-M   'P 1'
_cell_length_a   8.64238300
_cell_length_b   8.66306797
_cell_length_c   6.27831000
_cell_angle_alpha   90.00000000
_cell_angle_beta   90.00000000
_cell_angle_gamma   119.88532868
_symmetry_Int_Tables_number   1
_chemical_formula_structural   TmLu9(TcSb2)2
_chemical_formula_sum   'Tm1 Lu9 Tc2 Sb4'
_cell_volume   407.54848987
_cell_formula_units_Z   1
loop_
 _symmetry_equiv_pos_site_id
 _symmetry_equiv_pos_as_xyz
  1  'x, y, z'
loop_
 _atom_site_type_symbol
 _atom_site_label
 _atom_site_symmetry_multiplicity
 _atom_site_fract_x
 _atom_site_fract_y
 _atom_site_fract_z
 _atom_site_occupancy
  Tm  Tm0  1  0.031291  0.770998  0.750000  1
  Lu  Lu1  1  0.351680  0.702491  0.000197  1
  Lu  Lu2  1  0.648725  0.297478  0.500050  1
  Lu  Lu3  1  0.648725  0.297478  0.999950  1
  Lu  Lu4  1  0.351680  0.702491  0.499803  1
  Lu  Lu5  1  0.261783  0.000384  0.250000  1
  Lu  Lu6  1  0.738497  0.999842  0.750000  1
  Lu  Lu7  1  0.967794  0.228248  0.250000  1
  Lu  Lu8  1  0.739098  0.771705  0.250000  1
  Lu  Lu9  1  0.261037  0.229424  0.750000  1
  Tc  Tc10  1  0.596149  0.999955  0.250000  1
  Tc  Tc11  1  0.404449  0.999822  0.750000  1
  Sb  Sb12  1  0.984907  0.607819  0.250000  1
  Sb  Sb13  1  0.377256  0.392606  0.250000  1
  Sb  Sb14  1  0.621598  0.607087  0.750000  1
  Sb  Sb15  1  0.015332  0.392171  0.750000  1
