# generated using pymatgen
data_La(TbS2)3
_symmetry_space_group_name_H-M   'P 1'
_cell_length_a   4.03768700
_cell_length_b   11.17942280
_cell_length_c   11.42106881
_cell_angle_alpha   71.16841673
_cell_angle_beta   90.00000000
_cell_angle_gamma   90.00000000
_symmetry_Int_Tables_number   1
_chemical_formula_structural   La(TbS2)3
_chemical_formula_sum   'La2 Tb6 S12'
_cell_volume   487.93987183
_cell_formula_units_Z   2
loop_
 _symmetry_equiv_pos_site_id
 _symmetry_equiv_pos_as_xyz
  1  'x, y, z'
loop_
 _atom_site_type_symbol
 _atom_site_label
 _atom_site_symmetry_multiplicity
 _atom_site_fract_x
 _atom_site_fract_y
 _atom_site_fract_z
 _atom_site_occupancy
  La  La0  1  0.750000  0.550054  0.805561  1
  La  La1  1  0.250000  0.449946  0.194439  1
  Tb  Tb2  1  0.750000  0.179019  0.999636  1
  Tb  Tb3  1  0.250000  0.820981  0.000364  1
  Tb  Tb4  1  0.750000  0.943862  0.666343  1
  Tb  Tb5  1  0.250000  0.056138  0.333657  1
  Tb  Tb6  1  0.750000  0.661054  0.412450  1
  Tb  Tb7  1  0.250000  0.338946  0.587550  1
  S  S8  1  0.750000  0.978947  0.888477  1
  S  S9  1  0.250000  0.021053  0.111523  1
  S  S10  1  0.750000  0.303237  0.749051  1
  S  S11  1  0.250000  0.696763  0.250949  1
  S  S12  1  0.750000  0.893108  0.442838  1
  S  S13  1  0.250000  0.106892  0.557162  1
  S  S14  1  0.750000  0.418435  0.405988  1
  S  S15  1  0.250000  0.581565  0.594012  1
  S  S16  1  0.750000  0.231926  0.230405  1
  S  S17  1  0.250000  0.768074  0.769595  1
  S  S18  1  0.750000  0.619586  0.036848  1
  S  S19  1  0.250000  0.380414  0.963152  1
