# generated using pymatgen
data_Tb5HoOsRu
_symmetry_space_group_name_H-M   'P 1'
_cell_length_a   6.34750707
_cell_length_b   7.36123100
_cell_length_c   9.16129206
_cell_angle_alpha   90.00000000
_cell_angle_beta   90.17042926
_cell_angle_gamma   90.00000000
_symmetry_Int_Tables_number   1
_chemical_formula_structural   Tb5HoOsRu
_chemical_formula_sum   'Tb10 Ho2 Os2 Ru2'
_cell_volume   428.06374527
_cell_formula_units_Z   2
loop_
 _symmetry_equiv_pos_site_id
 _symmetry_equiv_pos_as_xyz
  1  'x, y, z'
loop_
 _atom_site_type_symbol
 _atom_site_label
 _atom_site_symmetry_multiplicity
 _atom_site_fract_x
 _atom_site_fract_y
 _atom_site_fract_z
 _atom_site_occupancy
  Tb  Tb0  1  0.329180  0.676435  0.065130  1
  Tb  Tb1  1  0.170820  0.176435  0.434870  1
  Tb  Tb2  1  0.667230  0.325004  0.562966  1
  Tb  Tb3  1  0.832770  0.825004  0.937034  1
  Tb  Tb4  1  0.667526  0.324449  0.937061  1
  Tb  Tb5  1  0.832474  0.824449  0.562939  1
  Tb  Tb6  1  0.868411  0.539048  0.250143  1
  Tb  Tb7  1  0.631589  0.039048  0.249857  1
  Tb  Tb8  1  0.133846  0.458607  0.749913  1
  Tb  Tb9  1  0.366154  0.958606  0.750087  1
  Ho  Ho10  1  0.329406  0.676050  0.435071  1
  Ho  Ho11  1  0.170594  0.176050  0.064929  1
  Os  Os12  1  0.040358  0.884666  0.250042  1
  Os  Os13  1  0.459642  0.384666  0.249958  1
  Ru  Ru14  1  0.962646  0.115740  0.750580  1
  Ru  Ru15  1  0.537354  0.615740  0.749420  1
