# generated using pymatgen
data_Ce4Tm4B24OsW3
_symmetry_space_group_name_H-M   'P 1'
_cell_length_a   3.69270600
_cell_length_b   9.23412678
_cell_length_c   11.64465999
_cell_angle_alpha   89.95282853
_cell_angle_beta   90.00000000
_cell_angle_gamma   90.00000000
_symmetry_Int_Tables_number   1
_chemical_formula_structural   Ce4Tm4B24OsW3
_chemical_formula_sum   'Ce4 Tm4 B24 Os1 W3'
_cell_volume   397.07014087
_cell_formula_units_Z   1
loop_
 _symmetry_equiv_pos_site_id
 _symmetry_equiv_pos_as_xyz
  1  'x, y, z'
loop_
 _atom_site_type_symbol
 _atom_site_label
 _atom_site_symmetry_multiplicity
 _atom_site_fract_x
 _atom_site_fract_y
 _atom_site_fract_z
 _atom_site_occupancy
  Ce  Ce0  1  0.000000  0.321031  0.413777  1
  Ce  Ce1  1  0.000000  0.676873  0.584296  1
  Ce  Ce2  1  0.000000  0.821569  0.087073  1
  Ce  Ce3  1  0.000000  0.179774  0.914980  1
  Tm  Tm4  1  0.000000  0.944569  0.373858  1
  Tm  Tm5  1  0.000000  0.055438  0.627661  1
  Tm  Tm6  1  0.000000  0.445423  0.126705  1
  Tm  Tm7  1  0.000000  0.556513  0.872230  1
  B  B8  1  0.500000  0.552949  0.433099  1
  B  B9  1  0.500000  0.446739  0.567282  1
  B  B10  1  0.500000  0.052792  0.066008  1
  B  B11  1  0.500000  0.944521  0.930707  1
  B  B12  1  0.500000  0.750985  0.420167  1
  B  B13  1  0.500000  0.248423  0.580790  1
  B  B14  1  0.500000  0.251953  0.079938  1
  B  B15  1  0.500000  0.750699  0.917477  1
  B  B16  1  0.500000  0.794230  0.265094  1
  B  B17  1  0.500000  0.205428  0.735718  1
  B  B18  1  0.500000  0.293829  0.235002  1
  B  B19  1  0.500000  0.709084  0.765885  1
  B  B20  1  0.500000  0.631512  0.183815  1
  B  B21  1  0.500000  0.369300  0.816559  1
  B  B22  1  0.500000  0.130502  0.315760  1
  B  B23  1  0.500000  0.869086  0.685686  1
  B  B24  1  0.500000  0.980210  0.213539  1
  B  B25  1  0.500000  0.015413  0.786959  1
  B  B26  1  0.500000  0.480687  0.286055  1
  B  B27  1  0.500000  0.519652  0.713818  1
  B  B28  1  0.500000  0.604262  0.027295  1
  B  B29  1  0.500000  0.398384  0.971391  1
  B  B30  1  0.500000  0.102530  0.472138  1
  B  B31  1  0.500000  0.896704  0.529797  1
  Os  Os32  1  0.000000  0.860634  0.819826  1
  W  W33  1  0.000000  0.639229  0.320381  1
  W  W34  1  0.000000  0.360618  0.680642  1
  W  W35  1  0.000000  0.138457  0.178592  1
