# generated using pymatgen
data_Ca2ZnNi(Pd3O8)2
_symmetry_space_group_name_H-M   'P 1'
_cell_length_a   6.16802154
_cell_length_b   10.68343625
_cell_length_c   6.58600465
_cell_angle_alpha   105.68491248
_cell_angle_beta   62.07371238
_cell_angle_gamma   89.99928642
_symmetry_Int_Tables_number   1
_chemical_formula_structural   Ca2ZnNi(Pd3O8)2
_chemical_formula_sum   'Ca2 Zn1 Ni1 Pd6 O16'
_cell_volume   365.05982255
_cell_formula_units_Z   1
loop_
 _symmetry_equiv_pos_site_id
 _symmetry_equiv_pos_as_xyz
  1  'x, y, z'
loop_
 _atom_site_type_symbol
 _atom_site_label
 _atom_site_symmetry_multiplicity
 _atom_site_fract_x
 _atom_site_fract_y
 _atom_site_fract_z
 _atom_site_occupancy
  Ca  Ca0  1  0.749805  0.750926  0.500393  1
  Ca  Ca1  1  0.250228  0.249064  0.499544  1
  Zn  Zn2  1  0.500005  0.499999  0.999991  1
  Ni  Ni3  1  0.000031  0.999989  0.999944  1
  Pd  Pd4  1  0.750212  0.750553  0.000072  1
  Pd  Pd5  1  0.750357  0.249471  0.999942  1
  Pd  Pd6  1  0.999992  0.499979  0.000012  1
  Pd  Pd7  1  0.249715  0.249472  0.999951  1
  Pd  Pd8  1  0.249691  0.750557  0.000091  1
  Pd  Pd9  1  0.499989  0.999981  0.000019  1
  O  O10  1  0.090189  0.636853  0.819607  1
  O  O11  1  0.590252  0.136323  0.819490  1
  O  O12  1  0.409731  0.863682  0.180541  1
  O  O13  1  0.909789  0.363154  0.180433  1
  O  O14  1  0.354547  0.882115  0.809107  1
  O  O15  1  0.858395  0.380255  0.807647  1
  O  O16  1  0.904422  0.859464  0.191110  1
  O  O17  1  0.403913  0.356877  0.192170  1
  O  O18  1  0.141621  0.619740  0.192353  1
  O  O19  1  0.645477  0.117877  0.190882  1
  O  O20  1  0.666006  0.619743  0.192347  1
  O  O21  1  0.163610  0.117884  0.190897  1
  O  O22  1  0.836378  0.882108  0.809095  1
  O  O23  1  0.333977  0.380252  0.807656  1
  O  O24  1  0.596089  0.643132  0.807832  1
  O  O25  1  0.095585  0.140549  0.808882  1
