# generated using pymatgen
data_Zr2CdCoCu
_symmetry_space_group_name_H-M   'P 1'
_cell_length_a   7.37819000
_cell_length_b   7.34090000
_cell_length_c   3.28875900
_cell_angle_alpha   90.00000000
_cell_angle_beta   90.00000000
_cell_angle_gamma   90.00000000
_symmetry_Int_Tables_number   1
_chemical_formula_structural   Zr2CdCoCu
_chemical_formula_sum   'Zr4 Cd2 Co2 Cu2'
_cell_volume   178.12759012
_cell_formula_units_Z   2
loop_
 _symmetry_equiv_pos_site_id
 _symmetry_equiv_pos_as_xyz
  1  'x, y, z'
loop_
 _atom_site_type_symbol
 _atom_site_label
 _atom_site_symmetry_multiplicity
 _atom_site_fract_x
 _atom_site_fract_y
 _atom_site_fract_z
 _atom_site_occupancy
  Zr  Zr0  1  0.665584  0.187823  0.500001  1
  Zr  Zr1  1  0.165584  0.312177  0.500001  1
  Zr  Zr2  1  0.830023  0.642480  0.500001  1
  Zr  Zr3  1  0.330024  0.857519  0.500001  1
  Cd  Cd4  1  0.990623  0.993888  0.000000  1
  Cd  Cd5  1  0.490622  0.506111  0.000000  1
  Co  Co6  1  0.382539  0.121798  0.000000  1
  Co  Co7  1  0.882538  0.378203  0.000000  1
  Cu  Cu8  1  0.131232  0.623687  0.000000  1
  Cu  Cu9  1  0.631231  0.876312  0.000000  1
