# generated using pymatgen
data_Hf7Sc2Re2Mo2P
_symmetry_space_group_name_H-M   'P 1'
_cell_length_a   8.64030372
_cell_length_b   8.64834073
_cell_length_c   8.59691900
_cell_angle_alpha   90.00000000
_cell_angle_beta   90.00000000
_cell_angle_gamma   119.99719667
_symmetry_Int_Tables_number   1
_chemical_formula_structural   Hf7Sc2Re2Mo2P
_chemical_formula_sum   'Hf14 Sc4 Re4 Mo4 P2'
_cell_volume   556.34928576
_cell_formula_units_Z   2
loop_
 _symmetry_equiv_pos_site_id
 _symmetry_equiv_pos_as_xyz
  1  'x, y, z'
loop_
 _atom_site_type_symbol
 _atom_site_label
 _atom_site_symmetry_multiplicity
 _atom_site_fract_x
 _atom_site_fract_y
 _atom_site_fract_z
 _atom_site_occupancy
  Hf  Hf0  1  0.196676  0.803995  0.452943  1
  Hf  Hf1  1  0.196218  0.391706  0.451625  1
  Hf  Hf2  1  0.607888  0.803792  0.454747  1
  Hf  Hf3  1  0.804226  0.195346  0.549057  1
  Hf  Hf4  1  0.803427  0.608239  0.549369  1
  Hf  Hf5  1  0.392345  0.196489  0.545788  1
  Hf  Hf6  1  0.804226  0.195346  0.950943  1
  Hf  Hf7  1  0.803427  0.608239  0.950631  1
  Hf  Hf8  1  0.392345  0.196489  0.954212  1
  Hf  Hf9  1  0.196676  0.803995  0.047057  1
  Hf  Hf10  1  0.196218  0.391706  0.048375  1
  Hf  Hf11  1  0.607888  0.803792  0.045253  1
  Hf  Hf12  1  0.461263  0.921343  0.750000  1
  Hf  Hf13  1  0.077431  0.538988  0.750000  1
  Sc  Sc14  1  0.538118  0.458748  0.250000  1
  Sc  Sc15  1  0.537727  0.078583  0.250000  1
  Sc  Sc16  1  0.923077  0.461590  0.250000  1
  Sc  Sc17  1  0.459625  0.542359  0.750000  1
  Re  Re18  1  0.221347  0.110229  0.250000  1
  Re  Re19  1  0.778602  0.889924  0.750000  1
  Re  Re20  1  0.999687  0.999999  0.499036  1
  Re  Re21  1  0.999687  0.999999  0.000964  1
  Mo  Mo22  1  0.891588  0.109161  0.250000  1
  Mo  Mo23  1  0.891729  0.781894  0.250000  1
  Mo  Mo24  1  0.108734  0.891497  0.750000  1
  Mo  Mo25  1  0.108468  0.217866  0.750000  1
  P  P26  1  0.333715  0.667029  0.250000  1
  P  P27  1  0.667639  0.331658  0.750000  1
