# generated using pymatgen
data_Dy6Y10Cd4Ni3Os
_symmetry_space_group_name_H-M   'P 1'
_cell_length_a   9.61023415
_cell_length_b   9.62107560
_cell_length_c   9.62107565
_cell_angle_alpha   59.47709496
_cell_angle_beta   59.58200327
_cell_angle_gamma   59.58201380
_symmetry_Int_Tables_number   1
_chemical_formula_structural   Dy6Y10Cd4Ni3Os
_chemical_formula_sum   'Dy6 Y10 Cd4 Ni3 Os1'
_cell_volume   622.54308143
_cell_formula_units_Z   1
loop_
 _symmetry_equiv_pos_site_id
 _symmetry_equiv_pos_as_xyz
  1  'x, y, z'
loop_
 _atom_site_type_symbol
 _atom_site_label
 _atom_site_symmetry_multiplicity
 _atom_site_fract_x
 _atom_site_fract_y
 _atom_site_fract_z
 _atom_site_occupancy
  Dy  Dy0  1  0.597720  0.597624  0.597624  1
  Dy  Dy1  1  0.600575  0.600508  0.204237  1
  Dy  Dy2  1  0.600575  0.204237  0.600508  1
  Dy  Dy3  1  0.204049  0.600628  0.600628  1
  Dy  Dy4  1  0.060560  0.438417  0.438417  1
  Dy  Dy5  1  0.437092  0.061051  0.061051  1
  Y  Y6  1  0.438632  0.060014  0.438633  1
  Y  Y7  1  0.060829  0.437191  0.060865  1
  Y  Y8  1  0.438632  0.438633  0.060014  1
  Y  Y9  1  0.060829  0.060865  0.437191  1
  Y  Y10  1  0.186362  0.815071  0.815071  1
  Y  Y11  1  0.807404  0.188853  0.188853  1
  Y  Y12  1  0.814811  0.186738  0.814901  1
  Y  Y13  1  0.188947  0.807185  0.189006  1
  Y  Y14  1  0.814811  0.814901  0.186738  1
  Y  Y15  1  0.188947  0.189006  0.807185  1
  Cd  Cd16  1  0.830304  0.830074  0.830074  1
  Cd  Cd17  1  0.830132  0.830346  0.506116  1
  Cd  Cd18  1  0.830132  0.506116  0.830346  1
  Cd  Cd19  1  0.506157  0.830099  0.830099  1
  Ni  Ni20  1  0.393517  0.391426  0.823138  1
  Ni  Ni21  1  0.393517  0.823138  0.391426  1
  Ni  Ni22  1  0.823161  0.393486  0.393486  1
  Os  Os23  1  0.392303  0.394389  0.394389  1
