# generated using pymatgen
data_Li8Tm8SnBiPb6
_symmetry_space_group_name_H-M   'P 1'
_cell_length_a   9.45785290
_cell_length_b   9.46148632
_cell_length_c   7.17897527
_cell_angle_alpha   90.05306222
_cell_angle_beta   89.91560106
_cell_angle_gamma   119.97598159
_symmetry_Int_Tables_number   1
_chemical_formula_structural   Li8Tm8SnBiPb6
_chemical_formula_sum   'Li8 Tm8 Sn1 Bi1 Pb6'
_cell_volume   556.48003508
_cell_formula_units_Z   1
loop_
 _symmetry_equiv_pos_site_id
 _symmetry_equiv_pos_as_xyz
  1  'x, y, z'
loop_
 _atom_site_type_symbol
 _atom_site_label
 _atom_site_symmetry_multiplicity
 _atom_site_fract_x
 _atom_site_fract_y
 _atom_site_fract_z
 _atom_site_occupancy
  Li  Li0  1  0.830272  0.665784  0.713442  1
  Li  Li1  1  0.832685  0.165604  0.714518  1
  Li  Li2  1  0.335618  0.665976  0.820699  1
  Li  Li3  1  0.666297  0.333392  0.320488  1
  Li  Li4  1  0.666088  0.832786  0.212751  1
  Li  Li5  1  0.167481  0.333922  0.214378  1
  Li  Li6  1  0.166891  0.833382  0.214135  1
  Li  Li7  1  0.334813  0.169378  0.712709  1
  Tm  Tm8  1  0.996620  0.001032  0.001334  1
  Tm  Tm9  1  0.996839  0.000246  0.498600  1
  Tm  Tm10  1  0.511909  0.490481  0.005431  1
  Tm  Tm11  1  0.019801  0.507807  0.503880  1
  Tm  Tm12  1  0.493030  0.979071  0.504991  1
  Tm  Tm13  1  0.515440  0.022878  0.008226  1
  Tm  Tm14  1  0.976098  0.485096  0.008592  1
  Tm  Tm15  1  0.490089  0.513014  0.506569  1
  Sn  Sn16  1  0.666721  0.833263  0.769891  1
  Bi  Bi17  1  0.166667  0.833247  0.767683  1
  Pb  Pb18  1  0.666769  0.333300  0.740295  1
  Pb  Pb19  1  0.333138  0.667282  0.241381  1
  Pb  Pb20  1  0.833468  0.166733  0.269519  1
  Pb  Pb21  1  0.166406  0.333276  0.769467  1
  Pb  Pb22  1  0.333369  0.166491  0.269591  1
  Pb  Pb23  1  0.833489  0.666562  0.269431  1
