# generated using pymatgen
data_CaSm2Zn11
_symmetry_space_group_name_H-M   'P 1'
_cell_length_a   4.46558986
_cell_length_b   8.23398487
_cell_length_c   8.23398470
_cell_angle_alpha   65.77226007
_cell_angle_beta   74.26620869
_cell_angle_gamma   74.26620582
_symmetry_Int_Tables_number   1
_chemical_formula_structural   CaSm2Zn11
_chemical_formula_sum   'Ca1 Sm2 Zn11'
_cell_volume   261.30277196
_cell_formula_units_Z   1
loop_
 _symmetry_equiv_pos_site_id
 _symmetry_equiv_pos_as_xyz
  1  'x, y, z'
loop_
 _atom_site_type_symbol
 _atom_site_label
 _atom_site_symmetry_multiplicity
 _atom_site_fract_x
 _atom_site_fract_y
 _atom_site_fract_z
 _atom_site_occupancy
  Ca  Ca0  1  0.000000  0.000000  0.000000  1
  Sm  Sm1  1  0.702586  0.297414  0.297414  1
  Sm  Sm2  1  0.297414  0.702586  0.702586  1
  Zn  Zn3  1  0.000000  0.500000  0.500000  1
  Zn  Zn4  1  0.500000  0.317251  0.682749  1
  Zn  Zn5  1  0.500000  0.682749  0.317251  1
  Zn  Zn6  1  0.661334  0.981282  0.696051  1
  Zn  Zn7  1  0.338666  0.018718  0.303949  1
  Zn  Zn8  1  0.661334  0.696051  0.981282  1
  Zn  Zn9  1  0.338666  0.303949  0.018718  1
  Zn  Zn10  1  0.863794  0.854827  0.417587  1
  Zn  Zn11  1  0.136206  0.145173  0.582413  1
  Zn  Zn12  1  0.863794  0.417587  0.854827  1
  Zn  Zn13  1  0.136206  0.582413  0.145173  1
