# generated using pymatgen
data_Ho5Hf3(B6Ru)4
_symmetry_space_group_name_H-M   'P 1'
_cell_length_a   3.56964400
_cell_length_b   9.02712901
_cell_length_c   11.39859697
_cell_angle_alpha   89.97358218
_cell_angle_beta   90.00000000
_cell_angle_gamma   90.00000000
_symmetry_Int_Tables_number   1
_chemical_formula_structural   Ho5Hf3(B6Ru)4
_chemical_formula_sum   'Ho5 Hf3 B24 Ru4'
_cell_volume   367.30421091
_cell_formula_units_Z   1
loop_
 _symmetry_equiv_pos_site_id
 _symmetry_equiv_pos_as_xyz
  1  'x, y, z'
loop_
 _atom_site_type_symbol
 _atom_site_label
 _atom_site_symmetry_multiplicity
 _atom_site_fract_x
 _atom_site_fract_y
 _atom_site_fract_z
 _atom_site_occupancy
  Ho  Ho0  1  0.000000  0.321939  0.414779  1
  Ho  Ho1  1  0.000000  0.678234  0.587459  1
  Ho  Ho2  1  0.000000  0.821199  0.085166  1
  Ho  Ho3  1  0.000000  0.179008  0.913068  1
  Ho  Ho4  1  0.000000  0.943938  0.373497  1
  Hf  Hf5  1  0.000000  0.056693  0.627602  1
  Hf  Hf6  1  0.000000  0.444216  0.124649  1
  Hf  Hf7  1  0.000000  0.556161  0.874622  1
  B  B8  1  0.500000  0.552703  0.433496  1
  B  B9  1  0.500000  0.445171  0.566897  1
  B  B10  1  0.500000  0.055430  0.065376  1
  B  B11  1  0.500000  0.945439  0.933769  1
  B  B12  1  0.500000  0.747945  0.418633  1
  B  B13  1  0.500000  0.248076  0.582083  1
  B  B14  1  0.500000  0.253355  0.080042  1
  B  B15  1  0.500000  0.747374  0.919124  1
  B  B16  1  0.500000  0.791506  0.263470  1
  B  B17  1  0.500000  0.205424  0.736694  1
  B  B18  1  0.500000  0.295327  0.234556  1
  B  B19  1  0.500000  0.705103  0.764521  1
  B  B20  1  0.500000  0.628501  0.182349  1
  B  B21  1  0.500000  0.370598  0.817397  1
  B  B22  1  0.500000  0.132794  0.315214  1
  B  B23  1  0.500000  0.870264  0.683641  1
  B  B24  1  0.500000  0.984189  0.211210  1
  B  B25  1  0.500000  0.018168  0.787056  1
  B  B26  1  0.500000  0.480733  0.286071  1
  B  B27  1  0.500000  0.518899  0.713380  1
  B  B28  1  0.500000  0.600492  0.026776  1
  B  B29  1  0.500000  0.399741  0.972140  1
  B  B30  1  0.500000  0.104638  0.475503  1
  B  B31  1  0.500000  0.898029  0.531321  1
  Ru  Ru32  1  0.000000  0.636727  0.316937  1
  Ru  Ru33  1  0.000000  0.359652  0.682622  1
  Ru  Ru34  1  0.000000  0.143873  0.178865  1
  Ru  Ru35  1  0.000000  0.858462  0.820016  1
