# generated using pymatgen
data_CsLaCeSe6
_symmetry_space_group_name_H-M   'P 1'
_cell_length_a   12.14233699
_cell_length_b   12.14233631
_cell_length_c   12.14233488
_cell_angle_alpha   159.35420027
_cell_angle_beta   152.57619522
_cell_angle_gamma   34.57317743
_symmetry_Int_Tables_number   1
_chemical_formula_structural   CsLaCeSe6
_chemical_formula_sum   'Cs1 La1 Ce1 Se6'
_cell_volume   290.43001148
_cell_formula_units_Z   1
loop_
 _symmetry_equiv_pos_site_id
 _symmetry_equiv_pos_as_xyz
  1  'x, y, z'
loop_
 _atom_site_type_symbol
 _atom_site_label
 _atom_site_symmetry_multiplicity
 _atom_site_fract_x
 _atom_site_fract_y
 _atom_site_fract_z
 _atom_site_occupancy
  Cs  Cs0  1  0.999882  0.999882  0.000000  1
  La  La1  1  0.313556  0.813556  0.500000  1
  Ce  Ce2  1  0.687879  0.187879  0.500000  1
  Se  Se3  1  0.182985  0.392340  0.790645  1
  Se  Se4  1  0.219322  0.219322  0.000000  1
  Se  Se5  1  0.406021  0.612477  0.793546  1
  Se  Se6  1  0.601695  0.392340  0.209355  1
  Se  Se7  1  0.818931  0.612477  0.206454  1
  Se  Se8  1  0.769729  0.769729  0.000000  1
