# generated using pymatgen
data_Ti3V2Ga2Si
_symmetry_space_group_name_H-M   'P 1'
_cell_length_a   7.46869313
_cell_length_b   7.46869293
_cell_length_c   5.03065400
_cell_angle_alpha   90.00000000
_cell_angle_beta   90.00000000
_cell_angle_gamma   120.02116098
_symmetry_Int_Tables_number   1
_chemical_formula_structural   Ti3V2Ga2Si
_chemical_formula_sum   'Ti6 V4 Ga4 Si2'
_cell_volume   242.96944114
_cell_formula_units_Z   2
loop_
 _symmetry_equiv_pos_site_id
 _symmetry_equiv_pos_as_xyz
  1  'x, y, z'
loop_
 _atom_site_type_symbol
 _atom_site_label
 _atom_site_symmetry_multiplicity
 _atom_site_fract_x
 _atom_site_fract_y
 _atom_site_fract_z
 _atom_site_occupancy
  Ti  Ti0  1  0.757475  0.757475  0.750000  1
  Ti  Ti1  1  0.246022  0.000348  0.750000  1
  Ti  Ti2  1  0.000348  0.246022  0.750000  1
  Ti  Ti3  1  0.241538  0.241538  0.250000  1
  Ti  Ti4  1  0.756046  0.004360  0.250000  1
  Ti  Ti5  1  0.004360  0.756046  0.250000  1
  V  V6  1  0.667624  0.329699  0.004090  1
  V  V7  1  0.329699  0.667624  0.004090  1
  V  V8  1  0.329699  0.667624  0.495910  1
  V  V9  1  0.667624  0.329699  0.495910  1
  Ga  Ga10  1  0.401151  0.401151  0.750000  1
  Ga  Ga11  1  0.599509  0.998236  0.750000  1
  Ga  Ga12  1  0.998236  0.599509  0.750000  1
  Ga  Ga13  1  0.601523  0.601523  0.250000  1
  Si  Si14  1  0.398313  0.000834  0.250000  1
  Si  Si15  1  0.000834  0.398313  0.250000  1
