# generated using pymatgen
data_Yb4NpRu7
_symmetry_space_group_name_H-M   'P 1'
_cell_length_a   5.60754500
_cell_length_b   5.20473802
_cell_length_c   8.86407200
_cell_angle_alpha   90.00000000
_cell_angle_beta   90.00000000
_cell_angle_gamma   122.59493287
_symmetry_Int_Tables_number   1
_chemical_formula_structural   Yb4NpRu7
_chemical_formula_sum   'Yb4 Np1 Ru7'
_cell_volume   217.95902066
_cell_formula_units_Z   1
loop_
 _symmetry_equiv_pos_site_id
 _symmetry_equiv_pos_as_xyz
  1  'x, y, z'
loop_
 _atom_site_type_symbol
 _atom_site_label
 _atom_site_symmetry_multiplicity
 _atom_site_fract_x
 _atom_site_fract_y
 _atom_site_fract_z
 _atom_site_occupancy
  Yb  Yb0  1  0.343893  0.687788  0.426780  1
  Yb  Yb1  1  0.670888  0.341775  0.551615  1
  Yb  Yb2  1  0.670888  0.341775  0.948385  1
  Yb  Yb3  1  0.343893  0.687788  0.073220  1
  Np  Np4  1  0.144412  0.288823  0.750000  1
  Ru  Ru5  1  0.158360  0.780736  0.750000  1
  Ru  Ru6  1  0.340819  0.184321  0.250000  1
  Ru  Ru7  1  0.830417  0.660834  0.250000  1
  Ru  Ru8  1  0.622376  0.780736  0.750000  1
  Ru  Ru9  1  0.015276  0.030551  0.993956  1
  Ru  Ru10  1  0.843501  0.184321  0.250000  1
  Ru  Ru11  1  0.015276  0.030551  0.506044  1
