# generated using pymatgen
data_Rb3Yb(NpTe3)2
_symmetry_space_group_name_H-M   'P 1'
_cell_length_a   7.99149138
_cell_length_b   7.99149108
_cell_length_c   8.89811900
_cell_angle_alpha   81.36644293
_cell_angle_beta   81.36645050
_cell_angle_gamma   119.95904758
_symmetry_Int_Tables_number   1
_chemical_formula_structural   Rb3Yb(NpTe3)2
_chemical_formula_sum   'Rb3 Yb1 Np2 Te6'
_cell_volume   469.65408655
_cell_formula_units_Z   1
loop_
 _symmetry_equiv_pos_site_id
 _symmetry_equiv_pos_as_xyz
  1  'x, y, z'
loop_
 _atom_site_type_symbol
 _atom_site_label
 _atom_site_symmetry_multiplicity
 _atom_site_fract_x
 _atom_site_fract_y
 _atom_site_fract_z
 _atom_site_occupancy
  Rb  Rb0  1  0.661401  0.338599  0.500000  1
  Rb  Rb1  1  0.338599  0.661401  0.500000  1
  Rb  Rb2  1  0.000000  0.000000  0.500000  1
  Yb  Yb3  1  0.500000  0.500000  0.000000  1
  Np  Np4  1  0.832071  0.167929  0.000000  1
  Np  Np5  1  0.167929  0.832071  0.000000  1
  Te  Te6  1  0.776250  0.776250  0.196166  1
  Te  Te7  1  0.223750  0.223750  0.803834  1
  Te  Te8  1  0.432648  0.090851  0.199535  1
  Te  Te9  1  0.567352  0.909149  0.800465  1
  Te  Te10  1  0.909149  0.567352  0.800465  1
  Te  Te11  1  0.090851  0.432648  0.199535  1
