# generated using pymatgen
data_BaAgSbSe3
_symmetry_space_group_name_H-M   'P 1'
_cell_length_a   6.51987704
_cell_length_b   6.51987724
_cell_length_c   18.06910017
_cell_angle_alpha   81.40297938
_cell_angle_beta   81.40297916
_cell_angle_gamma   80.85588827
_symmetry_Int_Tables_number   1
_chemical_formula_structural   BaAgSbSe3
_chemical_formula_sum   'Ba4 Ag4 Sb4 Se12'
_cell_volume   743.56915292
_cell_formula_units_Z   4
loop_
 _symmetry_equiv_pos_site_id
 _symmetry_equiv_pos_as_xyz
  1  'x, y, z'
loop_
 _atom_site_type_symbol
 _atom_site_label
 _atom_site_symmetry_multiplicity
 _atom_site_fract_x
 _atom_site_fract_y
 _atom_site_fract_z
 _atom_site_occupancy
  Ba  Ba0  1  0.449242  0.201814  0.611073  1
  Ba  Ba1  1  0.798186  0.550758  0.888927  1
  Ba  Ba2  1  0.550758  0.798186  0.388927  1
  Ba  Ba3  1  0.201814  0.449242  0.111073  1
  Ag  Ag4  1  0.930549  0.069451  0.750000  1
  Ag  Ag5  1  0.069451  0.930549  0.250000  1
  Ag  Ag6  1  0.299510  0.700490  0.750000  1
  Ag  Ag7  1  0.700490  0.299510  0.250000  1
  Sb  Sb8  1  0.973426  0.685407  0.577349  1
  Sb  Sb9  1  0.314593  0.026574  0.922651  1
  Sb  Sb10  1  0.026574  0.314593  0.422651  1
  Sb  Sb11  1  0.685407  0.973426  0.077349  1
  Se  Se12  1  0.039975  0.488658  0.713905  1
  Se  Se13  1  0.511342  0.960025  0.786095  1
  Se  Se14  1  0.960025  0.511342  0.286095  1
  Se  Se15  1  0.488658  0.039975  0.213905  1
  Se  Se16  1  0.572476  0.695419  0.580911  1
  Se  Se17  1  0.304581  0.427524  0.919089  1
  Se  Se18  1  0.427524  0.304581  0.419089  1
  Se  Se19  1  0.695419  0.572476  0.080911  1
  Se  Se20  1  0.973471  0.069153  0.603471  1
  Se  Se21  1  0.930847  0.026529  0.896529  1
  Se  Se22  1  0.026529  0.930847  0.396529  1
  Se  Se23  1  0.069153  0.973471  0.103471  1
