# generated using pymatgen
data_PaCoH3
_symmetry_space_group_name_H-M   'P 1'
_cell_length_a   5.91259621
_cell_length_b   5.91259596
_cell_length_c   4.38085600
_cell_angle_alpha   90.00000000
_cell_angle_beta   90.00000000
_cell_angle_gamma   142.82943302
_symmetry_Int_Tables_number   1
_chemical_formula_structural   PaCoH3
_chemical_formula_sum   'Pa2 Co2 H6'
_cell_volume   92.53133547
_cell_formula_units_Z   2
loop_
 _symmetry_equiv_pos_site_id
 _symmetry_equiv_pos_as_xyz
  1  'x, y, z'
loop_
 _atom_site_type_symbol
 _atom_site_label
 _atom_site_symmetry_multiplicity
 _atom_site_fract_x
 _atom_site_fract_y
 _atom_site_fract_z
 _atom_site_occupancy
  Pa  Pa0  1  0.631903  0.368097  0.250000  1
  Pa  Pa1  1  0.368097  0.631903  0.750000  1
  Co  Co2  1  0.068119  0.931881  0.750000  1
  Co  Co3  1  0.931881  0.068119  0.250000  1
  H  H4  1  0.573375  0.426625  0.750000  1
  H  H5  1  0.185001  0.814999  0.506941  1
  H  H6  1  0.185001  0.814999  0.993059  1
  H  H7  1  0.814999  0.185001  0.006941  1
  H  H8  1  0.814999  0.185001  0.493059  1
  H  H9  1  0.426625  0.573375  0.250000  1
