# generated using pymatgen
data_Ho3Sc5Mn2(B12Ir)2
_symmetry_space_group_name_H-M   'P 1'
_cell_length_a   3.48705400
_cell_length_b   8.91686197
_cell_length_c   11.28084410
_cell_angle_alpha   90.03440638
_cell_angle_beta   90.00000000
_cell_angle_gamma   90.00000000
_symmetry_Int_Tables_number   1
_chemical_formula_structural   Ho3Sc5Mn2(B12Ir)2
_chemical_formula_sum   'Ho3 Sc5 Mn2 B24 Ir2'
_cell_volume   350.76175634
_cell_formula_units_Z   1
loop_
 _symmetry_equiv_pos_site_id
 _symmetry_equiv_pos_as_xyz
  1  'x, y, z'
loop_
 _atom_site_type_symbol
 _atom_site_label
 _atom_site_symmetry_multiplicity
 _atom_site_fract_x
 _atom_site_fract_y
 _atom_site_fract_z
 _atom_site_occupancy
  Ho  Ho0  1  0.500000  0.315299  0.409930  1
  Ho  Ho1  1  0.500000  0.684833  0.589659  1
  Ho  Ho2  1  0.500000  0.173925  0.917980  1
  Sc  Sc3  1  0.500000  0.826523  0.080170  1
  Sc  Sc4  1  0.500000  0.440169  0.124968  1
  Sc  Sc5  1  0.500000  0.561577  0.875916  1
  Sc  Sc6  1  0.500000  0.050458  0.628867  1
  Sc  Sc7  1  0.500000  0.948812  0.370404  1
  Mn  Mn8  1  0.500000  0.138554  0.181525  1
  Mn  Mn9  1  0.500000  0.859297  0.819707  1
  B  B10  1  0.000000  0.099708  0.472540  1
  B  B11  1  0.000000  0.900063  0.527213  1
  B  B12  1  0.000000  0.399479  0.972858  1
  B  B13  1  0.000000  0.603449  0.027963  1
  B  B14  1  0.000000  0.128314  0.314213  1
  B  B15  1  0.000000  0.870880  0.685593  1
  B  B16  1  0.000000  0.371012  0.819143  1
  B  B17  1  0.000000  0.631170  0.179965  1
  B  B18  1  0.000000  0.052552  0.068026  1
  B  B19  1  0.000000  0.944359  0.933922  1
  B  B20  1  0.000000  0.445688  0.566171  1
  B  B21  1  0.000000  0.554586  0.433455  1
  B  B22  1  0.000000  0.480186  0.284499  1
  B  B23  1  0.000000  0.520605  0.715444  1
  B  B24  1  0.000000  0.015847  0.787829  1
  B  B25  1  0.000000  0.981639  0.211650  1
  B  B26  1  0.000000  0.249299  0.081957  1
  B  B27  1  0.000000  0.750625  0.920599  1
  B  B28  1  0.000000  0.245181  0.579697  1
  B  B29  1  0.000000  0.754761  0.419764  1
  B  B30  1  0.000000  0.291437  0.232975  1
  B  B31  1  0.000000  0.708598  0.767744  1
  B  B32  1  0.000000  0.204836  0.735884  1
  B  B33  1  0.000000  0.795569  0.262463  1
  Ir  Ir34  1  0.500000  0.360498  0.680751  1
  Ir  Ir35  1  0.500000  0.640213  0.318556  1
