# generated using pymatgen
data_Y5Hf3(As3Rh4)4
_symmetry_space_group_name_H-M   'P 1'
_cell_length_a   13.32440400
_cell_length_b   13.32440506
_cell_length_c   4.00528200
_cell_angle_alpha   90.00000000
_cell_angle_beta   90.00000000
_cell_angle_gamma   120.00000234
_symmetry_Int_Tables_number   1
_chemical_formula_structural   Y5Hf3(As3Rh4)4
_chemical_formula_sum   'Y5 Hf3 As12 Rh16'
_cell_volume   615.82786956
_cell_formula_units_Z   1
loop_
 _symmetry_equiv_pos_site_id
 _symmetry_equiv_pos_as_xyz
  1  'x, y, z'
loop_
 _atom_site_type_symbol
 _atom_site_label
 _atom_site_symmetry_multiplicity
 _atom_site_fract_x
 _atom_site_fract_y
 _atom_site_fract_z
 _atom_site_occupancy
  Y  Y0  1  0.187426  0.187426  0.500000  1
  Y  Y1  1  0.812574  0.000000  0.500000  1
  Y  Y2  1  0.000000  0.812574  0.500000  1
  Y  Y3  1  0.333333  0.666667  0.000000  1
  Y  Y4  1  0.666667  0.333333  0.000000  1
  Hf  Hf5  1  0.556962  0.556962  0.000000  1
  Hf  Hf6  1  0.443038  0.000000  0.000000  1
  Hf  Hf7  1  0.000000  0.443038  0.000000  1
  As  As8  1  0.825116  0.825116  0.000000  1
  As  As9  1  0.174884  0.000000  0.000000  1
  As  As10  1  0.000000  0.174884  0.000000  1
  As  As11  1  0.170465  0.485902  0.500000  1
  As  As12  1  0.514098  0.684563  0.500000  1
  As  As13  1  0.315437  0.829535  0.500000  1
  As  As14  1  0.684563  0.514098  0.500000  1
  As  As15  1  0.829535  0.315437  0.500000  1
  As  As16  1  0.485902  0.170465  0.500000  1
  As  As17  1  0.354387  0.354387  0.000000  1
  As  As18  1  0.645613  0.000000  0.000000  1
  As  As19  1  0.000000  0.645613  0.000000  1
  Rh  Rh20  1  0.717467  0.717467  0.500000  1
  Rh  Rh21  1  0.282533  0.000000  0.500000  1
  Rh  Rh22  1  0.000000  0.282533  0.500000  1
  Rh  Rh23  1  0.175621  0.374685  0.000000  1
  Rh  Rh24  1  0.625315  0.800936  0.000000  1
  Rh  Rh25  1  0.199064  0.824379  0.000000  1
  Rh  Rh26  1  0.800936  0.625315  0.000000  1
  Rh  Rh27  1  0.824379  0.199064  0.000000  1
  Rh  Rh28  1  0.374685  0.175621  0.000000  1
  Rh  Rh29  1  0.355959  0.482864  0.500000  1
  Rh  Rh30  1  0.517136  0.873096  0.500000  1
  Rh  Rh31  1  0.126904  0.644041  0.500000  1
  Rh  Rh32  1  0.873096  0.517136  0.500000  1
  Rh  Rh33  1  0.644041  0.126904  0.500000  1
  Rh  Rh34  1  0.482864  0.355959  0.500000  1
  Rh  Rh35  1  0.000000  0.000000  0.000000  1
