# generated using pymatgen
data_Yb15Ho(LuPt4)4
_symmetry_space_group_name_H-M   'P 1'
_cell_length_a   7.45774546
_cell_length_b   7.53456457
_cell_length_c   14.48931415
_cell_angle_alpha   90.03856626
_cell_angle_beta   90.01354203
_cell_angle_gamma   89.99358934
_symmetry_Int_Tables_number   1
_chemical_formula_structural   Yb15Ho(LuPt4)4
_chemical_formula_sum   'Yb15 Ho1 Lu4 Pt16'
_cell_volume   814.16687894
_cell_formula_units_Z   1
loop_
 _symmetry_equiv_pos_site_id
 _symmetry_equiv_pos_as_xyz
  1  'x, y, z'
loop_
 _atom_site_type_symbol
 _atom_site_label
 _atom_site_symmetry_multiplicity
 _atom_site_fract_x
 _atom_site_fract_y
 _atom_site_fract_z
 _atom_site_occupancy
  Yb  Yb0  1  0.851312  0.665840  0.122038  1
  Yb  Yb1  1  0.647668  0.166149  0.878237  1
  Yb  Yb2  1  0.147697  0.333740  0.621151  1
  Yb  Yb3  1  0.490857  0.675320  0.594832  1
  Yb  Yb4  1  0.990789  0.823307  0.905741  1
  Yb  Yb5  1  0.509372  0.322295  0.093632  1
  Yb  Yb6  1  0.007655  0.177936  0.405695  1
  Yb  Yb7  1  0.508887  0.322879  0.404883  1
  Yb  Yb8  1  0.007579  0.179968  0.093921  1
  Yb  Yb9  1  0.490944  0.678885  0.904896  1
  Yb  Yb10  1  0.991396  0.820256  0.595623  1
  Yb  Yb11  1  0.809162  0.506215  0.750248  1
  Yb  Yb12  1  0.308136  0.992457  0.750180  1
  Yb  Yb13  1  0.189471  0.490161  0.249118  1
  Yb  Yb14  1  0.694748  0.008260  0.249446  1
  Ho  Ho15  1  0.648467  0.162338  0.623069  1
  Lu  Lu16  1  0.149026  0.336010  0.876143  1
  Lu  Lu17  1  0.352189  0.835812  0.124080  1
  Lu  Lu18  1  0.852479  0.664689  0.376889  1
  Lu  Lu19  1  0.352310  0.834074  0.376742  1
  Pt  Pt20  1  0.683462  0.956846  0.458728  1
  Pt  Pt21  1  0.190125  0.540900  0.038961  1
  Pt  Pt22  1  0.309425  0.041186  0.961542  1
  Pt  Pt23  1  0.812431  0.458267  0.538109  1
  Pt  Pt24  1  0.324021  0.030675  0.540122  1
  Pt  Pt25  1  0.828911  0.465774  0.956701  1
  Pt  Pt26  1  0.671725  0.965688  0.043969  1
  Pt  Pt27  1  0.177109  0.544723  0.456375  1
  Pt  Pt28  1  0.442592  0.378015  0.747493  1
  Pt  Pt29  1  0.943610  0.120545  0.751692  1
  Pt  Pt30  1  0.553370  0.624870  0.252620  1
  Pt  Pt31  1  0.060896  0.877288  0.253951  1
  Pt  Pt32  1  0.679881  0.863364  0.746536  1
  Pt  Pt33  1  0.180114  0.635145  0.753889  1
  Pt  Pt34  1  0.325195  0.132863  0.249425  1
  Pt  Pt35  1  0.816987  0.367258  0.253323  1
