# generated using pymatgen
data_Er7Lu3(Sn3P)2
_symmetry_space_group_name_H-M   'P 1'
_cell_length_a   8.97260600
_cell_length_b   8.97260660
_cell_length_c   6.60397700
_cell_angle_alpha   90.00000000
_cell_angle_beta   90.00000000
_cell_angle_gamma   119.99999043
_symmetry_Int_Tables_number   1
_chemical_formula_structural   Er7Lu3(Sn3P)2
_chemical_formula_sum   'Er7 Lu3 Sn6 P2'
_cell_volume   460.44042896
_cell_formula_units_Z   1
loop_
 _symmetry_equiv_pos_site_id
 _symmetry_equiv_pos_as_xyz
  1  'x, y, z'
loop_
 _atom_site_type_symbol
 _atom_site_label
 _atom_site_symmetry_multiplicity
 _atom_site_fract_x
 _atom_site_fract_y
 _atom_site_fract_z
 _atom_site_occupancy
  Er  Er0  1  0.666667  0.333333  0.000000  1
  Er  Er1  1  0.757959  0.758101  0.749942  1
  Er  Er2  1  0.241899  0.999858  0.749942  1
  Er  Er3  1  0.000142  0.242041  0.749942  1
  Er  Er4  1  0.241899  0.242041  0.250058  1
  Er  Er5  1  0.757959  0.999858  0.250058  1
  Er  Er6  1  0.000142  0.758101  0.250058  1
  Lu  Lu7  1  0.333333  0.666667  0.000000  1
  Lu  Lu8  1  0.333333  0.666667  0.500000  1
  Lu  Lu9  1  0.666667  0.333333  0.500000  1
  Sn  Sn10  1  0.399523  0.400242  0.749535  1
  Sn  Sn11  1  0.599758  0.999281  0.749535  1
  Sn  Sn12  1  0.000719  0.600477  0.749535  1
  Sn  Sn13  1  0.599758  0.600477  0.250465  1
  Sn  Sn14  1  0.399523  0.999281  0.250465  1
  Sn  Sn15  1  0.000719  0.400242  0.250465  1
  P  P16  1  0.000000  0.000000  0.000000  1
  P  P17  1  0.000000  0.000000  0.500000  1
