# generated using pymatgen
data_Eu2Fe2Co10P7
_symmetry_space_group_name_H-M   'P 1'
_cell_length_a   9.06799744
_cell_length_b   9.06216094
_cell_length_c   3.63295200
_cell_angle_alpha   90.00000000
_cell_angle_beta   90.00000000
_cell_angle_gamma   119.99746693
_symmetry_Int_Tables_number   1
_chemical_formula_structural   Eu2Fe2Co10P7
_chemical_formula_sum   'Eu2 Fe2 Co10 P7'
_cell_volume   258.54999618
_cell_formula_units_Z   1
loop_
 _symmetry_equiv_pos_site_id
 _symmetry_equiv_pos_as_xyz
  1  'x, y, z'
loop_
 _atom_site_type_symbol
 _atom_site_label
 _atom_site_symmetry_multiplicity
 _atom_site_fract_x
 _atom_site_fract_y
 _atom_site_fract_z
 _atom_site_occupancy
  Eu  Eu0  1  0.000391  0.000710  0.000000  1
  Eu  Eu1  1  0.333456  0.666535  0.500000  1
  Fe  Fe2  1  0.545103  0.427225  0.500000  1
  Fe  Fe3  1  0.573167  0.116982  0.500000  1
  Co  Co4  1  0.094792  0.704716  0.000000  1
  Co  Co5  1  0.294973  0.390549  0.000000  1
  Co  Co6  1  0.610152  0.904598  0.000000  1
  Co  Co7  1  0.822412  0.218144  0.000000  1
  Co  Co8  1  0.784081  0.604158  0.000000  1
  Co  Co9  1  0.393610  0.177183  0.000000  1
  Co  Co10  1  0.050645  0.286442  0.500000  1
  Co  Co11  1  0.714713  0.764577  0.500000  1
  Co  Co12  1  0.234587  0.948682  0.500000  1
  Co  Co13  1  0.881343  0.456146  0.500000  1
  P  P14  1  0.074514  0.443491  0.000000  1
  P  P15  1  0.556883  0.630461  0.000000  1
  P  P16  1  0.369882  0.925839  0.000000  1
  P  P17  1  0.775694  0.043488  0.500000  1
  P  P18  1  0.956776  0.733547  0.500000  1
  P  P19  1  0.268034  0.224670  0.500000  1
  P  P20  1  0.664793  0.331851  0.000000  1
