# generated using pymatgen
data_CePr2Ga4Cl
_symmetry_space_group_name_H-M   'P 1'
_cell_length_a   8.01099233
_cell_length_b   8.01099249
_cell_length_c   8.01099218
_cell_angle_alpha   119.17191543
_cell_angle_beta   119.17190818
_cell_angle_gamma   91.44037474
_symmetry_Int_Tables_number   1
_chemical_formula_structural   CePr2Ga4Cl
_chemical_formula_sum   'Ce2 Pr4 Ga8 Cl2'
_cell_volume   367.95744340
_cell_formula_units_Z   2
loop_
 _symmetry_equiv_pos_site_id
 _symmetry_equiv_pos_as_xyz
  1  'x, y, z'
loop_
 _atom_site_type_symbol
 _atom_site_label
 _atom_site_symmetry_multiplicity
 _atom_site_fract_x
 _atom_site_fract_y
 _atom_site_fract_z
 _atom_site_occupancy
  Ce  Ce0  1  0.250000  0.250000  0.000000  1
  Ce  Ce1  1  0.750000  0.750000  0.000000  1
  Pr  Pr2  1  0.837943  0.662057  0.500000  1
  Pr  Pr3  1  0.662057  0.162057  0.824115  1
  Pr  Pr4  1  0.337943  0.837943  0.175885  1
  Pr  Pr5  1  0.162057  0.337943  0.500000  1
  Ga  Ga6  1  0.159245  0.947089  0.500000  1
  Ga  Ga7  1  0.447089  0.659245  0.500000  1
  Ga  Ga8  1  0.552911  0.340755  0.500000  1
  Ga  Ga9  1  0.659245  0.159245  0.212156  1
  Ga  Ga10  1  0.840755  0.052911  0.500000  1
  Ga  Ga11  1  0.052911  0.552911  0.212156  1
  Ga  Ga12  1  0.340755  0.840755  0.787844  1
  Ga  Ga13  1  0.947089  0.447089  0.787844  1
  Cl  Cl14  1  0.000000  0.000000  0.000000  1
  Cl  Cl15  1  0.500000  0.500000  0.000000  1
