# generated using pymatgen
data_NaLa2Fe2(Co2P3)2
_symmetry_space_group_name_H-M   'P 1'
_cell_length_a   8.21994433
_cell_length_b   8.21994479
_cell_length_c   6.31373270
_cell_angle_alpha   68.22669042
_cell_angle_beta   68.22669931
_cell_angle_gamma   37.29503897
_symmetry_Int_Tables_number   1
_chemical_formula_structural   NaLa2Fe2(Co2P3)2
_chemical_formula_sum   'Na1 La2 Fe2 Co4 P6'
_cell_volume   237.85563541
_cell_formula_units_Z   1
loop_
 _symmetry_equiv_pos_site_id
 _symmetry_equiv_pos_as_xyz
  1  'x, y, z'
loop_
 _atom_site_type_symbol
 _atom_site_label
 _atom_site_symmetry_multiplicity
 _atom_site_fract_x
 _atom_site_fract_y
 _atom_site_fract_z
 _atom_site_occupancy
  Na  Na0  1  0.000456  0.999544  0.000000  1
  La  La1  1  0.660149  0.661013  0.679118  1
  La  La2  1  0.338987  0.339851  0.320882  1
  Fe  Fe3  1  0.583944  0.081909  0.833238  1
  Fe  Fe4  1  0.918091  0.416056  0.166762  1
  Co  Co5  1  0.082355  0.585990  0.832329  1
  Co  Co6  1  0.414010  0.917645  0.167671  1
  Co  Co7  1  0.753458  0.246542  0.500000  1
  Co  Co8  1  0.248132  0.751868  0.500000  1
  P  P9  1  0.878947  0.881773  0.528766  1
  P  P10  1  0.215263  0.218192  0.860311  1
  P  P11  1  0.553081  0.546909  0.197211  1
  P  P12  1  0.453091  0.446919  0.802789  1
  P  P13  1  0.781808  0.784737  0.139689  1
  P  P14  1  0.118227  0.121053  0.471234  1
