# generated using pymatgen
data_HfZr15(Si4W)4
_symmetry_space_group_name_H-M   'P 1'
_cell_length_a   7.00336002
_cell_length_b   7.00319217
_cell_length_c   12.86760033
_cell_angle_alpha   90.02498756
_cell_angle_beta   90.00782060
_cell_angle_gamma   89.99530309
_symmetry_Int_Tables_number   1
_chemical_formula_structural   HfZr15(Si4W)4
_chemical_formula_sum   'Hf1 Zr15 Si16 W4'
_cell_volume   631.10266361
_cell_formula_units_Z   1
loop_
 _symmetry_equiv_pos_site_id
 _symmetry_equiv_pos_as_xyz
  1  'x, y, z'
loop_
 _atom_site_type_symbol
 _atom_site_label
 _atom_site_symmetry_multiplicity
 _atom_site_fract_x
 _atom_site_fract_y
 _atom_site_fract_z
 _atom_site_occupancy
  Hf  Hf0  1  0.996759  0.145464  0.625466  1
  Zr  Zr1  1  0.498472  0.152595  0.532741  1
  Zr  Zr2  1  0.500772  0.847388  0.032753  1
  Zr  Zr3  1  0.652776  0.000853  0.282960  1
  Zr  Zr4  1  0.346714  0.999565  0.782218  1
  Zr  Zr5  1  0.847572  0.500384  0.966994  1
  Zr  Zr6  1  0.152322  0.498776  0.467718  1
  Zr  Zr7  1  0.000515  0.653659  0.717434  1
  Zr  Zr8  1  0.999366  0.347255  0.217327  1
  Zr  Zr9  1  0.497596  0.354346  0.124616  1
  Zr  Zr10  1  0.502300  0.645590  0.624591  1
  Zr  Zr11  1  0.854777  0.002434  0.874303  1
  Zr  Zr12  1  0.145853  0.997798  0.374952  1
  Zr  Zr13  1  0.645982  0.502324  0.375673  1
  Zr  Zr14  1  0.354318  0.497199  0.874986  1
  Zr  Zr15  1  0.002352  0.854458  0.125460  1
  Si  Si16  1  0.798106  0.145799  0.070555  1
  Si  Si17  1  0.201739  0.855213  0.571355  1
  Si  Si18  1  0.645662  0.701881  0.820741  1
  Si  Si19  1  0.354427  0.298176  0.320859  1
  Si  Si20  1  0.854318  0.201737  0.430116  1
  Si  Si21  1  0.145946  0.797836  0.929184  1
  Si  Si22  1  0.701968  0.645796  0.179377  1
  Si  Si23  1  0.296500  0.354419  0.678593  1
  Si  Si24  1  0.546931  0.198652  0.933580  1
  Si  Si25  1  0.453221  0.801168  0.433920  1
  Si  Si26  1  0.699272  0.953210  0.683464  1
  Si  Si27  1  0.301199  0.047108  0.183888  1
  Si  Si28  1  0.801210  0.452061  0.566487  1
  Si  Si29  1  0.198744  0.546845  0.066097  1
  Si  Si30  1  0.953179  0.698855  0.316449  1
  Si  Si31  1  0.047024  0.300892  0.815407  1
  W  W32  1  0.673860  0.326116  0.749455  1
  W  W33  1  0.327211  0.673126  0.250073  1
  W  W34  1  0.828174  0.828318  0.500508  1
  W  W35  1  0.172862  0.172705  0.999699  1
