# generated using pymatgen
data_Er4GaPt11
_symmetry_space_group_name_H-M   'P 1'
_cell_length_a   4.13966200
_cell_length_b   5.80354694
_cell_length_c   11.55726965
_cell_angle_alpha   87.77267663
_cell_angle_beta   90.00000000
_cell_angle_gamma   90.00000000
_symmetry_Int_Tables_number   1
_chemical_formula_structural   Er4GaPt11
_chemical_formula_sum   'Er4 Ga1 Pt11'
_cell_volume   277.45042543
_cell_formula_units_Z   1
loop_
 _symmetry_equiv_pos_site_id
 _symmetry_equiv_pos_as_xyz
  1  'x, y, z'
loop_
 _atom_site_type_symbol
 _atom_site_label
 _atom_site_symmetry_multiplicity
 _atom_site_fract_x
 _atom_site_fract_y
 _atom_site_fract_z
 _atom_site_occupancy
  Er  Er0  1  0.500000  0.756102  0.374582  1
  Er  Er1  1  0.500000  0.720610  0.865620  1
  Er  Er2  1  0.500000  0.279390  0.134380  1
  Er  Er3  1  0.500000  0.243898  0.625418  1
  Ga  Ga4  1  0.000000  0.000000  0.000000  1
  Pt  Pt5  1  0.000000  0.014692  0.244699  1
  Pt  Pt6  1  0.000000  0.985308  0.755301  1
  Pt  Pt7  1  0.000000  0.500000  0.000000  1
  Pt  Pt8  1  0.000000  0.500000  0.500000  1
  Pt  Pt9  1  0.000000  0.517964  0.248479  1
  Pt  Pt10  1  0.000000  0.482036  0.751521  1
  Pt  Pt11  1  0.500000  0.254343  0.376622  1
  Pt  Pt12  1  0.500000  0.221361  0.885838  1
  Pt  Pt13  1  0.500000  0.778639  0.114162  1
  Pt  Pt14  1  0.500000  0.745657  0.623378  1
  Pt  Pt15  1  0.000000  0.000000  0.500000  1
