# generated using pymatgen
data_Ce2Nd2SiB4Ir9
_symmetry_space_group_name_H-M   'P 1'
_cell_length_a   10.75913351
_cell_length_b   10.75913293
_cell_length_c   10.75913361
_cell_angle_alpha   30.06267007
_cell_angle_beta   30.06267732
_cell_angle_gamma   30.06268165
_symmetry_Int_Tables_number   1
_chemical_formula_structural   Ce2Nd2SiB4Ir9
_chemical_formula_sum   'Ce2 Nd2 Si1 B4 Ir9'
_cell_volume   276.87436549
_cell_formula_units_Z   1
loop_
 _symmetry_equiv_pos_site_id
 _symmetry_equiv_pos_as_xyz
  1  'x, y, z'
loop_
 _atom_site_type_symbol
 _atom_site_label
 _atom_site_symmetry_multiplicity
 _atom_site_fract_x
 _atom_site_fract_y
 _atom_site_fract_z
 _atom_site_occupancy
  Ce  Ce0  1  0.850075  0.850075  0.850075  1
  Ce  Ce1  1  0.051128  0.051128  0.051128  1
  Nd  Nd2  1  0.148754  0.148754  0.148754  1
  Nd  Nd3  1  0.949237  0.949237  0.949237  1
  Si  Si4  1  0.499894  0.499894  0.499894  1
  B  B5  1  0.615917  0.615917  0.615917  1
  B  B6  1  0.718285  0.718285  0.718285  1
  B  B7  1  0.384068  0.384068  0.384068  1
  B  B8  1  0.281560  0.281560  0.281560  1
  Ir  Ir9  1  0.402476  0.899201  0.402476  1
  Ir  Ir10  1  0.899201  0.402476  0.402476  1
  Ir  Ir11  1  0.500109  0.500109  0.000336  1
  Ir  Ir12  1  0.500109  0.000336  0.500109  1
  Ir  Ir13  1  0.000336  0.500109  0.500109  1
  Ir  Ir14  1  0.597732  0.100909  0.597732  1
  Ir  Ir15  1  0.597732  0.597732  0.100909  1
  Ir  Ir16  1  0.100909  0.597732  0.597732  1
  Ir  Ir17  1  0.402476  0.402476  0.899201  1
