# generated using pymatgen
data_Dy2Y3Bi2Pt
_symmetry_space_group_name_H-M   'P 1'
_cell_length_a   8.10924000
_cell_length_b   9.02674100
_cell_length_c   12.48492100
_cell_angle_alpha   90.00000000
_cell_angle_beta   90.00000000
_cell_angle_gamma   90.00000000
_symmetry_Int_Tables_number   1
_chemical_formula_structural   Dy2Y3Bi2Pt
_chemical_formula_sum   'Dy8 Y12 Bi8 Pt4'
_cell_volume   913.89633190
_cell_formula_units_Z   4
loop_
 _symmetry_equiv_pos_site_id
 _symmetry_equiv_pos_as_xyz
  1  'x, y, z'
loop_
 _atom_site_type_symbol
 _atom_site_label
 _atom_site_symmetry_multiplicity
 _atom_site_fract_x
 _atom_site_fract_y
 _atom_site_fract_z
 _atom_site_occupancy
  Dy  Dy0  1  0.678526  0.044421  0.567091  1
  Dy  Dy1  1  0.321474  0.955579  0.432909  1
  Dy  Dy2  1  0.178526  0.955579  0.932909  1
  Dy  Dy3  1  0.321474  0.544421  0.432909  1
  Dy  Dy4  1  0.821474  0.044421  0.067091  1
  Dy  Dy5  1  0.678526  0.455579  0.567091  1
  Dy  Dy6  1  0.821474  0.455579  0.067091  1
  Dy  Dy7  1  0.178526  0.544421  0.932909  1
  Y  Y8  1  0.838969  0.750000  0.790264  1
  Y  Y9  1  0.161031  0.250000  0.209736  1
  Y  Y10  1  0.338969  0.250000  0.709736  1
  Y  Y11  1  0.661031  0.750000  0.290264  1
  Y  Y12  1  0.369559  0.750000  0.697533  1
  Y  Y13  1  0.630441  0.250000  0.302467  1
  Y  Y14  1  0.869559  0.250000  0.802467  1
  Y  Y15  1  0.130441  0.750000  0.197533  1
  Y  Y16  1  0.951875  0.750000  0.499838  1
  Y  Y17  1  0.048125  0.250000  0.500162  1
  Y  Y18  1  0.451875  0.250000  0.000162  1
  Y  Y19  1  0.548125  0.750000  0.999838  1
  Bi  Bi20  1  0.568369  0.491623  0.827182  1
  Bi  Bi21  1  0.431631  0.508377  0.172818  1
  Bi  Bi22  1  0.068369  0.508377  0.672818  1
  Bi  Bi23  1  0.431631  0.991623  0.172818  1
  Bi  Bi24  1  0.931631  0.491623  0.327182  1
  Bi  Bi25  1  0.568369  0.008377  0.827182  1
  Bi  Bi26  1  0.931631  0.008377  0.327182  1
  Bi  Bi27  1  0.068369  0.991623  0.672818  1
  Pt  Pt28  1  0.572667  0.750000  0.511201  1
  Pt  Pt29  1  0.427333  0.250000  0.488799  1
  Pt  Pt30  1  0.072667  0.250000  0.988799  1
  Pt  Pt31  1  0.927333  0.750000  0.011201  1
