# generated using pymatgen
data_EuSn4IrRh
_symmetry_space_group_name_H-M   'P 1'
_cell_length_a   4.53524700
_cell_length_b   7.24822100
_cell_length_c   18.67079900
_cell_angle_alpha   90.00000000
_cell_angle_beta   90.00000000
_cell_angle_gamma   90.00000000
_symmetry_Int_Tables_number   1
_chemical_formula_structural   EuSn4IrRh
_chemical_formula_sum   'Eu4 Sn16 Ir4 Rh4'
_cell_volume   613.75532753
_cell_formula_units_Z   4
loop_
 _symmetry_equiv_pos_site_id
 _symmetry_equiv_pos_as_xyz
  1  'x, y, z'
loop_
 _atom_site_type_symbol
 _atom_site_label
 _atom_site_symmetry_multiplicity
 _atom_site_fract_x
 _atom_site_fract_y
 _atom_site_fract_z
 _atom_site_occupancy
  Eu  Eu0  1  0.250000  0.998678  0.858316  1
  Eu  Eu1  1  0.250000  0.501322  0.358316  1
  Eu  Eu2  1  0.750000  0.001322  0.141684  1
  Eu  Eu3  1  0.750000  0.498678  0.641684  1
  Sn  Sn4  1  0.250000  0.302032  0.182237  1
  Sn  Sn5  1  0.250000  0.197968  0.682237  1
  Sn  Sn6  1  0.750000  0.697968  0.817763  1
  Sn  Sn7  1  0.750000  0.802032  0.317763  1
  Sn  Sn8  1  0.250000  0.722688  0.194390  1
  Sn  Sn9  1  0.250000  0.777312  0.694390  1
  Sn  Sn10  1  0.750000  0.277312  0.805610  1
  Sn  Sn11  1  0.750000  0.222688  0.305610  1
  Sn  Sn12  1  0.250000  0.866304  0.032621  1
  Sn  Sn13  1  0.250000  0.633696  0.532621  1
  Sn  Sn14  1  0.750000  0.133696  0.967379  1
  Sn  Sn15  1  0.750000  0.366304  0.467379  1
  Sn  Sn16  1  0.250000  0.519474  0.931507  1
  Sn  Sn17  1  0.250000  0.980526  0.431507  1
  Sn  Sn18  1  0.750000  0.480526  0.068493  1
  Sn  Sn19  1  0.750000  0.019474  0.568493  1
  Ir  Ir20  1  0.250000  0.252800  0.035472  1
  Ir  Ir21  1  0.250000  0.247200  0.535472  1
  Ir  Ir22  1  0.750000  0.747200  0.964528  1
  Ir  Ir23  1  0.750000  0.752800  0.464528  1
  Rh  Rh24  1  0.250000  0.017319  0.286463  1
  Rh  Rh25  1  0.250000  0.482681  0.786463  1
  Rh  Rh26  1  0.750000  0.982681  0.713537  1
  Rh  Rh27  1  0.750000  0.517319  0.213537  1
