# generated using pymatgen
data_SrPaBe26
_symmetry_space_group_name_H-M   'P 1'
_cell_length_a   7.28323119
_cell_length_b   7.28323280
_cell_length_c   7.28323200
_cell_angle_alpha   60.00000364
_cell_angle_beta   59.99999633
_cell_angle_gamma   60.00000224
_symmetry_Int_Tables_number   1
_chemical_formula_structural   SrPaBe26
_chemical_formula_sum   'Sr1 Pa1 Be26'
_cell_volume   273.18537244
_cell_formula_units_Z   1
loop_
 _symmetry_equiv_pos_site_id
 _symmetry_equiv_pos_as_xyz
  1  'x, y, z'
loop_
 _atom_site_type_symbol
 _atom_site_label
 _atom_site_symmetry_multiplicity
 _atom_site_fract_x
 _atom_site_fract_y
 _atom_site_fract_z
 _atom_site_occupancy
  Sr  Sr0  1  0.750000  0.750000  0.750000  1
  Pa  Pa1  1  0.250000  0.250000  0.250000  1
  Be  Be2  1  0.000000  0.000000  0.000000  1
  Be  Be3  1  0.500000  0.500000  0.500000  1
  Be  Be4  1  0.066214  0.285029  0.941367  1
  Be  Be5  1  0.792610  0.558633  0.433786  1
  Be  Be6  1  0.558633  0.792610  0.214971  1
  Be  Be7  1  0.214971  0.558633  0.792610  1
  Be  Be8  1  0.792610  0.433786  0.214971  1
  Be  Be9  1  0.558633  0.433786  0.792610  1
  Be  Be10  1  0.214971  0.792610  0.433786  1
  Be  Be11  1  0.941367  0.066214  0.285029  1
  Be  Be12  1  0.285029  0.941367  0.066214  1
  Be  Be13  1  0.066214  0.707390  0.285029  1
  Be  Be14  1  0.066214  0.941367  0.707390  1
  Be  Be15  1  0.285029  0.707390  0.941367  1
  Be  Be16  1  0.707390  0.066214  0.941367  1
  Be  Be17  1  0.707390  0.285029  0.066214  1
  Be  Be18  1  0.941367  0.285029  0.707390  1
  Be  Be19  1  0.433786  0.792610  0.558633  1
  Be  Be20  1  0.433786  0.214971  0.792610  1
  Be  Be21  1  0.792610  0.214971  0.558633  1
  Be  Be22  1  0.433786  0.558633  0.214971  1
  Be  Be23  1  0.214971  0.433786  0.558633  1
  Be  Be24  1  0.558633  0.214971  0.433786  1
  Be  Be25  1  0.285029  0.066214  0.707390  1
  Be  Be26  1  0.941367  0.707390  0.066214  1
  Be  Be27  1  0.707390  0.941367  0.285029  1
