# generated using pymatgen
data_Tb3Pr(OsO4)4
_symmetry_space_group_name_H-M   'P 1'
_cell_length_a   5.43369066
_cell_length_b   7.70580019
_cell_length_c   7.50786970
_cell_angle_alpha   79.52541416
_cell_angle_beta   90.88677372
_cell_angle_gamma   93.56041208
_symmetry_Int_Tables_number   1
_chemical_formula_structural   Tb3Pr(OsO4)4
_chemical_formula_sum   'Tb3 Pr1 Os4 O16'
_cell_volume   308.52343542
_cell_formula_units_Z   1
loop_
 _symmetry_equiv_pos_site_id
 _symmetry_equiv_pos_as_xyz
  1  'x, y, z'
loop_
 _atom_site_type_symbol
 _atom_site_label
 _atom_site_symmetry_multiplicity
 _atom_site_fract_x
 _atom_site_fract_y
 _atom_site_fract_z
 _atom_site_occupancy
  Tb  Tb0  1  0.189505  0.670350  0.101387  1
  Tb  Tb1  1  0.802279  0.323450  0.898626  1
  Tb  Tb2  1  0.733755  0.378019  0.389702  1
  Pr  Pr3  1  0.259183  0.630351  0.607229  1
  Os  Os4  1  0.756679  0.837754  0.796832  1
  Os  Os5  1  0.715024  0.836378  0.297176  1
  Os  Os6  1  0.284360  0.164732  0.700574  1
  Os  Os7  1  0.243702  0.163944  0.206135  1
  O  O8  1  0.066876  0.958983  0.708799  1
  O  O9  1  0.403871  0.939224  0.206243  1
  O  O10  1  0.638240  0.827040  0.551288  1
  O  O11  1  0.846702  0.834755  0.052323  1
  O  O12  1  0.455471  0.706651  0.876691  1
  O  O13  1  0.940529  0.610823  0.835551  1
  O  O14  1  0.966619  0.658730  0.371052  1
  O  O15  1  0.494665  0.611443  0.315220  1
  O  O16  1  0.509505  0.388431  0.676984  1
  O  O17  1  0.018540  0.329640  0.620048  1
  O  O18  1  0.050028  0.383757  0.176944  1
  O  O19  1  0.547261  0.298107  0.131710  1
  O  O20  1  0.161394  0.176731  0.945482  1
  O  O21  1  0.378318  0.174249  0.448680  1
  O  O22  1  0.595830  0.060962  0.794556  1
  O  O23  1  0.941664  0.035496  0.290767  1
