# generated using pymatgen
data_Dy5Ho7(LuRh3)2
_symmetry_space_group_name_H-M   'P 1'
_cell_length_a   9.74515200
_cell_length_b   9.74605338
_cell_length_c   6.16000700
_cell_angle_alpha   90.00146202
_cell_angle_beta   90.00000000
_cell_angle_gamma   119.99694062
_symmetry_Int_Tables_number   1
_chemical_formula_structural   Dy5Ho7(LuRh3)2
_chemical_formula_sum   'Dy5 Ho7 Lu2 Rh6'
_cell_volume   506.69034400
_cell_formula_units_Z   1
loop_
 _symmetry_equiv_pos_site_id
 _symmetry_equiv_pos_as_xyz
  1  'x, y, z'
loop_
 _atom_site_type_symbol
 _atom_site_label
 _atom_site_symmetry_multiplicity
 _atom_site_fract_x
 _atom_site_fract_y
 _atom_site_fract_z
 _atom_site_occupancy
  Dy  Dy0  1  0.123686  0.876219  0.253701  1
  Dy  Dy1  1  0.752532  0.876219  0.253701  1
  Dy  Dy2  1  0.123754  0.247509  0.253703  1
  Dy  Dy3  1  0.876243  0.123662  0.753701  1
  Dy  Dy4  1  0.247420  0.123662  0.753701  1
  Ho  Ho5  1  0.876239  0.752478  0.753821  1
  Ho  Ho6  1  0.541038  0.459064  0.446917  1
  Ho  Ho7  1  0.918027  0.459064  0.446917  1
  Ho  Ho8  1  0.540988  0.081975  0.446865  1
  Ho  Ho9  1  0.459064  0.541009  0.946870  1
  Ho  Ho10  1  0.081943  0.541009  0.946870  1
  Ho  Ho11  1  0.459019  0.918039  0.946795  1
  Lu  Lu12  1  0.333334  0.666668  0.459853  1
  Lu  Lu13  1  0.666693  0.333385  0.959837  1
  Rh  Rh14  1  0.809270  0.190728  0.180075  1
  Rh  Rh15  1  0.381457  0.190728  0.180075  1
  Rh  Rh16  1  0.809319  0.618638  0.179875  1
  Rh  Rh17  1  0.190584  0.809254  0.680098  1
  Rh  Rh18  1  0.618672  0.809254  0.680098  1
  Rh  Rh19  1  0.190718  0.381435  0.680071  1
