# generated using pymatgen
data_Ti4CoSi4Ir3
_symmetry_space_group_name_H-M   'P 1'
_cell_length_a   3.83437300
_cell_length_b   6.23324183
_cell_length_c   7.18457160
_cell_angle_alpha   89.83185102
_cell_angle_beta   90.00000000
_cell_angle_gamma   90.00000000
_symmetry_Int_Tables_number   1
_chemical_formula_structural   Ti4CoSi4Ir3
_chemical_formula_sum   'Ti4 Co1 Si4 Ir3'
_cell_volume   171.71464694
_cell_formula_units_Z   1
loop_
 _symmetry_equiv_pos_site_id
 _symmetry_equiv_pos_as_xyz
  1  'x, y, z'
loop_
 _atom_site_type_symbol
 _atom_site_label
 _atom_site_symmetry_multiplicity
 _atom_site_fract_x
 _atom_site_fract_y
 _atom_site_fract_z
 _atom_site_occupancy
  Ti  Ti0  1  0.250000  0.021974  0.814129  1
  Ti  Ti1  1  0.750000  0.482532  0.323030  1
  Ti  Ti2  1  0.250000  0.521432  0.678694  1
  Ti  Ti3  1  0.750000  0.972835  0.185085  1
  Co  Co4  1  0.750000  0.850012  0.561033  1
  Si  Si5  1  0.750000  0.732028  0.864620  1
  Si  Si6  1  0.250000  0.768860  0.388419  1
  Si  Si7  1  0.750000  0.223586  0.621622  1
  Si  Si8  1  0.250000  0.273224  0.125170  1
  Ir  Ir9  1  0.250000  0.660961  0.061363  1
  Ir  Ir10  1  0.750000  0.343891  0.937600  1
  Ir  Ir11  1  0.250000  0.148665  0.439235  1
