# generated using pymatgen
data_Sc12Al7Cu5C4
_symmetry_space_group_name_H-M   'P 1'
_cell_length_a   8.60672740
_cell_length_b   8.61937140
_cell_length_c   8.60672666
_cell_angle_alpha   60.13807701
_cell_angle_beta   60.08393168
_cell_angle_gamma   60.13808762
_symmetry_Int_Tables_number   1
_chemical_formula_structural   Sc12Al7Cu5C4
_chemical_formula_sum   'Sc12 Al7 Cu5 C4'
_cell_volume   452.70552803
_cell_formula_units_Z   1
loop_
 _symmetry_equiv_pos_site_id
 _symmetry_equiv_pos_as_xyz
  1  'x, y, z'
loop_
 _atom_site_type_symbol
 _atom_site_label
 _atom_site_symmetry_multiplicity
 _atom_site_fract_x
 _atom_site_fract_y
 _atom_site_fract_z
 _atom_site_occupancy
  Sc  Sc0  1  0.807887  0.195942  0.807887  1
  Sc  Sc1  1  0.059024  0.444484  0.444145  1
  Sc  Sc2  1  0.442375  0.052232  0.059909  1
  Sc  Sc3  1  0.055770  0.442833  0.055770  1
  Sc  Sc4  1  0.444145  0.444484  0.059024  1
  Sc  Sc5  1  0.059909  0.052232  0.442375  1
  Sc  Sc6  1  0.805687  0.808428  0.196662  1
  Sc  Sc7  1  0.196662  0.808428  0.805687  1
  Sc  Sc8  1  0.805840  0.193361  0.192095  1
  Sc  Sc9  1  0.192095  0.193361  0.805840  1
  Sc  Sc10  1  0.443918  0.054902  0.443918  1
  Sc  Sc11  1  0.193247  0.806473  0.193247  1
  Al  Al12  1  0.629303  0.634458  0.629303  1
  Al  Al13  1  0.125909  0.624735  0.614902  1
  Al  Al14  1  0.621082  0.118506  0.621082  1
  Al  Al15  1  0.614902  0.624735  0.125909  1
  Al  Al16  1  0.420949  0.424724  0.733456  1
  Al  Al17  1  0.733456  0.424724  0.420949  1
  Al  Al18  1  0.827100  0.824513  0.827100  1
  Cu  Cu19  1  0.423298  0.419004  0.423298  1
  Cu  Cu20  1  0.512215  0.830363  0.832116  1
  Cu  Cu21  1  0.830572  0.513969  0.830572  1
  Cu  Cu22  1  0.832116  0.830363  0.512215  1
  Cu  Cu23  1  0.424555  0.732313  0.424555  1
  C  C24  1  0.125159  0.125997  0.125159  1
  C  C25  1  0.623317  0.125504  0.124636  1
  C  C26  1  0.124874  0.623432  0.124874  1
  C  C27  1  0.124636  0.125504  0.623317  1
