# generated using pymatgen
data_Sc8Nb12Si15Sn
_symmetry_space_group_name_H-M   'P 1'
_cell_length_a   6.75622564
_cell_length_b   6.92791591
_cell_length_c   13.27955484
_cell_angle_alpha   89.77326594
_cell_angle_beta   90.26721330
_cell_angle_gamma   90.03156277
_symmetry_Int_Tables_number   1
_chemical_formula_structural   Sc8Nb12Si15Sn
_chemical_formula_sum   'Sc8 Nb12 Si15 Sn1'
_cell_volume   621.55860772
_cell_formula_units_Z   1
loop_
 _symmetry_equiv_pos_site_id
 _symmetry_equiv_pos_as_xyz
  1  'x, y, z'
loop_
 _atom_site_type_symbol
 _atom_site_label
 _atom_site_symmetry_multiplicity
 _atom_site_fract_x
 _atom_site_fract_y
 _atom_site_fract_z
 _atom_site_occupancy
  Sc  Sc0  1  0.494595  0.669453  0.598697  1
  Sc  Sc1  1  0.000181  0.825449  0.904555  1
  Sc  Sc2  1  0.499433  0.324811  0.094261  1
  Sc  Sc3  1  0.014475  0.183520  0.400709  1
  Sc  Sc4  1  0.496913  0.333706  0.403027  1
  Sc  Sc5  1  0.998998  0.174638  0.094666  1
  Sc  Sc6  1  0.500667  0.675722  0.905114  1
  Sc  Sc7  1  0.006150  0.820137  0.600150  1
  Nb  Nb8  1  0.655485  0.185446  0.631369  1
  Nb  Nb9  1  0.159636  0.324440  0.876150  1
  Nb  Nb10  1  0.337083  0.824664  0.123911  1
  Nb  Nb11  1  0.847438  0.659172  0.369531  1
  Nb  Nb12  1  0.330431  0.822747  0.373198  1
  Nb  Nb13  1  0.837969  0.673432  0.123716  1
  Nb  Nb14  1  0.662680  0.175360  0.875840  1
  Nb  Nb15  1  0.161613  0.327201  0.627086  1
  Nb  Nb16  1  0.835297  0.495777  0.750929  1
  Nb  Nb17  1  0.335663  0.005844  0.751186  1
  Nb  Nb18  1  0.164133  0.504199  0.248752  1
  Nb  Nb19  1  0.663093  0.992381  0.243658  1
  Si  Si20  1  0.168421  0.532481  0.038760  1
  Si  Si21  1  0.331756  0.032338  0.960358  1
  Si  Si22  1  0.830127  0.466238  0.538508  1
  Si  Si23  1  0.321273  0.034491  0.540428  1
  Si  Si24  1  0.830417  0.467391  0.961015  1
  Si  Si25  1  0.668302  0.966357  0.037908  1
  Si  Si26  1  0.170553  0.534472  0.463315  1
  Si  Si27  1  0.454801  0.387773  0.754111  1
  Si  Si28  1  0.957662  0.114740  0.750837  1
  Si  Si29  1  0.542099  0.615772  0.249063  1
  Si  Si30  1  0.040387  0.886825  0.247928  1
  Si  Si31  1  0.703674  0.863835  0.750875  1
  Si  Si32  1  0.203163  0.637166  0.752248  1
  Si  Si33  1  0.298188  0.136479  0.248711  1
  Si  Si34  1  0.794192  0.358285  0.247489  1
  Sn  Sn35  1  0.683051  0.967257  0.461941  1
