# generated using pymatgen
data_Tb3Dy5(InRu)2
_symmetry_space_group_name_H-M   'P 1'
_cell_length_a   9.65329774
_cell_length_b   9.65329813
_cell_length_c   9.65329800
_cell_angle_alpha   60.00000043
_cell_angle_beta   59.99999911
_cell_angle_gamma   60.00000072
_symmetry_Int_Tables_number   1
_chemical_formula_structural   Tb3Dy5(InRu)2
_chemical_formula_sum   'Tb6 Dy10 In4 Ru4'
_cell_volume   636.08058023
_cell_formula_units_Z   2
loop_
 _symmetry_equiv_pos_site_id
 _symmetry_equiv_pos_as_xyz
  1  'x, y, z'
loop_
 _atom_site_type_symbol
 _atom_site_label
 _atom_site_symmetry_multiplicity
 _atom_site_fract_x
 _atom_site_fract_y
 _atom_site_fract_z
 _atom_site_occupancy
  Tb  Tb0  1  0.441349  0.441349  0.058651  1
  Tb  Tb1  1  0.058651  0.441349  0.058651  1
  Tb  Tb2  1  0.441349  0.058651  0.058651  1
  Tb  Tb3  1  0.058651  0.058651  0.441349  1
  Tb  Tb4  1  0.441349  0.058651  0.441349  1
  Tb  Tb5  1  0.058651  0.441349  0.441349  1
  Dy  Dy6  1  0.808599  0.808599  0.191401  1
  Dy  Dy7  1  0.191401  0.808599  0.191401  1
  Dy  Dy8  1  0.808599  0.191401  0.191401  1
  Dy  Dy9  1  0.191401  0.191401  0.808599  1
  Dy  Dy10  1  0.808599  0.191401  0.808599  1
  Dy  Dy11  1  0.191401  0.808599  0.808599  1
  Dy  Dy12  1  0.651919  0.651919  0.044242  1
  Dy  Dy13  1  0.651919  0.044242  0.651919  1
  Dy  Dy14  1  0.044242  0.651919  0.651919  1
  Dy  Dy15  1  0.651919  0.651919  0.651919  1
  In  In16  1  0.417938  0.417938  0.746187  1
  In  In17  1  0.417938  0.746187  0.417938  1
  In  In18  1  0.746187  0.417938  0.417938  1
  In  In19  1  0.417938  0.417938  0.417938  1
  Ru  Ru20  1  0.860752  0.860752  0.417744  1
  Ru  Ru21  1  0.860752  0.417744  0.860752  1
  Ru  Ru22  1  0.417744  0.860752  0.860752  1
  Ru  Ru23  1  0.860752  0.860752  0.860752  1
