# generated using pymatgen
data_Dy7ErGa12CoAu3
_symmetry_space_group_name_H-M   'P 1'
_cell_length_a   7.20535707
_cell_length_b   8.86041297
_cell_length_c   8.85402083
_cell_angle_alpha   120.02388121
_cell_angle_beta   90.01327851
_cell_angle_gamma   90.00000018
_symmetry_Int_Tables_number   1
_chemical_formula_structural   Dy7ErGa12CoAu3
_chemical_formula_sum   'Dy7 Er1 Ga12 Co1 Au3'
_cell_volume   489.41363744
_cell_formula_units_Z   1
loop_
 _symmetry_equiv_pos_site_id
 _symmetry_equiv_pos_as_xyz
  1  'x, y, z'
loop_
 _atom_site_type_symbol
 _atom_site_label
 _atom_site_symmetry_multiplicity
 _atom_site_fract_x
 _atom_site_fract_y
 _atom_site_fract_z
 _atom_site_occupancy
  Dy  Dy0  1  0.738901  0.000145  0.000290  1
  Dy  Dy1  1  0.252517  0.999938  0.999876  1
  Dy  Dy2  1  0.749252  0.486677  0.512965  1
  Dy  Dy3  1  0.258006  0.521383  0.478067  1
  Dy  Dy4  1  0.749252  0.026288  0.512965  1
  Dy  Dy5  1  0.258006  0.956684  0.478067  1
  Dy  Dy6  1  0.749214  0.486903  0.973806  1
  Er  Er7  1  0.258092  0.522010  0.044019  1
  Ga  Ga8  1  0.959568  0.837615  0.162417  1
  Ga  Ga9  1  0.046676  0.165458  0.835439  1
  Ga  Ga10  1  0.959568  0.324804  0.162417  1
  Ga  Ga11  1  0.460640  0.163853  0.836674  1
  Ga  Ga12  1  0.046676  0.669981  0.835439  1
  Ga  Ga13  1  0.537965  0.825756  0.173675  1
  Ga  Ga14  1  0.958633  0.837623  0.675245  1
  Ga  Ga15  1  0.460640  0.672820  0.836674  1
  Ga  Ga16  1  0.045577  0.164894  0.329790  1
  Ga  Ga17  1  0.537965  0.347920  0.173675  1
  Ga  Ga18  1  0.461808  0.163561  0.327124  1
  Ga  Ga19  1  0.538751  0.825844  0.651688  1
  Co  Co20  1  0.512327  0.666156  0.332310  1
  Au  Au21  1  0.955259  0.666604  0.333207  1
  Au  Au22  1  0.033406  0.333548  0.667096  1
  Au  Au23  1  0.471309  0.333535  0.667071  1
