# generated using pymatgen
data_Sc4Ni(AsRu)6
_symmetry_space_group_name_H-M   'P 1'
_cell_length_a   7.04520804
_cell_length_b   7.04520747
_cell_length_c   7.04520844
_cell_angle_alpha   109.28725670
_cell_angle_beta   109.83979376
_cell_angle_gamma   109.28724048
_symmetry_Int_Tables_number   1
_chemical_formula_structural   Sc4Ni(AsRu)6
_chemical_formula_sum   'Sc4 Ni1 As6 Ru6'
_cell_volume   269.18204025
_cell_formula_units_Z   1
loop_
 _symmetry_equiv_pos_site_id
 _symmetry_equiv_pos_as_xyz
  1  'x, y, z'
loop_
 _atom_site_type_symbol
 _atom_site_label
 _atom_site_symmetry_multiplicity
 _atom_site_fract_x
 _atom_site_fract_y
 _atom_site_fract_z
 _atom_site_occupancy
  Sc  Sc0  1  0.000747  0.001494  0.500747  1
  Sc  Sc1  1  0.499253  0.998506  0.999253  1
  Sc  Sc2  1  0.000747  0.500000  0.999253  1
  Sc  Sc3  1  0.499254  0.500000  0.500746  1
  Ni  Ni4  1  0.750000  0.500000  0.250000  1
  As  As5  1  0.312390  0.000001  0.312391  1
  As  As6  1  0.998249  0.314471  0.312718  1
  As  As7  1  0.998246  0.685529  0.683777  1
  As  As8  1  0.316223  0.314471  0.001754  1
  As  As9  1  0.687282  0.685529  0.001751  1
  As  As10  1  0.687609  0.999999  0.687610  1
  Ru  Ru11  1  0.501136  0.749301  0.250439  1
  Ru  Ru12  1  0.501137  0.250699  0.751835  1
  Ru  Ru13  1  0.749561  0.250699  0.498864  1
  Ru  Ru14  1  0.248165  0.749301  0.498863  1
  Ru  Ru15  1  0.250000  0.500000  0.750000  1
  Ru  Ru16  1  0.000000  0.000000  0.000000  1
