# generated using pymatgen
data_Pr3NdIn2Rh3
_symmetry_space_group_name_H-M   'P 1'
_cell_length_a   7.79750150
_cell_length_b   7.79750296
_cell_length_c   4.23602800
_cell_angle_alpha   90.00000000
_cell_angle_beta   90.00000000
_cell_angle_gamma   121.18298206
_symmetry_Int_Tables_number   1
_chemical_formula_structural   Pr3NdIn2Rh3
_chemical_formula_sum   'Pr3 Nd1 In2 Rh3'
_cell_volume   220.34288583
_cell_formula_units_Z   1
loop_
 _symmetry_equiv_pos_site_id
 _symmetry_equiv_pos_as_xyz
  1  'x, y, z'
loop_
 _atom_site_type_symbol
 _atom_site_label
 _atom_site_symmetry_multiplicity
 _atom_site_fract_x
 _atom_site_fract_y
 _atom_site_fract_z
 _atom_site_occupancy
  Pr  Pr0  1  0.027830  0.585562  0.500000  1
  Pr  Pr1  1  0.383252  0.383252  0.500000  1
  Pr  Pr2  1  0.585562  0.027830  0.500000  1
  Nd  Nd3  1  0.755068  0.755068  0.000000  1
  In  In4  1  0.993887  0.248305  0.000000  1
  In  In5  1  0.248305  0.993887  0.000000  1
  Rh  Rh6  1  0.331947  0.665196  0.000000  1
  Rh  Rh7  1  0.008954  0.008954  0.500000  1
  Rh  Rh8  1  0.665196  0.331947  0.000000  1
