# generated using pymatgen
data_Rb2Zr3(ScSe5)2
_symmetry_space_group_name_H-M   'P 1'
_cell_length_a   6.65703394
_cell_length_b   11.31382672
_cell_length_c   9.08678600
_cell_angle_alpha   58.96207154
_cell_angle_beta   68.52755552
_cell_angle_gamma   89.97246480
_symmetry_Int_Tables_number   1
_chemical_formula_structural   Rb2Zr3(ScSe5)2
_chemical_formula_sum   'Rb2 Zr3 Sc2 Se10'
_cell_volume   530.27130718
_cell_formula_units_Z   1
loop_
 _symmetry_equiv_pos_site_id
 _symmetry_equiv_pos_as_xyz
  1  'x, y, z'
loop_
 _atom_site_type_symbol
 _atom_site_label
 _atom_site_symmetry_multiplicity
 _atom_site_fract_x
 _atom_site_fract_y
 _atom_site_fract_z
 _atom_site_occupancy
  Rb  Rb0  1  0.788076  0.076678  0.424037  1
  Rb  Rb1  1  0.012201  0.523818  0.975927  1
  Zr  Zr2  1  0.396023  0.792870  0.206748  1
  Zr  Zr3  1  0.603890  0.206803  0.797127  1
  Zr  Zr4  1  0.998883  0.999494  0.999530  1
  Sc  Sc5  1  0.799986  0.598511  0.402221  1
  Sc  Sc6  1  0.201140  0.401649  0.594721  1
  Se  Se7  1  0.992887  0.836515  0.350872  1
  Se  Se8  1  0.589173  0.037643  0.151851  1
  Se  Se9  1  0.189753  0.237481  0.952815  1
  Se  Se10  1  0.787666  0.436457  0.752596  1
  Se  Se11  1  0.393921  0.639119  0.546906  1
  Se  Se12  1  0.404729  0.962166  0.852538  1
  Se  Se13  1  0.008960  0.160943  0.650349  1
  Se  Se14  1  0.611103  0.359534  0.449821  1
  Se  Se15  1  0.213469  0.563876  0.245924  1
  Se  Se16  1  0.808141  0.766444  0.046017  1
