# generated using pymatgen
data_Tb4YbHo(CoSn6)2
_symmetry_space_group_name_H-M   'P 1'
_cell_length_a   8.46421117
_cell_length_b   8.46421249
_cell_length_c   13.13299207
_cell_angle_alpha   90.02337731
_cell_angle_beta   89.97662342
_cell_angle_gamma   148.51800053
_symmetry_Int_Tables_number   1
_chemical_formula_structural   Tb4YbHo(CoSn6)2
_chemical_formula_sum   'Tb4 Yb1 Ho1 Co2 Sn12'
_cell_volume   491.35916506
_cell_formula_units_Z   1
loop_
 _symmetry_equiv_pos_site_id
 _symmetry_equiv_pos_as_xyz
  1  'x, y, z'
loop_
 _atom_site_type_symbol
 _atom_site_label
 _atom_site_symmetry_multiplicity
 _atom_site_fract_x
 _atom_site_fract_y
 _atom_site_fract_z
 _atom_site_occupancy
  Tb  Tb0  1  0.898496  0.101504  0.094302  1
  Tb  Tb1  1  0.101518  0.898482  0.595182  1
  Tb  Tb2  1  0.900895  0.099105  0.752223  1
  Tb  Tb3  1  0.100879  0.899121  0.906062  1
  Yb  Yb4  1  0.899313  0.100687  0.403258  1
  Ho  Ho5  1  0.099543  0.900457  0.248956  1
  Co  Co6  1  0.298928  0.701072  0.250248  1
  Co  Co7  1  0.700029  0.299971  0.749628  1
  Sn  Sn8  1  0.757808  0.242192  0.572008  1
  Sn  Sn9  1  0.428229  0.571771  0.576727  1
  Sn  Sn10  1  0.572941  0.427059  0.423906  1
  Sn  Sn11  1  0.733664  0.266336  0.248997  1
  Sn  Sn12  1  0.265639  0.734361  0.750442  1
  Sn  Sn13  1  0.243289  0.756711  0.071441  1
  Sn  Sn14  1  0.243412  0.756588  0.428668  1
  Sn  Sn15  1  0.572276  0.427724  0.075112  1
  Sn  Sn16  1  0.454532  0.545468  0.248237  1
  Sn  Sn17  1  0.545709  0.454291  0.750794  1
  Sn  Sn18  1  0.756265  0.243735  0.928219  1
  Sn  Sn19  1  0.426634  0.573366  0.925591  1
