# generated using pymatgen
data_Cs2Ga13Sn
_symmetry_space_group_name_H-M   'P 1'
_cell_length_a   10.56277610
_cell_length_b   10.56277662
_cell_length_c   10.56277705
_cell_angle_alpha   38.11751509
_cell_angle_beta   38.11750952
_cell_angle_gamma   38.11752116
_symmetry_Int_Tables_number   1
_chemical_formula_structural   Cs2Ga13Sn
_chemical_formula_sum   'Cs2 Ga13 Sn1'
_cell_volume   403.17371569
_cell_formula_units_Z   1
loop_
 _symmetry_equiv_pos_site_id
 _symmetry_equiv_pos_as_xyz
  1  'x, y, z'
loop_
 _atom_site_type_symbol
 _atom_site_label
 _atom_site_symmetry_multiplicity
 _atom_site_fract_x
 _atom_site_fract_y
 _atom_site_fract_z
 _atom_site_occupancy
  Cs  Cs0  1  0.196095  0.196095  0.196095  1
  Cs  Cs1  1  0.804355  0.804355  0.804355  1
  Ga  Ga2  1  0.551892  0.551892  0.551892  1
  Ga  Ga3  1  0.579193  0.183710  0.183710  1
  Ga  Ga4  1  0.183710  0.183710  0.579193  1
  Ga  Ga5  1  0.183710  0.579193  0.183710  1
  Ga  Ga6  1  0.814646  0.421168  0.814646  1
  Ga  Ga7  1  0.421168  0.814646  0.814646  1
  Ga  Ga8  1  0.814646  0.814646  0.421168  1
  Ga  Ga9  1  0.804210  0.206816  0.206816  1
  Ga  Ga10  1  0.206816  0.206816  0.804210  1
  Ga  Ga11  1  0.206816  0.804210  0.206816  1
  Ga  Ga12  1  0.789512  0.198164  0.789512  1
  Ga  Ga13  1  0.198164  0.789512  0.789512  1
  Ga  Ga14  1  0.789512  0.789512  0.198164  1
  Sn  Sn15  1  0.455553  0.455553  0.455553  1
