# generated using pymatgen
data_Tb2Lu8In8Pt3Rh
_symmetry_space_group_name_H-M   'P 1'
_cell_length_a   3.54776800
_cell_length_b   8.09321290
_cell_length_c   18.11995299
_cell_angle_alpha   90.06738924
_cell_angle_beta   90.00000000
_cell_angle_gamma   90.00000000
_symmetry_Int_Tables_number   1
_chemical_formula_structural   Tb2Lu8In8Pt3Rh
_chemical_formula_sum   'Tb2 Lu8 In8 Pt3 Rh1'
_cell_volume   520.27498247
_cell_formula_units_Z   1
loop_
 _symmetry_equiv_pos_site_id
 _symmetry_equiv_pos_as_xyz
  1  'x, y, z'
loop_
 _atom_site_type_symbol
 _atom_site_label
 _atom_site_symmetry_multiplicity
 _atom_site_fract_x
 _atom_site_fract_y
 _atom_site_fract_z
 _atom_site_occupancy
  Tb  Tb0  1  0.000000  0.999348  0.999805  1
  Tb  Tb1  1  0.000000  0.499559  0.499820  1
  Lu  Lu2  1  0.000000  0.116007  0.411314  1
  Lu  Lu3  1  0.000000  0.880283  0.585685  1
  Lu  Lu4  1  0.000000  0.381814  0.914427  1
  Lu  Lu5  1  0.000000  0.619563  0.087188  1
  Lu  Lu6  1  0.000000  0.238232  0.222136  1
  Lu  Lu7  1  0.000000  0.758031  0.779231  1
  Lu  Lu8  1  0.000000  0.257557  0.721230  1
  Lu  Lu9  1  0.000000  0.749918  0.278931  1
  In  In10  1  0.500000  0.421740  0.350164  1
  In  In11  1  0.500000  0.576199  0.649862  1
  In  In12  1  0.500000  0.076917  0.850332  1
  In  In13  1  0.500000  0.927800  0.150863  1
  In  In14  1  0.500000  0.296519  0.066661  1
  In  In15  1  0.500000  0.703808  0.933753  1
  In  In16  1  0.500000  0.202890  0.566337  1
  In  In17  1  0.500000  0.796051  0.430992  1
  Pt  Pt18  1  0.500000  0.974917  0.696217  1
  Pt  Pt19  1  0.500000  0.475720  0.803768  1
  Pt  Pt20  1  0.500000  0.523371  0.196701  1
  Rh  Rh21  1  0.500000  0.023757  0.304585  1
