# generated using pymatgen
data_TbY2CdSn3Ir2
_symmetry_space_group_name_H-M   'P 1'
_cell_length_a   7.63047902
_cell_length_b   7.63916124
_cell_length_c   4.04909700
_cell_angle_alpha   90.00000000
_cell_angle_beta   90.00000000
_cell_angle_gamma   119.97019915
_symmetry_Int_Tables_number   1
_chemical_formula_structural   TbY2CdSn3Ir2
_chemical_formula_sum   'Tb1 Y2 Cd1 Sn3 Ir2'
_cell_volume   204.46389470
_cell_formula_units_Z   1
loop_
 _symmetry_equiv_pos_site_id
 _symmetry_equiv_pos_as_xyz
  1  'x, y, z'
loop_
 _atom_site_type_symbol
 _atom_site_label
 _atom_site_symmetry_multiplicity
 _atom_site_fract_x
 _atom_site_fract_y
 _atom_site_fract_z
 _atom_site_occupancy
  Tb  Tb0  1  0.411921  0.387344  0.000000  1
  Y  Y1  1  0.612973  0.024407  0.000000  1
  Y  Y2  1  0.976071  0.588631  0.000000  1
  Cd  Cd3  1  0.333131  0.666664  0.500000  1
  Sn  Sn4  1  0.252952  0.003867  0.500000  1
  Sn  Sn5  1  0.995992  0.249170  0.500000  1
  Sn  Sn6  1  0.751153  0.746924  0.500000  1
  Ir  Ir7  1  0.665909  0.333069  0.500000  1
  Ir  Ir8  1  0.999898  0.999923  0.000000  1
