# generated using pymatgen
data_LiCaPt4
_symmetry_space_group_name_H-M   'P 1'
_cell_length_a   5.36546526
_cell_length_b   5.36546558
_cell_length_c   5.36546500
_cell_angle_alpha   59.99999743
_cell_angle_beta   59.99999541
_cell_angle_gamma   59.99999184
_symmetry_Int_Tables_number   1
_chemical_formula_structural   LiCaPt4
_chemical_formula_sum   'Li1 Ca1 Pt4'
_cell_volume   109.22124396
_cell_formula_units_Z   1
loop_
 _symmetry_equiv_pos_site_id
 _symmetry_equiv_pos_as_xyz
  1  'x, y, z'
loop_
 _atom_site_type_symbol
 _atom_site_label
 _atom_site_symmetry_multiplicity
 _atom_site_fract_x
 _atom_site_fract_y
 _atom_site_fract_z
 _atom_site_occupancy
  Li  Li0  1  0.000000  0.000000  0.000000  1
  Ca  Ca1  1  0.250000  0.250000  0.250000  1
  Pt  Pt2  1  0.124167  0.625278  0.625278  1
  Pt  Pt3  1  0.625278  0.625278  0.625278  1
  Pt  Pt4  1  0.625278  0.625278  0.124167  1
  Pt  Pt5  1  0.625278  0.124167  0.625278  1
