# generated using pymatgen
data_Tb3Th3Tl10
_symmetry_space_group_name_H-M   'P 1'
_cell_length_a   6.66203481
_cell_length_b   6.66203334
_cell_length_c   10.44094497
_cell_angle_alpha   89.77077435
_cell_angle_beta   89.77077307
_cell_angle_gamma   102.63639262
_symmetry_Int_Tables_number   1
_chemical_formula_structural   Tb3Th3Tl10
_chemical_formula_sum   'Tb3 Th3 Tl10'
_cell_volume   452.16363641
_cell_formula_units_Z   1
loop_
 _symmetry_equiv_pos_site_id
 _symmetry_equiv_pos_as_xyz
  1  'x, y, z'
loop_
 _atom_site_type_symbol
 _atom_site_label
 _atom_site_symmetry_multiplicity
 _atom_site_fract_x
 _atom_site_fract_y
 _atom_site_fract_z
 _atom_site_occupancy
  Tb  Tb0  1  0.793906  0.206094  0.500000  1
  Tb  Tb1  1  0.618076  0.621171  0.247056  1
  Tb  Tb2  1  0.378829  0.381924  0.752944  1
  Th  Th3  1  0.793110  0.206890  0.000000  1
  Th  Th4  1  0.207425  0.792575  0.000000  1
  Th  Th5  1  0.208631  0.791369  0.500000  1
  Tl  Tl6  1  0.057395  0.498660  0.251397  1
  Tl  Tl7  1  0.936912  0.495611  0.745983  1
  Tl  Tl8  1  0.504389  0.063088  0.254017  1
  Tl  Tl9  1  0.501340  0.942605  0.748603  1
  Tl  Tl10  1  0.001747  0.001541  0.252270  1
  Tl  Tl11  1  0.998459  0.998253  0.747730  1
  Tl  Tl12  1  0.305987  0.304513  0.043879  1
  Tl  Tl13  1  0.695487  0.694013  0.956121  1
  Tl  Tl14  1  0.696129  0.697823  0.538690  1
  Tl  Tl15  1  0.302177  0.303871  0.461310  1
