# generated using pymatgen
data_CsK4GeAs3
_symmetry_space_group_name_H-M   'P 1'
_cell_length_a   5.32448200
_cell_length_b   14.71977600
_cell_length_c   16.57247600
_cell_angle_alpha   90.00000000
_cell_angle_beta   90.00000000
_cell_angle_gamma   90.00000000
_symmetry_Int_Tables_number   1
_chemical_formula_structural   CsK4GeAs3
_chemical_formula_sum   'Cs4 K16 Ge4 As12'
_cell_volume   1298.87082859
_cell_formula_units_Z   4
loop_
 _symmetry_equiv_pos_site_id
 _symmetry_equiv_pos_as_xyz
  1  'x, y, z'
loop_
 _atom_site_type_symbol
 _atom_site_label
 _atom_site_symmetry_multiplicity
 _atom_site_fract_x
 _atom_site_fract_y
 _atom_site_fract_z
 _atom_site_occupancy
  Cs  Cs0  1  0.250000  0.128785  0.519267  1
  Cs  Cs1  1  0.750000  0.871215  0.480733  1
  Cs  Cs2  1  0.750000  0.628785  0.980733  1
  Cs  Cs3  1  0.250000  0.371215  0.019267  1
  K  K4  1  0.250000  0.427285  0.565916  1
  K  K5  1  0.750000  0.572715  0.434084  1
  K  K6  1  0.750000  0.927285  0.934084  1
  K  K7  1  0.250000  0.072715  0.065916  1
  K  K8  1  0.250000  0.815512  0.084095  1
  K  K9  1  0.750000  0.184488  0.915905  1
  K  K10  1  0.750000  0.315512  0.415905  1
  K  K11  1  0.250000  0.684488  0.584095  1
  K  K12  1  0.250000  0.231874  0.258730  1
  K  K13  1  0.750000  0.768126  0.741270  1
  K  K14  1  0.750000  0.731874  0.241270  1
  K  K15  1  0.250000  0.268126  0.758730  1
  K  K16  1  0.250000  0.946069  0.288422  1
  K  K17  1  0.750000  0.053931  0.711578  1
  K  K18  1  0.750000  0.446069  0.211578  1
  K  K19  1  0.250000  0.553931  0.788422  1
  Ge  Ge20  1  0.250000  0.585036  0.293480  1
  Ge  Ge21  1  0.750000  0.414964  0.706520  1
  Ge  Ge22  1  0.750000  0.085036  0.206520  1
  Ge  Ge23  1  0.250000  0.914964  0.793480  1
  As  As24  1  0.250000  0.592928  0.148540  1
  As  As25  1  0.750000  0.407072  0.851460  1
  As  As26  1  0.750000  0.092928  0.351460  1
  As  As27  1  0.250000  0.907072  0.648540  1
  As  As28  1  0.250000  0.438777  0.358129  1
  As  As29  1  0.750000  0.561223  0.641871  1
  As  As30  1  0.750000  0.938777  0.141871  1
  As  As31  1  0.250000  0.061223  0.858129  1
  As  As32  1  0.250000  0.719955  0.376824  1
  As  As33  1  0.750000  0.280045  0.623176  1
  As  As34  1  0.750000  0.219955  0.123176  1
  As  As35  1  0.250000  0.780045  0.876824  1
