# generated using pymatgen
data_La3Pr3Nd2(MgIr)2
_symmetry_space_group_name_H-M   'P 1'
_cell_length_a   10.06966553
_cell_length_b   10.13075218
_cell_length_c   10.13075148
_cell_angle_alpha   59.60146805
_cell_angle_beta   60.19926147
_cell_angle_gamma   60.19926651
_symmetry_Int_Tables_number   1
_chemical_formula_structural   La3Pr3Nd2(MgIr)2
_chemical_formula_sum   'La6 Pr6 Nd4 Mg4 Ir4'
_cell_volume   730.72168416
_cell_formula_units_Z   2
loop_
 _symmetry_equiv_pos_site_id
 _symmetry_equiv_pos_as_xyz
  1  'x, y, z'
loop_
 _atom_site_type_symbol
 _atom_site_label
 _atom_site_symmetry_multiplicity
 _atom_site_fract_x
 _atom_site_fract_y
 _atom_site_fract_z
 _atom_site_occupancy
  La  La0  1  0.343960  0.346825  0.346825  1
  La  La1  1  0.346825  0.343960  0.962389  1
  La  La2  1  0.346825  0.962389  0.343960  1
  La  La3  1  0.962389  0.346825  0.346825  1
  La  La4  1  0.813942  0.186058  0.186058  1
  La  La5  1  0.186058  0.813942  0.813942  1
  Pr  Pr6  1  0.936521  0.563479  0.563479  1
  Pr  Pr7  1  0.563479  0.936521  0.936521  1
  Pr  Pr8  1  0.562194  0.937806  0.562194  1
  Pr  Pr9  1  0.937806  0.562194  0.937806  1
  Pr  Pr10  1  0.562194  0.562194  0.937806  1
  Pr  Pr11  1  0.937806  0.937806  0.562194  1
  Nd  Nd12  1  0.189456  0.810544  0.189456  1
  Nd  Nd13  1  0.810544  0.189456  0.810544  1
  Nd  Nd14  1  0.189456  0.189456  0.810544  1
  Nd  Nd15  1  0.810544  0.810544  0.189456  1
  Mg  Mg16  1  0.580602  0.578416  0.578416  1
  Mg  Mg17  1  0.578416  0.580602  0.262565  1
  Mg  Mg18  1  0.578416  0.262565  0.580602  1
  Mg  Mg19  1  0.262565  0.578416  0.578416  1
  Ir  Ir20  1  0.137114  0.143383  0.143383  1
  Ir  Ir21  1  0.143383  0.137114  0.576121  1
  Ir  Ir22  1  0.143383  0.576121  0.137114  1
  Ir  Ir23  1  0.576121  0.143383  0.143383  1
