# generated using pymatgen
data_Tb(TlBr2)3
_symmetry_space_group_name_H-M   'P 1'
_cell_length_a   8.22305465
_cell_length_b   8.22305393
_cell_length_c   8.22305300
_cell_angle_alpha   60.77030481
_cell_angle_beta   60.77030760
_cell_angle_gamma   60.77029920
_symmetry_Int_Tables_number   1
_chemical_formula_structural   Tb(TlBr2)3
_chemical_formula_sum   'Tb1 Tl3 Br6'
_cell_volume   400.00613589
_cell_formula_units_Z   1
loop_
 _symmetry_equiv_pos_site_id
 _symmetry_equiv_pos_as_xyz
  1  'x, y, z'
loop_
 _atom_site_type_symbol
 _atom_site_label
 _atom_site_symmetry_multiplicity
 _atom_site_fract_x
 _atom_site_fract_y
 _atom_site_fract_z
 _atom_site_occupancy
  Tb  Tb0  1  0.000000  0.000000  0.000000  1
  Tl  Tl1  1  0.213938  0.213938  0.213938  1
  Tl  Tl2  1  0.500000  0.500000  0.500000  1
  Tl  Tl3  1  0.786062  0.786062  0.786062  1
  Br  Br4  1  0.794174  0.338357  0.116056  1
  Br  Br5  1  0.661642  0.883945  0.205825  1
  Br  Br6  1  0.116056  0.794175  0.338357  1
  Br  Br7  1  0.883944  0.205825  0.661643  1
  Br  Br8  1  0.338358  0.116055  0.794175  1
  Br  Br9  1  0.205826  0.661642  0.883944  1
