# generated using pymatgen
data_Ca2Gd3U5O19
_symmetry_space_group_name_H-M   'P 1'
_cell_length_a   6.71016016
_cell_length_b   7.55759636
_cell_length_c   8.53724200
_cell_angle_alpha   99.94442523
_cell_angle_beta   97.31889700
_cell_angle_gamma   107.32830801
_symmetry_Int_Tables_number   1
_chemical_formula_structural   Ca2Gd3U5O19
_chemical_formula_sum   'Ca2 Gd3 U5 O19'
_cell_volume   399.65691405
_cell_formula_units_Z   1
loop_
 _symmetry_equiv_pos_site_id
 _symmetry_equiv_pos_as_xyz
  1  'x, y, z'
loop_
 _atom_site_type_symbol
 _atom_site_label
 _atom_site_symmetry_multiplicity
 _atom_site_fract_x
 _atom_site_fract_y
 _atom_site_fract_z
 _atom_site_occupancy
  Ca  Ca0  1  0.999428  0.500164  0.999945  1
  Ca  Ca1  1  0.206856  0.910101  0.389777  1
  Gd  Gd2  1  0.802371  0.103077  0.604190  1
  Gd  Gd3  1  0.385248  0.295853  0.799060  1
  Gd  Gd4  1  0.605189  0.702675  0.202407  1
  U  U5  1  0.779786  0.598289  0.599988  1
  U  U6  1  0.602825  0.204058  0.197267  1
  U  U7  1  0.998869  0.004292  0.000419  1
  U  U8  1  0.409249  0.806647  0.811994  1
  U  U9  1  0.201359  0.388216  0.390679  1
  O  O10  1  0.339103  0.056653  0.951991  1
  O  O11  1  0.435935  0.991387  0.654688  1
  O  O12  1  0.039553  0.214053  0.858726  1
  O  O13  1  0.717529  0.381045  0.729638  1
  O  O14  1  0.151195  0.184412  0.537685  1
  O  O15  1  0.365033  0.594937  0.950412  1
  O  O16  1  0.946610  0.262664  0.165978  1
  O  O17  1  0.902312  0.392444  0.466050  1
  O  O18  1  0.750819  0.862998  0.764518  1
  O  O19  1  0.550476  0.455952  0.361119  1
  O  O20  1  0.411468  0.554546  0.631314  1
  O  O21  1  0.258396  0.135961  0.232268  1
  O  O22  1  0.064711  0.717254  0.787554  1
  O  O23  1  0.635646  0.406978  0.058239  1
  O  O24  1  0.856550  0.803337  0.462488  1
  O  O25  1  0.256451  0.618326  0.281179  1
  O  O26  1  0.951339  0.787125  0.122692  1
  O  O27  1  0.583593  0.010039  0.348431  1
  O  O28  1  0.656014  0.944155  0.047542  1
