# generated using pymatgen
data_Nd16Tm4Ru5Pt7
_symmetry_space_group_name_H-M   'P 1'
_cell_length_a   11.38634242
_cell_length_b   11.38634165
_cell_length_c   6.52756500
_cell_angle_alpha   90.11621856
_cell_angle_beta   90.11621855
_cell_angle_gamma   90.09648369
_symmetry_Int_Tables_number   1
_chemical_formula_structural   Nd16Tm4Ru5Pt7
_chemical_formula_sum   'Nd16 Tm4 Ru5 Pt7'
_cell_volume   846.28618318
_cell_formula_units_Z   1
loop_
 _symmetry_equiv_pos_site_id
 _symmetry_equiv_pos_as_xyz
  1  'x, y, z'
loop_
 _atom_site_type_symbol
 _atom_site_label
 _atom_site_symmetry_multiplicity
 _atom_site_fract_x
 _atom_site_fract_y
 _atom_site_fract_z
 _atom_site_occupancy
  Nd  Nd0  1  0.295456  0.084840  0.375730  1
  Nd  Nd1  1  0.294359  0.909419  0.876045  1
  Nd  Nd2  1  0.705378  0.085005  0.875171  1
  Nd  Nd3  1  0.704657  0.913844  0.373937  1
  Nd  Nd4  1  0.580915  0.791267  0.875369  1
  Nd  Nd5  1  0.585755  0.207567  0.376394  1
  Nd  Nd6  1  0.411476  0.789923  0.381978  1
  Nd  Nd7  1  0.414329  0.204644  0.875173  1
  Nd  Nd8  1  0.208733  0.419085  0.624631  1
  Nd  Nd9  1  0.210077  0.588524  0.118022  1
  Nd  Nd10  1  0.792433  0.414245  0.123606  1
  Nd  Nd11  1  0.795356  0.585671  0.624827  1
  Nd  Nd12  1  0.915160  0.704544  0.124270  1
  Nd  Nd13  1  0.914995  0.294622  0.624829  1
  Nd  Nd14  1  0.090581  0.705641  0.623955  1
  Nd  Nd15  1  0.086156  0.295343  0.126063  1
  Tm  Tm16  1  0.999999  0.999870  0.500649  1
  Tm  Tm17  1  0.000130  0.000001  0.999351  1
  Tm  Tm18  1  0.497389  0.501331  0.998603  1
  Tm  Tm19  1  0.498669  0.502611  0.501397  1
  Ru  Ru20  1  0.353945  0.646055  0.750000  1
  Ru  Ru21  1  0.500561  0.001016  0.120840  1
  Ru  Ru22  1  0.500009  0.001274  0.617266  1
  Ru  Ru23  1  0.998726  0.499991  0.882734  1
  Ru  Ru24  1  0.998984  0.499439  0.379160  1
  Pt  Pt25  1  0.855220  0.144780  0.250000  1
  Pt  Pt26  1  0.854124  0.855229  0.749951  1
  Pt  Pt27  1  0.144771  0.145876  0.750049  1
  Pt  Pt28  1  0.144257  0.855743  0.250000  1
  Pt  Pt29  1  0.645630  0.354370  0.750000  1
  Pt  Pt30  1  0.647760  0.645991  0.250049  1
  Pt  Pt31  1  0.354009  0.352240  0.249951  1
