# generated using pymatgen
data_Lu5Zn2BiTe
_symmetry_space_group_name_H-M   'P 1'
_cell_length_a   8.58299901
_cell_length_b   8.58300036
_cell_length_c   7.78107500
_cell_angle_alpha   90.00000000
_cell_angle_beta   90.00000000
_cell_angle_gamma   125.98344493
_symmetry_Int_Tables_number   1
_chemical_formula_structural   Lu5Zn2BiTe
_chemical_formula_sum   'Lu10 Zn4 Bi2 Te2'
_cell_volume   463.83827360
_cell_formula_units_Z   2
loop_
 _symmetry_equiv_pos_site_id
 _symmetry_equiv_pos_as_xyz
  1  'x, y, z'
loop_
 _atom_site_type_symbol
 _atom_site_label
 _atom_site_symmetry_multiplicity
 _atom_site_fract_x
 _atom_site_fract_y
 _atom_site_fract_z
 _atom_site_occupancy
  Lu  Lu0  1  0.001597  0.998403  0.000000  1
  Lu  Lu1  1  0.501597  0.498403  0.500000  1
  Lu  Lu2  1  0.786645  0.540903  0.164126  1
  Lu  Lu3  1  0.459097  0.213355  0.835874  1
  Lu  Lu4  1  0.959097  0.713355  0.664126  1
  Lu  Lu5  1  0.286645  0.040903  0.335874  1
  Lu  Lu6  1  0.205855  0.454961  0.832583  1
  Lu  Lu7  1  0.545039  0.794145  0.167417  1
  Lu  Lu8  1  0.045039  0.294145  0.332583  1
  Lu  Lu9  1  0.705855  0.954961  0.667417  1
  Zn  Zn10  1  0.871852  0.874787  0.373847  1
  Zn  Zn11  1  0.125213  0.128148  0.626153  1
  Zn  Zn12  1  0.625213  0.628148  0.873847  1
  Zn  Zn13  1  0.371852  0.374787  0.126153  1
  Bi  Bi14  1  0.210392  0.789608  0.000000  1
  Bi  Bi15  1  0.710392  0.289608  0.500000  1
  Te  Te16  1  0.794310  0.205690  0.000000  1
  Te  Te17  1  0.294310  0.705690  0.500000  1
