# generated using pymatgen
data_Y13Th3CdHg3Ir4
_symmetry_space_group_name_H-M   'P 1'
_cell_length_a   9.73407559
_cell_length_b   9.74272599
_cell_length_c   9.74272700
_cell_angle_alpha   59.99999995
_cell_angle_beta   59.97059857
_cell_angle_gamma   59.97060635
_symmetry_Int_Tables_number   1
_chemical_formula_structural   Y13Th3CdHg3Ir4
_chemical_formula_sum   'Y13 Th3 Cd1 Hg3 Ir4'
_cell_volume   653.05178208
_cell_formula_units_Z   1
loop_
 _symmetry_equiv_pos_site_id
 _symmetry_equiv_pos_as_xyz
  1  'x, y, z'
loop_
 _atom_site_type_symbol
 _atom_site_label
 _atom_site_symmetry_multiplicity
 _atom_site_fract_x
 _atom_site_fract_y
 _atom_site_fract_z
 _atom_site_occupancy
  Y  Y0  1  0.942740  0.352420  0.352420  1
  Y  Y1  1  0.810389  0.190666  0.190666  1
  Y  Y2  1  0.188118  0.811766  0.811766  1
  Y  Y3  1  0.188118  0.811766  0.188349  1
  Y  Y4  1  0.810389  0.190666  0.808278  1
  Y  Y5  1  0.188118  0.188349  0.811766  1
  Y  Y6  1  0.810389  0.808278  0.190666  1
  Y  Y7  1  0.935588  0.563502  0.563502  1
  Y  Y8  1  0.563476  0.936004  0.936004  1
  Y  Y9  1  0.563476  0.936004  0.564515  1
  Y  Y10  1  0.935588  0.563502  0.937407  1
  Y  Y11  1  0.563476  0.564515  0.936004  1
  Y  Y12  1  0.935588  0.937407  0.563502  1
  Th  Th13  1  0.348790  0.349984  0.349984  1
  Th  Th14  1  0.348790  0.349984  0.951242  1
  Th  Th15  1  0.348790  0.951242  0.349984  1
  Cd  Cd16  1  0.250514  0.583162  0.583162  1
  Hg  Hg17  1  0.587502  0.586151  0.586151  1
  Hg  Hg18  1  0.587502  0.586151  0.240198  1
  Hg  Hg19  1  0.587502  0.240198  0.586151  1
  Ir  Ir20  1  0.145168  0.142029  0.142029  1
  Ir  Ir21  1  0.145168  0.142029  0.570774  1
  Ir  Ir22  1  0.145168  0.570774  0.142029  1
  Ir  Ir23  1  0.569655  0.143448  0.143448  1
