# generated using pymatgen
data_Sm(Ga2Pd)2
_symmetry_space_group_name_H-M   'P 1'
_cell_length_a   4.36095700
_cell_length_b   6.64434500
_cell_length_c   17.41150600
_cell_angle_alpha   90.00000000
_cell_angle_beta   90.00000000
_cell_angle_gamma   90.00000000
_symmetry_Int_Tables_number   1
_chemical_formula_structural   Sm(Ga2Pd)2
_chemical_formula_sum   'Sm4 Ga16 Pd8'
_cell_volume   504.51062382
_cell_formula_units_Z   4
loop_
 _symmetry_equiv_pos_site_id
 _symmetry_equiv_pos_as_xyz
  1  'x, y, z'
loop_
 _atom_site_type_symbol
 _atom_site_label
 _atom_site_symmetry_multiplicity
 _atom_site_fract_x
 _atom_site_fract_y
 _atom_site_fract_z
 _atom_site_occupancy
  Sm  Sm0  1  0.750000  0.987051  0.638649  1
  Sm  Sm1  1  0.250000  0.487051  0.861351  1
  Sm  Sm2  1  0.750000  0.512949  0.138649  1
  Sm  Sm3  1  0.250000  0.012949  0.361351  1
  Ga  Ga4  1  0.250000  0.229301  0.191768  1
  Ga  Ga5  1  0.250000  0.486178  0.429633  1
  Ga  Ga6  1  0.250000  0.013822  0.929633  1
  Ga  Ga7  1  0.250000  0.824185  0.184715  1
  Ga  Ga8  1  0.250000  0.675815  0.684715  1
  Ga  Ga9  1  0.250000  0.270699  0.691768  1
  Ga  Ga10  1  0.250000  0.166333  0.537611  1
  Ga  Ga11  1  0.750000  0.986178  0.070367  1
  Ga  Ga12  1  0.750000  0.175815  0.815285  1
  Ga  Ga13  1  0.250000  0.333667  0.037611  1
  Ga  Ga14  1  0.750000  0.833667  0.462389  1
  Ga  Ga15  1  0.750000  0.666333  0.962389  1
  Ga  Ga16  1  0.750000  0.770699  0.808232  1
  Ga  Ga17  1  0.750000  0.513822  0.570367  1
  Ga  Ga18  1  0.750000  0.324185  0.315285  1
  Ga  Ga19  1  0.750000  0.729301  0.308232  1
  Pd  Pd20  1  0.250000  0.968384  0.784132  1
  Pd  Pd21  1  0.750000  0.031616  0.215868  1
  Pd  Pd22  1  0.250000  0.531616  0.284132  1
  Pd  Pd23  1  0.250000  0.750386  0.536273  1
  Pd  Pd24  1  0.250000  0.749614  0.036273  1
  Pd  Pd25  1  0.750000  0.249614  0.463727  1
  Pd  Pd26  1  0.750000  0.250386  0.963727  1
  Pd  Pd27  1  0.750000  0.468384  0.715868  1
