# generated using pymatgen
data_TaGaNi2Pt3Rh
_symmetry_space_group_name_H-M   'P 1'
_cell_length_a   3.88614000
_cell_length_b   3.95224600
_cell_length_c   7.45284200
_cell_angle_alpha   90.00000000
_cell_angle_beta   90.00000000
_cell_angle_gamma   90.00000000
_symmetry_Int_Tables_number   1
_chemical_formula_structural   TaGaNi2Pt3Rh
_chemical_formula_sum   'Ta1 Ga1 Ni2 Pt3 Rh1'
_cell_volume   114.46806069
_cell_formula_units_Z   1
loop_
 _symmetry_equiv_pos_site_id
 _symmetry_equiv_pos_as_xyz
  1  'x, y, z'
loop_
 _atom_site_type_symbol
 _atom_site_label
 _atom_site_symmetry_multiplicity
 _atom_site_fract_x
 _atom_site_fract_y
 _atom_site_fract_z
 _atom_site_occupancy
  Ta  Ta0  1  0.000000  0.000000  0.493996  1
  Ga  Ga1  1  0.000000  0.000000  0.004575  1
  Ni  Ni2  1  0.500000  0.500000  0.001205  1
  Ni  Ni3  1  0.500000  0.500000  0.498609  1
  Pt  Pt4  1  0.500000  0.000000  0.753426  1
  Pt  Pt5  1  0.000000  0.500000  0.248195  1
  Pt  Pt6  1  0.000000  0.500000  0.750684  1
  Rh  Rh7  1  0.500000  0.000000  0.249311  1
