# generated using pymatgen
data_Hf4BeSi7Mo6
_symmetry_space_group_name_H-M   'P 1'
_cell_length_a   6.53655123
_cell_length_b   6.67320501
_cell_length_c   12.66286700
_cell_angle_alpha   90.00000000
_cell_angle_beta   90.00000000
_cell_angle_gamma   89.77603274
_symmetry_Int_Tables_number   1
_chemical_formula_structural   Hf4BeSi7Mo6
_chemical_formula_sum   'Hf8 Be2 Si14 Mo12'
_cell_volume   552.34682737
_cell_formula_units_Z   2
loop_
 _symmetry_equiv_pos_site_id
 _symmetry_equiv_pos_as_xyz
  1  'x, y, z'
loop_
 _atom_site_type_symbol
 _atom_site_label
 _atom_site_symmetry_multiplicity
 _atom_site_fract_x
 _atom_site_fract_y
 _atom_site_fract_z
 _atom_site_occupancy
  Hf  Hf0  1  0.995279  0.165640  0.092863  1
  Hf  Hf1  1  0.004721  0.834360  0.907137  1
  Hf  Hf2  1  0.504189  0.670288  0.906003  1
  Hf  Hf3  1  0.004721  0.834360  0.592863  1
  Hf  Hf4  1  0.495811  0.329712  0.093997  1
  Hf  Hf5  1  0.995279  0.165640  0.407137  1
  Hf  Hf6  1  0.495811  0.329712  0.406003  1
  Hf  Hf7  1  0.504189  0.670288  0.593997  1
  Be  Be8  1  0.037282  0.123552  0.750000  1
  Be  Be9  1  0.962718  0.876448  0.250000  1
  Si  Si10  1  0.463542  0.626649  0.250000  1
  Si  Si11  1  0.536458  0.373351  0.750000  1
  Si  Si12  1  0.293023  0.868232  0.750000  1
  Si  Si13  1  0.706977  0.131768  0.250000  1
  Si  Si14  1  0.197179  0.360263  0.250000  1
  Si  Si15  1  0.802821  0.639737  0.750000  1
  Si  Si16  1  0.168874  0.459565  0.541299  1
  Si  Si17  1  0.831126  0.540435  0.458701  1
  Si  Si18  1  0.333327  0.959007  0.456713  1
  Si  Si19  1  0.831126  0.540435  0.041299  1
  Si  Si20  1  0.666673  0.040993  0.543287  1
  Si  Si21  1  0.168874  0.459565  0.958701  1
  Si  Si22  1  0.666673  0.040993  0.956713  1
  Si  Si23  1  0.333327  0.959007  0.043287  1
  Mo  Mo24  1  0.166951  0.504473  0.750000  1
  Mo  Mo25  1  0.833049  0.495527  0.250000  1
  Mo  Mo26  1  0.331120  0.007676  0.250000  1
  Mo  Mo27  1  0.668880  0.992324  0.750000  1
  Mo  Mo28  1  0.330659  0.162869  0.623419  1
  Mo  Mo29  1  0.669341  0.837131  0.376581  1
  Mo  Mo30  1  0.160513  0.667921  0.375032  1
  Mo  Mo31  1  0.669341  0.837131  0.123419  1
  Mo  Mo32  1  0.839487  0.332079  0.624968  1
  Mo  Mo33  1  0.330659  0.162869  0.876581  1
  Mo  Mo34  1  0.839487  0.332079  0.875032  1
  Mo  Mo35  1  0.160513  0.667921  0.124968  1
