# generated using pymatgen
data_Tb9Nd7Cd4Os3Pd
_symmetry_space_group_name_H-M   'P 1'
_cell_length_a   9.78261403
_cell_length_b   9.85719736
_cell_length_c   9.86345100
_cell_angle_alpha   59.97901457
_cell_angle_beta   59.72627607
_cell_angle_gamma   59.75936844
_symmetry_Int_Tables_number   1
_chemical_formula_structural   Tb9Nd7Cd4Os3Pd
_chemical_formula_sum   'Tb9 Nd7 Cd4 Os3 Pd1'
_cell_volume   669.81461202
_cell_formula_units_Z   1
loop_
 _symmetry_equiv_pos_site_id
 _symmetry_equiv_pos_as_xyz
  1  'x, y, z'
loop_
 _atom_site_type_symbol
 _atom_site_label
 _atom_site_symmetry_multiplicity
 _atom_site_fract_x
 _atom_site_fract_y
 _atom_site_fract_z
 _atom_site_occupancy
  Tb  Tb0  1  0.342516  0.350394  0.349880  1
  Tb  Tb1  1  0.342516  0.350394  0.957209  1
  Tb  Tb2  1  0.342028  0.958414  0.349779  1
  Tb  Tb3  1  0.970131  0.341774  0.344047  1
  Tb  Tb4  1  0.816963  0.190193  0.188652  1
  Tb  Tb5  1  0.188320  0.811333  0.811077  1
  Tb  Tb6  1  0.188320  0.811333  0.189270  1
  Tb  Tb7  1  0.816963  0.190193  0.804191  1
  Tb  Tb8  1  0.186456  0.188585  0.812480  1
  Nd  Nd9  1  0.817558  0.804675  0.188883  1
  Nd  Nd10  1  0.939655  0.557968  0.560180  1
  Nd  Nd11  1  0.552760  0.941847  0.940863  1
  Nd  Nd12  1  0.552760  0.941847  0.564531  1
  Nd  Nd13  1  0.939655  0.557968  0.942198  1
  Nd  Nd14  1  0.553715  0.564427  0.940929  1
  Nd  Nd15  1  0.939265  0.942656  0.559039  1
  Cd  Cd16  1  0.578812  0.577952  0.580306  1
  Cd  Cd17  1  0.578812  0.577952  0.262932  1
  Cd  Cd18  1  0.579267  0.262087  0.579324  1
  Cd  Cd19  1  0.260008  0.579910  0.580042  1
  Os  Os20  1  0.145482  0.137588  0.137897  1
  Os  Os21  1  0.145482  0.137588  0.579033  1
  Os  Os22  1  0.148051  0.577497  0.137226  1
  Pd  Pd23  1  0.574508  0.145427  0.140032  1
