# generated using pymatgen
data_LiMgSbPd5
_symmetry_space_group_name_H-M   'P 1'
_cell_length_a   4.20387600
_cell_length_b   5.55718149
_cell_length_c   10.90831233
_cell_angle_alpha   90.51137991
_cell_angle_beta   90.00000000
_cell_angle_gamma   90.00000000
_symmetry_Int_Tables_number   1
_chemical_formula_structural   LiMgSbPd5
_chemical_formula_sum   'Li2 Mg2 Sb2 Pd10'
_cell_volume   254.82659040
_cell_formula_units_Z   2
loop_
 _symmetry_equiv_pos_site_id
 _symmetry_equiv_pos_as_xyz
  1  'x, y, z'
loop_
 _atom_site_type_symbol
 _atom_site_label
 _atom_site_symmetry_multiplicity
 _atom_site_fract_x
 _atom_site_fract_y
 _atom_site_fract_z
 _atom_site_occupancy
  Li  Li0  1  0.500000  0.175836  0.138085  1
  Li  Li1  1  0.500000  0.824164  0.861915  1
  Mg  Mg2  1  0.500000  0.327488  0.645729  1
  Mg  Mg3  1  0.500000  0.672512  0.354271  1
  Sb  Sb4  1  0.000000  0.000000  0.500000  1
  Sb  Sb5  1  0.000000  0.500000  0.000000  1
  Pd  Pd6  1  0.500000  0.194379  0.384030  1
  Pd  Pd7  1  0.500000  0.805621  0.615970  1
  Pd  Pd8  1  0.500000  0.296047  0.890115  1
  Pd  Pd9  1  0.500000  0.703953  0.109885  1
  Pd  Pd10  1  0.000000  0.425074  0.241720  1
  Pd  Pd11  1  0.000000  0.574926  0.758280  1
  Pd  Pd12  1  0.000000  0.069908  0.745867  1
  Pd  Pd13  1  0.000000  0.930092  0.254133  1
  Pd  Pd14  1  0.000000  0.000000  0.000000  1
  Pd  Pd15  1  0.000000  0.500000  0.500000  1
