# generated using pymatgen
data_LiCe2(NdRh)6
_symmetry_space_group_name_H-M   'P 1'
_cell_length_a   7.65433002
_cell_length_b   7.65433049
_cell_length_c   7.65433102
_cell_angle_alpha   68.36347478
_cell_angle_beta   68.36347436
_cell_angle_gamma   68.36346667
_symmetry_Int_Tables_number   1
_chemical_formula_structural   LiCe2(NdRh)6
_chemical_formula_sum   'Li1 Ce2 Nd6 Rh6'
_cell_volume   373.16403318
_cell_formula_units_Z   1
loop_
 _symmetry_equiv_pos_site_id
 _symmetry_equiv_pos_as_xyz
  1  'x, y, z'
loop_
 _atom_site_type_symbol
 _atom_site_label
 _atom_site_symmetry_multiplicity
 _atom_site_fract_x
 _atom_site_fract_y
 _atom_site_fract_z
 _atom_site_occupancy
  Li  Li0  1  0.000000  0.000000  0.000000  1
  Ce  Ce1  1  0.811069  0.811069  0.811069  1
  Ce  Ce2  1  0.188931  0.188931  0.188931  1
  Nd  Nd3  1  0.149674  0.381988  0.673988  1
  Nd  Nd4  1  0.673988  0.149674  0.381988  1
  Nd  Nd5  1  0.381988  0.673988  0.149674  1
  Nd  Nd6  1  0.850326  0.618012  0.326012  1
  Nd  Nd7  1  0.326012  0.850326  0.618012  1
  Nd  Nd8  1  0.618012  0.326012  0.850326  1
  Rh  Rh9  1  0.959583  0.178402  0.560523  1
  Rh  Rh10  1  0.560523  0.959583  0.178402  1
  Rh  Rh11  1  0.178402  0.560523  0.959583  1
  Rh  Rh12  1  0.040417  0.821598  0.439477  1
  Rh  Rh13  1  0.439477  0.040417  0.821598  1
  Rh  Rh14  1  0.821598  0.439477  0.040417  1
