# generated using pymatgen
data_LaHo2Be2(PPd5)4
_symmetry_space_group_name_H-M   'P 1'
_cell_length_a   8.69955878
_cell_length_b   8.61747822
_cell_length_c   8.61741920
_cell_angle_alpha   60.62580197
_cell_angle_beta   59.68533447
_cell_angle_gamma   59.68529984
_symmetry_Int_Tables_number   1
_chemical_formula_structural   LaHo2Be2(PPd5)4
_chemical_formula_sum   'La1 Ho2 Be2 P4 Pd20'
_cell_volume   456.71936785
_cell_formula_units_Z   1
loop_
 _symmetry_equiv_pos_site_id
 _symmetry_equiv_pos_as_xyz
  1  'x, y, z'
loop_
 _atom_site_type_symbol
 _atom_site_label
 _atom_site_symmetry_multiplicity
 _atom_site_fract_x
 _atom_site_fract_y
 _atom_site_fract_z
 _atom_site_occupancy
  La  La0  1  0.250007  0.250011  0.249993  1
  Ho  Ho1  1  0.749996  0.750003  0.749995  1
  Ho  Ho2  1  0.999998  0.000000  0.999998  1
  Be  Be3  1  0.733129  0.266809  0.266812  1
  Be  Be4  1  0.266868  0.733188  0.733190  1
  P  P5  1  0.265846  0.734171  0.265812  1
  P  P6  1  0.734157  0.265828  0.734187  1
  P  P7  1  0.265847  0.265811  0.734170  1
  P  P8  1  0.734157  0.734186  0.265828  1
  Pd  Pd9  1  0.390413  0.384283  0.384285  1
  Pd  Pd10  1  0.613457  0.617940  0.617941  1
  Pd  Pd11  1  0.384273  0.390414  0.841027  1
  Pd  Pd12  1  0.384271  0.841029  0.390419  1
  Pd  Pd13  1  0.617944  0.613451  0.150674  1
  Pd  Pd14  1  0.617946  0.150672  0.613450  1
  Pd  Pd15  1  0.841041  0.384280  0.384283  1
  Pd  Pd16  1  0.150636  0.617950  0.617949  1
  Pd  Pd17  1  0.345585  0.998506  0.998508  1
  Pd  Pd18  1  0.657398  0.998500  0.998501  1
  Pd  Pd19  1  0.998506  0.345579  0.657421  1
  Pd  Pd20  1  0.998505  0.657419  0.345580  1
  Pd  Pd21  1  0.995784  0.344348  0.001813  1
  Pd  Pd22  1  0.658051  0.001798  0.344366  1
  Pd  Pd23  1  0.001819  0.658031  0.995797  1
  Pd  Pd24  1  0.344352  0.995796  0.658025  1
  Pd  Pd25  1  0.995784  0.001812  0.344350  1
  Pd  Pd26  1  0.001820  0.995799  0.658030  1
  Pd  Pd27  1  0.658052  0.344365  0.001798  1
  Pd  Pd28  1  0.344358  0.658020  0.995799  1
