# generated using pymatgen
data_K2V2NiO7
_symmetry_space_group_name_H-M   'P 1'
_cell_length_a   5.64324410
_cell_length_b   8.48759751
_cell_length_c   8.74814447
_cell_angle_alpha   89.99698882
_cell_angle_beta   89.95142095
_cell_angle_gamma   90.03942118
_symmetry_Int_Tables_number   1
_chemical_formula_structural   K2V2NiO7
_chemical_formula_sum   'K4 V4 Ni2 O14'
_cell_volume   419.01473906
_cell_formula_units_Z   2
loop_
 _symmetry_equiv_pos_site_id
 _symmetry_equiv_pos_as_xyz
  1  'x, y, z'
loop_
 _atom_site_type_symbol
 _atom_site_label
 _atom_site_symmetry_multiplicity
 _atom_site_fract_x
 _atom_site_fract_y
 _atom_site_fract_z
 _atom_site_occupancy
  K  K0  1  0.510889  0.338631  0.161765  1
  K  K1  1  0.489137  0.838860  0.338074  1
  K  K2  1  0.489202  0.161140  0.662926  1
  K  K3  1  0.510458  0.660878  0.836833  1
  V  V4  1  0.045284  0.645235  0.138491  1
  V  V5  1  0.954824  0.145099  0.361480  1
  V  V6  1  0.955989  0.855041  0.638278  1
  V  V7  1  0.043928  0.355105  0.861789  1
  Ni  Ni8  1  0.974988  0.998903  0.999934  1
  Ni  Ni9  1  0.025021  0.499207  0.500158  1
  O  O10  1  0.154325  0.499776  0.000290  1
  O  O11  1  0.165134  0.826150  0.085934  1
  O  O12  1  0.747634  0.649148  0.138829  1
  O  O13  1  0.837800  0.093041  0.184387  1
  O  O14  1  0.162228  0.593361  0.315667  1
  O  O15  1  0.252593  0.149183  0.361168  1
  O  O16  1  0.835142  0.325936  0.413958  1
  O  O17  1  0.845658  0.999565  0.499691  1
  O  O18  1  0.838132  0.673503  0.586457  1
  O  O19  1  0.253884  0.853077  0.638888  1
  O  O20  1  0.162453  0.406423  0.684753  1
  O  O21  1  0.837377  0.906247  0.815261  1
  O  O22  1  0.746140  0.352796  0.861244  1
  O  O23  1  0.161784  0.173696  0.913745  1
