# generated using pymatgen
data_Hf16Ta2Co5Au
_symmetry_space_group_name_H-M   'P 1'
_cell_length_a   8.59804094
_cell_length_b   8.69139003
_cell_length_c   8.69139100
_cell_angle_alpha   60.49815354
_cell_angle_beta   60.18617988
_cell_angle_gamma   60.18618083
_symmetry_Int_Tables_number   1
_chemical_formula_structural   Hf16Ta2Co5Au
_chemical_formula_sum   'Hf16 Ta2 Co5 Au1'
_cell_volume   462.27147904
_cell_formula_units_Z   1
loop_
 _symmetry_equiv_pos_site_id
 _symmetry_equiv_pos_as_xyz
  1  'x, y, z'
loop_
 _atom_site_type_symbol
 _atom_site_label
 _atom_site_symmetry_multiplicity
 _atom_site_fract_x
 _atom_site_fract_y
 _atom_site_fract_z
 _atom_site_occupancy
  Hf  Hf0  1  0.206869  0.596820  0.596820  1
  Hf  Hf1  1  0.597713  0.203004  0.598962  1
  Hf  Hf2  1  0.597713  0.598962  0.203004  1
  Hf  Hf3  1  0.601478  0.597853  0.597853  1
  Hf  Hf4  1  0.814529  0.816452  0.191766  1
  Hf  Hf5  1  0.185607  0.185280  0.815770  1
  Hf  Hf6  1  0.814529  0.191766  0.816452  1
  Hf  Hf7  1  0.185607  0.815770  0.185280  1
  Hf  Hf8  1  0.202046  0.813700  0.813700  1
  Hf  Hf9  1  0.816588  0.184718  0.184718  1
  Hf  Hf10  1  0.448408  0.446694  0.051330  1
  Hf  Hf11  1  0.056045  0.055038  0.442530  1
  Hf  Hf12  1  0.448408  0.051330  0.446694  1
  Hf  Hf13  1  0.056045  0.442530  0.055038  1
  Hf  Hf14  1  0.046013  0.454097  0.454097  1
  Hf  Hf15  1  0.448406  0.047772  0.047772  1
  Ta  Ta16  1  0.827489  0.505578  0.831928  1
  Ta  Ta17  1  0.827489  0.831928  0.505578  1
  Co  Co18  1  0.828799  0.387751  0.387751  1
  Co  Co19  1  0.391469  0.829228  0.386011  1
  Co  Co20  1  0.391469  0.386011  0.829228  1
  Co  Co21  1  0.393397  0.388733  0.388733  1
  Co  Co22  1  0.482220  0.835102  0.835102  1
  Au  Au23  1  0.831667  0.833887  0.833887  1
