# generated using pymatgen
data_CaTb5LuCoI12
_symmetry_space_group_name_H-M   'P 1'
_cell_length_a   9.69653630
_cell_length_b   9.79735075
_cell_length_c   9.76827422
_cell_angle_alpha   106.76192289
_cell_angle_beta   106.88905998
_cell_angle_gamma   106.90458507
_symmetry_Int_Tables_number   1
_chemical_formula_structural   CaTb5LuCoI12
_chemical_formula_sum   'Ca1 Tb5 Lu1 Co1 I12'
_cell_volume   775.93954154
_cell_formula_units_Z   1
loop_
 _symmetry_equiv_pos_site_id
 _symmetry_equiv_pos_as_xyz
  1  'x, y, z'
loop_
 _atom_site_type_symbol
 _atom_site_label
 _atom_site_symmetry_multiplicity
 _atom_site_fract_x
 _atom_site_fract_y
 _atom_site_fract_z
 _atom_site_occupancy
  Ca  Ca0  1  0.499919  0.500000  0.500223  1
  Tb  Tb1  1  0.095649  0.295970  0.024205  1
  Tb  Tb2  1  0.284017  0.023109  0.093129  1
  Tb  Tb3  1  0.976438  0.903963  0.702608  1
  Tb  Tb4  1  0.904444  0.704503  0.977024  1
  Tb  Tb5  1  0.716450  0.977725  0.909649  1
  Lu  Lu6  1  0.023278  0.093571  0.288617  1
  Co  Co7  1  0.000280  0.000000  0.999950  1
  I  I8  1  0.146840  0.452584  0.379189  1
  I  I9  1  0.458001  0.377521  0.149938  1
  I  I10  1  0.374478  0.149025  0.455950  1
  I  I11  1  0.851028  0.542387  0.621619  1
  I  I12  1  0.542152  0.622576  0.850435  1
  I  I13  1  0.620866  0.850907  0.544420  1
  I  I14  1  0.683178  0.073040  0.226269  1
  I  I15  1  0.072403  0.223694  0.676214  1
  I  I16  1  0.227166  0.680415  0.073805  1
  I  I17  1  0.321758  0.928181  0.777453  1
  I  I18  1  0.928772  0.781193  0.322811  1
  I  I19  1  0.772884  0.319638  0.926493  1
