# generated using pymatgen
data_AcBPbO4
_symmetry_space_group_name_H-M   'P 1'
_cell_length_a   8.05860090
_cell_length_b   8.05860078
_cell_length_c   7.78913600
_cell_angle_alpha   90.00000000
_cell_angle_beta   90.00000000
_cell_angle_gamma   95.27038313
_symmetry_Int_Tables_number   1
_chemical_formula_structural   AcBPbO4
_chemical_formula_sum   'Ac4 B4 Pb4 O16'
_cell_volume   503.69613995
_cell_formula_units_Z   4
loop_
 _symmetry_equiv_pos_site_id
 _symmetry_equiv_pos_as_xyz
  1  'x, y, z'
loop_
 _atom_site_type_symbol
 _atom_site_label
 _atom_site_symmetry_multiplicity
 _atom_site_fract_x
 _atom_site_fract_y
 _atom_site_fract_z
 _atom_site_occupancy
  Ac  Ac0  1  0.662452  0.337548  0.500000  1
  Ac  Ac1  1  0.162452  0.837548  0.000000  1
  Ac  Ac2  1  0.337548  0.662452  0.500000  1
  Ac  Ac3  1  0.837548  0.162452  0.000000  1
  B  B4  1  0.502534  0.002534  0.250000  1
  B  B5  1  0.997466  0.497466  0.750000  1
  B  B6  1  0.497466  0.997466  0.750000  1
  B  B7  1  0.002534  0.502534  0.250000  1
  Pb  Pb8  1  0.191961  0.191961  0.367966  1
  Pb  Pb9  1  0.808039  0.808039  0.632034  1
  Pb  Pb10  1  0.308039  0.308039  0.867966  1
  Pb  Pb11  1  0.691961  0.691961  0.132034  1
  O  O12  1  0.472622  0.166149  0.288225  1
  O  O13  1  0.833851  0.527378  0.711775  1
  O  O14  1  0.333851  0.027378  0.788225  1
  O  O15  1  0.972622  0.666149  0.211775  1
  O  O16  1  0.527378  0.833851  0.711775  1
  O  O17  1  0.166149  0.472622  0.288225  1
  O  O18  1  0.666149  0.972622  0.211775  1
  O  O19  1  0.027378  0.333851  0.788225  1
  O  O20  1  0.385008  0.385008  0.593848  1
  O  O21  1  0.614992  0.614992  0.406152  1
  O  O22  1  0.114992  0.114992  0.093848  1
  O  O23  1  0.885008  0.885008  0.906152  1
  O  O24  1  0.374761  0.874761  0.250000  1
  O  O25  1  0.125239  0.625239  0.750000  1
  O  O26  1  0.625239  0.125239  0.750000  1
  O  O27  1  0.874761  0.374761  0.250000  1
