# generated using pymatgen
data_DyYEr2(B6Ru)2
_symmetry_space_group_name_H-M   'P 1'
_cell_length_a   3.64700500
_cell_length_b   9.11898803
_cell_length_c   11.50075404
_cell_angle_alpha   89.99004683
_cell_angle_beta   90.00000000
_cell_angle_gamma   90.00000000
_symmetry_Int_Tables_number   1
_chemical_formula_structural   DyYEr2(B6Ru)2
_chemical_formula_sum   'Dy2 Y2 Er4 B24 Ru4'
_cell_volume   382.48051344
_cell_formula_units_Z   2
loop_
 _symmetry_equiv_pos_site_id
 _symmetry_equiv_pos_as_xyz
  1  'x, y, z'
loop_
 _atom_site_type_symbol
 _atom_site_label
 _atom_site_symmetry_multiplicity
 _atom_site_fract_x
 _atom_site_fract_y
 _atom_site_fract_z
 _atom_site_occupancy
  Dy  Dy0  1  0.000000  0.822496  0.085822  1
  Dy  Dy1  1  0.000000  0.177504  0.914178  1
  Y  Y2  1  0.000000  0.322291  0.414160  1
  Y  Y3  1  0.000000  0.677709  0.585840  1
  Er  Er4  1  0.000000  0.943877  0.372219  1
  Er  Er5  1  0.000000  0.056123  0.627781  1
  Er  Er6  1  0.000000  0.443885  0.127637  1
  Er  Er7  1  0.000000  0.556115  0.872363  1
  B  B8  1  0.500000  0.554512  0.432808  1
  B  B9  1  0.500000  0.445488  0.567192  1
  B  B10  1  0.500000  0.054426  0.067043  1
  B  B11  1  0.500000  0.945574  0.932957  1
  B  B12  1  0.500000  0.748771  0.419327  1
  B  B13  1  0.500000  0.251229  0.580673  1
  B  B14  1  0.500000  0.248680  0.080430  1
  B  B15  1  0.500000  0.751320  0.919570  1
  B  B16  1  0.500000  0.791630  0.265968  1
  B  B17  1  0.500000  0.208370  0.734032  1
  B  B18  1  0.500000  0.291528  0.233768  1
  B  B19  1  0.500000  0.708472  0.766232  1
  B  B20  1  0.500000  0.631770  0.184756  1
  B  B21  1  0.500000  0.368230  0.815244  1
  B  B22  1  0.500000  0.131577  0.315026  1
  B  B23  1  0.500000  0.868423  0.684974  1
  B  B24  1  0.500000  0.983569  0.213061  1
  B  B25  1  0.500000  0.016431  0.786939  1
  B  B26  1  0.500000  0.483687  0.286732  1
  B  B27  1  0.500000  0.516313  0.713268  1
  B  B28  1  0.500000  0.606547  0.029312  1
  B  B29  1  0.500000  0.393453  0.970688  1
  B  B30  1  0.500000  0.106332  0.470725  1
  B  B31  1  0.500000  0.893668  0.529275  1
  Ru  Ru32  1  0.000000  0.638460  0.320551  1
  Ru  Ru33  1  0.000000  0.361540  0.679449  1
  Ru  Ru34  1  0.000000  0.138236  0.179141  1
  Ru  Ru35  1  0.000000  0.861764  0.820859  1
