# generated using pymatgen
data_Zr4Ni3PdPt8
_symmetry_space_group_name_H-M   'P 1'
_cell_length_a   5.65237000
_cell_length_b   5.65977251
_cell_length_c   9.20889400
_cell_angle_alpha   90.00000000
_cell_angle_beta   90.00000000
_cell_angle_gamma   119.95679117
_symmetry_Int_Tables_number   1
_chemical_formula_structural   Zr4Ni3PdPt8
_chemical_formula_sum   'Zr4 Ni3 Pd1 Pt8'
_cell_volume   255.24461681
_cell_formula_units_Z   1
loop_
 _symmetry_equiv_pos_site_id
 _symmetry_equiv_pos_as_xyz
  1  'x, y, z'
loop_
 _atom_site_type_symbol
 _atom_site_label
 _atom_site_symmetry_multiplicity
 _atom_site_fract_x
 _atom_site_fract_y
 _atom_site_fract_z
 _atom_site_occupancy
  Zr  Zr0  1  0.998960  0.997920  0.496997  1
  Zr  Zr1  1  0.998960  0.997920  0.003003  1
  Zr  Zr2  1  0.335448  0.670896  0.250000  1
  Zr  Zr3  1  0.665388  0.330775  0.750000  1
  Ni  Ni4  1  0.500203  0.000406  0.500003  1
  Ni  Ni5  1  0.500203  0.000406  0.999997  1
  Ni  Ni6  1  0.823631  0.647260  0.250000  1
  Pd  Pd7  1  0.171082  0.342165  0.750000  1
  Pt  Pt8  1  0.503977  0.503456  0.496159  1
  Pt  Pt9  1  0.999479  0.503455  0.496158  1
  Pt  Pt10  1  0.503977  0.503456  0.003841  1
  Pt  Pt11  1  0.999479  0.503455  0.003842  1
  Pt  Pt12  1  0.340433  0.161918  0.250000  1
  Pt  Pt13  1  0.821487  0.161918  0.250000  1
  Pt  Pt14  1  0.659662  0.837298  0.750000  1
  Pt  Pt15  1  0.177635  0.837296  0.750000  1
