# generated using pymatgen
data_DyCo3Ni2P3
_symmetry_space_group_name_H-M   'P 1'
_cell_length_a   3.67997400
_cell_length_b   10.25924400
_cell_length_c   11.82965600
_cell_angle_alpha   90.00000000
_cell_angle_beta   90.00000000
_cell_angle_gamma   90.00000000
_symmetry_Int_Tables_number   1
_chemical_formula_structural   DyCo3Ni2P3
_chemical_formula_sum   'Dy4 Co12 Ni8 P12'
_cell_volume   446.61388916
_cell_formula_units_Z   4
loop_
 _symmetry_equiv_pos_site_id
 _symmetry_equiv_pos_as_xyz
  1  'x, y, z'
loop_
 _atom_site_type_symbol
 _atom_site_label
 _atom_site_symmetry_multiplicity
 _atom_site_fract_x
 _atom_site_fract_y
 _atom_site_fract_z
 _atom_site_occupancy
  Dy  Dy0  1  0.250000  0.581622  0.703402  1
  Dy  Dy1  1  0.250000  0.918378  0.203402  1
  Dy  Dy2  1  0.750000  0.418378  0.296598  1
  Dy  Dy3  1  0.750000  0.081622  0.796598  1
  Co  Co4  1  0.250000  0.221833  0.175929  1
  Co  Co5  1  0.250000  0.278167  0.675929  1
  Co  Co6  1  0.750000  0.778167  0.824071  1
  Co  Co7  1  0.750000  0.721833  0.324071  1
  Co  Co8  1  0.250000  0.880795  0.697637  1
  Co  Co9  1  0.250000  0.619205  0.197637  1
  Co  Co10  1  0.750000  0.119205  0.302363  1
  Co  Co11  1  0.750000  0.380795  0.802363  1
  Co  Co12  1  0.250000  0.467116  0.932687  1
  Co  Co13  1  0.250000  0.032884  0.432687  1
  Co  Co14  1  0.750000  0.532884  0.067313  1
  Co  Co15  1  0.750000  0.967116  0.567313  1
  Ni  Ni16  1  0.250000  0.713195  0.989749  1
  Ni  Ni17  1  0.250000  0.786805  0.489749  1
  Ni  Ni18  1  0.750000  0.286805  0.010251  1
  Ni  Ni19  1  0.750000  0.213195  0.510251  1
  Ni  Ni20  1  0.250000  0.408351  0.485084  1
  Ni  Ni21  1  0.250000  0.091649  0.985084  1
  Ni  Ni22  1  0.750000  0.591649  0.514916  1
  Ni  Ni23  1  0.750000  0.908351  0.014916  1
  P  P24  1  0.250000  0.420167  0.112791  1
  P  P25  1  0.250000  0.079833  0.612791  1
  P  P26  1  0.750000  0.579833  0.887209  1
  P  P27  1  0.750000  0.920167  0.387209  1
  P  P28  1  0.250000  0.272076  0.865412  1
  P  P29  1  0.250000  0.227924  0.365412  1
  P  P30  1  0.750000  0.727924  0.134588  1
  P  P31  1  0.750000  0.772076  0.634588  1
  P  P32  1  0.250000  0.605410  0.387650  1
  P  P33  1  0.250000  0.894590  0.887650  1
  P  P34  1  0.750000  0.394590  0.612350  1
  P  P35  1  0.750000  0.105410  0.112350  1
