# generated using pymatgen
data_RbNa3(B4Ir3)4
_symmetry_space_group_name_H-M   'P 1'
_cell_length_a   7.61513321
_cell_length_b   7.61513360
_cell_length_c   8.33864285
_cell_angle_alpha   89.83808124
_cell_angle_beta   90.16191318
_cell_angle_gamma   97.68600087
_symmetry_Int_Tables_number   1
_chemical_formula_structural   RbNa3(B4Ir3)4
_chemical_formula_sum   'Rb1 Na3 B16 Ir12'
_cell_volume   479.21231636
_cell_formula_units_Z   1
loop_
 _symmetry_equiv_pos_site_id
 _symmetry_equiv_pos_as_xyz
  1  'x, y, z'
loop_
 _atom_site_type_symbol
 _atom_site_label
 _atom_site_symmetry_multiplicity
 _atom_site_fract_x
 _atom_site_fract_y
 _atom_site_fract_z
 _atom_site_occupancy
  Rb  Rb0  1  0.752720  0.747280  0.253007  1
  Na  Na1  1  0.045171  0.044344  0.532541  1
  Na  Na2  1  0.455656  0.454829  0.532541  1
  Na  Na3  1  0.116089  0.383911  0.870516  1
  B  B4  1  0.154871  0.158259  0.178035  1
  B  B5  1  0.847327  0.847436  0.803217  1
  B  B6  1  0.652564  0.652673  0.803217  1
  B  B7  1  0.341741  0.345129  0.178035  1
  B  B8  1  0.909756  0.410862  0.493851  1
  B  B9  1  0.588755  0.089626  0.493675  1
  B  B10  1  0.089138  0.590244  0.493851  1
  B  B11  1  0.410374  0.911245  0.493675  1
  B  B12  1  0.212103  0.946560  0.157900  1
  B  B13  1  0.056576  0.787129  0.831353  1
  B  B14  1  0.445577  0.716915  0.831366  1
  B  B15  1  0.287668  0.559242  0.157893  1
  B  B16  1  0.783085  0.054423  0.831366  1
  B  B17  1  0.940758  0.212332  0.157893  1
  B  B18  1  0.553440  0.287897  0.157900  1
  B  B19  1  0.712871  0.443424  0.831353  1
  Ir  Ir20  1  0.106811  0.393189  0.305425  1
  Ir  Ir21  1  0.609415  0.890585  0.680191  1
  Ir  Ir22  1  0.890219  0.609781  0.681276  1
  Ir  Ir23  1  0.389951  0.110049  0.306881  1
  Ir  Ir24  1  0.745490  0.247503  0.994070  1
  Ir  Ir25  1  0.252497  0.754510  0.994070  1
  Ir  Ir26  1  0.002838  0.004393  0.989469  1
  Ir  Ir27  1  0.495607  0.497162  0.989469  1
  Ir  Ir28  1  0.749285  0.250111  0.658906  1
  Ir  Ir29  1  0.748315  0.250554  0.329076  1
  Ir  Ir30  1  0.249446  0.751685  0.329076  1
  Ir  Ir31  1  0.249889  0.750715  0.658906  1
