# generated using pymatgen
data_SrPrAs7Pd12
_symmetry_space_group_name_H-M   'P 1'
_cell_length_a   10.14221500
_cell_length_b   10.14221539
_cell_length_c   4.18450100
_cell_angle_alpha   90.00000000
_cell_angle_beta   90.00000000
_cell_angle_gamma   120.00000200
_symmetry_Int_Tables_number   1
_chemical_formula_structural   SrPrAs7Pd12
_chemical_formula_sum   'Sr1 Pr1 As7 Pd12'
_cell_volume   372.76913076
_cell_formula_units_Z   1
loop_
 _symmetry_equiv_pos_site_id
 _symmetry_equiv_pos_as_xyz
  1  'x, y, z'
loop_
 _atom_site_type_symbol
 _atom_site_label
 _atom_site_symmetry_multiplicity
 _atom_site_fract_x
 _atom_site_fract_y
 _atom_site_fract_z
 _atom_site_occupancy
  Sr  Sr0  1  0.666667  0.333333  0.245958  1
  Pr  Pr1  1  0.000000  0.000000  0.752511  1
  As  As2  1  0.333333  0.666667  0.486141  1
  As  As3  1  0.741468  0.782245  0.252221  1
  As  As4  1  0.040777  0.258532  0.252221  1
  As  As5  1  0.217755  0.959223  0.252221  1
  As  As6  1  0.926780  0.553675  0.744732  1
  As  As7  1  0.626895  0.073220  0.744732  1
  As  As8  1  0.446325  0.373105  0.744732  1
  Pd  Pd9  1  0.770337  0.044952  0.249937  1
  Pd  Pd10  1  0.274614  0.229663  0.249937  1
  Pd  Pd11  1  0.955048  0.725386  0.249937  1
  Pd  Pd12  1  0.900052  0.285867  0.746346  1
  Pd  Pd13  1  0.385814  0.099948  0.746346  1
  Pd  Pd14  1  0.714133  0.614186  0.746346  1
  Pd  Pd15  1  0.476721  0.555483  0.225673  1
  Pd  Pd16  1  0.078761  0.523279  0.225673  1
  Pd  Pd17  1  0.444517  0.921239  0.225673  1
  Pd  Pd18  1  0.191979  0.775478  0.770060  1
  Pd  Pd19  1  0.583499  0.808021  0.770060  1
  Pd  Pd20  1  0.224522  0.416501  0.770060  1
