# generated using pymatgen
data_Pr4Y3Er13Pt16
_symmetry_space_group_name_H-M   'P 1'
_cell_length_a   7.51000913
_cell_length_b   7.59311803
_cell_length_c   14.73761986
_cell_angle_alpha   90.00361964
_cell_angle_beta   90.02558733
_cell_angle_gamma   89.91315177
_symmetry_Int_Tables_number   1
_chemical_formula_structural   Pr4Y3Er13Pt16
_chemical_formula_sum   'Pr4 Y3 Er13 Pt16'
_cell_volume   840.40266886
_cell_formula_units_Z   1
loop_
 _symmetry_equiv_pos_site_id
 _symmetry_equiv_pos_as_xyz
  1  'x, y, z'
loop_
 _atom_site_type_symbol
 _atom_site_label
 _atom_site_symmetry_multiplicity
 _atom_site_fract_x
 _atom_site_fract_y
 _atom_site_fract_z
 _atom_site_occupancy
  Pr  Pr0  1  0.501093  0.676677  0.092712  1
  Pr  Pr1  1  0.498777  0.324549  0.592672  1
  Pr  Pr2  1  0.999386  0.177116  0.908006  1
  Pr  Pr3  1  0.998678  0.174644  0.592414  1
  Y  Y4  1  0.501862  0.320974  0.905807  1
  Y  Y5  1  0.498058  0.680886  0.406031  1
  Y  Y6  1  0.998361  0.820742  0.094529  1
  Er  Er7  1  0.681694  0.989906  0.250839  1
  Er  Er8  1  0.180714  0.510681  0.251078  1
  Er  Er9  1  0.819042  0.490769  0.750626  1
  Er  Er10  1  0.320206  0.009810  0.750468  1
  Er  Er11  1  0.654767  0.831197  0.622438  1
  Er  Er12  1  0.156408  0.667365  0.877730  1
  Er  Er13  1  0.843111  0.332573  0.376927  1
  Er  Er14  1  0.343637  0.167936  0.123176  1
  Er  Er15  1  0.342091  0.166225  0.377013  1
  Er  Er16  1  0.844045  0.331974  0.123991  1
  Er  Er17  1  0.154640  0.668823  0.622352  1
  Er  Er18  1  0.656348  0.832332  0.877038  1
  Er  Er19  1  0.997937  0.818572  0.405702  1
  Pt  Pt20  1  0.819340  0.642476  0.252075  1
  Pt  Pt21  1  0.314110  0.860188  0.252261  1
  Pt  Pt22  1  0.682667  0.139676  0.751518  1
  Pt  Pt23  1  0.186017  0.362262  0.750584  1
  Pt  Pt24  1  0.548027  0.381980  0.251327  1
  Pt  Pt25  1  0.046267  0.116232  0.250566  1
  Pt  Pt26  1  0.952500  0.879206  0.749850  1
  Pt  Pt27  1  0.453408  0.619679  0.750720  1
  Pt  Pt28  1  0.820597  0.541651  0.539534  1
  Pt  Pt29  1  0.321116  0.965676  0.957824  1
  Pt  Pt30  1  0.685071  0.028065  0.455105  1
  Pt  Pt31  1  0.178407  0.466001  0.042575  1
  Pt  Pt32  1  0.181410  0.472373  0.454815  1
  Pt  Pt33  1  0.682620  0.035973  0.042432  1
  Pt  Pt34  1  0.320789  0.959327  0.539635  1
  Pt  Pt35  1  0.816802  0.535485  0.957630  1
