# generated using pymatgen
data_Tm10Hg2Ru3Pt
_symmetry_space_group_name_H-M   'P 1'
_cell_length_a   8.57489840
_cell_length_b   8.57489811
_cell_length_c   8.54985048
_cell_angle_alpha   126.93721676
_cell_angle_beta   126.93721454
_cell_angle_gamma   78.55844071
_symmetry_Int_Tables_number   1
_chemical_formula_structural   Tm10Hg2Ru3Pt
_chemical_formula_sum   'Tm10 Hg2 Ru3 Pt1'
_cell_volume   388.38132176
_cell_formula_units_Z   1
loop_
 _symmetry_equiv_pos_site_id
 _symmetry_equiv_pos_as_xyz
  1  'x, y, z'
loop_
 _atom_site_type_symbol
 _atom_site_label
 _atom_site_symmetry_multiplicity
 _atom_site_fract_x
 _atom_site_fract_y
 _atom_site_fract_z
 _atom_site_occupancy
  Tm  Tm0  1  0.999992  0.999069  0.999060  1
  Tm  Tm1  1  0.500931  0.500008  0.000940  1
  Tm  Tm2  1  0.802457  0.293326  0.823312  1
  Tm  Tm3  1  0.206674  0.697543  0.176688  1
  Tm  Tm4  1  0.479146  0.970014  0.176688  1
  Tm  Tm5  1  0.284644  0.481341  0.500000  1
  Tm  Tm6  1  0.018659  0.215356  0.500000  1
  Tm  Tm7  1  0.529986  0.020854  0.823312  1
  Tm  Tm8  1  0.703316  0.527682  0.500000  1
  Tm  Tm9  1  0.972318  0.796684  0.500000  1
  Hg  Hg10  1  0.251759  0.248241  0.000000  1
  Hg  Hg11  1  0.751759  0.748241  0.000000  1
  Ru  Ru12  1  0.141045  0.644284  0.785329  1
  Ru  Ru13  1  0.855716  0.358955  0.214671  1
  Ru  Ru14  1  0.638808  0.861192  0.500000  1
  Pt  Pt15  1  0.362788  0.137212  0.500000  1
