# generated using pymatgen
data_LiHf6Zn22Si
_symmetry_space_group_name_H-M   'P 1'
_cell_length_a   8.70459750
_cell_length_b   8.70459709
_cell_length_c   8.70459800
_cell_angle_alpha   60.00000413
_cell_angle_beta   60.00000571
_cell_angle_gamma   60.00000223
_symmetry_Int_Tables_number   1
_chemical_formula_structural   LiHf6Zn22Si
_chemical_formula_sum   'Li1 Hf6 Zn22 Si1'
_cell_volume   466.37056142
_cell_formula_units_Z   1
loop_
 _symmetry_equiv_pos_site_id
 _symmetry_equiv_pos_as_xyz
  1  'x, y, z'
loop_
 _atom_site_type_symbol
 _atom_site_label
 _atom_site_symmetry_multiplicity
 _atom_site_fract_x
 _atom_site_fract_y
 _atom_site_fract_z
 _atom_site_occupancy
  Li  Li0  1  0.000000  0.000000  0.000000  1
  Hf  Hf1  1  0.710141  0.289859  0.289859  1
  Hf  Hf2  1  0.289859  0.710141  0.710141  1
  Hf  Hf3  1  0.289859  0.710141  0.289859  1
  Hf  Hf4  1  0.710141  0.289859  0.710141  1
  Hf  Hf5  1  0.289859  0.289859  0.710141  1
  Hf  Hf6  1  0.710141  0.710141  0.289859  1
  Zn  Zn7  1  0.120863  0.120863  0.120863  1
  Zn  Zn8  1  0.879137  0.879137  0.879137  1
  Zn  Zn9  1  0.120863  0.120863  0.637413  1
  Zn  Zn10  1  0.120863  0.637413  0.120863  1
  Zn  Zn11  1  0.879137  0.879137  0.362587  1
  Zn  Zn12  1  0.879137  0.362587  0.879137  1
  Zn  Zn13  1  0.637413  0.120863  0.120863  1
  Zn  Zn14  1  0.362587  0.879137  0.879137  1
  Zn  Zn15  1  0.500000  0.000000  0.000000  1
  Zn  Zn16  1  0.000000  0.500000  0.500000  1
  Zn  Zn17  1  0.000000  0.500000  0.000000  1
  Zn  Zn18  1  0.500000  0.000000  0.500000  1
  Zn  Zn19  1  0.000000  0.000000  0.500000  1
  Zn  Zn20  1  0.500000  0.500000  0.000000  1
  Zn  Zn21  1  0.335677  0.335677  0.335677  1
  Zn  Zn22  1  0.664323  0.664323  0.664323  1
  Zn  Zn23  1  0.335677  0.335677  0.992970  1
  Zn  Zn24  1  0.335677  0.992970  0.335677  1
  Zn  Zn25  1  0.664323  0.664323  0.007030  1
  Zn  Zn26  1  0.664323  0.007030  0.664323  1
  Zn  Zn27  1  0.992970  0.335677  0.335677  1
  Zn  Zn28  1  0.007030  0.664323  0.664323  1
  Si  Si29  1  0.500000  0.500000  0.500000  1
