# generated using pymatgen
data_NaFe(Te3O7)2
_symmetry_space_group_name_H-M   'P 1'
_cell_length_a   11.07269200
_cell_length_b   11.07269200
_cell_length_c   11.07269200
_cell_angle_alpha   90.00000000
_cell_angle_beta   90.00000000
_cell_angle_gamma   90.00000000
_symmetry_Int_Tables_number   1
_chemical_formula_structural   NaFe(Te3O7)2
_chemical_formula_sum   'Na4 Fe4 Te24 O56'
_cell_volume   1357.56195630
_cell_formula_units_Z   4
loop_
 _symmetry_equiv_pos_site_id
 _symmetry_equiv_pos_as_xyz
  1  'x, y, z'
loop_
 _atom_site_type_symbol
 _atom_site_label
 _atom_site_symmetry_multiplicity
 _atom_site_fract_x
 _atom_site_fract_y
 _atom_site_fract_z
 _atom_site_occupancy
  Na  Na0  1  0.500000  0.500000  0.000000  1
  Na  Na1  1  0.000000  0.500000  0.500000  1
  Na  Na2  1  0.000000  0.000000  0.000000  1
  Na  Na3  1  0.500000  0.000000  0.500000  1
  Fe  Fe4  1  0.000000  0.000000  0.500000  1
  Fe  Fe5  1  0.500000  0.500000  0.500000  1
  Fe  Fe6  1  0.500000  0.000000  0.000000  1
  Fe  Fe7  1  0.000000  0.500000  0.000000  1
  Te  Te8  1  0.993525  0.740098  0.773719  1
  Te  Te9  1  0.493525  0.740098  0.726281  1
  Te  Te10  1  0.759902  0.273719  0.993525  1
  Te  Te11  1  0.259902  0.226281  0.006475  1
  Te  Te12  1  0.740098  0.773719  0.993525  1
  Te  Te13  1  0.740098  0.726281  0.493525  1
  Te  Te14  1  0.273719  0.993525  0.759902  1
  Te  Te15  1  0.773719  0.993525  0.740098  1
  Te  Te16  1  0.226281  0.006475  0.259902  1
  Te  Te17  1  0.993525  0.759902  0.273719  1
  Te  Te18  1  0.773719  0.506475  0.240098  1
  Te  Te19  1  0.006475  0.240098  0.726281  1
  Te  Te20  1  0.726281  0.493525  0.740098  1
  Te  Te21  1  0.259902  0.273719  0.506475  1
  Te  Te22  1  0.240098  0.726281  0.006475  1
  Te  Te23  1  0.273719  0.506475  0.259902  1
  Te  Te24  1  0.493525  0.759902  0.226281  1
  Te  Te25  1  0.726281  0.006475  0.240098  1
  Te  Te26  1  0.226281  0.493525  0.759902  1
  Te  Te27  1  0.506475  0.259902  0.273719  1
  Te  Te28  1  0.759902  0.226281  0.493525  1
  Te  Te29  1  0.506475  0.240098  0.773719  1
  Te  Te30  1  0.006475  0.259902  0.226281  1
  Te  Te31  1  0.240098  0.773719  0.506475  1
  O  O32  1  0.879840  0.386086  0.310466  1
  O  O33  1  0.620160  0.613914  0.810466  1
  O  O34  1  0.124484  0.433341  0.882204  1
  O  O35  1  0.113914  0.810466  0.879840  1
  O  O36  1  0.620160  0.886086  0.310466  1
  O  O37  1  0.120160  0.886086  0.189534  1
  O  O38  1  0.433341  0.617796  0.624484  1
  O  O39  1  0.379840  0.113914  0.689534  1
  O  O40  1  0.624484  0.433341  0.617796  1
  O  O41  1  0.066659  0.117796  0.624484  1
  O  O42  1  0.310466  0.879840  0.386086  1
  O  O43  1  0.882204  0.124484  0.433341  1
  O  O44  1  0.140190  0.140190  0.140190  1
  O  O45  1  0.386086  0.310466  0.879840  1
  O  O46  1  0.875516  0.566659  0.117796  1
  O  O47  1  0.875516  0.933341  0.617796  1
  O  O48  1  0.886086  0.310466  0.620160  1
  O  O49  1  0.566659  0.382204  0.375516  1
  O  O50  1  0.066659  0.382204  0.124484  1
  O  O51  1  0.859810  0.640190  0.359810  1
  O  O52  1  0.375516  0.933341  0.882204  1
  O  O53  1  0.933341  0.882204  0.375516  1
  O  O54  1  0.140190  0.359810  0.640190  1
  O  O55  1  0.433341  0.882204  0.124484  1
  O  O56  1  0.379840  0.386086  0.189534  1
  O  O57  1  0.120160  0.613914  0.689534  1
  O  O58  1  0.566659  0.117796  0.875516  1
  O  O59  1  0.386086  0.189534  0.379840  1
  O  O60  1  0.810466  0.879840  0.113914  1
  O  O61  1  0.189534  0.379840  0.386086  1
  O  O62  1  0.375516  0.566659  0.382204  1
  O  O63  1  0.113914  0.689534  0.379840  1
  O  O64  1  0.859810  0.859810  0.859810  1
  O  O65  1  0.886086  0.189534  0.120160  1
  O  O66  1  0.124484  0.066659  0.382204  1
  O  O67  1  0.689534  0.379840  0.113914  1
  O  O68  1  0.640190  0.359810  0.859810  1
  O  O69  1  0.117796  0.875516  0.566659  1
  O  O70  1  0.189534  0.120160  0.886086  1
  O  O71  1  0.613914  0.810466  0.620160  1
  O  O72  1  0.310466  0.620160  0.886086  1
  O  O73  1  0.933341  0.617796  0.875516  1
  O  O74  1  0.613914  0.689534  0.120160  1
  O  O75  1  0.117796  0.624484  0.066659  1
  O  O76  1  0.617796  0.624484  0.433341  1
  O  O77  1  0.689534  0.120160  0.613914  1
  O  O78  1  0.810466  0.620160  0.613914  1
  O  O79  1  0.359810  0.859810  0.640190  1
  O  O80  1  0.879840  0.113914  0.810466  1
  O  O81  1  0.617796  0.875516  0.933341  1
  O  O82  1  0.882204  0.375516  0.933341  1
  O  O83  1  0.640190  0.140190  0.359810  1
  O  O84  1  0.359810  0.640190  0.140190  1
  O  O85  1  0.624484  0.066659  0.117796  1
  O  O86  1  0.382204  0.124484  0.066659  1
  O  O87  1  0.382204  0.375516  0.566659  1
