# generated using pymatgen
data_Ho13Er7(NiSb2)4
_symmetry_space_group_name_H-M   'P 1'
_cell_length_a   7.89444003
_cell_length_b   8.77445505
_cell_length_c   12.12750105
_cell_angle_alpha   89.99018653
_cell_angle_beta   90.00473331
_cell_angle_gamma   90.00785035
_symmetry_Int_Tables_number   1
_chemical_formula_structural   Ho13Er7(NiSb2)4
_chemical_formula_sum   'Ho13 Er7 Ni4 Sb8'
_cell_volume   840.06480968
_cell_formula_units_Z   1
loop_
 _symmetry_equiv_pos_site_id
 _symmetry_equiv_pos_as_xyz
  1  'x, y, z'
loop_
 _atom_site_type_symbol
 _atom_site_label
 _atom_site_symmetry_multiplicity
 _atom_site_fract_x
 _atom_site_fract_y
 _atom_site_fract_z
 _atom_site_occupancy
  Ho  Ho0  1  0.158183  0.749881  0.206721  1
  Ho  Ho1  1  0.657901  0.250017  0.293433  1
  Ho  Ho2  1  0.841981  0.250011  0.793302  1
  Ho  Ho3  1  0.342037  0.749972  0.706618  1
  Ho  Ho4  1  0.453936  0.749918  0.999817  1
  Ho  Ho5  1  0.954108  0.250002  0.500174  1
  Ho  Ho6  1  0.545590  0.250127  0.000144  1
  Ho  Ho7  1  0.045935  0.749998  0.499851  1
  Ho  Ho8  1  0.625305  0.749995  0.305036  1
  Ho  Ho9  1  0.125539  0.250080  0.195185  1
  Ho  Ho10  1  0.374672  0.250015  0.695075  1
  Ho  Ho11  1  0.874672  0.749828  0.804771  1
  Ho  Ho12  1  0.820962  0.959778  0.066246  1
  Er  Er13  1  0.321582  0.040447  0.433789  1
  Er  Er14  1  0.178370  0.459467  0.933734  1
  Er  Er15  1  0.678399  0.540392  0.566226  1
  Er  Er16  1  0.178619  0.040486  0.933668  1
  Er  Er17  1  0.678378  0.959584  0.566211  1
  Er  Er18  1  0.821536  0.540326  0.066212  1
  Er  Er19  1  0.321585  0.459541  0.433770  1
  Ni  Ni20  1  0.427928  0.750006  0.489362  1
  Ni  Ni21  1  0.928220  0.250424  0.010587  1
  Ni  Ni22  1  0.572096  0.250020  0.510631  1
  Ni  Ni23  1  0.072528  0.749679  0.989226  1
  Sb  Sb24  1  0.930350  0.991376  0.327765  1
  Sb  Sb25  1  0.429972  0.008667  0.172476  1
  Sb  Sb26  1  0.069752  0.491354  0.672322  1
  Sb  Sb27  1  0.569733  0.508629  0.827623  1
  Sb  Sb28  1  0.069754  0.008622  0.672357  1
  Sb  Sb29  1  0.569819  0.991373  0.827633  1
  Sb  Sb30  1  0.930284  0.508645  0.327645  1
  Sb  Sb31  1  0.430277  0.491341  0.172389  1
