# generated using pymatgen
data_LuZrV3P7Rh9
_symmetry_space_group_name_H-M   'P 1'
_cell_length_a   3.83211584
_cell_length_b   9.50503493
_cell_length_c   9.50230071
_cell_angle_alpha   120.03992307
_cell_angle_beta   90.06071117
_cell_angle_gamma   90.05191918
_symmetry_Int_Tables_number   1
_chemical_formula_structural   LuZrV3P7Rh9
_chemical_formula_sum   'Lu1 Zr1 V3 P7 Rh9'
_cell_volume   299.62362377
_cell_formula_units_Z   1
loop_
 _symmetry_equiv_pos_site_id
 _symmetry_equiv_pos_as_xyz
  1  'x, y, z'
loop_
 _atom_site_type_symbol
 _atom_site_label
 _atom_site_symmetry_multiplicity
 _atom_site_fract_x
 _atom_site_fract_y
 _atom_site_fract_z
 _atom_site_occupancy
  Lu  Lu0  1  0.762049  0.333513  0.666462  1
  Zr  Zr1  1  0.261906  0.667144  0.333710  1
  V  V2  1  0.761877  0.093066  0.873095  1
  V  V3  1  0.761908  0.126986  0.220841  1
  V  V4  1  0.761906  0.778091  0.905781  1
  P  P5  1  0.261595  0.999659  0.999632  1
  P  P6  1  0.761949  0.882971  0.594592  1
  P  P7  1  0.761943  0.407343  0.288469  1
  P  P8  1  0.761900  0.711495  0.116367  1
  P  P9  1  0.261884  0.119386  0.413450  1
  P  P10  1  0.261916  0.587471  0.706978  1
  P  P11  1  0.261950  0.293186  0.880751  1
  Rh  Rh12  1  0.262120  0.884822  0.159430  1
  Rh  Rh13  1  0.261597  0.840123  0.724840  1
  Rh  Rh14  1  0.261750  0.275030  0.115459  1
  Rh  Rh15  1  0.762146  0.615091  0.554897  1
  Rh  Rh16  1  0.762211  0.445130  0.059681  1
  Rh  Rh17  1  0.761766  0.940366  0.385127  1
  Rh  Rh18  1  0.261556  0.370307  0.440118  1
  Rh  Rh19  1  0.261918  0.559451  0.930512  1
  Rh  Rh20  1  0.262153  0.069366  0.629806  1
