# generated using pymatgen
data_Th2Ta3P7Ir9
_symmetry_space_group_name_H-M   'P 1'
_cell_length_a   9.66259500
_cell_length_b   9.66259411
_cell_length_c   4.06086600
_cell_angle_alpha   90.00000000
_cell_angle_beta   90.00000000
_cell_angle_gamma   119.99999962
_symmetry_Int_Tables_number   1
_chemical_formula_structural   Th2Ta3P7Ir9
_chemical_formula_sum   'Th2 Ta3 P7 Ir9'
_cell_volume   328.34983775
_cell_formula_units_Z   1
loop_
 _symmetry_equiv_pos_site_id
 _symmetry_equiv_pos_as_xyz
  1  'x, y, z'
loop_
 _atom_site_type_symbol
 _atom_site_label
 _atom_site_symmetry_multiplicity
 _atom_site_fract_x
 _atom_site_fract_y
 _atom_site_fract_z
 _atom_site_occupancy
  Th  Th0  1  0.333333  0.666667  0.000000  1
  Th  Th1  1  0.000000  0.000000  0.500000  1
  Ta  Ta2  1  0.795712  0.241607  0.500000  1
  Ta  Ta3  1  0.758393  0.554105  0.500000  1
  Ta  Ta4  1  0.445895  0.204288  0.500000  1
  P  P5  1  0.781810  0.036497  0.000000  1
  P  P6  1  0.963503  0.745313  0.000000  1
  P  P7  1  0.254687  0.218190  0.000000  1
  P  P8  1  0.378530  0.927395  0.500000  1
  P  P9  1  0.072605  0.451137  0.500000  1
  P  P10  1  0.548863  0.621470  0.500000  1
  P  P11  1  0.666667  0.333333  0.000000  1
  Ir  Ir12  1  0.033984  0.260487  0.000000  1
  Ir  Ir13  1  0.739513  0.773497  0.000000  1
  Ir  Ir14  1  0.226503  0.966016  0.000000  1
  Ir  Ir15  1  0.556043  0.062277  0.000000  1
  Ir  Ir16  1  0.937723  0.493766  0.000000  1
  Ir  Ir17  1  0.506234  0.443957  0.000000  1
  Ir  Ir18  1  0.610258  0.890167  0.500000  1
  Ir  Ir19  1  0.109833  0.720089  0.500000  1
  Ir  Ir20  1  0.279911  0.389742  0.500000  1
