# generated using pymatgen
data_Lu8Ta9Ge16Mo3
_symmetry_space_group_name_H-M   'P 1'
_cell_length_a   6.87458204
_cell_length_b   7.09137104
_cell_length_c   13.41696200
_cell_angle_alpha   90.00000000
_cell_angle_beta   90.00000000
_cell_angle_gamma   90.01158605
_symmetry_Int_Tables_number   1
_chemical_formula_structural   Lu8Ta9Ge16Mo3
_chemical_formula_sum   'Lu8 Ta9 Ge16 Mo3'
_cell_volume   654.07972759
_cell_formula_units_Z   1
loop_
 _symmetry_equiv_pos_site_id
 _symmetry_equiv_pos_as_xyz
  1  'x, y, z'
loop_
 _atom_site_type_symbol
 _atom_site_label
 _atom_site_symmetry_multiplicity
 _atom_site_fract_x
 _atom_site_fract_y
 _atom_site_fract_z
 _atom_site_occupancy
  Lu  Lu0  1  0.493546  0.675587  0.592915  1
  Lu  Lu1  1  0.993437  0.824376  0.907007  1
  Lu  Lu2  1  0.506370  0.324650  0.093337  1
  Lu  Lu3  1  0.006187  0.175508  0.406855  1
  Lu  Lu4  1  0.506370  0.324650  0.406663  1
  Lu  Lu5  1  0.006187  0.175508  0.093145  1
  Lu  Lu6  1  0.493546  0.675587  0.907085  1
  Lu  Lu7  1  0.993437  0.824376  0.592993  1
  Ta  Ta8  1  0.658524  0.166439  0.627077  1
  Ta  Ta9  1  0.158507  0.333392  0.873408  1
  Ta  Ta10  1  0.340693  0.832386  0.125838  1
  Ta  Ta11  1  0.841934  0.666717  0.373750  1
  Ta  Ta12  1  0.340693  0.832386  0.374162  1
  Ta  Ta13  1  0.841934  0.666717  0.126250  1
  Ta  Ta14  1  0.658524  0.166439  0.872923  1
  Ta  Ta15  1  0.158507  0.333392  0.626592  1
  Ta  Ta16  1  0.665482  0.987752  0.250000  1
  Ge  Ge17  1  0.679906  0.962053  0.458104  1
  Ge  Ge18  1  0.179639  0.538844  0.042211  1
  Ge  Ge19  1  0.320455  0.039061  0.957531  1
  Ge  Ge20  1  0.820687  0.460707  0.542426  1
  Ge  Ge21  1  0.320455  0.039061  0.542469  1
  Ge  Ge22  1  0.820687  0.460707  0.957574  1
  Ge  Ge23  1  0.679906  0.962053  0.041896  1
  Ge  Ge24  1  0.179639  0.538844  0.457789  1
  Ge  Ge25  1  0.461919  0.383261  0.750000  1
  Ge  Ge26  1  0.962441  0.116418  0.750000  1
  Ge  Ge27  1  0.536263  0.615123  0.250000  1
  Ge  Ge28  1  0.041094  0.883156  0.250000  1
  Ge  Ge29  1  0.692738  0.854149  0.750000  1
  Ge  Ge30  1  0.192977  0.645788  0.750000  1
  Ge  Ge31  1  0.305475  0.147287  0.250000  1
  Ge  Ge32  1  0.807066  0.356071  0.250000  1
  Mo  Mo33  1  0.834862  0.487983  0.750000  1
  Mo  Mo34  1  0.335380  0.011882  0.750000  1
  Mo  Mo35  1  0.164535  0.511687  0.250000  1
