# generated using pymatgen
data_La4ScGa2Sn
_symmetry_space_group_name_H-M   'P 1'
_cell_length_a   9.15853788
_cell_length_b   9.15853849
_cell_length_c   9.15853867
_cell_angle_alpha   96.12744780
_cell_angle_beta   96.65655464
_cell_angle_gamma   141.01785187
_symmetry_Int_Tables_number   1
_chemical_formula_structural   La4ScGa2Sn
_chemical_formula_sum   'La8 Sc2 Ga4 Sn2'
_cell_volume   455.56239212
_cell_formula_units_Z   2
loop_
 _symmetry_equiv_pos_site_id
 _symmetry_equiv_pos_as_xyz
  1  'x, y, z'
loop_
 _atom_site_type_symbol
 _atom_site_label
 _atom_site_symmetry_multiplicity
 _atom_site_fract_x
 _atom_site_fract_y
 _atom_site_fract_z
 _atom_site_occupancy
  La  La0  1  0.907290  0.217998  0.125288  1
  La  La1  1  0.222590  0.089137  0.311727  1
  La  La2  1  0.780611  0.911124  0.691735  1
  La  La3  1  0.085171  0.776178  0.861349  1
  La  La4  1  0.719389  0.411124  0.130513  1
  La  La5  1  0.277410  0.589137  0.866547  1
  La  La6  1  0.592710  0.717998  0.310708  1
  La  La7  1  0.414829  0.276178  0.691007  1
  Sc  Sc8  1  0.750000  0.257820  0.507820  1
  Sc  Sc9  1  0.250000  0.757820  0.507820  1
  Ga  Ga10  1  0.750000  0.750230  0.000230  1
  Ga  Ga11  1  0.250000  0.250230  0.000230  1
  Ga  Ga12  1  0.850922  0.647818  0.498740  1
  Ga  Ga13  1  0.649078  0.147818  0.796897  1
  Sn  Sn14  1  0.352005  0.849697  0.201701  1
  Sn  Sn15  1  0.147995  0.349697  0.497692  1
