# generated using pymatgen
data_Tb3Dy9(OsRh)2
_symmetry_space_group_name_H-M   'P 1'
_cell_length_a   6.37137660
_cell_length_b   7.32155958
_cell_length_c   9.19504000
_cell_angle_alpha   90.00000000
_cell_angle_beta   90.00000000
_cell_angle_gamma   89.48128247
_symmetry_Int_Tables_number   1
_chemical_formula_structural   Tb3Dy9(OsRh)2
_chemical_formula_sum   'Tb3 Dy9 Os2 Rh2'
_cell_volume   428.91644914
_cell_formula_units_Z   1
loop_
 _symmetry_equiv_pos_site_id
 _symmetry_equiv_pos_as_xyz
  1  'x, y, z'
loop_
 _atom_site_type_symbol
 _atom_site_label
 _atom_site_symmetry_multiplicity
 _atom_site_fract_x
 _atom_site_fract_y
 _atom_site_fract_z
 _atom_site_occupancy
  Tb  Tb0  1  0.865887  0.535940  0.250000  1
  Tb  Tb1  1  0.628338  0.037314  0.250000  1
  Tb  Tb2  1  0.134227  0.463679  0.750000  1
  Dy  Dy3  1  0.327039  0.679759  0.065752  1
  Dy  Dy4  1  0.166800  0.173502  0.439008  1
  Dy  Dy5  1  0.673040  0.320423  0.565813  1
  Dy  Dy6  1  0.832779  0.826835  0.938814  1
  Dy  Dy7  1  0.673040  0.320423  0.934187  1
  Dy  Dy8  1  0.832779  0.826835  0.561186  1
  Dy  Dy9  1  0.327039  0.679759  0.434248  1
  Dy  Dy10  1  0.166800  0.173502  0.060992  1
  Dy  Dy11  1  0.371458  0.962375  0.750000  1
  Os  Os12  1  0.039722  0.882663  0.250000  1
  Os  Os13  1  0.961512  0.116875  0.750000  1
  Rh  Rh14  1  0.447466  0.382507  0.250000  1
  Rh  Rh15  1  0.552079  0.617609  0.750000  1
