# generated using pymatgen
data_Li8Sm7ThPt8
_symmetry_space_group_name_H-M   'P 1'
_cell_length_a   9.56039337
_cell_length_b   9.56039201
_cell_length_c   7.23753637
_cell_angle_alpha   90.21814285
_cell_angle_beta   89.78184927
_cell_angle_gamma   130.80816497
_symmetry_Int_Tables_number   1
_chemical_formula_structural   Li8Sm7ThPt8
_chemical_formula_sum   'Li8 Sm7 Th1 Pt8'
_cell_volume   500.70050336
_cell_formula_units_Z   1
loop_
 _symmetry_equiv_pos_site_id
 _symmetry_equiv_pos_as_xyz
  1  'x, y, z'
loop_
 _atom_site_type_symbol
 _atom_site_label
 _atom_site_symmetry_multiplicity
 _atom_site_fract_x
 _atom_site_fract_y
 _atom_site_fract_z
 _atom_site_occupancy
  Li  Li0  1  0.846306  0.153694  0.875718  1
  Li  Li1  1  0.850688  0.652888  0.627012  1
  Li  Li2  1  0.347112  0.149312  0.627012  1
  Li  Li3  1  0.151300  0.848700  0.378823  1
  Li  Li4  1  0.151864  0.346529  0.123018  1
  Li  Li5  1  0.653471  0.848136  0.123018  1
  Li  Li6  1  0.653552  0.346448  0.379365  1
  Li  Li7  1  0.347594  0.652406  0.878279  1
  Sm  Sm8  1  0.532515  0.968864  0.552625  1
  Sm  Sm9  1  0.031136  0.467485  0.552625  1
  Sm  Sm10  1  0.534119  0.465881  0.950689  1
  Sm  Sm11  1  0.467267  0.033134  0.056199  1
  Sm  Sm12  1  0.966866  0.532733  0.056199  1
  Sm  Sm13  1  0.965767  0.034233  0.449425  1
  Sm  Sm14  1  0.034829  0.965171  0.951418  1
  Th  Th15  1  0.467836  0.532164  0.454521  1
  Pt  Pt16  1  0.813338  0.186662  0.259122  1
  Pt  Pt17  1  0.807544  0.684905  0.247758  1
  Pt  Pt18  1  0.315095  0.192456  0.247758  1
  Pt  Pt19  1  0.186788  0.813212  0.764187  1
  Pt  Pt20  1  0.188032  0.315710  0.740435  1
  Pt  Pt21  1  0.684290  0.811968  0.740435  1
  Pt  Pt22  1  0.685629  0.314371  0.760368  1
  Pt  Pt23  1  0.317064  0.682936  0.261993  1
