# generated using pymatgen
data_Nb3Pt2Rh
_symmetry_space_group_name_H-M   'P 1'
_cell_length_a   2.83058400
_cell_length_b   4.98376600
_cell_length_c   13.99416300
_cell_angle_alpha   90.00000000
_cell_angle_beta   90.00000000
_cell_angle_gamma   90.00000000
_symmetry_Int_Tables_number   1
_chemical_formula_structural   Nb3Pt2Rh
_chemical_formula_sum   'Nb6 Pt4 Rh2'
_cell_volume   197.41521382
_cell_formula_units_Z   2
loop_
 _symmetry_equiv_pos_site_id
 _symmetry_equiv_pos_as_xyz
  1  'x, y, z'
loop_
 _atom_site_type_symbol
 _atom_site_label
 _atom_site_symmetry_multiplicity
 _atom_site_fract_x
 _atom_site_fract_y
 _atom_site_fract_z
 _atom_site_occupancy
  Nb  Nb0  1  0.000000  0.012766  0.250000  1
  Nb  Nb1  1  0.000000  0.987234  0.750000  1
  Nb  Nb2  1  0.000000  0.340090  0.584600  1
  Nb  Nb3  1  0.000000  0.659910  0.415400  1
  Nb  Nb4  1  0.000000  0.340090  0.915400  1
  Nb  Nb5  1  0.000000  0.659910  0.084600  1
  Pt  Pt6  1  0.500000  0.836221  0.583587  1
  Pt  Pt7  1  0.500000  0.163779  0.416413  1
  Pt  Pt8  1  0.500000  0.836221  0.916413  1
  Pt  Pt9  1  0.500000  0.163779  0.083587  1
  Rh  Rh10  1  0.500000  0.514486  0.250000  1
  Rh  Rh11  1  0.500000  0.485514  0.750000  1
