# generated using pymatgen
data_Sc3Al3Ga2Ni
_symmetry_space_group_name_H-M   'P 1'
_cell_length_a   6.65760000
_cell_length_b   6.65760024
_cell_length_c   4.05488100
_cell_angle_alpha   90.00000000
_cell_angle_beta   90.00000000
_cell_angle_gamma   119.99999883
_symmetry_Int_Tables_number   1
_chemical_formula_structural   Sc3Al3Ga2Ni
_chemical_formula_sum   'Sc3 Al3 Ga2 Ni1'
_cell_volume   155.64822142
_cell_formula_units_Z   1
loop_
 _symmetry_equiv_pos_site_id
 _symmetry_equiv_pos_as_xyz
  1  'x, y, z'
loop_
 _atom_site_type_symbol
 _atom_site_label
 _atom_site_symmetry_multiplicity
 _atom_site_fract_x
 _atom_site_fract_y
 _atom_site_fract_z
 _atom_site_occupancy
  Sc  Sc0  1  0.410346  0.000000  0.000000  1
  Sc  Sc1  1  0.000000  0.410346  0.000000  1
  Sc  Sc2  1  0.589654  0.589653  0.000000  1
  Al  Al3  1  0.764999  0.000000  0.500001  1
  Al  Al4  1  0.235000  0.235000  0.500001  1
  Al  Al5  1  0.000000  0.764999  0.500001  1
  Ga  Ga6  1  0.666667  0.333334  0.500001  1
  Ga  Ga7  1  0.333334  0.666667  0.500001  1
  Ni  Ni8  1  0.000000  0.000000  0.000000  1
