# generated using pymatgen
data_Ti3SiGe2MoOs2
_symmetry_space_group_name_H-M   'P 1'
_cell_length_a   6.82611327
_cell_length_b   6.82336255
_cell_length_c   7.56002896
_cell_angle_alpha   116.82577278
_cell_angle_beta   116.83744112
_cell_angle_gamma   89.99999430
_symmetry_Int_Tables_number   1
_chemical_formula_structural   Ti3SiGe2MoOs2
_chemical_formula_sum   'Ti6 Si2 Ge4 Mo2 Os4'
_cell_volume   271.05084148
_cell_formula_units_Z   2
loop_
 _symmetry_equiv_pos_site_id
 _symmetry_equiv_pos_as_xyz
  1  'x, y, z'
loop_
 _atom_site_type_symbol
 _atom_site_label
 _atom_site_symmetry_multiplicity
 _atom_site_fract_x
 _atom_site_fract_y
 _atom_site_fract_z
 _atom_site_occupancy
  Ti  Ti0  1  0.238820  0.457443  0.414887  1
  Ti  Ti1  1  0.823931  0.542557  0.585113  1
  Ti  Ti2  1  0.652179  0.745710  0.991419  1
  Ti  Ti3  1  0.660759  0.254290  0.008581  1
  Ti  Ti4  1  0.856390  0.059471  0.618942  1
  Ti  Ti5  1  0.237448  0.940529  0.381058  1
  Si  Si6  1  0.280397  0.271950  0.043902  1
  Si  Si7  1  0.236496  0.728050  0.956098  1
  Ge  Ge8  1  0.573536  0.836862  0.662972  1
  Ge  Ge9  1  0.910563  0.163138  0.337028  1
  Ge  Ge10  1  0.910563  0.673889  0.337028  1
  Ge  Ge11  1  0.573536  0.326111  0.662972  1
  Mo  Mo12  1  0.995703  0.000000  0.000000  1
  Mo  Mo13  1  0.995703  0.500000  0.000000  1
  Os  Os14  1  0.500203  0.656350  0.253217  1
  Os  Os15  1  0.246986  0.343650  0.746783  1
  Os  Os16  1  0.246986  0.903132  0.746783  1
  Os  Os17  1  0.500203  0.096868  0.253217  1
