# generated using pymatgen
data_Ti2GaCuRh4
_symmetry_space_group_name_H-M   'P 1'
_cell_length_a   4.33113000
_cell_length_b   6.05294100
_cell_length_c   12.92979400
_cell_angle_alpha   90.00000000
_cell_angle_beta   90.00268316
_cell_angle_gamma   90.00000000
_symmetry_Int_Tables_number   1
_chemical_formula_structural   Ti2GaCuRh4
_chemical_formula_sum   'Ti6 Ga3 Cu3 Rh12'
_cell_volume   338.96844069
_cell_formula_units_Z   3
loop_
 _symmetry_equiv_pos_site_id
 _symmetry_equiv_pos_as_xyz
  1  'x, y, z'
loop_
 _atom_site_type_symbol
 _atom_site_label
 _atom_site_symmetry_multiplicity
 _atom_site_fract_x
 _atom_site_fract_y
 _atom_site_fract_z
 _atom_site_occupancy
  Ti  Ti0  1  0.000534  0.000000  0.007812  1
  Ti  Ti1  1  0.499860  0.499999  0.166683  1
  Ti  Ti2  1  0.999995  0.000000  0.325516  1
  Ti  Ti3  1  0.499886  0.499999  0.491614  1
  Ti  Ti4  1  0.999949  0.000000  0.666670  1
  Ti  Ti5  1  0.499934  0.499999  0.841727  1
  Ga  Ga6  1  0.499916  0.000000  0.499475  1
  Ga  Ga7  1  0.999926  0.499999  0.666663  1
  Ga  Ga8  1  0.499949  0.000000  0.833866  1
  Cu  Cu9  1  0.000913  0.499999  0.998872  1
  Cu  Cu10  1  0.499835  0.000000  0.166563  1
  Cu  Cu11  1  0.999242  0.499999  0.334526  1
  Rh  Rh12  1  0.500621  0.248680  0.999185  1
  Rh  Rh13  1  0.500621  0.751320  0.999185  1
  Rh  Rh14  1  0.999888  0.252121  0.166684  1
  Rh  Rh15  1  0.999888  0.747879  0.166684  1
  Rh  Rh16  1  0.499708  0.248622  0.334119  1
  Rh  Rh17  1  0.499708  0.751379  0.334119  1
  Rh  Rh18  1  0.999906  0.247676  0.501619  1
  Rh  Rh19  1  0.999906  0.752324  0.501619  1
  Rh  Rh20  1  0.499935  0.252000  0.666677  1
  Rh  Rh21  1  0.499935  0.748001  0.666677  1
  Rh  Rh22  1  0.999968  0.247690  0.831723  1
  Rh  Rh23  1  0.999968  0.752310  0.831723  1
