# generated using pymatgen
data_DyY3MoRu7
_symmetry_space_group_name_H-M   'P 1'
_cell_length_a   5.48357300
_cell_length_b   5.19797689
_cell_length_c   9.06188302
_cell_angle_alpha   89.99419801
_cell_angle_beta   89.99988051
_cell_angle_gamma   121.99649052
_symmetry_Int_Tables_number   1
_chemical_formula_structural   DyY3MoRu7
_chemical_formula_sum   'Dy1 Y3 Mo1 Ru7'
_cell_volume   219.05517982
_cell_formula_units_Z   1
loop_
 _symmetry_equiv_pos_site_id
 _symmetry_equiv_pos_as_xyz
  1  'x, y, z'
loop_
 _atom_site_type_symbol
 _atom_site_label
 _atom_site_symmetry_multiplicity
 _atom_site_fract_x
 _atom_site_fract_y
 _atom_site_fract_z
 _atom_site_occupancy
  Dy  Dy0  1  0.672511  0.345537  0.936440  1
  Y  Y1  1  0.672451  0.345411  0.563604  1
  Y  Y2  1  0.334334  0.668680  0.431762  1
  Y  Y3  1  0.334381  0.668779  0.068162  1
  Mo  Mo4  1  0.159640  0.320354  0.750050  1
  Ru  Ru5  1  0.009103  0.018479  0.498343  1
  Ru  Ru6  1  0.009069  0.018373  0.001551  1
  Ru  Ru7  1  0.171592  0.821020  0.750104  1
  Ru  Ru8  1  0.650190  0.821212  0.750100  1
  Ru  Ru9  1  0.823253  0.646169  0.249944  1
  Ru  Ru10  1  0.830878  0.162670  0.249970  1
  Ru  Ru11  1  0.332598  0.163315  0.249969  1
