# generated using pymatgen
data_Sc5Ga17Ir7
_symmetry_space_group_name_H-M   'P 1'
_cell_length_a   8.69821369
_cell_length_b   8.82713700
_cell_length_c   8.82713775
_cell_angle_alpha   59.03605337
_cell_angle_beta   60.48197634
_cell_angle_gamma   60.48198276
_symmetry_Int_Tables_number   1
_chemical_formula_structural   Sc5Ga17Ir7
_chemical_formula_sum   'Sc5 Ga17 Ir7'
_cell_volume   479.04048980
_cell_formula_units_Z   1
loop_
 _symmetry_equiv_pos_site_id
 _symmetry_equiv_pos_as_xyz
  1  'x, y, z'
loop_
 _atom_site_type_symbol
 _atom_site_label
 _atom_site_symmetry_multiplicity
 _atom_site_fract_x
 _atom_site_fract_y
 _atom_site_fract_z
 _atom_site_occupancy
  Sc  Sc0  1  0.781462  0.218538  0.218538  1
  Sc  Sc1  1  0.770439  0.229561  0.759254  1
  Sc  Sc2  1  0.770439  0.759254  0.229561  1
  Sc  Sc3  1  0.240746  0.759254  0.229561  1
  Sc  Sc4  1  0.240746  0.229561  0.759254  1
  Ga  Ga5  1  0.891249  0.843923  0.843923  1
  Ga  Ga6  1  0.860530  0.833271  0.445672  1
  Ga  Ga7  1  0.420906  0.843923  0.843923  1
  Ga  Ga8  1  0.860530  0.445672  0.833271  1
  Ga  Ga9  1  0.166729  0.139470  0.139470  1
  Ga  Ga10  1  0.156077  0.108751  0.579094  1
  Ga  Ga11  1  0.156077  0.579094  0.108751  1
  Ga  Ga12  1  0.554328  0.139470  0.139470  1
  Ga  Ga13  1  0.606727  0.626346  0.626346  1
  Ga  Ga14  1  0.636086  0.622006  0.105820  1
  Ga  Ga15  1  0.140582  0.626346  0.626346  1
  Ga  Ga16  1  0.636086  0.105820  0.622006  1
  Ga  Ga17  1  0.377994  0.363914  0.363914  1
  Ga  Ga18  1  0.373654  0.393273  0.859418  1
  Ga  Ga19  1  0.373654  0.859418  0.393273  1
  Ga  Ga20  1  0.894180  0.363914  0.363914  1
  Ga  Ga21  1  0.016790  0.983210  0.983210  1
  Ir  Ir22  1  0.516262  0.483738  0.483738  1
  Ir  Ir23  1  0.011009  0.488991  0.488991  1
  Ir  Ir24  1  0.511009  0.988991  0.988991  1
  Ir  Ir25  1  0.513404  0.995551  0.486596  1
  Ir  Ir26  1  0.513404  0.486596  0.995551  1
  Ir  Ir27  1  0.004449  0.486596  0.995551  1
  Ir  Ir28  1  0.004449  0.995551  0.486596  1
