# generated using pymatgen
data_Y3Zr(Al8Pt3)3
_symmetry_space_group_name_H-M   'P 1'
_cell_length_a   7.52431143
_cell_length_b   7.53119521
_cell_length_c   13.12256328
_cell_angle_alpha   84.54083043
_cell_angle_beta   79.02443437
_cell_angle_gamma   59.90029219
_symmetry_Int_Tables_number   1
_chemical_formula_structural   Y3Zr(Al8Pt3)3
_chemical_formula_sum   'Y3 Zr1 Al24 Pt9'
_cell_volume   631.57546860
_cell_formula_units_Z   1
loop_
 _symmetry_equiv_pos_site_id
 _symmetry_equiv_pos_as_xyz
  1  'x, y, z'
loop_
 _atom_site_type_symbol
 _atom_site_label
 _atom_site_symmetry_multiplicity
 _atom_site_fract_x
 _atom_site_fract_y
 _atom_site_fract_z
 _atom_site_occupancy
  Y  Y0  1  0.606503  0.831895  0.191358  1
  Y  Y1  1  0.733668  0.498651  0.807983  1
  Y  Y2  1  0.266754  0.501428  0.191486  1
  Zr  Zr3  1  0.393372  0.168132  0.809407  1
  Al  Al4  1  0.682053  0.836570  0.941904  1
  Al  Al5  1  0.316444  0.166455  0.053254  1
  Al  Al6  1  0.146390  0.832809  0.562505  1
  Al  Al7  1  0.853014  0.167055  0.438477  1
  Al  Al8  1  0.479958  0.166838  0.560848  1
  Al  Al9  1  0.519111  0.833838  0.441400  1
  Al  Al10  1  0.217104  0.165482  0.330426  1
  Al  Al11  1  0.779379  0.836911  0.672861  1
  Al  Al12  1  0.436182  0.504153  0.673311  1
  Al  Al13  1  0.562208  0.493740  0.329688  1
  Al  Al14  1  0.111355  0.159792  0.672159  1
  Al  Al15  1  0.890053  0.839644  0.330940  1
  Al  Al16  1  0.353659  0.496577  0.941861  1
  Al  Al17  1  0.648372  0.499672  0.054917  1
  Al  Al18  1  0.019021  0.167816  0.950388  1
  Al  Al19  1  0.984854  0.833245  0.045723  1
  Al  Al20  1  0.186700  0.499405  0.441402  1
  Al  Al21  1  0.813676  0.500246  0.559024  1
  Al  Al22  1  0.733876  0.163949  0.183738  1
  Al  Al23  1  0.265738  0.841712  0.816236  1
  Al  Al24  1  0.066599  0.626112  0.814897  1
  Al  Al25  1  0.939399  0.368226  0.184517  1
  Al  Al26  1  0.850536  0.041096  0.815423  1
  Al  Al27  1  0.144502  0.958801  0.183937  1
  Pt  Pt28  1  0.119725  0.491128  0.639298  1
  Pt  Pt29  1  0.879116  0.508323  0.361501  1
  Pt  Pt30  1  0.657777  0.171850  0.998711  1
  Pt  Pt31  1  0.343675  0.827825  0.999233  1
  Pt  Pt32  1  0.537491  0.166681  0.362070  1
  Pt  Pt33  1  0.463116  0.832594  0.639216  1
  Pt  Pt34  1  0.778430  0.176100  0.637843  1
  Pt  Pt35  1  0.220475  0.824887  0.363185  1
  Pt  Pt36  1  0.999719  0.500362  0.998870  1
