# generated using pymatgen
data_DyTm7Ti11NbSi16
_symmetry_space_group_name_H-M   'P 1'
_cell_length_a   7.02031556
_cell_length_b   7.01808527
_cell_length_c   12.90004079
_cell_angle_alpha   90.01586677
_cell_angle_beta   89.93194060
_cell_angle_gamma   89.97532362
_symmetry_Int_Tables_number   1
_chemical_formula_structural   DyTm7Ti11NbSi16
_chemical_formula_sum   'Dy1 Tm7 Ti11 Nb1 Si16'
_cell_volume   635.57381321
_cell_formula_units_Z   1
loop_
 _symmetry_equiv_pos_site_id
 _symmetry_equiv_pos_as_xyz
  1  'x, y, z'
loop_
 _atom_site_type_symbol
 _atom_site_label
 _atom_site_symmetry_multiplicity
 _atom_site_fract_x
 _atom_site_fract_y
 _atom_site_fract_z
 _atom_site_occupancy
  Dy  Dy0  1  0.340723  0.002653  0.466819  1
  Tm  Tm1  1  0.997584  0.659561  0.033039  1
  Tm  Tm2  1  0.001217  0.341601  0.533546  1
  Tm  Tm3  1  0.659529  0.997621  0.966788  1
  Tm  Tm4  1  0.159842  0.502151  0.783221  1
  Tm  Tm5  1  0.840754  0.498541  0.283422  1
  Tm  Tm6  1  0.502348  0.160136  0.216609  1
  Tm  Tm7  1  0.498670  0.840696  0.716704  1
  Ti  Ti8  1  0.349355  0.507706  0.374481  1
  Ti  Ti9  1  0.846702  0.991711  0.376290  1
  Ti  Ti10  1  0.006923  0.151959  0.123717  1
  Ti  Ti11  1  0.991668  0.846870  0.623971  1
  Ti  Ti12  1  0.508383  0.349316  0.625711  1
  Ti  Ti13  1  0.151788  0.007208  0.876108  1
  Ti  Ti14  1  0.826777  0.173165  0.750333  1
  Ti  Ti15  1  0.172920  0.826645  0.249642  1
  Ti  Ti16  1  0.327050  0.327019  0.999948  1
  Ti  Ti17  1  0.492633  0.650866  0.125657  1
  Ti  Ti18  1  0.651162  0.492443  0.874092  1
  Nb  Nb19  1  0.673483  0.672835  0.500051  1
  Si  Si20  1  0.047079  0.706996  0.434852  1
  Si  Si21  1  0.953463  0.292274  0.935099  1
  Si  Si22  1  0.709210  0.048336  0.565697  1
  Si  Si23  1  0.207298  0.453413  0.184843  1
  Si  Si24  1  0.793638  0.545509  0.686820  1
  Si  Si25  1  0.453481  0.207342  0.815072  1
  Si  Si26  1  0.546573  0.792835  0.312782  1
  Si  Si27  1  0.292313  0.953465  0.064669  1
  Si  Si28  1  0.797246  0.868802  0.183195  1
  Si  Si29  1  0.295670  0.630092  0.567328  1
  Si  Si30  1  0.702627  0.368708  0.066366  1
  Si  Si31  1  0.632375  0.296855  0.433158  1
  Si  Si32  1  0.368574  0.702683  0.933551  1
  Si  Si33  1  0.130073  0.203374  0.315448  1
  Si  Si34  1  0.201959  0.131148  0.684288  1
  Si  Si35  1  0.868910  0.797463  0.816681  1
