# generated using pymatgen
data_MnSb3
_symmetry_space_group_name_H-M   'P 1'
_cell_length_a   8.10363035
_cell_length_b   8.10363075
_cell_length_c   8.10363100
_cell_angle_alpha   109.47121876
_cell_angle_beta   109.47121977
_cell_angle_gamma   109.47122049
_symmetry_Int_Tables_number   1
_chemical_formula_structural   MnSb3
_chemical_formula_sum   'Mn4 Sb12'
_cell_volume   409.65385642
_cell_formula_units_Z   4
loop_
 _symmetry_equiv_pos_site_id
 _symmetry_equiv_pos_as_xyz
  1  'x, y, z'
loop_
 _atom_site_type_symbol
 _atom_site_label
 _atom_site_symmetry_multiplicity
 _atom_site_fract_x
 _atom_site_fract_y
 _atom_site_fract_z
 _atom_site_occupancy
  Mn  Mn0  1  0.500002  0.500002  0.500002  1
  Mn  Mn1  1  0.000000  0.000000  0.500002  1
  Mn  Mn2  1  0.500002  0.000000  0.000000  1
  Mn  Mn3  1  0.000000  0.500002  0.000000  1
  Sb  Sb4  1  0.492571  0.156646  0.335924  1
  Sb  Sb5  1  0.820721  0.156646  0.664075  1
  Sb  Sb6  1  0.507428  0.843353  0.664075  1
  Sb  Sb7  1  0.179278  0.843353  0.335924  1
  Sb  Sb8  1  0.335924  0.492571  0.156646  1
  Sb  Sb9  1  0.156646  0.335924  0.492571  1
  Sb  Sb10  1  0.335924  0.179278  0.843353  1
  Sb  Sb11  1  0.156646  0.664075  0.820721  1
  Sb  Sb12  1  0.664075  0.820721  0.156646  1
  Sb  Sb13  1  0.843353  0.664075  0.507428  1
  Sb  Sb14  1  0.664075  0.507428  0.843353  1
  Sb  Sb15  1  0.843353  0.335924  0.179278  1
