# generated using pymatgen
data_CaNd2HoAl8
_symmetry_space_group_name_H-M   'P 1'
_cell_length_a   9.70862839
_cell_length_b   9.70862934
_cell_length_c   9.70862700
_cell_angle_alpha   33.87505897
_cell_angle_beta   33.87506118
_cell_angle_gamma   33.87505654
_symmetry_Int_Tables_number   1
_chemical_formula_structural   CaNd2HoAl8
_chemical_formula_sum   'Ca1 Nd2 Ho1 Al8'
_cell_volume   253.36875910
_cell_formula_units_Z   1
loop_
 _symmetry_equiv_pos_site_id
 _symmetry_equiv_pos_as_xyz
  1  'x, y, z'
loop_
 _atom_site_type_symbol
 _atom_site_label
 _atom_site_symmetry_multiplicity
 _atom_site_fract_x
 _atom_site_fract_y
 _atom_site_fract_z
 _atom_site_occupancy
  Ca  Ca0  1  0.062518  0.062518  0.062518  1
  Nd  Nd1  1  0.563024  0.563024  0.563024  1
  Nd  Nd2  1  0.435939  0.435939  0.435939  1
  Ho  Ho3  1  0.938784  0.938784  0.938784  1
  Al  Al4  1  0.749493  0.749493  0.749493  1
  Al  Al5  1  0.250628  0.250628  0.250628  1
  Al  Al6  1  0.996988  0.499127  0.499127  1
  Al  Al7  1  0.503549  0.000411  0.000411  1
  Al  Al8  1  0.499127  0.996988  0.499127  1
  Al  Al9  1  0.000411  0.503549  0.000411  1
  Al  Al10  1  0.499127  0.499127  0.996988  1
  Al  Al11  1  0.000411  0.000411  0.503549  1
