# generated using pymatgen
data_Dy12Tc3P
_symmetry_space_group_name_H-M   'P 1'
_cell_length_a   6.29522608
_cell_length_b   7.41136905
_cell_length_c   9.14175600
_cell_angle_alpha   90.00000000
_cell_angle_beta   90.00000000
_cell_angle_gamma   89.94806570
_symmetry_Int_Tables_number   1
_chemical_formula_structural   Dy12Tc3P
_chemical_formula_sum   'Dy12 Tc3 P1'
_cell_volume   426.51982123
_cell_formula_units_Z   1
loop_
 _symmetry_equiv_pos_site_id
 _symmetry_equiv_pos_as_xyz
  1  'x, y, z'
loop_
 _atom_site_type_symbol
 _atom_site_label
 _atom_site_symmetry_multiplicity
 _atom_site_fract_x
 _atom_site_fract_y
 _atom_site_fract_z
 _atom_site_occupancy
  Dy  Dy0  1  0.334530  0.676710  0.062618  1
  Dy  Dy1  1  0.162112  0.179074  0.436210  1
  Dy  Dy2  1  0.656947  0.316696  0.563032  1
  Dy  Dy3  1  0.846742  0.828364  0.937083  1
  Dy  Dy4  1  0.656947  0.316696  0.936968  1
  Dy  Dy5  1  0.846742  0.828364  0.562917  1
  Dy  Dy6  1  0.334530  0.676710  0.437382  1
  Dy  Dy7  1  0.162112  0.179074  0.063790  1
  Dy  Dy8  1  0.867249  0.540228  0.250000  1
  Dy  Dy9  1  0.622559  0.033472  0.250000  1
  Dy  Dy10  1  0.133670  0.453999  0.750000  1
  Dy  Dy11  1  0.367914  0.967592  0.750000  1
  Tc  Tc12  1  0.039602  0.882169  0.250000  1
  Tc  Tc13  1  0.460325  0.385398  0.250000  1
  Tc  Tc14  1  0.948222  0.117228  0.750000  1
  P  P15  1  0.559801  0.618226  0.750000  1
