# generated using pymatgen
data_Hf9TiCuTc3
_symmetry_space_group_name_H-M   'P 1'
_cell_length_a   8.37427100
_cell_length_b   8.76487827
_cell_length_c   8.76487700
_cell_angle_alpha   120.00222572
_cell_angle_beta   90.00000000
_cell_angle_gamma   90.00000000
_symmetry_Int_Tables_number   1
_chemical_formula_structural   Hf9TiCuTc3
_chemical_formula_sum   'Hf18 Ti2 Cu2 Tc6'
_cell_volume   557.13394113
_cell_formula_units_Z   2
loop_
 _symmetry_equiv_pos_site_id
 _symmetry_equiv_pos_as_xyz
  1  'x, y, z'
loop_
 _atom_site_type_symbol
 _atom_site_label
 _atom_site_symmetry_multiplicity
 _atom_site_fract_x
 _atom_site_fract_y
 _atom_site_fract_z
 _atom_site_occupancy
  Hf  Hf0  1  0.552953  0.803264  0.606537  1
  Hf  Hf1  1  0.552984  0.803277  0.196723  1
  Hf  Hf2  1  0.552953  0.393463  0.196736  1
  Hf  Hf3  1  0.447047  0.196736  0.393463  1
  Hf  Hf4  1  0.447016  0.196723  0.803277  1
  Hf  Hf5  1  0.447047  0.606537  0.803264  1
  Hf  Hf6  1  0.052953  0.196736  0.393463  1
  Hf  Hf7  1  0.052984  0.196723  0.803277  1
  Hf  Hf8  1  0.052953  0.606537  0.803264  1
  Hf  Hf9  1  0.947047  0.803264  0.606537  1
  Hf  Hf10  1  0.947016  0.803277  0.196723  1
  Hf  Hf11  1  0.947047  0.393463  0.196736  1
  Hf  Hf12  1  0.750000  0.458069  0.916118  1
  Hf  Hf13  1  0.750000  0.458064  0.541936  1
  Hf  Hf14  1  0.750000  0.083882  0.541931  1
  Hf  Hf15  1  0.250000  0.541931  0.083882  1
  Hf  Hf16  1  0.250000  0.541936  0.458064  1
  Hf  Hf17  1  0.250000  0.916118  0.458069  1
  Ti  Ti18  1  0.500000  0.000000  0.000000  1
  Ti  Ti19  1  0.000000  0.000000  0.000000  1
  Cu  Cu20  1  0.750000  0.666665  0.333335  1
  Cu  Cu21  1  0.250000  0.333335  0.666665  1
  Tc  Tc22  1  0.750000  0.114802  0.229591  1
  Tc  Tc23  1  0.750000  0.114784  0.885216  1
  Tc  Tc24  1  0.750000  0.770409  0.885198  1
  Tc  Tc25  1  0.250000  0.885198  0.770409  1
  Tc  Tc26  1  0.250000  0.885216  0.114784  1
  Tc  Tc27  1  0.250000  0.229591  0.114802  1
