# generated using pymatgen
data_ScV3Ga4(SnO5)4
_symmetry_space_group_name_H-M   'P 1'
_cell_length_a   3.19126900
_cell_length_b   10.87243608
_cell_length_c   11.75307742
_cell_angle_alpha   81.24360337
_cell_angle_beta   90.00000000
_cell_angle_gamma   90.00000000
_symmetry_Int_Tables_number   1
_chemical_formula_structural   ScV3Ga4(SnO5)4
_chemical_formula_sum   'Sc1 V3 Ga4 Sn4 O20'
_cell_volume   403.04193280
_cell_formula_units_Z   1
loop_
 _symmetry_equiv_pos_site_id
 _symmetry_equiv_pos_as_xyz
  1  'x, y, z'
loop_
 _atom_site_type_symbol
 _atom_site_label
 _atom_site_symmetry_multiplicity
 _atom_site_fract_x
 _atom_site_fract_y
 _atom_site_fract_z
 _atom_site_occupancy
  Sc  Sc0  1  0.500000  0.302720  0.921603  1
  V  V1  1  0.500000  0.696294  0.081119  1
  V  V2  1  0.000000  0.619171  0.322087  1
  V  V3  1  0.000000  0.382142  0.676919  1
  Ga  Ga4  1  0.500000  0.908856  0.262628  1
  Ga  Ga5  1  0.500000  0.090642  0.735964  1
  Ga  Ga6  1  0.000000  0.404465  0.152053  1
  Ga  Ga7  1  0.000000  0.600584  0.852488  1
  Sn  Sn8  1  0.000000  0.996701  0.999457  1
  Sn  Sn9  1  0.000000  0.999679  0.499697  1
  Sn  Sn10  1  0.500000  0.681480  0.587645  1
  Sn  Sn11  1  0.500000  0.318671  0.412910  1
  O  O12  1  0.000000  0.679423  0.474336  1
  O  O13  1  0.000000  0.321045  0.525344  1
  O  O14  1  0.500000  0.879535  0.545528  1
  O  O15  1  0.500000  0.119851  0.454001  1
  O  O16  1  0.000000  0.578583  0.151009  1
  O  O17  1  0.000000  0.427349  0.847611  1
  O  O18  1  0.500000  0.002003  0.116110  1
  O  O19  1  0.500000  0.994904  0.882177  1
  O  O20  1  0.500000  0.738839  0.252411  1
  O  O21  1  0.500000  0.260964  0.743355  1
  O  O22  1  0.500000  0.507115  0.359020  1
  O  O23  1  0.500000  0.493212  0.637470  1
  O  O24  1  0.000000  0.806754  0.037656  1
  O  O25  1  0.000000  0.187041  0.961976  1
  O  O26  1  0.000000  0.304518  0.296905  1
  O  O27  1  0.000000  0.695420  0.704680  1
  O  O28  1  0.000000  0.948968  0.332636  1
  O  O29  1  0.000000  0.049077  0.666909  1
  O  O30  1  0.500000  0.371110  0.079676  1
  O  O31  1  0.500000  0.632884  0.926618  1
