# generated using pymatgen
data_Ho9ErBiPb5
_symmetry_space_group_name_H-M   'P 1'
_cell_length_a   9.05035800
_cell_length_b   9.04696392
_cell_length_c   6.53872100
_cell_angle_alpha   89.99934469
_cell_angle_beta   89.99909486
_cell_angle_gamma   120.01269659
_symmetry_Int_Tables_number   1
_chemical_formula_structural   Ho9ErBiPb5
_chemical_formula_sum   'Ho9 Er1 Bi1 Pb5'
_cell_volume   463.59258193
_cell_formula_units_Z   1
loop_
 _symmetry_equiv_pos_site_id
 _symmetry_equiv_pos_as_xyz
  1  'x, y, z'
loop_
 _atom_site_type_symbol
 _atom_site_label
 _atom_site_symmetry_multiplicity
 _atom_site_fract_x
 _atom_site_fract_y
 _atom_site_fract_z
 _atom_site_occupancy
  Ho  Ho0  1  0.667022  0.335255  0.500806  1
  Ho  Ho1  1  0.667022  0.335253  0.999200  1
  Ho  Ho2  1  0.331761  0.664745  0.500800  1
  Ho  Ho3  1  0.235938  0.999990  0.249983  1
  Ho  Ho4  1  0.237228  0.237809  0.750026  1
  Ho  Ho5  1  0.999459  0.762204  0.750023  1
  Ho  Ho6  1  0.003222  0.239408  0.249985  1
  Ho  Ho7  1  0.763802  0.760598  0.249977  1
  Ho  Ho8  1  0.762676  0.999991  0.750019  1
  Er  Er9  1  0.331756  0.664708  0.999156  1
  Bi  Bi10  1  0.606273  0.999939  0.249945  1
  Pb  Pb11  1  0.605317  0.606334  0.750071  1
  Pb  Pb12  1  0.999146  0.393750  0.750069  1
  Pb  Pb13  1  0.000250  0.605241  0.249938  1
  Pb  Pb14  1  0.394939  0.394850  0.249933  1
  Pb  Pb15  1  0.394187  0.999927  0.750069  1
