# generated using pymatgen
data_Pr7Ho(Er3Si4)4
_symmetry_space_group_name_H-M   'P 1'
_cell_length_a   7.76009586
_cell_length_b   7.76001833
_cell_length_c   14.37634200
_cell_angle_alpha   89.99687680
_cell_angle_beta   89.97308018
_cell_angle_gamma   89.98368847
_symmetry_Int_Tables_number   1
_chemical_formula_structural   Pr7Ho(Er3Si4)4
_chemical_formula_sum   'Pr7 Ho1 Er12 Si16'
_cell_volume   865.72141837
_cell_formula_units_Z   1
loop_
 _symmetry_equiv_pos_site_id
 _symmetry_equiv_pos_as_xyz
  1  'x, y, z'
loop_
 _atom_site_type_symbol
 _atom_site_label
 _atom_site_symmetry_multiplicity
 _atom_site_fract_x
 _atom_site_fract_y
 _atom_site_fract_z
 _atom_site_occupancy
  Pr  Pr0  1  0.990470  0.639989  0.042494  1
  Pr  Pr1  1  0.009497  0.360294  0.542147  1
  Pr  Pr2  1  0.639600  0.990847  0.957587  1
  Pr  Pr3  1  0.139461  0.509485  0.792364  1
  Pr  Pr4  1  0.860904  0.490256  0.293145  1
  Pr  Pr5  1  0.509262  0.139243  0.208123  1
  Pr  Pr6  1  0.490713  0.861111  0.706790  1
  Ho  Ho7  1  0.365213  0.005399  0.455365  1
  Er  Er8  1  0.361177  0.489633  0.376117  1
  Er  Er9  1  0.863063  0.008531  0.375279  1
  Er  Er10  1  0.992313  0.137740  0.126024  1
  Er  Er11  1  0.008637  0.863730  0.624265  1
  Er  Er12  1  0.637500  0.508331  0.874879  1
  Er  Er13  1  0.489599  0.361993  0.623691  1
  Er  Er14  1  0.508706  0.638633  0.125025  1
  Er  Er15  1  0.137869  0.990968  0.874623  1
  Er  Er16  1  0.682248  0.685137  0.499907  1
  Er  Er17  1  0.815808  0.183203  0.749326  1
  Er  Er18  1  0.184993  0.817114  0.250772  1
  Er  Er19  1  0.316393  0.316702  0.000256  1
  Si  Si20  1  0.068149  0.714639  0.438003  1
  Si  Si21  1  0.934072  0.287503  0.938386  1
  Si  Si22  1  0.707653  0.063332  0.560350  1
  Si  Si23  1  0.212558  0.433874  0.188754  1
  Si  Si24  1  0.787616  0.565558  0.687721  1
  Si  Si25  1  0.434610  0.212277  0.811772  1
  Si  Si26  1  0.562423  0.790263  0.313315  1
  Si  Si27  1  0.287952  0.934583  0.061799  1
  Si  Si28  1  0.845481  0.798044  0.808741  1
  Si  Si29  1  0.158011  0.197884  0.312502  1
  Si  Si30  1  0.797784  0.845786  0.191145  1
  Si  Si31  1  0.300334  0.659626  0.557337  1
  Si  Si32  1  0.702043  0.345291  0.059098  1
  Si  Si33  1  0.651324  0.295727  0.440271  1
  Si  Si34  1  0.345298  0.702038  0.941126  1
  Si  Si35  1  0.201268  0.155234  0.691500  1
