# generated using pymatgen
data_Y8Hf(IO8)3
_symmetry_space_group_name_H-M   'P 1'
_cell_length_a   5.49053932
_cell_length_b   7.74521798
_cell_length_c   11.70497961
_cell_angle_alpha   76.03762650
_cell_angle_beta   89.82583081
_cell_angle_gamma   90.43936208
_symmetry_Int_Tables_number   1
_chemical_formula_structural   Y8Hf(IO8)3
_chemical_formula_sum   'Y8 Hf1 I3 O24'
_cell_volume   483.03228307
_cell_formula_units_Z   1
loop_
 _symmetry_equiv_pos_site_id
 _symmetry_equiv_pos_as_xyz
  1  'x, y, z'
loop_
 _atom_site_type_symbol
 _atom_site_label
 _atom_site_symmetry_multiplicity
 _atom_site_fract_x
 _atom_site_fract_y
 _atom_site_fract_z
 _atom_site_occupancy
  Y  Y0  1  0.179748  0.803474  0.067468  1
  Y  Y1  1  0.255892  0.972322  0.757045  1
  Y  Y2  1  0.744344  0.013802  0.254090  1
  Y  Y3  1  0.319359  0.507814  0.757399  1
  Y  Y4  1  0.198232  0.222691  0.421454  1
  Y  Y5  1  0.696972  0.504931  0.239623  1
  Y  Y6  1  0.805645  0.200596  0.922988  1
  Y  Y7  1  0.804280  0.776620  0.588654  1
  Hf  Hf8  1  0.741956  0.714820  0.890530  1
  I  I9  1  0.255602  0.735523  0.380777  1
  I  I10  1  0.749105  0.266514  0.618061  1
  I  I11  1  0.256051  0.280425  0.112334  1
  O  O12  1  0.865200  0.363513  0.464122  1
  O  O13  1  0.455864  0.855222  0.928564  1
  O  O14  1  0.854325  0.635873  0.063417  1
  O  O15  1  0.021713  0.297346  0.717728  1
  O  O16  1  0.967908  0.288283  0.244495  1
  O  O17  1  0.144852  0.359068  0.952102  1
  O  O18  1  0.628688  0.468557  0.882711  1
  O  O19  1  0.528486  0.150756  0.072316  1
  O  O20  1  0.143106  0.641848  0.534129  1
  O  O21  1  0.023522  0.710190  0.760388  1
  O  O22  1  0.468719  0.223229  0.274384  1
  O  O23  1  0.074540  0.949952  0.391155  1
  O  O24  1  0.474485  0.161134  0.562049  1
  O  O25  1  0.975684  0.709609  0.284891  1
  O  O26  1  0.938545  0.057386  0.604906  1
  O  O27  1  0.574864  0.178927  0.764226  1
  O  O28  1  0.525671  0.774936  0.722347  1
  O  O29  1  0.018989  0.060290  0.105390  1
  O  O30  1  0.620367  0.490834  0.617102  1
  O  O31  1  0.374911  0.513300  0.107581  1
  O  O32  1  0.424355  0.819809  0.229979  1
  O  O33  1  0.376441  0.510688  0.375686  1
  O  O34  1  0.541166  0.837045  0.432335  1
  O  O35  1  0.970412  0.942673  0.897571  1
