# generated using pymatgen
data_Ta2Sn2Pb4O13
_symmetry_space_group_name_H-M   'P 1'
_cell_length_a   7.60013884
_cell_length_b   7.60013975
_cell_length_c   7.60013951
_cell_angle_alpha   120.28427491
_cell_angle_beta   119.93014010
_cell_angle_gamma   89.81468924
_symmetry_Int_Tables_number   1
_chemical_formula_structural   Ta2Sn2Pb4O13
_chemical_formula_sum   'Ta2 Sn2 Pb4 O13'
_cell_volume   309.91148505
_cell_formula_units_Z   1
loop_
 _symmetry_equiv_pos_site_id
 _symmetry_equiv_pos_as_xyz
  1  'x, y, z'
loop_
 _atom_site_type_symbol
 _atom_site_label
 _atom_site_symmetry_multiplicity
 _atom_site_fract_x
 _atom_site_fract_y
 _atom_site_fract_z
 _atom_site_occupancy
  Ta  Ta0  1  0.250472  0.501064  0.749408  1
  Ta  Ta1  1  0.751655  0.501064  0.250592  1
  Sn  Sn2  1  0.250215  0.500345  0.250130  1
  Sn  Sn3  1  0.250215  0.000084  0.749870  1
  Pb  Pb4  1  0.751310  0.002566  0.251255  1
  Pb  Pb5  1  0.751310  0.500056  0.748745  1
  Pb  Pb6  1  0.749972  0.000461  0.749511  1
  Pb  Pb7  1  0.250951  0.000461  0.250489  1
  O  O8  1  0.168634  0.168634  0.000000  1
  O  O9  1  0.561679  0.561679  0.000000  1
  O  O10  1  0.173261  0.568488  0.989183  1
  O  O11  1  0.579305  0.184078  0.010817  1
  O  O12  1  0.173261  0.184078  0.604773  1
  O  O13  1  0.579305  0.568488  0.395227  1
  O  O14  1  0.328611  0.828611  0.500000  1
  O  O15  1  0.939525  0.439525  0.500000  1
  O  O16  1  0.323314  0.433930  0.510421  1
  O  O17  1  0.923509  0.812893  0.489579  1
  O  O18  1  0.323314  0.812893  0.889384  1
  O  O19  1  0.923509  0.433930  0.110616  1
  O  O20  1  0.871676  0.871676  0.000000  1
