# generated using pymatgen
data_Er5Th3(MgRu)2
_symmetry_space_group_name_H-M   'P 1'
_cell_length_a   9.70916130
_cell_length_b   9.77431637
_cell_length_c   9.77431694
_cell_angle_alpha   59.55946451
_cell_angle_beta   60.22027018
_cell_angle_gamma   60.22026758
_symmetry_Int_Tables_number   1
_chemical_formula_structural   Er5Th3(MgRu)2
_chemical_formula_sum   'Er10 Th6 Mg4 Ru4'
_cell_volume   655.84496884
_cell_formula_units_Z   2
loop_
 _symmetry_equiv_pos_site_id
 _symmetry_equiv_pos_as_xyz
  1  'x, y, z'
loop_
 _atom_site_type_symbol
 _atom_site_label
 _atom_site_symmetry_multiplicity
 _atom_site_fract_x
 _atom_site_fract_y
 _atom_site_fract_z
 _atom_site_occupancy
  Er  Er0  1  0.189294  0.810706  0.189294  1
  Er  Er1  1  0.810706  0.189294  0.810706  1
  Er  Er2  1  0.189294  0.189294  0.810706  1
  Er  Er3  1  0.810706  0.810706  0.189294  1
  Er  Er4  1  0.933391  0.566609  0.566609  1
  Er  Er5  1  0.566609  0.933391  0.933391  1
  Er  Er6  1  0.564042  0.935958  0.564042  1
  Er  Er7  1  0.935958  0.564042  0.935958  1
  Er  Er8  1  0.564042  0.564042  0.935958  1
  Er  Er9  1  0.935958  0.935958  0.564042  1
  Th  Th10  1  0.343208  0.349011  0.349011  1
  Th  Th11  1  0.349011  0.343208  0.958770  1
  Th  Th12  1  0.349011  0.958770  0.343208  1
  Th  Th13  1  0.958770  0.349011  0.349011  1
  Th  Th14  1  0.816239  0.183761  0.183761  1
  Th  Th15  1  0.183761  0.816239  0.816239  1
  Mg  Mg16  1  0.582457  0.579406  0.579406  1
  Mg  Mg17  1  0.579406  0.582457  0.258731  1
  Mg  Mg18  1  0.579406  0.258731  0.582457  1
  Mg  Mg19  1  0.258731  0.579406  0.579406  1
  Ru  Ru20  1  0.129159  0.147955  0.147955  1
  Ru  Ru21  1  0.147955  0.129159  0.574929  1
  Ru  Ru22  1  0.147955  0.574929  0.129159  1
  Ru  Ru23  1  0.574929  0.147955  0.147955  1
