# generated using pymatgen
data_RbTbBiSbSe5
_symmetry_space_group_name_H-M   'P 1'
_cell_length_a   4.14787800
_cell_length_b   12.43472600
_cell_length_c   22.25211700
_cell_angle_alpha   90.00000000
_cell_angle_beta   90.00000000
_cell_angle_gamma   90.00000000
_symmetry_Int_Tables_number   1
_chemical_formula_structural   RbTbBiSbSe5
_chemical_formula_sum   'Rb4 Tb4 Bi4 Sb4 Se20'
_cell_volume   1147.71360270
_cell_formula_units_Z   4
loop_
 _symmetry_equiv_pos_site_id
 _symmetry_equiv_pos_as_xyz
  1  'x, y, z'
loop_
 _atom_site_type_symbol
 _atom_site_label
 _atom_site_symmetry_multiplicity
 _atom_site_fract_x
 _atom_site_fract_y
 _atom_site_fract_z
 _atom_site_occupancy
  Rb  Rb0  1  0.250000  0.489034  0.210121  1
  Rb  Rb1  1  0.750000  0.510966  0.789879  1
  Rb  Rb2  1  0.750000  0.989034  0.289879  1
  Rb  Rb3  1  0.250000  0.010966  0.710121  1
  Tb  Tb4  1  0.250000  0.364628  0.023900  1
  Tb  Tb5  1  0.750000  0.635372  0.976100  1
  Tb  Tb6  1  0.750000  0.864628  0.476100  1
  Tb  Tb7  1  0.250000  0.135372  0.523900  1
  Bi  Bi8  1  0.250000  0.595683  0.425042  1
  Bi  Bi9  1  0.750000  0.404317  0.574958  1
  Bi  Bi10  1  0.750000  0.095683  0.074958  1
  Bi  Bi11  1  0.250000  0.904317  0.925042  1
  Sb  Sb12  1  0.250000  0.805764  0.126084  1
  Sb  Sb13  1  0.750000  0.194236  0.873916  1
  Sb  Sb14  1  0.750000  0.305764  0.373916  1
  Sb  Sb15  1  0.250000  0.694236  0.626084  1
  Se  Se16  1  0.250000  0.810498  0.388980  1
  Se  Se17  1  0.750000  0.189502  0.611020  1
  Se  Se18  1  0.750000  0.310498  0.111020  1
  Se  Se19  1  0.250000  0.689502  0.888980  1
  Se  Se20  1  0.250000  0.251211  0.299136  1
  Se  Se21  1  0.750000  0.748789  0.700864  1
  Se  Se22  1  0.750000  0.751211  0.200864  1
  Se  Se23  1  0.250000  0.248789  0.799136  1
  Se  Se24  1  0.250000  0.356399  0.480340  1
  Se  Se25  1  0.750000  0.643601  0.519660  1
  Se  Se26  1  0.750000  0.856399  0.019660  1
  Se  Se27  1  0.250000  0.143601  0.980340  1
  Se  Se28  1  0.250000  0.019284  0.159546  1
  Se  Se29  1  0.750000  0.980716  0.840454  1
  Se  Se30  1  0.750000  0.519284  0.340454  1
  Se  Se31  1  0.250000  0.480716  0.659546  1
  Se  Se32  1  0.250000  0.583847  0.060967  1
  Se  Se33  1  0.750000  0.416153  0.939033  1
  Se  Se34  1  0.750000  0.083847  0.439033  1
  Se  Se35  1  0.250000  0.916153  0.560967  1
