# generated using pymatgen
data_Tb8Hf11TaGe16
_symmetry_space_group_name_H-M   'P 1'
_cell_length_a   7.38508778
_cell_length_b   7.38508839
_cell_length_c   13.54887806
_cell_angle_alpha   89.94584752
_cell_angle_beta   90.05415576
_cell_angle_gamma   90.04702742
_symmetry_Int_Tables_number   1
_chemical_formula_structural   Tb8Hf11TaGe16
_chemical_formula_sum   'Tb8 Hf11 Ta1 Ge16'
_cell_volume   738.94847895
_cell_formula_units_Z   1
loop_
 _symmetry_equiv_pos_site_id
 _symmetry_equiv_pos_as_xyz
  1  'x, y, z'
loop_
 _atom_site_type_symbol
 _atom_site_label
 _atom_site_symmetry_multiplicity
 _atom_site_fract_x
 _atom_site_fract_y
 _atom_site_fract_z
 _atom_site_occupancy
  Tb  Tb0  1  0.999550  0.341095  0.216260  1
  Tb  Tb1  1  0.001872  0.659063  0.718987  1
  Tb  Tb2  1  0.159381  0.497953  0.467932  1
  Tb  Tb3  1  0.500390  0.841314  0.031657  1
  Tb  Tb4  1  0.841314  0.500390  0.968343  1
  Tb  Tb5  1  0.497953  0.159381  0.532068  1
  Tb  Tb6  1  0.341095  0.999550  0.783740  1
  Tb  Tb7  1  0.659063  0.001872  0.281013  1
  Hf  Hf8  1  0.828557  0.828557  0.500000  1
  Hf  Hf9  1  0.326905  0.672549  0.249164  1
  Hf  Hf10  1  0.672549  0.326905  0.750836  1
  Hf  Hf11  1  0.156800  0.996775  0.375267  1
  Hf  Hf12  1  0.845083  0.004045  0.878042  1
  Hf  Hf13  1  0.504089  0.657205  0.625540  1
  Hf  Hf14  1  0.341941  0.492927  0.876416  1
  Hf  Hf15  1  0.492927  0.341941  0.123584  1
  Hf  Hf16  1  0.657205  0.504089  0.374460  1
  Hf  Hf17  1  0.996775  0.156800  0.624733  1
  Hf  Hf18  1  0.004045  0.845083  0.121958  1
  Ta  Ta19  1  0.172088  0.172088  0.000000  1
  Ge  Ge20  1  0.367755  0.300960  0.321652  1
  Ge  Ge21  1  0.631851  0.699108  0.822869  1
  Ge  Ge22  1  0.199263  0.867157  0.572570  1
  Ge  Ge23  1  0.133886  0.801972  0.927937  1
  Ge  Ge24  1  0.801972  0.133886  0.072063  1
  Ge  Ge25  1  0.867157  0.199263  0.427430  1
  Ge  Ge26  1  0.300960  0.367755  0.678348  1
  Ge  Ge27  1  0.699108  0.631851  0.177131  1
  Ge  Ge28  1  0.295269  0.038420  0.179966  1
  Ge  Ge29  1  0.703880  0.962932  0.682200  1
  Ge  Ge30  1  0.463021  0.796653  0.431197  1
  Ge  Ge31  1  0.202194  0.536096  0.067800  1
  Ge  Ge32  1  0.536096  0.202194  0.932200  1
  Ge  Ge33  1  0.796653  0.463021  0.568803  1
  Ge  Ge34  1  0.038420  0.295269  0.820034  1
  Ge  Ge35  1  0.962932  0.703880  0.317800  1
