# generated using pymatgen
data_YEr7(MoI4)2
_symmetry_space_group_name_H-M   'P 1'
_cell_length_a   11.42569518
_cell_length_b   11.43578773
_cell_length_c   5.96635869
_cell_angle_alpha   90.36442386
_cell_angle_beta   90.31825413
_cell_angle_gamma   90.03159143
_symmetry_Int_Tables_number   1
_chemical_formula_structural   YEr7(MoI4)2
_chemical_formula_sum   'Y1 Er7 Mo2 I8'
_cell_volume   779.54738451
_cell_formula_units_Z   1
loop_
 _symmetry_equiv_pos_site_id
 _symmetry_equiv_pos_as_xyz
  1  'x, y, z'
loop_
 _atom_site_type_symbol
 _atom_site_label
 _atom_site_symmetry_multiplicity
 _atom_site_fract_x
 _atom_site_fract_y
 _atom_site_fract_z
 _atom_site_occupancy
  Y  Y0  1  0.206911  0.914981  0.001516  1
  Er  Er1  1  0.797610  0.083293  0.997976  1
  Er  Er2  1  0.082394  0.797337  0.497405  1
  Er  Er3  1  0.916569  0.202523  0.502160  1
  Er  Er4  1  0.797314  0.916572  0.496855  1
  Er  Er5  1  0.201985  0.084126  0.502806  1
  Er  Er6  1  0.083155  0.202370  0.002975  1
  Er  Er7  1  0.916468  0.797668  0.996743  1
  Mo  Mo8  1  0.999819  0.000111  0.250052  1
  Mo  Mo9  1  0.000203  0.999762  0.749546  1
  I  I10  1  0.356585  0.850668  0.498129  1
  I  I11  1  0.643561  0.149372  0.502854  1
  I  I12  1  0.148383  0.642416  0.003152  1
  I  I13  1  0.850492  0.356275  0.997359  1
  I  I14  1  0.356451  0.151607  0.010026  1
  I  I15  1  0.643253  0.850631  0.990251  1
  I  I16  1  0.849660  0.643688  0.490021  1
  I  I17  1  0.149188  0.356600  0.510175  1
