# generated using pymatgen
data_CeHo11Co5Sn
_symmetry_space_group_name_H-M   'P 1'
_cell_length_a   8.23677114
_cell_length_b   8.23677025
_cell_length_c   8.25066045
_cell_angle_alpha   107.62496774
_cell_angle_beta   110.49691151
_cell_angle_gamma   110.24021567
_symmetry_Int_Tables_number   1
_chemical_formula_structural   CeHo11Co5Sn
_chemical_formula_sum   'Ce1 Ho11 Co5 Sn1'
_cell_volume   430.93123314
_cell_formula_units_Z   1
loop_
 _symmetry_equiv_pos_site_id
 _symmetry_equiv_pos_as_xyz
  1  'x, y, z'
loop_
 _atom_site_type_symbol
 _atom_site_label
 _atom_site_symmetry_multiplicity
 _atom_site_fract_x
 _atom_site_fract_y
 _atom_site_fract_z
 _atom_site_occupancy
  Ce  Ce0  1  0.805134  0.191465  0.996600  1
  Ho  Ho1  1  0.481679  0.295998  0.183851  1
  Ho  Ho2  1  0.109308  0.295757  0.808791  1
  Ho  Ho3  1  0.887853  0.702171  0.183851  1
  Ho  Ho4  1  0.513034  0.699483  0.808791  1
  Ho  Ho5  1  0.306396  0.624432  0.314195  1
  Ho  Ho6  1  0.302171  0.988777  0.682495  1
  Ho  Ho7  1  0.693720  0.380324  0.682495  1
  Ho  Ho8  1  0.689763  0.007799  0.314195  1
  Ho  Ho9  1  0.197408  0.203546  0.400954  1
  Ho  Ho10  1  0.803837  0.779992  0.583829  1
  Ho  Ho11  1  0.187639  0.805320  0.992958  1
  Co  Co12  1  0.506564  0.614482  0.121046  1
  Co  Co13  1  0.494718  0.386614  0.881333  1
  Co  Co14  1  0.390304  0.002590  0.392895  1
  Co  Co15  1  0.652489  0.011412  0.663901  1
  Co  Co16  1  0.978429  0.013024  0.991453  1
  Sn  Sn17  1  0.999555  0.496811  0.496367  1
