# generated using pymatgen
data_DyLu2Ga2Co9B4
_symmetry_space_group_name_H-M   'P 1'
_cell_length_a   5.11805800
_cell_length_b   5.11676437
_cell_length_c   9.54191500
_cell_angle_alpha   90.00004770
_cell_angle_beta   89.99990463
_cell_angle_gamma   120.00835073
_symmetry_Int_Tables_number   1
_chemical_formula_structural   DyLu2Ga2Co9B4
_chemical_formula_sum   'Dy1 Lu2 Ga2 Co9 B4'
_cell_volume   216.38654118
_cell_formula_units_Z   1
loop_
 _symmetry_equiv_pos_site_id
 _symmetry_equiv_pos_as_xyz
  1  'x, y, z'
loop_
 _atom_site_type_symbol
 _atom_site_label
 _atom_site_symmetry_multiplicity
 _atom_site_fract_x
 _atom_site_fract_y
 _atom_site_fract_z
 _atom_site_occupancy
  Dy  Dy0  1  0.000002  0.000000  0.999960  1
  Lu  Lu1  1  0.999984  0.000000  0.340256  1
  Lu  Lu2  1  0.999977  0.000000  0.659778  1
  Ga  Ga3  1  0.333305  0.666620  0.999953  1
  Ga  Ga4  1  0.666683  0.333380  0.999953  1
  Co  Co5  1  0.499996  0.000000  0.500008  1
  Co  Co6  1  0.499997  0.500001  0.499999  1
  Co  Co7  1  0.999997  0.499999  0.499999  1
  Co  Co8  1  0.499991  0.000000  0.208512  1
  Co  Co9  1  0.499992  0.500001  0.208461  1
  Co  Co10  1  0.999991  0.499999  0.208461  1
  Co  Co11  1  0.499998  0.000000  0.791519  1
  Co  Co12  1  0.499998  0.499995  0.791528  1
  Co  Co13  1  0.000003  0.500005  0.791528  1
  B  B14  1  0.333330  0.666669  0.349518  1
  B  B15  1  0.666661  0.333331  0.349518  1
  B  B16  1  0.666644  0.333292  0.650525  1
  B  B17  1  0.333351  0.666708  0.650525  1
