# generated using pymatgen
data_Y4Al18Ir2Pd3Rh
_symmetry_space_group_name_H-M   'P 1'
_cell_length_a   7.61060070
_cell_length_b   7.61060015
_cell_length_c   9.47321000
_cell_angle_alpha   89.96172552
_cell_angle_beta   89.96173305
_cell_angle_gamma   119.81674242
_symmetry_Int_Tables_number   1
_chemical_formula_structural   Y4Al18Ir2Pd3Rh
_chemical_formula_sum   'Y4 Al18 Ir2 Pd3 Rh1'
_cell_volume   476.06282952
_cell_formula_units_Z   1
loop_
 _symmetry_equiv_pos_site_id
 _symmetry_equiv_pos_as_xyz
  1  'x, y, z'
loop_
 _atom_site_type_symbol
 _atom_site_label
 _atom_site_symmetry_multiplicity
 _atom_site_fract_x
 _atom_site_fract_y
 _atom_site_fract_z
 _atom_site_occupancy
  Y  Y0  1  0.994027  0.669758  0.750637  1
  Y  Y1  1  0.003652  0.328633  0.249360  1
  Y  Y2  1  0.671367  0.996348  0.750640  1
  Y  Y3  1  0.330242  0.005973  0.249363  1
  Al  Al4  1  0.131071  0.130103  0.750619  1
  Al  Al5  1  0.869897  0.868929  0.249381  1
  Al  Al6  1  0.004883  0.338508  0.576440  1
  Al  Al7  1  0.003251  0.665537  0.423527  1
  Al  Al8  1  0.000386  0.661441  0.074615  1
  Al  Al9  1  0.338559  0.999614  0.925385  1
  Al  Al10  1  0.000406  0.338580  0.924953  1
  Al  Al11  1  0.661420  0.999594  0.075047  1
  Al  Al12  1  0.661492  0.995117  0.423560  1
  Al  Al13  1  0.334463  0.996749  0.576473  1
  Al  Al14  1  0.335580  0.335683  0.052543  1
  Al  Al15  1  0.664317  0.664420  0.947457  1
  Al  Al16  1  0.662809  0.666059  0.557382  1
  Al  Al17  1  0.333941  0.337191  0.442618  1
  Al  Al18  1  0.339158  0.550072  0.750029  1
  Al  Al19  1  0.661654  0.453599  0.247435  1
  Al  Al20  1  0.546401  0.338346  0.752565  1
  Al  Al21  1  0.449928  0.660842  0.249971  1
  Ir  Ir22  1  0.328521  0.671479  0.000000  1
  Ir  Ir23  1  0.671882  0.328118  0.000000  1
  Pd  Pd24  1  0.672241  0.327759  0.500000  1
  Pd  Pd25  1  0.999928  0.000072  0.500000  1
  Pd  Pd26  1  0.000068  0.999932  0.000000  1
  Rh  Rh27  1  0.328455  0.671545  0.500000  1
