# generated using pymatgen
data_Li2Lu2Ni10P7
_symmetry_space_group_name_H-M   'P 1'
_cell_length_a   9.10663024
_cell_length_b   9.02397274
_cell_length_c   3.67024000
_cell_angle_alpha   90.00000000
_cell_angle_beta   90.00000000
_cell_angle_gamma   119.90400893
_symmetry_Int_Tables_number   1
_chemical_formula_structural   Li2Lu2Ni10P7
_chemical_formula_sum   'Li2 Lu2 Ni10 P7'
_cell_volume   261.45673953
_cell_formula_units_Z   1
loop_
 _symmetry_equiv_pos_site_id
 _symmetry_equiv_pos_as_xyz
  1  'x, y, z'
loop_
 _atom_site_type_symbol
 _atom_site_label
 _atom_site_symmetry_multiplicity
 _atom_site_fract_x
 _atom_site_fract_y
 _atom_site_fract_z
 _atom_site_occupancy
  Li  Li0  1  0.216516  0.102532  0.500001  1
  Li  Li1  1  0.892318  0.109818  0.500001  1
  Lu  Lu2  1  0.336844  0.664589  0.000000  1
  Lu  Lu3  1  0.666063  0.334481  0.500001  1
  Ni  Ni4  1  0.430242  0.060598  0.000000  1
  Ni  Ni5  1  0.154170  0.274750  0.000000  1
  Ni  Ni6  1  0.940989  0.374213  0.000000  1
  Ni  Ni7  1  0.632195  0.570255  0.000000  1
  Ni  Ni8  1  0.125456  0.838751  0.000000  1
  Ni  Ni9  1  0.717033  0.878688  0.000000  1
  Ni  Ni10  1  0.387562  0.437174  0.500001  1
  Ni  Ni11  1  0.048054  0.611006  0.500001  1
  Ni  Ni12  1  0.886358  0.792388  0.500001  1
  Ni  Ni13  1  0.562354  0.955267  0.500001  1
  P  P14  1  0.992428  0.987621  0.000000  1
  P  P15  1  0.700308  0.116112  0.000000  1
  P  P16  1  0.413901  0.302042  0.000000  1
  P  P17  1  0.885987  0.591417  0.000000  1
  P  P18  1  0.120639  0.408055  0.500001  1
  P  P19  1  0.598696  0.713383  0.500001  1
  P  P20  1  0.291886  0.876854  0.500001  1
