# generated using pymatgen
data_Dy2Er(SnRh)3
_symmetry_space_group_name_H-M   'P 1'
_cell_length_a   7.66168200
_cell_length_b   7.65207944
_cell_length_c   3.72895700
_cell_angle_alpha   90.00000000
_cell_angle_beta   90.00000000
_cell_angle_gamma   120.04150301
_symmetry_Int_Tables_number   1
_chemical_formula_structural   Dy2Er(SnRh)3
_chemical_formula_sum   'Dy2 Er1 Sn3 Rh3'
_cell_volume   189.25171352
_cell_formula_units_Z   1
loop_
 _symmetry_equiv_pos_site_id
 _symmetry_equiv_pos_as_xyz
  1  'x, y, z'
loop_
 _atom_site_type_symbol
 _atom_site_label
 _atom_site_symmetry_multiplicity
 _atom_site_fract_x
 _atom_site_fract_y
 _atom_site_fract_z
 _atom_site_occupancy
  Dy  Dy0  1  0.403341  0.403408  0.000000  1
  Dy  Dy1  1  0.999934  0.596592  0.000000  1
  Er  Er2  1  0.597013  0.000000  0.000000  1
  Sn  Sn3  1  0.734144  0.735349  0.500000  1
  Sn  Sn4  1  0.998794  0.264651  0.500000  1
  Sn  Sn5  1  0.266403  0.000000  0.500000  1
  Rh  Rh6  1  0.999830  0.000000  0.000000  1
  Rh  Rh7  1  0.666487  0.332432  0.500000  1
  Rh  Rh8  1  0.334054  0.667568  0.500000  1
