# generated using pymatgen
data_HoNb8NiS16
_symmetry_space_group_name_H-M   'P 1'
_cell_length_a   6.72062100
_cell_length_b   6.72062080
_cell_length_c   12.74175000
_cell_angle_alpha   90.00000000
_cell_angle_beta   90.00000000
_cell_angle_gamma   120.00000589
_symmetry_Int_Tables_number   1
_chemical_formula_structural   HoNb8NiS16
_chemical_formula_sum   'Ho1 Nb8 Ni1 S16'
_cell_volume   498.40051489
_cell_formula_units_Z   1
loop_
 _symmetry_equiv_pos_site_id
 _symmetry_equiv_pos_as_xyz
  1  'x, y, z'
loop_
 _atom_site_type_symbol
 _atom_site_label
 _atom_site_symmetry_multiplicity
 _atom_site_fract_x
 _atom_site_fract_y
 _atom_site_fract_z
 _atom_site_occupancy
  Ho  Ho0  1  0.000000  0.000000  0.000000  1
  Nb  Nb1  1  0.009924  0.504962  0.269024  1
  Nb  Nb2  1  0.990076  0.495038  0.730976  1
  Nb  Nb3  1  0.495038  0.504962  0.269024  1
  Nb  Nb4  1  0.504962  0.495038  0.730976  1
  Nb  Nb5  1  0.495038  0.990076  0.269024  1
  Nb  Nb6  1  0.504962  0.009924  0.730976  1
  Nb  Nb7  1  0.000000  0.000000  0.267195  1
  Nb  Nb8  1  0.000000  0.000000  0.732805  1
  Ni  Ni9  1  0.000000  0.000000  0.500000  1
  S  S10  1  0.337700  0.168850  0.144808  1
  S  S11  1  0.662300  0.831150  0.855192  1
  S  S12  1  0.831150  0.168850  0.144808  1
  S  S13  1  0.665978  0.832989  0.610493  1
  S  S14  1  0.168850  0.831150  0.855192  1
  S  S15  1  0.334022  0.167011  0.389507  1
  S  S16  1  0.831150  0.662300  0.144808  1
  S  S17  1  0.167011  0.832989  0.610493  1
  S  S18  1  0.168850  0.337700  0.855192  1
  S  S19  1  0.832989  0.167011  0.389507  1
  S  S20  1  0.167011  0.334022  0.610493  1
  S  S21  1  0.832989  0.665978  0.389507  1
  S  S22  1  0.333333  0.666667  0.142114  1
  S  S23  1  0.666667  0.333333  0.857886  1
  S  S24  1  0.666667  0.333333  0.607082  1
  S  S25  1  0.333333  0.666667  0.392918  1
