# generated using pymatgen
data_Y3Pa(SiNi)4
_symmetry_space_group_name_H-M   'P 1'
_cell_length_a   4.17913800
_cell_length_b   6.92865615
_cell_length_c   7.10638224
_cell_angle_alpha   89.93315716
_cell_angle_beta   90.00000000
_cell_angle_gamma   90.00000000
_symmetry_Int_Tables_number   1
_chemical_formula_structural   Y3Pa(SiNi)4
_chemical_formula_sum   'Y3 Pa1 Si4 Ni4'
_cell_volume   205.77091532
_cell_formula_units_Z   1
loop_
 _symmetry_equiv_pos_site_id
 _symmetry_equiv_pos_as_xyz
  1  'x, y, z'
loop_
 _atom_site_type_symbol
 _atom_site_label
 _atom_site_symmetry_multiplicity
 _atom_site_fract_x
 _atom_site_fract_y
 _atom_site_fract_z
 _atom_site_occupancy
  Y  Y0  1  0.750000  0.508330  0.796389  1
  Y  Y1  1  0.250000  0.991257  0.297950  1
  Y  Y2  1  0.750000  0.007626  0.704695  1
  Pa  Pa3  1  0.250000  0.491107  0.202584  1
  Si  Si4  1  0.250000  0.803953  0.911722  1
  Si  Si5  1  0.750000  0.194286  0.088842  1
  Si  Si6  1  0.250000  0.304395  0.591973  1
  Si  Si7  1  0.750000  0.691581  0.411925  1
  Ni  Ni8  1  0.750000  0.805250  0.082325  1
  Ni  Ni9  1  0.250000  0.197376  0.923696  1
  Ni  Ni10  1  0.750000  0.315279  0.412595  1
  Ni  Ni11  1  0.250000  0.689560  0.575303  1
