# generated using pymatgen
data_TaTi3(FeP)4
_symmetry_space_group_name_H-M   'P 1'
_cell_length_a   3.61163500
_cell_length_b   6.03228300
_cell_length_c   6.83274100
_cell_angle_alpha   90.00201529
_cell_angle_beta   90.00000000
_cell_angle_gamma   90.00000000
_symmetry_Int_Tables_number   1
_chemical_formula_structural   TaTi3(FeP)4
_chemical_formula_sum   'Ta1 Ti3 Fe4 P4'
_cell_volume   148.86085863
_cell_formula_units_Z   1
loop_
 _symmetry_equiv_pos_site_id
 _symmetry_equiv_pos_as_xyz
  1  'x, y, z'
loop_
 _atom_site_type_symbol
 _atom_site_label
 _atom_site_symmetry_multiplicity
 _atom_site_fract_x
 _atom_site_fract_y
 _atom_site_fract_z
 _atom_site_occupancy
  Ta  Ta0  1  0.750000  0.479483  0.322296  1
  Ti  Ti1  1  0.250000  0.520704  0.681905  1
  Ti  Ti2  1  0.250000  0.019220  0.818283  1
  Ti  Ti3  1  0.750000  0.977808  0.179937  1
  Fe  Fe4  1  0.750000  0.352938  0.938834  1
  Fe  Fe5  1  0.250000  0.148345  0.438335  1
  Fe  Fe6  1  0.750000  0.852586  0.561639  1
  Fe  Fe7  1  0.250000  0.648637  0.060130  1
  P  P8  1  0.250000  0.779998  0.380790  1
  P  P9  1  0.250000  0.272264  0.116037  1
  P  P10  1  0.750000  0.223244  0.623561  1
  P  P11  1  0.750000  0.724773  0.878254  1
