# generated using pymatgen
data_HoPa3Ge4Ir3Pt
_symmetry_space_group_name_H-M   'P 1'
_cell_length_a   4.33605600
_cell_length_b   6.97861389
_cell_length_c   7.69612189
_cell_angle_alpha   89.91033632
_cell_angle_beta   90.00000000
_cell_angle_gamma   90.00000000
_symmetry_Int_Tables_number   1
_chemical_formula_structural   HoPa3Ge4Ir3Pt
_chemical_formula_sum   'Ho1 Pa3 Ge4 Ir3 Pt1'
_cell_volume   232.88175121
_cell_formula_units_Z   1
loop_
 _symmetry_equiv_pos_site_id
 _symmetry_equiv_pos_as_xyz
  1  'x, y, z'
loop_
 _atom_site_type_symbol
 _atom_site_label
 _atom_site_symmetry_multiplicity
 _atom_site_fract_x
 _atom_site_fract_y
 _atom_site_fract_z
 _atom_site_occupancy
  Ho  Ho0  1  0.750000  0.510251  0.797778  1
  Pa  Pa1  1  0.250000  0.992596  0.297398  1
  Pa  Pa2  1  0.250000  0.499831  0.206618  1
  Pa  Pa3  1  0.750000  0.002573  0.697426  1
  Ge  Ge4  1  0.250000  0.321369  0.588146  1
  Ge  Ge5  1  0.250000  0.810779  0.912167  1
  Ge  Ge6  1  0.750000  0.678752  0.418126  1
  Ge  Ge7  1  0.750000  0.187833  0.084299  1
  Ir  Ir8  1  0.250000  0.731807  0.581529  1
  Ir  Ir9  1  0.750000  0.779590  0.093061  1
  Ir  Ir10  1  0.750000  0.271645  0.411089  1
  Pt  Pt11  1  0.250000  0.212974  0.912362  1
