# generated using pymatgen
data_Ho2Tm2Al13Ga5Ir6
_symmetry_space_group_name_H-M   'P 1'
_cell_length_a   7.51713205
_cell_length_b   7.51936077
_cell_length_c   9.53920900
_cell_angle_alpha   90.00000000
_cell_angle_beta   90.00000000
_cell_angle_gamma   119.57779353
_symmetry_Int_Tables_number   1
_chemical_formula_structural   Ho2Tm2Al13Ga5Ir6
_chemical_formula_sum   'Ho2 Tm2 Al13 Ga5 Ir6'
_cell_volume   468.93008502
_cell_formula_units_Z   1
loop_
 _symmetry_equiv_pos_site_id
 _symmetry_equiv_pos_as_xyz
  1  'x, y, z'
loop_
 _atom_site_type_symbol
 _atom_site_label
 _atom_site_symmetry_multiplicity
 _atom_site_fract_x
 _atom_site_fract_y
 _atom_site_fract_z
 _atom_site_occupancy
  Ho  Ho0  1  0.995078  0.670295  0.250000  1
  Ho  Ho1  1  0.670745  0.996564  0.250000  1
  Tm  Tm2  1  0.000619  0.325904  0.750000  1
  Tm  Tm3  1  0.329773  0.006344  0.750000  1
  Al  Al4  1  0.002870  0.335023  0.071707  1
  Al  Al5  1  0.999594  0.665235  0.926248  1
  Al  Al6  1  0.999594  0.665235  0.573752  1
  Al  Al7  1  0.334956  0.002189  0.428469  1
  Al  Al8  1  0.002870  0.335023  0.428293  1
  Al  Al9  1  0.664668  0.998227  0.573910  1
  Al  Al10  1  0.664668  0.998227  0.926090  1
  Al  Al11  1  0.334956  0.002189  0.071531  1
  Al  Al12  1  0.333452  0.333800  0.558396  1
  Al  Al13  1  0.665673  0.665617  0.446862  1
  Al  Al14  1  0.665673  0.665617  0.053138  1
  Al  Al15  1  0.333452  0.333800  0.941604  1
  Al  Al16  1  0.449475  0.661716  0.750000  1
  Ga  Ga17  1  0.128867  0.128880  0.250000  1
  Ga  Ga18  1  0.870387  0.869759  0.750000  1
  Ga  Ga19  1  0.338928  0.547922  0.250000  1
  Ga  Ga20  1  0.661542  0.453312  0.750000  1
  Ga  Ga21  1  0.547809  0.339340  0.250000  1
  Ir  Ir22  1  0.672679  0.327676  0.000092  1
  Ir  Ir23  1  0.329004  0.672014  0.997568  1
  Ir  Ir24  1  0.329004  0.672014  0.502432  1
  Ir  Ir25  1  0.672679  0.327676  0.499908  1
  Ir  Ir26  1  0.000494  0.000202  0.999846  1
  Ir  Ir27  1  0.000494  0.000202  0.500154  1
