# generated using pymatgen
data_MgGa3Rh4
_symmetry_space_group_name_H-M   'P 1'
_cell_length_a   5.29295570
_cell_length_b   5.29295646
_cell_length_c   4.29328200
_cell_angle_alpha   90.00000000
_cell_angle_beta   90.00000000
_cell_angle_gamma   109.59619173
_symmetry_Int_Tables_number   1
_chemical_formula_structural   MgGa3Rh4
_chemical_formula_sum   'Mg1 Ga3 Rh4'
_cell_volume   113.31141521
_cell_formula_units_Z   1
loop_
 _symmetry_equiv_pos_site_id
 _symmetry_equiv_pos_as_xyz
  1  'x, y, z'
loop_
 _atom_site_type_symbol
 _atom_site_label
 _atom_site_symmetry_multiplicity
 _atom_site_fract_x
 _atom_site_fract_y
 _atom_site_fract_z
 _atom_site_occupancy
  Mg  Mg0  1  0.500000  0.500000  0.000000  1
  Ga  Ga1  1  0.000000  0.000000  0.000000  1
  Ga  Ga2  1  0.739171  0.260829  0.500000  1
  Ga  Ga3  1  0.260829  0.739171  0.500000  1
  Rh  Rh4  1  0.500000  0.000000  0.000000  1
  Rh  Rh5  1  0.000000  0.500000  0.000000  1
  Rh  Rh6  1  0.762277  0.762277  0.500000  1
  Rh  Rh7  1  0.237723  0.237723  0.500000  1
