# generated using pymatgen
data_Dy5Y3Ti11NbSi16
_symmetry_space_group_name_H-M   'P 1'
_cell_length_a   7.05659339
_cell_length_b   7.05651391
_cell_length_c   12.98223017
_cell_angle_alpha   90.03924823
_cell_angle_beta   89.95897762
_cell_angle_gamma   90.02380396
_symmetry_Int_Tables_number   1
_chemical_formula_structural   Dy5Y3Ti11NbSi16
_chemical_formula_sum   'Dy5 Y3 Ti11 Nb1 Si16'
_cell_volume   646.44912133
_cell_formula_units_Z   1
loop_
 _symmetry_equiv_pos_site_id
 _symmetry_equiv_pos_as_xyz
  1  'x, y, z'
loop_
 _atom_site_type_symbol
 _atom_site_label
 _atom_site_symmetry_multiplicity
 _atom_site_fract_x
 _atom_site_fract_y
 _atom_site_fract_z
 _atom_site_occupancy
  Dy  Dy0  1  0.159912  0.502638  0.783229  1
  Dy  Dy1  1  0.840591  0.497703  0.283578  1
  Dy  Dy2  1  0.502658  0.159946  0.216771  1
  Dy  Dy3  1  0.497708  0.840631  0.716430  1
  Dy  Dy4  1  0.340877  0.002088  0.466689  1
  Y  Y5  1  0.997254  0.659852  0.033279  1
  Y  Y6  1  0.002129  0.340837  0.533314  1
  Y  Y7  1  0.659850  0.997256  0.966702  1
  Ti  Ti8  1  0.348440  0.508705  0.374403  1
  Ti  Ti9  1  0.846579  0.990981  0.376597  1
  Ti  Ti10  1  0.008073  0.152360  0.123707  1
  Ti  Ti11  1  0.991008  0.846628  0.623413  1
  Ti  Ti12  1  0.508744  0.348377  0.625597  1
  Ti  Ti13  1  0.152353  0.008106  0.876259  1
  Ti  Ti14  1  0.826634  0.173128  0.750092  1
  Ti  Ti15  1  0.173152  0.826641  0.249944  1
  Ti  Ti16  1  0.327134  0.327121  0.999984  1
  Ti  Ti17  1  0.491593  0.651799  0.126273  1
  Ti  Ti18  1  0.651848  0.491539  0.873696  1
  Nb  Nb19  1  0.673186  0.673275  0.500006  1
  Si  Si20  1  0.047918  0.708965  0.434917  1
  Si  Si21  1  0.953118  0.290946  0.935114  1
  Si  Si22  1  0.708887  0.047867  0.565131  1
  Si  Si23  1  0.208862  0.452998  0.184977  1
  Si  Si24  1  0.791974  0.546273  0.686414  1
  Si  Si25  1  0.453027  0.208859  0.815019  1
  Si  Si26  1  0.546259  0.792016  0.313642  1
  Si  Si27  1  0.290964  0.953126  0.064824  1
  Si  Si28  1  0.797738  0.870121  0.184655  1
  Si  Si29  1  0.296867  0.629991  0.565469  1
  Si  Si30  1  0.702232  0.370066  0.065233  1
  Si  Si31  1  0.629868  0.296831  0.434539  1
  Si  Si32  1  0.370055  0.702254  0.934737  1
  Si  Si33  1  0.129988  0.202393  0.315090  1
  Si  Si34  1  0.202370  0.129882  0.684946  1
  Si  Si35  1  0.870143  0.797798  0.815331  1
