# generated using pymatgen
data_Y2HoAl3SiPd2
_symmetry_space_group_name_H-M   'P 1'
_cell_length_a   7.03563348
_cell_length_b   7.02695632
_cell_length_c   4.16312700
_cell_angle_alpha   90.00000000
_cell_angle_beta   90.00000000
_cell_angle_gamma   119.94465704
_symmetry_Int_Tables_number   1
_chemical_formula_structural   Y2HoAl3SiPd2
_chemical_formula_sum   'Y2 Ho1 Al3 Si1 Pd2'
_cell_volume   178.34571354
_cell_formula_units_Z   1
loop_
 _symmetry_equiv_pos_site_id
 _symmetry_equiv_pos_as_xyz
  1  'x, y, z'
loop_
 _atom_site_type_symbol
 _atom_site_label
 _atom_site_symmetry_multiplicity
 _atom_site_fract_x
 _atom_site_fract_y
 _atom_site_fract_z
 _atom_site_occupancy
  Y  Y0  1  0.580794  0.998401  0.500000  1
  Y  Y1  1  0.001428  0.582198  0.500000  1
  Ho  Ho2  1  0.416415  0.419074  0.500000  1
  Al  Al3  1  0.008587  0.243743  0.000000  1
  Al  Al4  1  0.756052  0.764295  0.000000  1
  Al  Al5  1  0.235428  0.991876  0.000000  1
  Si  Si6  1  0.666098  0.333659  0.000000  1
  Pd  Pd7  1  0.001383  0.001399  0.500000  1
  Pd  Pd8  1  0.333816  0.665353  0.000000  1
