# generated using pymatgen
data_Hf4NbB4SbRu10
_symmetry_space_group_name_H-M   'P 1'
_cell_length_a   9.48749800
_cell_length_b   9.48749800
_cell_length_c   3.11290500
_cell_angle_alpha   90.00000000
_cell_angle_beta   90.00000000
_cell_angle_gamma   90.00000000
_symmetry_Int_Tables_number   1
_chemical_formula_structural   Hf4NbB4SbRu10
_chemical_formula_sum   'Hf4 Nb1 B4 Sb1 Ru10'
_cell_volume   280.20072957
_cell_formula_units_Z   1
loop_
 _symmetry_equiv_pos_site_id
 _symmetry_equiv_pos_as_xyz
  1  'x, y, z'
loop_
 _atom_site_type_symbol
 _atom_site_label
 _atom_site_symmetry_multiplicity
 _atom_site_fract_x
 _atom_site_fract_y
 _atom_site_fract_z
 _atom_site_occupancy
  Hf  Hf0  1  0.825331  0.676499  0.000000  1
  Hf  Hf1  1  0.174669  0.323501  0.000000  1
  Hf  Hf2  1  0.323501  0.825331  0.000000  1
  Hf  Hf3  1  0.676499  0.174669  0.000000  1
  Nb  Nb4  1  0.000000  0.000000  0.000000  1
  B  B5  1  0.620886  0.878902  0.000000  1
  B  B6  1  0.379114  0.121098  0.000000  1
  B  B7  1  0.121098  0.620886  0.000000  1
  B  B8  1  0.878902  0.379114  0.000000  1
  Sb  Sb9  1  0.500000  0.500000  0.000000  1
  Ru  Ru10  1  0.571848  0.719786  0.500000  1
  Ru  Ru11  1  0.428152  0.280214  0.500000  1
  Ru  Ru12  1  0.070481  0.781373  0.500000  1
  Ru  Ru13  1  0.929519  0.218627  0.500000  1
  Ru  Ru14  1  0.280214  0.571848  0.500000  1
  Ru  Ru15  1  0.719786  0.428152  0.500000  1
  Ru  Ru16  1  0.218627  0.070481  0.500000  1
  Ru  Ru17  1  0.781373  0.929519  0.500000  1
  Ru  Ru18  1  0.500000  0.000000  0.500000  1
  Ru  Ru19  1  0.000000  0.500000  0.500000  1
