# generated using pymatgen
data_HoZn2Pt2Au
_symmetry_space_group_name_H-M   'P 1'
_cell_length_a   5.23480596
_cell_length_b   5.23480649
_cell_length_c   5.55700300
_cell_angle_alpha   57.94221065
_cell_angle_beta   57.94220703
_cell_angle_gamma   60.02452000
_symmetry_Int_Tables_number   1
_chemical_formula_structural   HoZn2Pt2Au
_chemical_formula_sum   'Ho1 Zn2 Pt2 Au1'
_cell_volume   104.22429103
_cell_formula_units_Z   1
loop_
 _symmetry_equiv_pos_site_id
 _symmetry_equiv_pos_as_xyz
  1  'x, y, z'
loop_
 _atom_site_type_symbol
 _atom_site_label
 _atom_site_symmetry_multiplicity
 _atom_site_fract_x
 _atom_site_fract_y
 _atom_site_fract_z
 _atom_site_occupancy
  Ho  Ho0  1  0.260476  0.260476  0.239524  1
  Zn  Zn1  1  0.616499  0.118147  0.632677  1
  Zn  Zn2  1  0.118147  0.616499  0.632677  1
  Pt  Pt3  1  0.621492  0.621492  0.626945  1
  Pt  Pt4  1  0.621492  0.621492  0.130070  1
  Au  Au5  1  0.011893  0.011893  0.988107  1
