# generated using pymatgen
data_NaCaFeF6
_symmetry_space_group_name_H-M   'P 1'
_cell_length_a   5.24582700
_cell_length_b   9.34781800
_cell_length_c   10.40137600
_cell_angle_alpha   90.00000000
_cell_angle_beta   90.00000000
_cell_angle_gamma   90.00000000
_symmetry_Int_Tables_number   1
_chemical_formula_structural   NaCaFeF6
_chemical_formula_sum   'Na4 Ca4 Fe4 F24'
_cell_volume   510.05264994
_cell_formula_units_Z   4
loop_
 _symmetry_equiv_pos_site_id
 _symmetry_equiv_pos_as_xyz
  1  'x, y, z'
loop_
 _atom_site_type_symbol
 _atom_site_label
 _atom_site_symmetry_multiplicity
 _atom_site_fract_x
 _atom_site_fract_y
 _atom_site_fract_z
 _atom_site_occupancy
  Na  Na0  1  0.037087  0.651174  0.083534  1
  Na  Na1  1  0.462913  0.348826  0.583534  1
  Na  Na2  1  0.962913  0.151174  0.416466  1
  Na  Na3  1  0.537087  0.848826  0.916466  1
  Ca  Ca4  1  0.512867  0.319758  0.164195  1
  Ca  Ca5  1  0.987133  0.680242  0.664195  1
  Ca  Ca6  1  0.487133  0.819758  0.335805  1
  Ca  Ca7  1  0.012867  0.180242  0.835805  1
  Fe  Fe8  1  0.026461  0.003680  0.130574  1
  Fe  Fe9  1  0.473539  0.996320  0.630574  1
  Fe  Fe10  1  0.973539  0.503680  0.369426  1
  Fe  Fe11  1  0.526461  0.496320  0.869426  1
  F  F12  1  0.227715  0.143527  0.584374  1
  F  F13  1  0.272285  0.856473  0.084374  1
  F  F14  1  0.772285  0.643527  0.915626  1
  F  F15  1  0.727715  0.356473  0.415626  1
  F  F16  1  0.214334  0.640068  0.295608  1
  F  F17  1  0.285666  0.359932  0.795608  1
  F  F18  1  0.785666  0.140068  0.204392  1
  F  F19  1  0.714334  0.859932  0.704392  1
  F  F20  1  0.230223  0.163108  0.054529  1
  F  F21  1  0.269777  0.836892  0.554529  1
  F  F22  1  0.769777  0.663108  0.445471  1
  F  F23  1  0.730223  0.336892  0.945471  1
  F  F24  1  0.197729  0.346729  0.313044  1
  F  F25  1  0.302271  0.653271  0.813044  1
  F  F26  1  0.802271  0.846729  0.186956  1
  F  F27  1  0.697729  0.153271  0.686956  1
  F  F28  1  0.350336  0.494480  0.034601  1
  F  F29  1  0.149664  0.505520  0.534601  1
  F  F30  1  0.649664  0.994480  0.465399  1
  F  F31  1  0.850336  0.005520  0.965399  1
  F  F32  1  0.212690  0.007882  0.293591  1
  F  F33  1  0.287310  0.992118  0.793591  1
  F  F34  1  0.787310  0.507882  0.206409  1
  F  F35  1  0.712690  0.492118  0.706409  1
