# generated using pymatgen
data_Zr10AgSn2Bi5
_symmetry_space_group_name_H-M   'P 1'
_cell_length_a   6.01683401
_cell_length_b   8.94484917
_cell_length_c   8.90249401
_cell_angle_alpha   119.84358830
_cell_angle_beta   90.00461752
_cell_angle_gamma   89.99779525
_symmetry_Int_Tables_number   1
_chemical_formula_structural   Zr10AgSn2Bi5
_chemical_formula_sum   'Zr10 Ag1 Sn2 Bi5'
_cell_volume   415.59059602
_cell_formula_units_Z   1
loop_
 _symmetry_equiv_pos_site_id
 _symmetry_equiv_pos_as_xyz
  1  'x, y, z'
loop_
 _atom_site_type_symbol
 _atom_site_label
 _atom_site_symmetry_multiplicity
 _atom_site_fract_x
 _atom_site_fract_y
 _atom_site_fract_z
 _atom_site_occupancy
  Zr  Zr0  1  0.498516  0.329455  0.663598  1
  Zr  Zr1  1  0.498515  0.670547  0.334143  1
  Zr  Zr2  1  0.001697  0.671383  0.334343  1
  Zr  Zr3  1  0.001699  0.328616  0.662959  1
  Zr  Zr4  1  0.749112  0.276702  0.999254  1
  Zr  Zr5  1  0.749113  0.723303  0.722551  1
  Zr  Zr6  1  0.747437  0.000002  0.278030  1
  Zr  Zr7  1  0.251531  0.726229  0.006330  1
  Zr  Zr8  1  0.251528  0.273770  0.280103  1
  Zr  Zr9  1  0.250982  0.999996  0.719166  1
  Ag  Ag10  1  0.499014  0.999999  0.999962  1
  Sn  Sn11  1  0.251113  0.000004  0.382630  1
  Sn  Sn12  1  0.000743  0.000000  0.999977  1
  Bi  Bi13  1  0.749392  0.616369  0.998810  1
  Bi  Bi14  1  0.749392  0.383630  0.382445  1
  Bi  Bi15  1  0.748037  0.000002  0.616297  1
  Bi  Bi16  1  0.251089  0.382515  0.000959  1
  Bi  Bi17  1  0.251089  0.617481  0.618441  1
