# generated using pymatgen
data_Li4Th3(SiSn)2
_symmetry_space_group_name_H-M   'P 1'
_cell_length_a   4.53638456
_cell_length_b   6.82150680
_cell_length_c   8.58550700
_cell_angle_alpha   113.40755028
_cell_angle_beta   105.31876993
_cell_angle_gamma   89.99998580
_symmetry_Int_Tables_number   1
_chemical_formula_structural   Li4Th3(SiSn)2
_chemical_formula_sum   'Li4 Th3 Si2 Sn2'
_cell_volume   233.49205742
_cell_formula_units_Z   1
loop_
 _symmetry_equiv_pos_site_id
 _symmetry_equiv_pos_as_xyz
  1  'x, y, z'
loop_
 _atom_site_type_symbol
 _atom_site_label
 _atom_site_symmetry_multiplicity
 _atom_site_fract_x
 _atom_site_fract_y
 _atom_site_fract_z
 _atom_site_occupancy
  Li  Li0  1  0.663969  0.974478  0.327936  1
  Li  Li1  1  0.336031  0.025522  0.672064  1
  Li  Li2  1  0.336031  0.646543  0.672064  1
  Li  Li3  1  0.663969  0.353457  0.327936  1
  Th  Th4  1  0.000000  0.000000  0.000000  1
  Th  Th5  1  0.120716  0.620716  0.241432  1
  Th  Th6  1  0.879284  0.379284  0.758568  1
  Si  Si7  1  0.500000  0.680729  0.000000  1
  Si  Si8  1  0.500000  0.319271  0.000000  1
  Sn  Sn9  1  0.784617  0.784617  0.569233  1
  Sn  Sn10  1  0.215383  0.215383  0.430767  1
