# generated using pymatgen
data_Pr5Gd12Er3Pb16
_symmetry_space_group_name_H-M   'P 1'
_cell_length_a   8.26068348
_cell_length_b   8.37319180
_cell_length_c   15.78243300
_cell_angle_alpha   90.04633921
_cell_angle_beta   89.49373067
_cell_angle_gamma   89.61949167
_symmetry_Int_Tables_number   1
_chemical_formula_structural   Pr5Gd12Er3Pb16
_chemical_formula_sum   'Pr5 Gd12 Er3 Pb16'
_cell_volume   1091.57675936
_cell_formula_units_Z   1
loop_
 _symmetry_equiv_pos_site_id
 _symmetry_equiv_pos_as_xyz
  1  'x, y, z'
loop_
 _atom_site_type_symbol
 _atom_site_label
 _atom_site_symmetry_multiplicity
 _atom_site_fract_x
 _atom_site_fract_y
 _atom_site_fract_z
 _atom_site_occupancy
  Pr  Pr0  1  0.024856  0.180142  0.402634  1
  Pr  Pr1  1  0.523031  0.323249  0.403683  1
  Pr  Pr2  1  0.026421  0.177103  0.097477  1
  Pr  Pr3  1  0.475127  0.677548  0.903178  1
  Pr  Pr4  1  0.977921  0.821141  0.596711  1
  Gd  Gd5  1  0.633888  0.158971  0.622484  1
  Gd  Gd6  1  0.132092  0.341957  0.880013  1
  Gd  Gd7  1  0.370448  0.841875  0.120403  1
  Gd  Gd8  1  0.866652  0.658105  0.378605  1
  Gd  Gd9  1  0.368875  0.841966  0.377140  1
  Gd  Gd10  1  0.871947  0.657821  0.119698  1
  Gd  Gd11  1  0.626105  0.157092  0.878924  1
  Gd  Gd12  1  0.131857  0.342266  0.621915  1
  Gd  Gd13  1  0.470779  0.678095  0.598697  1
  Gd  Gd14  1  0.967945  0.823109  0.899854  1
  Gd  Gd15  1  0.532308  0.323851  0.099418  1
  Gd  Gd16  1  0.798046  0.495758  0.750921  1
  Er  Er17  1  0.296983  0.005005  0.749768  1
  Er  Er18  1  0.203544  0.504048  0.249695  1
  Er  Er19  1  0.703045  0.995273  0.248501  1
  Pb  Pb20  1  0.706172  0.962863  0.455640  1
  Pb  Pb21  1  0.215424  0.532890  0.045713  1
  Pb  Pb22  1  0.284006  0.030626  0.953842  1
  Pb  Pb23  1  0.787255  0.464950  0.544797  1
  Pb  Pb24  1  0.296575  0.037503  0.544424  1
  Pb  Pb25  1  0.791887  0.458521  0.957554  1
  Pb  Pb26  1  0.709306  0.961628  0.042698  1
  Pb  Pb27  1  0.207600  0.543810  0.458047  1
  Pb  Pb28  1  0.433785  0.375647  0.750720  1
  Pb  Pb29  1  0.936247  0.123455  0.751501  1
  Pb  Pb30  1  0.565096  0.625540  0.248402  1
  Pb  Pb31  1  0.064315  0.873119  0.249243  1
  Pb  Pb32  1  0.660451  0.849303  0.747918  1
  Pb  Pb33  1  0.164142  0.653068  0.751482  1
  Pb  Pb34  1  0.340544  0.152965  0.248434  1
  Pb  Pb35  1  0.835319  0.349735  0.249867  1
