# generated using pymatgen
data_Tm6Si11PRh18
_symmetry_space_group_name_H-M   'P 1'
_cell_length_a   3.97795100
_cell_length_b   11.28440900
_cell_length_c   12.80805716
_cell_angle_alpha   89.81279899
_cell_angle_beta   90.00000000
_cell_angle_gamma   90.00000000
_symmetry_Int_Tables_number   1
_chemical_formula_structural   Tm6Si11PRh18
_chemical_formula_sum   'Tm6 Si11 P1 Rh18'
_cell_volume   574.93558119
_cell_formula_units_Z   1
loop_
 _symmetry_equiv_pos_site_id
 _symmetry_equiv_pos_as_xyz
  1  'x, y, z'
loop_
 _atom_site_type_symbol
 _atom_site_label
 _atom_site_symmetry_multiplicity
 _atom_site_fract_x
 _atom_site_fract_y
 _atom_site_fract_z
 _atom_site_occupancy
  Tm  Tm0  1  0.000000  0.499751  0.524053  1
  Tm  Tm1  1  0.500000  0.000258  0.475421  1
  Tm  Tm2  1  0.500000  0.813169  0.205908  1
  Tm  Tm3  1  0.500000  0.185685  0.205079  1
  Tm  Tm4  1  0.000000  0.685578  0.795777  1
  Tm  Tm5  1  0.000000  0.314572  0.792456  1
  Si  Si6  1  0.500000  0.498487  0.876556  1
  Si  Si7  1  0.000000  0.999313  0.124883  1
  Si  Si8  1  0.500000  0.501245  0.342170  1
  Si  Si9  1  0.000000  0.000279  0.658585  1
  Si  Si10  1  0.500000  0.305725  0.615723  1
  Si  Si11  1  0.500000  0.694484  0.617732  1
  Si  Si12  1  0.000000  0.196309  0.381394  1
  Si  Si13  1  0.000000  0.806120  0.383793  1
  Si  Si14  1  0.500000  0.852665  0.896729  1
  Si  Si15  1  0.500000  0.147849  0.895799  1
  Si  Si16  1  0.000000  0.647647  0.103492  1
  P  P17  1  0.000000  0.345463  0.102523  1
  Rh  Rh18  1  0.500000  0.506374  0.156749  1
  Rh  Rh19  1  0.000000  0.000426  0.844584  1
  Rh  Rh20  1  0.500000  0.499216  0.692114  1
  Rh  Rh21  1  0.000000  0.001172  0.308929  1
  Rh  Rh22  1  0.000000  0.495706  0.978620  1
  Rh  Rh23  1  0.500000  0.000247  0.025636  1
  Rh  Rh24  1  0.500000  0.330395  0.992217  1
  Rh  Rh25  1  0.500000  0.667365  0.985961  1
  Rh  Rh26  1  0.000000  0.168511  0.011668  1
  Rh  Rh27  1  0.000000  0.831030  0.012877  1
  Rh  Rh28  1  0.500000  0.303303  0.428417  1
  Rh  Rh29  1  0.500000  0.699060  0.430788  1
  Rh  Rh30  1  0.000000  0.199088  0.568288  1
  Rh  Rh31  1  0.000000  0.801857  0.570551  1
  Rh  Rh32  1  0.500000  0.877566  0.712920  1
  Rh  Rh33  1  0.500000  0.123184  0.712059  1
  Rh  Rh34  1  0.000000  0.623590  0.287985  1
  Rh  Rh35  1  0.000000  0.377311  0.281561  1
