# generated using pymatgen
data_Np2B4Ir4Rh
_symmetry_space_group_name_H-M   'P 1'
_cell_length_a   7.52819714
_cell_length_b   6.27202321
_cell_length_c   5.69377096
_cell_angle_alpha   77.80811751
_cell_angle_beta   54.52282088
_cell_angle_gamma   47.69156877
_symmetry_Int_Tables_number   1
_chemical_formula_structural   Np2B4Ir4Rh
_chemical_formula_sum   'Np2 B4 Ir4 Rh1'
_cell_volume   154.54960326
_cell_formula_units_Z   1
loop_
 _symmetry_equiv_pos_site_id
 _symmetry_equiv_pos_as_xyz
  1  'x, y, z'
loop_
 _atom_site_type_symbol
 _atom_site_label
 _atom_site_symmetry_multiplicity
 _atom_site_fract_x
 _atom_site_fract_y
 _atom_site_fract_z
 _atom_site_occupancy
  Np  Np0  1  0.864897  0.864897  0.135103  1
  Np  Np1  1  0.135103  0.135103  0.864897  1
  B  B2  1  0.210723  0.520027  0.481107  1
  B  B3  1  0.789277  0.479973  0.518893  1
  B  B4  1  0.520027  0.210723  0.788144  1
  B  B5  1  0.479973  0.789277  0.211856  1
  Ir  Ir6  1  0.749665  0.749665  0.750335  1
  Ir  Ir7  1  0.250335  0.250335  0.249665  1
  Ir  Ir8  1  0.000000  0.000000  0.500000  1
  Ir  Ir9  1  0.500000  0.500000  0.500000  1
  Rh  Rh10  1  0.500000  0.500000  0.000000  1
