# generated using pymatgen
data_K(BaB8)3
_symmetry_space_group_name_H-M   'P 1'
_cell_length_a   4.26958000
_cell_length_b   4.26958000
_cell_length_c   17.03798100
_cell_angle_alpha   90.00000000
_cell_angle_beta   90.00000000
_cell_angle_gamma   90.00000000
_symmetry_Int_Tables_number   1
_chemical_formula_structural   K(BaB8)3
_chemical_formula_sum   'K1 Ba3 B24'
_cell_volume   310.59069495
_cell_formula_units_Z   1
loop_
 _symmetry_equiv_pos_site_id
 _symmetry_equiv_pos_as_xyz
  1  'x, y, z'
loop_
 _atom_site_type_symbol
 _atom_site_label
 _atom_site_symmetry_multiplicity
 _atom_site_fract_x
 _atom_site_fract_y
 _atom_site_fract_z
 _atom_site_occupancy
  K  K0  1  0.000000  0.000000  0.000000  1
  Ba  Ba1  1  0.000000  0.000000  0.245410  1
  Ba  Ba2  1  0.000000  0.000000  0.500000  1
  Ba  Ba3  1  0.000000  0.000000  0.754590  1
  B  B4  1  0.202743  0.500000  0.123531  1
  B  B5  1  0.204561  0.500000  0.374298  1
  B  B6  1  0.204561  0.500000  0.625702  1
  B  B7  1  0.202743  0.500000  0.876469  1
  B  B8  1  0.500000  0.500000  0.197955  1
  B  B9  1  0.500000  0.500000  0.448625  1
  B  B10  1  0.500000  0.500000  0.700060  1
  B  B11  1  0.500000  0.500000  0.950372  1
  B  B12  1  0.500000  0.202743  0.123531  1
  B  B13  1  0.500000  0.204561  0.374298  1
  B  B14  1  0.500000  0.204561  0.625702  1
  B  B15  1  0.500000  0.202743  0.876469  1
  B  B16  1  0.500000  0.500000  0.049628  1
  B  B17  1  0.500000  0.500000  0.299940  1
  B  B18  1  0.500000  0.500000  0.551375  1
  B  B19  1  0.500000  0.500000  0.802045  1
  B  B20  1  0.500000  0.797257  0.123531  1
  B  B21  1  0.500000  0.795439  0.374298  1
  B  B22  1  0.500000  0.795439  0.625702  1
  B  B23  1  0.500000  0.797257  0.876469  1
  B  B24  1  0.797257  0.500000  0.123531  1
  B  B25  1  0.795439  0.500000  0.374298  1
  B  B26  1  0.795439  0.500000  0.625702  1
  B  B27  1  0.797257  0.500000  0.876469  1
