# generated using pymatgen
data_CeErTa2(PN3)4
_symmetry_space_group_name_H-M   'P 1'
_cell_length_a   6.67502665
_cell_length_b   6.67502673
_cell_length_c   5.35035455
_cell_angle_alpha   78.60185446
_cell_angle_beta   78.60182468
_cell_angle_gamma   84.36801184
_symmetry_Int_Tables_number   1
_chemical_formula_structural   CeErTa2(PN3)4
_chemical_formula_sum   'Ce1 Er1 Ta2 P4 N12'
_cell_volume   228.64632900
_cell_formula_units_Z   1
loop_
 _symmetry_equiv_pos_site_id
 _symmetry_equiv_pos_as_xyz
  1  'x, y, z'
loop_
 _atom_site_type_symbol
 _atom_site_label
 _atom_site_symmetry_multiplicity
 _atom_site_fract_x
 _atom_site_fract_y
 _atom_site_fract_z
 _atom_site_occupancy
  Ce  Ce0  1  0.679116  0.320884  0.750000  1
  Er  Er1  1  0.321855  0.678145  0.250000  1
  Ta  Ta2  1  0.894836  0.105164  0.250000  1
  Ta  Ta3  1  0.109539  0.890461  0.750000  1
  P  P4  1  0.198148  0.374330  0.770170  1
  P  P5  1  0.372895  0.199120  0.271840  1
  P  P6  1  0.800880  0.627105  0.228160  1
  P  P7  1  0.625670  0.801852  0.729830  1
  N  N8  1  0.326864  0.370884  0.009749  1
  N  N9  1  0.031611  0.198387  0.859028  1
  N  N10  1  0.975984  0.794972  0.141082  1
  N  N11  1  0.364989  0.336668  0.502130  1
  N  N12  1  0.610232  0.117311  0.191154  1
  N  N13  1  0.389751  0.884149  0.817365  1
  N  N14  1  0.882689  0.389768  0.308846  1
  N  N15  1  0.663332  0.635011  0.997870  1
  N  N16  1  0.801613  0.968389  0.640972  1
  N  N17  1  0.115851  0.610249  0.682635  1
  N  N18  1  0.205028  0.024016  0.358918  1
  N  N19  1  0.629116  0.673136  0.490251  1
