# generated using pymatgen
data_Ca3Pr16LuPb16
_symmetry_space_group_name_H-M   'P 1'
_cell_length_a   8.33757766
_cell_length_b   8.57876967
_cell_length_c   16.36667400
_cell_angle_alpha   90.00000000
_cell_angle_beta   90.00000000
_cell_angle_gamma   89.95441545
_symmetry_Int_Tables_number   1
_chemical_formula_structural   Ca3Pr16LuPb16
_chemical_formula_sum   'Ca3 Pr16 Lu1 Pb16'
_cell_volume   1170.64494686
_cell_formula_units_Z   1
loop_
 _symmetry_equiv_pos_site_id
 _symmetry_equiv_pos_as_xyz
  1  'x, y, z'
loop_
 _atom_site_type_symbol
 _atom_site_label
 _atom_site_symmetry_multiplicity
 _atom_site_fract_x
 _atom_site_fract_y
 _atom_site_fract_z
 _atom_site_occupancy
  Ca  Ca0  1  0.309010  0.000058  0.750000  1
  Ca  Ca1  1  0.190832  0.501493  0.250000  1
  Ca  Ca2  1  0.690877  0.998514  0.250000  1
  Pr  Pr3  1  0.641166  0.161192  0.622556  1
  Pr  Pr4  1  0.141849  0.339392  0.877596  1
  Pr  Pr5  1  0.360294  0.837326  0.121900  1
  Pr  Pr6  1  0.860079  0.660145  0.380073  1
  Pr  Pr7  1  0.360294  0.837326  0.378100  1
  Pr  Pr8  1  0.860079  0.660145  0.119927  1
  Pr  Pr9  1  0.641166  0.161192  0.877444  1
  Pr  Pr10  1  0.141849  0.339392  0.622404  1
  Pr  Pr11  1  0.486255  0.681389  0.596805  1
  Pr  Pr12  1  0.988414  0.817616  0.904255  1
  Pr  Pr13  1  0.511251  0.317373  0.095027  1
  Pr  Pr14  1  0.010971  0.183921  0.405354  1
  Pr  Pr15  1  0.511251  0.317373  0.404973  1
  Pr  Pr16  1  0.010971  0.183921  0.094646  1
  Pr  Pr17  1  0.486255  0.681389  0.903195  1
  Pr  Pr18  1  0.988414  0.817616  0.595745  1
  Lu  Lu19  1  0.809280  0.498449  0.750000  1
  Pb  Pb20  1  0.701373  0.960260  0.459730  1
  Pb  Pb21  1  0.205238  0.539300  0.040362  1
  Pb  Pb22  1  0.297655  0.040257  0.959573  1
  Pb  Pb23  1  0.796344  0.463595  0.545182  1
  Pb  Pb24  1  0.297655  0.040257  0.540427  1
  Pb  Pb25  1  0.796344  0.463595  0.954818  1
  Pb  Pb26  1  0.701373  0.960260  0.040270  1
  Pb  Pb27  1  0.205238  0.539300  0.459638  1
  Pb  Pb28  1  0.448310  0.389786  0.750000  1
  Pb  Pb29  1  0.943451  0.119605  0.750000  1
  Pb  Pb30  1  0.557375  0.611031  0.250000  1
  Pb  Pb31  1  0.055969  0.886300  0.250000  1
  Pb  Pb32  1  0.683927  0.842740  0.750000  1
  Pb  Pb33  1  0.169554  0.648491  0.750000  1
  Pb  Pb34  1  0.318374  0.148088  0.250000  1
  Pb  Pb35  1  0.821263  0.351912  0.250000  1
