# generated using pymatgen
data_AgBr28
_symmetry_space_group_name_H-M   'P 1'
_cell_length_a   11.08100058
_cell_length_b   14.26806845
_cell_length_c   12.72108000
_cell_angle_alpha   123.45192622
_cell_angle_beta   99.87943871
_cell_angle_gamma   107.91255287
_symmetry_Int_Tables_number   1
_chemical_formula_structural   AgBr28
_chemical_formula_sum   'Ag1 Br28'
_cell_volume   1441.84298122
_cell_formula_units_Z   1
loop_
 _symmetry_equiv_pos_site_id
 _symmetry_equiv_pos_as_xyz
  1  'x, y, z'
loop_
 _atom_site_type_symbol
 _atom_site_label
 _atom_site_symmetry_multiplicity
 _atom_site_fract_x
 _atom_site_fract_y
 _atom_site_fract_z
 _atom_site_occupancy
  Ag  Ag0  1  0.500000  0.000000  0.000000  1
  Br  Br1  1  0.090885  0.123360  0.385423  1
  Br  Br2  1  0.566732  0.096111  0.392872  1
  Br  Br3  1  0.269311  0.341369  0.849229  1
  Br  Br4  1  0.775799  0.293201  0.816152  1
  Br  Br5  1  0.248753  0.576000  0.752248  1
  Br  Br6  1  0.743403  0.536550  0.674472  1
  Br  Br7  1  0.433268  0.903889  0.607128  1
  Br  Br8  1  0.909115  0.876640  0.614577  1
  Br  Br9  1  0.224201  0.706799  0.183848  1
  Br  Br10  1  0.730689  0.658631  0.150771  1
  Br  Br11  1  0.256597  0.463450  0.325528  1
  Br  Br12  1  0.751247  0.424000  0.247752  1
  Br  Br13  1  0.926233  0.080004  0.802667  1
  Br  Br14  1  0.458150  0.070995  0.853189  1
  Br  Br15  1  0.058306  0.693514  0.009853  1
  Br  Br16  1  0.586213  0.679400  0.010673  1
  Br  Br17  1  0.603518  0.230769  0.230090  1
  Br  Br18  1  0.187238  0.301424  0.349101  1
  Br  Br19  1  0.541850  0.929005  0.146811  1
  Br  Br20  1  0.073767  0.919996  0.197333  1
  Br  Br21  1  0.413787  0.320600  0.989327  1
  Br  Br22  1  0.941694  0.306486  0.990147  1
  Br  Br23  1  0.812762  0.698576  0.650899  1
  Br  Br24  1  0.396482  0.769231  0.769910  1
  Br  Br25  1  0.098101  0.374999  0.705554  1
  Br  Br26  1  0.586398  0.267915  0.632883  1
  Br  Br27  1  0.413602  0.732085  0.367117  1
  Br  Br28  1  0.901899  0.625001  0.294446  1
