# generated using pymatgen
data_Tb12Ga7Si12Au
_symmetry_space_group_name_H-M   'P 1'
_cell_length_a   5.97060705
_cell_length_b   9.42348404
_cell_length_c   11.62387811
_cell_angle_alpha   89.90269757
_cell_angle_beta   89.87392774
_cell_angle_gamma   90.04151751
_symmetry_Int_Tables_number   1
_chemical_formula_structural   Tb12Ga7Si12Au
_chemical_formula_sum   'Tb12 Ga7 Si12 Au1'
_cell_volume   654.00225174
_cell_formula_units_Z   1
loop_
 _symmetry_equiv_pos_site_id
 _symmetry_equiv_pos_as_xyz
  1  'x, y, z'
loop_
 _atom_site_type_symbol
 _atom_site_label
 _atom_site_symmetry_multiplicity
 _atom_site_fract_x
 _atom_site_fract_y
 _atom_site_fract_z
 _atom_site_occupancy
  Tb  Tb0  1  0.865434  0.749276  0.080528  1
  Tb  Tb1  1  0.633805  0.749598  0.581125  1
  Tb  Tb2  1  0.135293  0.251048  0.917948  1
  Tb  Tb3  1  0.366602  0.250436  0.418929  1
  Tb  Tb4  1  0.875747  0.498539  0.349509  1
  Tb  Tb5  1  0.619943  0.999093  0.849010  1
  Tb  Tb6  1  0.123602  0.998872  0.651478  1
  Tb  Tb7  1  0.375983  0.501002  0.151207  1
  Tb  Tb8  1  0.124068  0.500639  0.650804  1
  Tb  Tb9  1  0.374518  0.997769  0.151769  1
  Tb  Tb10  1  0.877203  0.000554  0.350888  1
  Tb  Tb11  1  0.623373  0.499723  0.848708  1
  Ga  Ga12  1  0.635284  0.445216  0.589063  1
  Ga  Ga13  1  0.134778  0.555040  0.910776  1
  Ga  Ga14  1  0.365870  0.945408  0.410767  1
  Ga  Ga15  1  0.131146  0.945448  0.912693  1
  Ga  Ga16  1  0.366090  0.555038  0.411098  1
  Ga  Ga17  1  0.865370  0.443615  0.088551  1
  Ga  Ga18  1  0.635057  0.054452  0.588963  1
  Si  Si19  1  0.161537  0.748809  0.278077  1
  Si  Si20  1  0.337925  0.749725  0.777022  1
  Si  Si21  1  0.838325  0.249347  0.721971  1
  Si  Si22  1  0.663226  0.249919  0.222165  1
  Si  Si23  1  0.398111  0.749779  0.990325  1
  Si  Si24  1  0.105035  0.749751  0.492112  1
  Si  Si25  1  0.595223  0.253196  0.008750  1
  Si  Si26  1  0.896261  0.249647  0.508947  1
  Si  Si27  1  0.584979  0.749850  0.297180  1
  Si  Si28  1  0.917602  0.750204  0.797666  1
  Si  Si29  1  0.417598  0.249647  0.701224  1
  Si  Si30  1  0.084009  0.253395  0.204983  1
  Au  Au31  1  0.871005  0.055966  0.085761  1
