# generated using pymatgen
data_TbZnAgPt3
_symmetry_space_group_name_H-M   'P 1'
_cell_length_a   5.18033598
_cell_length_b   5.18033713
_cell_length_c   5.18033732
_cell_angle_alpha   64.06636617
_cell_angle_beta   64.06635025
_cell_angle_gamma   64.06635484
_symmetry_Int_Tables_number   1
_chemical_formula_structural   TbZnAgPt3
_chemical_formula_sum   'Tb1 Zn1 Ag1 Pt3'
_cell_volume   107.09989738
_cell_formula_units_Z   1
loop_
 _symmetry_equiv_pos_site_id
 _symmetry_equiv_pos_as_xyz
  1  'x, y, z'
loop_
 _atom_site_type_symbol
 _atom_site_label
 _atom_site_symmetry_multiplicity
 _atom_site_fract_x
 _atom_site_fract_y
 _atom_site_fract_z
 _atom_site_occupancy
  Tb  Tb0  1  0.003469  0.003469  0.003469  1
  Zn  Zn1  1  0.623746  0.623746  0.623746  1
  Ag  Ag2  1  0.251415  0.251415  0.251415  1
  Pt  Pt3  1  0.622959  0.622959  0.125450  1
  Pt  Pt4  1  0.622959  0.125450  0.622959  1
  Pt  Pt5  1  0.125450  0.622959  0.622959  1
