# generated using pymatgen
data_YbAlCdPt3
_symmetry_space_group_name_H-M   'P 1'
_cell_length_a   5.15037995
_cell_length_b   5.15037966
_cell_length_c   5.15038086
_cell_angle_alpha   65.15366274
_cell_angle_beta   65.15366315
_cell_angle_gamma   65.15367007
_symmetry_Int_Tables_number   1
_chemical_formula_structural   YbAlCdPt3
_chemical_formula_sum   'Yb1 Al1 Cd1 Pt3'
_cell_volume   107.46309253
_cell_formula_units_Z   1
loop_
 _symmetry_equiv_pos_site_id
 _symmetry_equiv_pos_as_xyz
  1  'x, y, z'
loop_
 _atom_site_type_symbol
 _atom_site_label
 _atom_site_symmetry_multiplicity
 _atom_site_fract_x
 _atom_site_fract_y
 _atom_site_fract_z
 _atom_site_occupancy
  Yb  Yb0  1  0.002264  0.002264  0.002264  1
  Al  Al1  1  0.624390  0.624390  0.624390  1
  Cd  Cd2  1  0.250459  0.250459  0.250459  1
  Pt  Pt3  1  0.623900  0.623900  0.125087  1
  Pt  Pt4  1  0.623900  0.125087  0.623900  1
  Pt  Pt5  1  0.125087  0.623900  0.623900  1
