# generated using pymatgen
data_NaSr21(Ga4Si3)2
_symmetry_space_group_name_H-M   'P 1'
_cell_length_a   11.89323643
_cell_length_b   11.89323734
_cell_length_c   11.89323600
_cell_angle_alpha   60.00000374
_cell_angle_beta   60.00000118
_cell_angle_gamma   60.00000174
_symmetry_Int_Tables_number   1
_chemical_formula_structural   NaSr21(Ga4Si3)2
_chemical_formula_sum   'Na1 Sr21 Ga8 Si6'
_cell_volume   1189.55684096
_cell_formula_units_Z   1
loop_
 _symmetry_equiv_pos_site_id
 _symmetry_equiv_pos_as_xyz
  1  'x, y, z'
loop_
 _atom_site_type_symbol
 _atom_site_label
 _atom_site_symmetry_multiplicity
 _atom_site_fract_x
 _atom_site_fract_y
 _atom_site_fract_z
 _atom_site_occupancy
  Na  Na0  1  0.500000  0.500000  0.500000  1
  Sr  Sr1  1  0.872314  0.872314  0.383057  1
  Sr  Sr2  1  0.616943  0.127686  0.127686  1
  Sr  Sr3  1  0.872314  0.383057  0.872314  1
  Sr  Sr4  1  0.127686  0.127686  0.127686  1
  Sr  Sr5  1  0.383057  0.872314  0.872314  1
  Sr  Sr6  1  0.872314  0.872314  0.872314  1
  Sr  Sr7  1  0.170293  0.829707  0.500000  1
  Sr  Sr8  1  0.829707  0.500000  0.500000  1
  Sr  Sr9  1  0.127686  0.127686  0.616943  1
  Sr  Sr10  1  0.829707  0.170293  0.500000  1
  Sr  Sr11  1  0.170293  0.500000  0.500000  1
  Sr  Sr12  1  0.127686  0.616943  0.127686  1
  Sr  Sr13  1  0.500000  0.500000  0.170293  1
  Sr  Sr14  1  0.500000  0.170293  0.829707  1
  Sr  Sr15  1  0.500000  0.829707  0.170293  1
  Sr  Sr16  1  0.500000  0.500000  0.829707  1
  Sr  Sr17  1  0.500000  0.170293  0.500000  1
  Sr  Sr18  1  0.170293  0.500000  0.829707  1
  Sr  Sr19  1  0.000000  0.000000  0.000000  1
  Sr  Sr20  1  0.500000  0.829707  0.500000  1
  Sr  Sr21  1  0.829707  0.500000  0.170293  1
  Ga  Ga22  1  0.692959  0.921123  0.692959  1
  Ga  Ga23  1  0.692959  0.692959  0.921123  1
  Ga  Ga24  1  0.692959  0.692959  0.692959  1
  Ga  Ga25  1  0.307041  0.078877  0.307041  1
  Ga  Ga26  1  0.921123  0.692959  0.692959  1
  Ga  Ga27  1  0.307041  0.307041  0.078877  1
  Ga  Ga28  1  0.078877  0.307041  0.307041  1
  Ga  Ga29  1  0.307041  0.307041  0.307041  1
  Si  Si30  1  0.783791  0.216209  0.783791  1
  Si  Si31  1  0.783791  0.216209  0.216209  1
  Si  Si32  1  0.216209  0.783791  0.216209  1
  Si  Si33  1  0.216209  0.783791  0.783791  1
  Si  Si34  1  0.783791  0.783791  0.216209  1
  Si  Si35  1  0.216209  0.216209  0.783791  1
