# generated using pymatgen
data_Pr8Lu11Si16Tc
_symmetry_space_group_name_H-M   'P 1'
_cell_length_a   7.34585708
_cell_length_b   7.69349909
_cell_length_c   14.47131200
_cell_angle_alpha   90.00000000
_cell_angle_beta   90.00000000
_cell_angle_gamma   90.01705941
_symmetry_Int_Tables_number   1
_chemical_formula_structural   Pr8Lu11Si16Tc
_chemical_formula_sum   'Pr8 Lu11 Si16 Tc1'
_cell_volume   817.85115022
_cell_formula_units_Z   1
loop_
 _symmetry_equiv_pos_site_id
 _symmetry_equiv_pos_as_xyz
  1  'x, y, z'
loop_
 _atom_site_type_symbol
 _atom_site_label
 _atom_site_symmetry_multiplicity
 _atom_site_fract_x
 _atom_site_fract_y
 _atom_site_fract_z
 _atom_site_occupancy
  Pr  Pr0  1  0.019502  0.177026  0.403033  1
  Pr  Pr1  1  0.518383  0.323673  0.406264  1
  Pr  Pr2  1  0.488400  0.681990  0.897715  1
  Pr  Pr3  1  0.488400  0.681990  0.602285  1
  Pr  Pr4  1  0.978357  0.829083  0.601154  1
  Pr  Pr5  1  0.978357  0.829083  0.898846  1
  Pr  Pr6  1  0.518383  0.323673  0.093736  1
  Pr  Pr7  1  0.019502  0.177026  0.096967  1
  Lu  Lu8  1  0.322166  0.168094  0.627487  1
  Lu  Lu9  1  0.678526  0.825583  0.378678  1
  Lu  Lu10  1  0.179324  0.676533  0.376722  1
  Lu  Lu11  1  0.818976  0.319417  0.873205  1
  Lu  Lu12  1  0.818976  0.319417  0.626795  1
  Lu  Lu13  1  0.846089  0.492499  0.250000  1
  Lu  Lu14  1  0.346816  0.006842  0.250000  1
  Lu  Lu15  1  0.322166  0.168094  0.872513  1
  Lu  Lu16  1  0.179324  0.676533  0.123278  1
  Lu  Lu17  1  0.678526  0.825583  0.121322  1
  Lu  Lu18  1  0.154286  0.506864  0.750000  1
  Si  Si19  1  0.290290  0.876763  0.750000  1
  Si  Si20  1  0.476685  0.618713  0.250000  1
  Si  Si21  1  0.012152  0.107046  0.750000  1
  Si  Si22  1  0.524620  0.373115  0.750000  1
  Si  Si23  1  0.149617  0.467698  0.541035  1
  Si  Si24  1  0.972778  0.879440  0.250000  1
  Si  Si25  1  0.721040  0.122004  0.250000  1
  Si  Si26  1  0.854604  0.533231  0.037071  1
  Si  Si27  1  0.351287  0.966198  0.037421  1
  Si  Si28  1  0.149617  0.467698  0.958965  1
  Si  Si29  1  0.646450  0.031624  0.549182  1
  Si  Si30  1  0.351287  0.966198  0.462579  1
  Si  Si31  1  0.854604  0.533231  0.462929  1
  Si  Si32  1  0.780435  0.625274  0.750000  1
  Si  Si33  1  0.224700  0.378230  0.250000  1
  Si  Si34  1  0.646450  0.031624  0.950818  1
  Tc  Tc35  1  0.638923  0.012915  0.750000  1
