# generated using pymatgen
data_Dy8Y2Si6O
_symmetry_space_group_name_H-M   'P 1'
_cell_length_a   8.41858312
_cell_length_b   8.41645946
_cell_length_c   6.30794208
_cell_angle_alpha   90.01835411
_cell_angle_beta   89.99083383
_cell_angle_gamma   119.99165100
_symmetry_Int_Tables_number   1
_chemical_formula_structural   Dy8Y2Si6O
_chemical_formula_sum   'Dy8 Y2 Si6 O1'
_cell_volume   387.10009457
_cell_formula_units_Z   1
loop_
 _symmetry_equiv_pos_site_id
 _symmetry_equiv_pos_as_xyz
  1  'x, y, z'
loop_
 _atom_site_type_symbol
 _atom_site_label
 _atom_site_symmetry_multiplicity
 _atom_site_fract_x
 _atom_site_fract_y
 _atom_site_fract_z
 _atom_site_occupancy
  Dy  Dy0  1  0.333275  0.666609  0.499954  1
  Dy  Dy1  1  0.666725  0.333334  0.499954  1
  Dy  Dy2  1  0.666711  0.333340  0.000019  1
  Dy  Dy3  1  0.333289  0.666630  0.000019  1
  Dy  Dy4  1  0.000000  0.763760  0.259988  1
  Dy  Dy5  1  0.236188  0.236252  0.259980  1
  Dy  Dy6  1  0.763812  0.000064  0.259980  1
  Dy  Dy7  1  0.000000  0.236369  0.740022  1
  Y  Y8  1  0.763383  0.763399  0.740374  1
  Y  Y9  1  0.236617  0.000015  0.740374  1
  Si  Si10  1  0.000000  0.396822  0.249738  1
  Si  Si11  1  0.603139  0.603115  0.249774  1
  Si  Si12  1  0.396861  0.999976  0.249774  1
  Si  Si13  1  0.000000  0.603138  0.750246  1
  Si  Si14  1  0.396701  0.396747  0.750239  1
  Si  Si15  1  0.603299  0.000046  0.750239  1
  O  O16  1  0.000000  0.000384  0.499324  1
