# generated using pymatgen
data_Ce4DyCoPb3
_symmetry_space_group_name_H-M   'P 1'
_cell_length_a   9.48274743
_cell_length_b   9.48274820
_cell_length_c   6.43759100
_cell_angle_alpha   90.00000000
_cell_angle_beta   90.00000000
_cell_angle_gamma   118.83812768
_symmetry_Int_Tables_number   1
_chemical_formula_structural   Ce4DyCoPb3
_chemical_formula_sum   'Ce8 Dy2 Co2 Pb6'
_cell_volume   507.09449918
_cell_formula_units_Z   2
loop_
 _symmetry_equiv_pos_site_id
 _symmetry_equiv_pos_as_xyz
  1  'x, y, z'
loop_
 _atom_site_type_symbol
 _atom_site_label
 _atom_site_symmetry_multiplicity
 _atom_site_fract_x
 _atom_site_fract_y
 _atom_site_fract_z
 _atom_site_occupancy
  Ce  Ce0  1  0.224713  0.997982  0.250000  1
  Ce  Ce1  1  0.775287  0.002018  0.750000  1
  Ce  Ce2  1  0.331779  0.668221  0.500000  1
  Ce  Ce3  1  0.668221  0.331779  0.500000  1
  Ce  Ce4  1  0.997982  0.224713  0.250000  1
  Ce  Ce5  1  0.002018  0.775287  0.750000  1
  Ce  Ce6  1  0.331779  0.668221  0.000000  1
  Ce  Ce7  1  0.668221  0.331779  0.000000  1
  Dy  Dy8  1  0.244558  0.244558  0.750000  1
  Dy  Dy9  1  0.755442  0.755442  0.250000  1
  Co  Co10  1  0.000000  0.000000  0.000000  1
  Co  Co11  1  0.000000  0.000000  0.500000  1
  Pb  Pb12  1  0.397854  0.397854  0.250000  1
  Pb  Pb13  1  0.602146  0.602146  0.750000  1
  Pb  Pb14  1  0.003664  0.399530  0.750000  1
  Pb  Pb15  1  0.600470  0.996336  0.250000  1
  Pb  Pb16  1  0.399530  0.003664  0.750000  1
  Pb  Pb17  1  0.996336  0.600470  0.250000  1
