# generated using pymatgen
data_NbNi2P2Pd
_symmetry_space_group_name_H-M   'P 1'
_cell_length_a   3.64647000
_cell_length_b   6.11146200
_cell_length_c   6.97771600
_cell_angle_alpha   90.00000000
_cell_angle_beta   90.00000000
_cell_angle_gamma   90.00000000
_symmetry_Int_Tables_number   1
_chemical_formula_structural   NbNi2P2Pd
_chemical_formula_sum   'Nb2 Ni4 P4 Pd2'
_cell_volume   155.50023508
_cell_formula_units_Z   2
loop_
 _symmetry_equiv_pos_site_id
 _symmetry_equiv_pos_as_xyz
  1  'x, y, z'
loop_
 _atom_site_type_symbol
 _atom_site_label
 _atom_site_symmetry_multiplicity
 _atom_site_fract_x
 _atom_site_fract_y
 _atom_site_fract_z
 _atom_site_occupancy
  Nb  Nb0  1  0.750000  0.970129  0.172284  1
  Nb  Nb1  1  0.750000  0.470129  0.327716  1
  Ni  Ni2  1  0.750000  0.359805  0.925804  1
  Ni  Ni3  1  0.250000  0.137830  0.440811  1
  Ni  Ni4  1  0.750000  0.859805  0.574196  1
  Ni  Ni5  1  0.250000  0.637830  0.059189  1
  P  P6  1  0.250000  0.771975  0.373730  1
  P  P7  1  0.250000  0.271975  0.126270  1
  P  P8  1  0.750000  0.229953  0.622185  1
  P  P9  1  0.750000  0.729953  0.877815  1
  Pd  Pd10  1  0.250000  0.530308  0.664181  1
  Pd  Pd11  1  0.250000  0.030308  0.835819  1
