# generated using pymatgen
data_HoMn4NbP3
_symmetry_space_group_name_H-M   'P 1'
_cell_length_a   3.61368500
_cell_length_b   10.95523500
_cell_length_c   12.48625800
_cell_angle_alpha   90.00000000
_cell_angle_beta   90.00000000
_cell_angle_gamma   90.00000000
_symmetry_Int_Tables_number   1
_chemical_formula_structural   HoMn4NbP3
_chemical_formula_sum   'Ho4 Mn16 Nb4 P12'
_cell_volume   494.31557603
_cell_formula_units_Z   4
loop_
 _symmetry_equiv_pos_site_id
 _symmetry_equiv_pos_as_xyz
  1  'x, y, z'
loop_
 _atom_site_type_symbol
 _atom_site_label
 _atom_site_symmetry_multiplicity
 _atom_site_fract_x
 _atom_site_fract_y
 _atom_site_fract_z
 _atom_site_occupancy
  Ho  Ho0  1  0.250000  0.587367  0.708349  1
  Ho  Ho1  1  0.250000  0.912633  0.208349  1
  Ho  Ho2  1  0.750000  0.412633  0.291651  1
  Ho  Ho3  1  0.750000  0.087367  0.791651  1
  Mn  Mn4  1  0.250000  0.411345  0.492651  1
  Mn  Mn5  1  0.250000  0.088655  0.992651  1
  Mn  Mn6  1  0.750000  0.588655  0.507349  1
  Mn  Mn7  1  0.750000  0.911345  0.007349  1
  Mn  Mn8  1  0.250000  0.212517  0.179028  1
  Mn  Mn9  1  0.250000  0.287483  0.679028  1
  Mn  Mn10  1  0.750000  0.787483  0.820972  1
  Mn  Mn11  1  0.750000  0.712517  0.320972  1
  Mn  Mn12  1  0.250000  0.883982  0.696683  1
  Mn  Mn13  1  0.250000  0.616018  0.196683  1
  Mn  Mn14  1  0.750000  0.116018  0.303317  1
  Mn  Mn15  1  0.750000  0.383982  0.803317  1
  Mn  Mn16  1  0.250000  0.463317  0.933846  1
  Mn  Mn17  1  0.250000  0.036683  0.433846  1
  Mn  Mn18  1  0.750000  0.536683  0.066154  1
  Mn  Mn19  1  0.750000  0.963317  0.566154  1
  Nb  Nb20  1  0.250000  0.709887  0.983792  1
  Nb  Nb21  1  0.250000  0.790113  0.483792  1
  Nb  Nb22  1  0.750000  0.290113  0.016208  1
  Nb  Nb23  1  0.750000  0.209887  0.516208  1
  P  P24  1  0.250000  0.417940  0.118115  1
  P  P25  1  0.250000  0.082060  0.618115  1
  P  P26  1  0.750000  0.582060  0.881885  1
  P  P27  1  0.750000  0.917940  0.381885  1
  P  P28  1  0.250000  0.265451  0.866475  1
  P  P29  1  0.250000  0.234549  0.366475  1
  P  P30  1  0.750000  0.734549  0.133525  1
  P  P31  1  0.750000  0.765451  0.633525  1
  P  P32  1  0.250000  0.585383  0.382278  1
  P  P33  1  0.250000  0.914617  0.882278  1
  P  P34  1  0.750000  0.414617  0.617722  1
  P  P35  1  0.750000  0.085383  0.117722  1
