# generated using pymatgen
data_Co7NiIrS8
_symmetry_space_group_name_H-M   'P 1'
_cell_length_a   7.01592652
_cell_length_b   6.99768340
_cell_length_c   6.99768300
_cell_angle_alpha   60.00000664
_cell_angle_beta   60.08598475
_cell_angle_gamma   60.08599293
_symmetry_Int_Tables_number   1
_chemical_formula_structural   Co7NiIrS8
_chemical_formula_sum   'Co7 Ni1 Ir1 S8'
_cell_volume   243.24384004
_cell_formula_units_Z   1
loop_
 _symmetry_equiv_pos_site_id
 _symmetry_equiv_pos_as_xyz
  1  'x, y, z'
loop_
 _atom_site_type_symbol
 _atom_site_label
 _atom_site_symmetry_multiplicity
 _atom_site_fract_x
 _atom_site_fract_y
 _atom_site_fract_z
 _atom_site_occupancy
  Co  Co0  1  0.126276  0.621622  0.126050  1
  Co  Co1  1  0.126276  0.126050  0.621622  1
  Co  Co2  1  0.126276  0.126050  0.126050  1
  Co  Co3  1  0.378308  0.873897  0.873897  1
  Co  Co4  1  0.873249  0.379023  0.873865  1
  Co  Co5  1  0.873249  0.873865  0.379023  1
  Co  Co6  1  0.873249  0.873865  0.873865  1
  Ni  Ni7  1  0.617951  0.127350  0.127350  1
  Ir  Ir8  1  0.501373  0.499543  0.499543  1
  S  S9  1  0.243169  0.252277  0.252277  1
  S  S10  1  0.748027  0.750658  0.750658  1
  S  S11  1  0.747558  0.257172  0.257172  1
  S  S12  1  0.747558  0.257172  0.738098  1
  S  S13  1  0.747558  0.738098  0.257172  1
  S  S14  1  0.256641  0.743211  0.743211  1
  S  S15  1  0.256641  0.743211  0.256939  1
  S  S16  1  0.256641  0.256939  0.743211  1
