# generated using pymatgen
data_Tm10Ga3Bi2Pt
_symmetry_space_group_name_H-M   'P 1'
_cell_length_a   8.53339845
_cell_length_b   8.53339843
_cell_length_c   8.66282896
_cell_angle_alpha   124.54460156
_cell_angle_beta   124.54460027
_cell_angle_gamma   81.29792221
_symmetry_Int_Tables_number   1
_chemical_formula_structural   Tm10Ga3Bi2Pt
_chemical_formula_sum   'Tm10 Ga3 Bi2 Pt1'
_cell_volume   414.28924011
_cell_formula_units_Z   1
loop_
 _symmetry_equiv_pos_site_id
 _symmetry_equiv_pos_as_xyz
  1  'x, y, z'
loop_
 _atom_site_type_symbol
 _atom_site_label
 _atom_site_symmetry_multiplicity
 _atom_site_fract_x
 _atom_site_fract_y
 _atom_site_fract_z
 _atom_site_occupancy
  Tm  Tm0  1  0.997967  0.999746  0.997714  1
  Tm  Tm1  1  0.500254  0.502033  0.002286  1
  Tm  Tm2  1  0.784317  0.295600  0.799058  1
  Tm  Tm3  1  0.204400  0.715683  0.200942  1
  Tm  Tm4  1  0.485259  0.996542  0.200942  1
  Tm  Tm5  1  0.298621  0.468738  0.500000  1
  Tm  Tm6  1  0.031262  0.201379  0.500000  1
  Tm  Tm7  1  0.503458  0.014741  0.799058  1
  Tm  Tm8  1  0.705458  0.513290  0.500000  1
  Tm  Tm9  1  0.986710  0.794542  0.500000  1
  Ga  Ga10  1  0.144353  0.645398  0.789752  1
  Ga  Ga11  1  0.854602  0.355647  0.210248  1
  Ga  Ga12  1  0.639919  0.860081  0.500000  1
  Bi  Bi13  1  0.246176  0.253824  0.000000  1
  Bi  Bi14  1  0.746176  0.753824  0.000000  1
  Pt  Pt15  1  0.371067  0.128933  0.500000  1
