# generated using pymatgen
data_Dy10Ir5Au
_symmetry_space_group_name_H-M   'P 1'
_cell_length_a   11.04978221
_cell_length_b   10.99630800
_cell_length_c   6.36110223
_cell_angle_alpha   90.00000000
_cell_angle_beta   89.88664033
_cell_angle_gamma   90.00000000
_symmetry_Int_Tables_number   1
_chemical_formula_structural   Dy10Ir5Au
_chemical_formula_sum   'Dy20 Ir10 Au2'
_cell_volume   772.91571757
_cell_formula_units_Z   2
loop_
 _symmetry_equiv_pos_site_id
 _symmetry_equiv_pos_as_xyz
  1  'x, y, z'
loop_
 _atom_site_type_symbol
 _atom_site_label
 _atom_site_symmetry_multiplicity
 _atom_site_fract_x
 _atom_site_fract_y
 _atom_site_fract_z
 _atom_site_occupancy
  Dy  Dy0  1  0.292120  0.088780  0.373801  1
  Dy  Dy1  1  0.292120  0.911220  0.873801  1
  Dy  Dy2  1  0.698197  0.092134  0.866747  1
  Dy  Dy3  1  0.698197  0.907866  0.366747  1
  Dy  Dy4  1  0.578746  0.789900  0.878742  1
  Dy  Dy5  1  0.578746  0.210100  0.378742  1
  Dy  Dy6  1  0.408175  0.791154  0.378430  1
  Dy  Dy7  1  0.408175  0.208846  0.878430  1
  Dy  Dy8  1  0.209500  0.411032  0.620236  1
  Dy  Dy9  1  0.209500  0.588968  0.120236  1
  Dy  Dy10  1  0.789189  0.419246  0.121701  1
  Dy  Dy11  1  0.789189  0.580754  0.621701  1
  Dy  Dy12  1  0.916795  0.704870  0.137805  1
  Dy  Dy13  1  0.916795  0.295130  0.637805  1
  Dy  Dy14  1  0.096205  0.702641  0.622762  1
  Dy  Dy15  1  0.096205  0.297359  0.122762  1
  Dy  Dy16  1  0.009558  0.997480  0.499872  1
  Dy  Dy17  1  0.009558  0.002520  0.999872  1
  Dy  Dy18  1  0.499537  0.499013  0.000334  1
  Dy  Dy19  1  0.499537  0.500987  0.500334  1
  Ir  Ir20  1  0.154009  0.153943  0.750475  1
  Ir  Ir21  1  0.154009  0.846057  0.250475  1
  Ir  Ir22  1  0.655551  0.346351  0.747977  1
  Ir  Ir23  1  0.655551  0.653649  0.247977  1
  Ir  Ir24  1  0.347451  0.346128  0.251513  1
  Ir  Ir25  1  0.347451  0.653872  0.751513  1
  Ir  Ir26  1  0.500070  0.999685  0.122078  1
  Ir  Ir27  1  0.500070  0.000315  0.622078  1
  Ir  Ir28  1  0.999455  0.501052  0.877677  1
  Ir  Ir29  1  0.999455  0.498948  0.377677  1
  Au  Au30  1  0.845443  0.155153  0.249848  1
  Au  Au31  1  0.845443  0.844847  0.749848  1
