# generated using pymatgen
data_HoTcP2Ru
_symmetry_space_group_name_H-M   'P 1'
_cell_length_a   5.53356417
_cell_length_b   5.53356378
_cell_length_c   5.53356404
_cell_angle_alpha   136.34617149
_cell_angle_beta   136.34616958
_cell_angle_gamma   63.44560801
_symmetry_Int_Tables_number   1
_chemical_formula_structural   HoTcP2Ru
_chemical_formula_sum   'Ho1 Tc1 P2 Ru1'
_cell_volume   79.69464745
_cell_formula_units_Z   1
loop_
 _symmetry_equiv_pos_site_id
 _symmetry_equiv_pos_as_xyz
  1  'x, y, z'
loop_
 _atom_site_type_symbol
 _atom_site_label
 _atom_site_symmetry_multiplicity
 _atom_site_fract_x
 _atom_site_fract_y
 _atom_site_fract_z
 _atom_site_occupancy
  Ho  Ho0  1  0.000000  0.000000  0.000000  1
  Tc  Tc1  1  0.250000  0.750000  0.500000  1
  P  P2  1  0.371411  0.371411  0.000000  1
  P  P3  1  0.628589  0.628589  0.000000  1
  Ru  Ru4  1  0.750000  0.250000  0.500000  1
