# generated using pymatgen
data_Na4In3FeBr16
_symmetry_space_group_name_H-M   'P 1'
_cell_length_a   7.54505346
_cell_length_b   8.12650874
_cell_length_c   14.88041557
_cell_angle_alpha   86.83745740
_cell_angle_beta   90.31374308
_cell_angle_gamma   89.92851402
_symmetry_Int_Tables_number   1
_chemical_formula_structural   Na4In3FeBr16
_chemical_formula_sum   'Na4 In3 Fe1 Br16'
_cell_volume   910.98754342
_cell_formula_units_Z   1
loop_
 _symmetry_equiv_pos_site_id
 _symmetry_equiv_pos_as_xyz
  1  'x, y, z'
loop_
 _atom_site_type_symbol
 _atom_site_label
 _atom_site_symmetry_multiplicity
 _atom_site_fract_x
 _atom_site_fract_y
 _atom_site_fract_z
 _atom_site_occupancy
  Na  Na0  1  0.996603  0.848052  0.373573  1
  Na  Na1  1  0.494800  0.151097  0.127999  1
  Na  Na2  1  0.009873  0.151390  0.628451  1
  Na  Na3  1  0.504381  0.848345  0.870992  1
  In  In4  1  0.691717  0.298195  0.897361  1
  In  In5  1  0.808125  0.298495  0.398298  1
  In  In6  1  0.308302  0.701494  0.102194  1
  Fe  Fe7  1  0.186798  0.709755  0.601231  1
  Br  Br8  1  0.315869  0.685594  0.459232  1
  Br  Br9  1  0.820970  0.313781  0.054310  1
  Br  Br10  1  0.678917  0.311537  0.554548  1
  Br  Br11  1  0.178521  0.685914  0.945464  1
  Br  Br12  1  0.125808  0.188310  0.427865  1
  Br  Br13  1  0.625423  0.811032  0.072540  1
  Br  Br14  1  0.888872  0.800952  0.575057  1
  Br  Br15  1  0.374191  0.188915  0.926035  1
  Br  Br16  1  0.329491  0.923082  0.679018  1
  Br  Br17  1  0.835235  0.061279  0.815251  1
  Br  Br18  1  0.665150  0.060603  0.316320  1
  Br  Br19  1  0.165663  0.938262  0.184669  1
  Br  Br20  1  0.199568  0.459449  0.686813  1
  Br  Br21  1  0.703795  0.563650  0.801598  1
  Br  Br22  1  0.795701  0.564853  0.302782  1
  Br  Br23  1  0.296229  0.435964  0.198397  1
