# generated using pymatgen
data_CePr5Sm2(Si3Rh)4
_symmetry_space_group_name_H-M   'P 1'
_cell_length_a   8.24187970
_cell_length_b   8.29335912
_cell_length_c   8.38896200
_cell_angle_alpha   90.00000000
_cell_angle_beta   90.00000000
_cell_angle_gamma   120.20682552
_symmetry_Int_Tables_number   1
_chemical_formula_structural   CePr5Sm2(Si3Rh)4
_chemical_formula_sum   'Ce1 Pr5 Sm2 Si12 Rh4'
_cell_volume   495.54911585
_cell_formula_units_Z   1
loop_
 _symmetry_equiv_pos_site_id
 _symmetry_equiv_pos_as_xyz
  1  'x, y, z'
loop_
 _atom_site_type_symbol
 _atom_site_label
 _atom_site_symmetry_multiplicity
 _atom_site_fract_x
 _atom_site_fract_y
 _atom_site_fract_z
 _atom_site_occupancy
  Ce  Ce0  1  0.001988  0.500995  0.750000  1
  Pr  Pr1  1  0.999880  0.999940  0.250000  1
  Pr  Pr2  1  0.000168  0.000084  0.750000  1
  Pr  Pr3  1  0.500535  0.499460  0.250000  1
  Pr  Pr4  1  0.500535  0.001075  0.250000  1
  Pr  Pr5  1  0.998062  0.499031  0.250000  1
  Sm  Sm6  1  0.499218  0.500776  0.750000  1
  Sm  Sm7  1  0.499218  0.998443  0.750000  1
  Si  Si8  1  0.167381  0.834879  0.504415  1
  Si  Si9  1  0.167381  0.332503  0.504415  1
  Si  Si10  1  0.663589  0.831795  0.503444  1
  Si  Si11  1  0.832596  0.165039  0.502857  1
  Si  Si12  1  0.832596  0.667555  0.502857  1
  Si  Si13  1  0.336487  0.168243  0.502202  1
  Si  Si14  1  0.832596  0.165039  0.997143  1
  Si  Si15  1  0.832596  0.667555  0.997143  1
  Si  Si16  1  0.336487  0.168243  0.997798  1
  Si  Si17  1  0.167381  0.834879  0.995585  1
  Si  Si18  1  0.167381  0.332503  0.995585  1
  Si  Si19  1  0.663589  0.831795  0.996556  1
  Rh  Rh20  1  0.328787  0.664394  0.505649  1
  Rh  Rh21  1  0.671380  0.335690  0.512735  1
  Rh  Rh22  1  0.671380  0.335690  0.987265  1
  Rh  Rh23  1  0.328787  0.664394  0.994351  1
