# generated using pymatgen
data_Lu2Sc8Ga5Te
_symmetry_space_group_name_H-M   'P 1'
_cell_length_a   8.20068569
_cell_length_b   8.21344890
_cell_length_c   6.04538900
_cell_angle_alpha   90.00000000
_cell_angle_beta   90.00000000
_cell_angle_gamma   120.15761276
_symmetry_Int_Tables_number   1
_chemical_formula_structural   Lu2Sc8Ga5Te
_chemical_formula_sum   'Lu2 Sc8 Ga5 Te1'
_cell_volume   352.07781888
_cell_formula_units_Z   1
loop_
 _symmetry_equiv_pos_site_id
 _symmetry_equiv_pos_as_xyz
  1  'x, y, z'
loop_
 _atom_site_type_symbol
 _atom_site_label
 _atom_site_symmetry_multiplicity
 _atom_site_fract_x
 _atom_site_fract_y
 _atom_site_fract_z
 _atom_site_occupancy
  Lu  Lu0  1  0.227641  0.999129  0.250000  1
  Lu  Lu1  1  0.238867  0.239203  0.750000  1
  Sc  Sc2  1  0.323680  0.655856  0.993078  1
  Sc  Sc3  1  0.669442  0.345378  0.506878  1
  Sc  Sc4  1  0.669442  0.345378  0.993122  1
  Sc  Sc5  1  0.323680  0.655856  0.506922  1
  Sc  Sc6  1  0.998798  0.758363  0.750000  1
  Sc  Sc7  1  0.015010  0.251798  0.250000  1
  Sc  Sc8  1  0.764374  0.748967  0.250000  1
  Sc  Sc9  1  0.762500  0.999309  0.750000  1
  Ga  Ga10  1  0.602502  0.607701  0.750000  1
  Ga  Ga11  1  0.992391  0.396259  0.750000  1
  Ga  Ga12  1  0.999766  0.595343  0.250000  1
  Ga  Ga13  1  0.404510  0.404551  0.250000  1
  Ga  Ga14  1  0.397859  0.997184  0.750000  1
  Te  Te15  1  0.609538  0.999724  0.250000  1
