# generated using pymatgen
data_Ba3TbCrO6
_symmetry_space_group_name_H-M   'P 1'
_cell_length_a   7.17964507
_cell_length_b   7.17960878
_cell_length_c   7.17951357
_cell_angle_alpha   93.38424537
_cell_angle_beta   93.38444072
_cell_angle_gamma   93.38687453
_symmetry_Int_Tables_number   1
_chemical_formula_structural   Ba3TbCrO6
_chemical_formula_sum   'Ba6 Tb2 Cr2 O12'
_cell_volume   368.06544995
_cell_formula_units_Z   2
loop_
 _symmetry_equiv_pos_site_id
 _symmetry_equiv_pos_as_xyz
  1  'x, y, z'
loop_
 _atom_site_type_symbol
 _atom_site_label
 _atom_site_symmetry_multiplicity
 _atom_site_fract_x
 _atom_site_fract_y
 _atom_site_fract_z
 _atom_site_occupancy
  Ba  Ba0  1  0.614585  0.885400  0.249996  1
  Ba  Ba1  1  0.885399  0.249988  0.614638  1
  Ba  Ba2  1  0.250004  0.614617  0.885356  1
  Ba  Ba3  1  0.114624  0.749981  0.385407  1
  Ba  Ba4  1  0.750011  0.385391  0.114584  1
  Ba  Ba5  1  0.385361  0.114625  0.749997  1
  Tb  Tb6  1  0.250003  0.250006  0.249990  1
  Tb  Tb7  1  0.750001  0.750010  0.749991  1
  Cr  Cr8  1  0.499989  0.500022  0.500062  1
  Cr  Cr9  1  0.999964  0.999993  0.999964  1
  O  O10  1  0.535138  0.222990  0.407939  1
  O  O11  1  0.223003  0.407966  0.535072  1
  O  O12  1  0.407985  0.535114  0.222949  1
  O  O13  1  0.035100  0.907970  0.723021  1
  O  O14  1  0.907951  0.722985  0.035153  1
  O  O15  1  0.722967  0.035088  0.908002  1
  O  O16  1  0.464935  0.777023  0.592010  1
  O  O17  1  0.777035  0.592027  0.464851  1
  O  O18  1  0.592055  0.464886  0.776984  1
  O  O19  1  0.964882  0.092031  0.277050  1
  O  O20  1  0.092014  0.277014  0.964926  1
  O  O21  1  0.276991  0.964872  0.092056  1
