# generated using pymatgen
data_Cs4TiS4
_symmetry_space_group_name_H-M   'P 1'
_cell_length_a   8.75565192
_cell_length_b   10.23693400
_cell_length_c   15.13428000
_cell_angle_alpha   90.00000000
_cell_angle_beta   90.08622850
_cell_angle_gamma   90.00000000
_symmetry_Int_Tables_number   1
_chemical_formula_structural   Cs4TiS4
_chemical_formula_sum   'Cs16 Ti4 S16'
_cell_volume   1356.49958041
_cell_formula_units_Z   4
loop_
 _symmetry_equiv_pos_site_id
 _symmetry_equiv_pos_as_xyz
  1  'x, y, z'
loop_
 _atom_site_type_symbol
 _atom_site_label
 _atom_site_symmetry_multiplicity
 _atom_site_fract_x
 _atom_site_fract_y
 _atom_site_fract_z
 _atom_site_occupancy
  Cs  Cs0  1  0.999906  0.998708  0.999272  1
  Cs  Cs1  1  0.499603  0.002119  0.500880  1
  Cs  Cs2  1  0.999906  0.501292  0.999272  1
  Cs  Cs3  1  0.499603  0.497881  0.500880  1
  Cs  Cs4  1  0.991959  0.750000  0.423955  1
  Cs  Cs5  1  0.493931  0.250000  0.076749  1
  Cs  Cs6  1  0.007806  0.250000  0.576240  1
  Cs  Cs7  1  0.831109  0.057595  0.282996  1
  Cs  Cs8  1  0.330953  0.942558  0.215321  1
  Cs  Cs9  1  0.168722  0.557604  0.717639  1
  Cs  Cs10  1  0.668755  0.442421  0.783948  1
  Cs  Cs11  1  0.168722  0.942396  0.717639  1
  Cs  Cs12  1  0.668755  0.057579  0.783948  1
  Cs  Cs13  1  0.831109  0.442405  0.282996  1
  Cs  Cs14  1  0.330953  0.557442  0.215321  1
  Cs  Cs15  1  0.509224  0.750000  0.923457  1
  Ti  Ti16  1  0.761654  0.750000  0.666430  1
  Ti  Ti17  1  0.238173  0.250000  0.333369  1
  Ti  Ti18  1  0.738665  0.750000  0.165568  1
  Ti  Ti19  1  0.261482  0.250000  0.834669  1
  S  S20  1  0.000261  0.250000  0.825408  1
  S  S21  1  0.499591  0.250000  0.324334  1
  S  S22  1  0.500635  0.750000  0.675262  1
  S  S23  1  0.999912  0.750000  0.174937  1
  S  S24  1  0.658676  0.568656  0.092516  1
  S  S25  1  0.158638  0.431728  0.405912  1
  S  S26  1  0.341556  0.068702  0.907452  1
  S  S27  1  0.841095  0.931715  0.593803  1
  S  S28  1  0.341556  0.431298  0.907452  1
  S  S29  1  0.841095  0.568285  0.593803  1
  S  S30  1  0.658676  0.931344  0.092516  1
  S  S31  1  0.158638  0.068272  0.405912  1
  S  S32  1  0.635307  0.750000  0.305298  1
  S  S33  1  0.134797  0.250000  0.193442  1
  S  S34  1  0.364623  0.250000  0.694569  1
  S  S35  1  0.863954  0.750000  0.806827  1
