# generated using pymatgen
data_Y7HoSc12Si15As
_symmetry_space_group_name_H-M   'P 1'
_cell_length_a   7.14338748
_cell_length_b   7.37584372
_cell_length_c   13.98255202
_cell_angle_alpha   90.03496019
_cell_angle_beta   88.76847382
_cell_angle_gamma   90.15279279
_symmetry_Int_Tables_number   1
_chemical_formula_structural   Y7HoSc12Si15As
_chemical_formula_sum   'Y7 Ho1 Sc12 Si15 As1'
_cell_volume   736.54692019
_cell_formula_units_Z   1
loop_
 _symmetry_equiv_pos_site_id
 _symmetry_equiv_pos_as_xyz
  1  'x, y, z'
loop_
 _atom_site_type_symbol
 _atom_site_label
 _atom_site_symmetry_multiplicity
 _atom_site_fract_x
 _atom_site_fract_y
 _atom_site_fract_z
 _atom_site_occupancy
  Y  Y0  1  0.011548  0.176080  0.097220  1
  Y  Y1  1  0.988936  0.824490  0.902550  1
  Y  Y2  1  0.489139  0.675395  0.902839  1
  Y  Y3  1  0.994311  0.821868  0.595673  1
  Y  Y4  1  0.511280  0.325129  0.097293  1
  Y  Y5  1  0.003920  0.178073  0.403834  1
  Y  Y6  1  0.503180  0.321259  0.402250  1
  Ho  Ho7  1  0.501257  0.677751  0.597476  1
  Sc  Sc8  1  0.166469  0.500712  0.749767  1
  Sc  Sc9  1  0.833572  0.499415  0.252954  1
  Sc  Sc10  1  0.333751  0.000654  0.251563  1
  Sc  Sc11  1  0.666451  0.999043  0.748839  1
  Sc  Sc12  1  0.342320  0.170541  0.626579  1
  Sc  Sc13  1  0.658553  0.827774  0.373829  1
  Sc  Sc14  1  0.156468  0.671953  0.377027  1
  Sc  Sc15  1  0.667360  0.823407  0.125656  1
  Sc  Sc16  1  0.840608  0.329001  0.622707  1
  Sc  Sc17  1  0.332294  0.176098  0.873984  1
  Sc  Sc18  1  0.833463  0.322842  0.874405  1
  Sc  Sc19  1  0.166711  0.677193  0.125200  1
  Si  Si20  1  0.037971  0.116843  0.749431  1
  Si  Si21  1  0.961811  0.883543  0.249603  1
  Si  Si22  1  0.458307  0.617165  0.249063  1
  Si  Si23  1  0.540568  0.383256  0.750502  1
  Si  Si24  1  0.290161  0.870749  0.750075  1
  Si  Si25  1  0.710952  0.127586  0.249158  1
  Si  Si26  1  0.209125  0.373822  0.249710  1
  Si  Si27  1  0.791975  0.626844  0.750219  1
  Si  Si28  1  0.810650  0.540435  0.457335  1
  Si  Si29  1  0.329705  0.961697  0.460664  1
  Si  Si30  1  0.842985  0.535432  0.039376  1
  Si  Si31  1  0.670103  0.037850  0.540062  1
  Si  Si32  1  0.156690  0.465187  0.960349  1
  Si  Si33  1  0.656073  0.034809  0.959863  1
  Si  Si34  1  0.343959  0.965809  0.040151  1
  As  As35  1  0.187377  0.460294  0.542796  1
