# generated using pymatgen
data_YHo7(ErPb4)2
_symmetry_space_group_name_H-M   'P 1'
_cell_length_a   8.17715600
_cell_length_b   8.24569100
_cell_length_c   15.57685900
_cell_angle_alpha   89.99878897
_cell_angle_beta   90.00000000
_cell_angle_gamma   90.00000000
_symmetry_Int_Tables_number   1
_chemical_formula_structural   YHo7(ErPb4)2
_chemical_formula_sum   'Y2 Ho14 Er4 Pb16'
_cell_volume   1050.28999334
_cell_formula_units_Z   2
loop_
 _symmetry_equiv_pos_site_id
 _symmetry_equiv_pos_as_xyz
  1  'x, y, z'
loop_
 _atom_site_type_symbol
 _atom_site_label
 _atom_site_symmetry_multiplicity
 _atom_site_fract_x
 _atom_site_fract_y
 _atom_site_fract_z
 _atom_site_occupancy
  Y  Y0  1  0.535649  0.323879  0.599829  1
  Y  Y1  1  0.035649  0.176121  0.900171  1
  Ho  Ho2  1  0.377343  0.841193  0.879037  1
  Ho  Ho3  1  0.877343  0.658807  0.620963  1
  Ho  Ho4  1  0.622865  0.158610  0.379079  1
  Ho  Ho5  1  0.122865  0.341390  0.120921  1
  Ho  Ho6  1  0.622807  0.158759  0.120766  1
  Ho  Ho7  1  0.122807  0.341241  0.379234  1
  Ho  Ho8  1  0.377439  0.841150  0.620984  1
  Ho  Ho9  1  0.877439  0.658850  0.879016  1
  Ho  Ho10  1  0.535885  0.323977  0.899908  1
  Ho  Ho11  1  0.035885  0.176023  0.600092  1
  Ho  Ho12  1  0.464403  0.676251  0.400141  1
  Ho  Ho13  1  0.964403  0.823749  0.099859  1
  Ho  Ho14  1  0.464382  0.676226  0.099851  1
  Ho  Ho15  1  0.964382  0.823774  0.400149  1
  Er  Er16  1  0.208658  0.504237  0.749977  1
  Er  Er17  1  0.708658  0.995763  0.750023  1
  Er  Er18  1  0.790723  0.495933  0.249969  1
  Er  Er19  1  0.290723  0.004067  0.250031  1
  Pb  Pb20  1  0.281565  0.032928  0.043199  1
  Pb  Pb21  1  0.781565  0.467072  0.456801  1
  Pb  Pb22  1  0.719145  0.966356  0.542792  1
  Pb  Pb23  1  0.219145  0.533644  0.957208  1
  Pb  Pb24  1  0.718042  0.966129  0.957218  1
  Pb  Pb25  1  0.218042  0.533871  0.542782  1
  Pb  Pb26  1  0.281228  0.033290  0.457209  1
  Pb  Pb27  1  0.781228  0.466710  0.042791  1
  Pb  Pb28  1  0.571880  0.626582  0.750106  1
  Pb  Pb29  1  0.071880  0.873418  0.749894  1
  Pb  Pb30  1  0.427547  0.374624  0.249999  1
  Pb  Pb31  1  0.927547  0.125376  0.250001  1
  Pb  Pb32  1  0.348159  0.153823  0.750265  1
  Pb  Pb33  1  0.848159  0.346177  0.749735  1
  Pb  Pb34  1  0.652280  0.846213  0.249970  1
  Pb  Pb35  1  0.152280  0.653787  0.250030  1
