# generated using pymatgen
data_Nb2Fe3O8
_symmetry_space_group_name_H-M   'P 1'
_cell_length_a   10.16152401
_cell_length_b   10.16152331
_cell_length_c   5.26768054
_cell_angle_alpha   88.40614501
_cell_angle_beta   88.40614416
_cell_angle_gamma   35.00390602
_symmetry_Int_Tables_number   1
_chemical_formula_structural   Nb2Fe3O8
_chemical_formula_sum   'Nb4 Fe6 O16'
_cell_volume   311.87883153
_cell_formula_units_Z   2
loop_
 _symmetry_equiv_pos_site_id
 _symmetry_equiv_pos_as_xyz
  1  'x, y, z'
loop_
 _atom_site_type_symbol
 _atom_site_label
 _atom_site_symmetry_multiplicity
 _atom_site_fract_x
 _atom_site_fract_y
 _atom_site_fract_z
 _atom_site_occupancy
  Nb  Nb0  1  0.722760  0.048656  0.261497  1
  Nb  Nb1  1  0.951344  0.277240  0.238503  1
  Nb  Nb2  1  0.277240  0.951344  0.738503  1
  Nb  Nb3  1  0.048656  0.722760  0.761497  1
  Fe  Fe4  1  0.349878  0.650122  0.250000  1
  Fe  Fe5  1  0.650122  0.349878  0.750000  1
  Fe  Fe6  1  0.593181  0.865276  0.246664  1
  Fe  Fe7  1  0.134724  0.406819  0.253336  1
  Fe  Fe8  1  0.865276  0.593181  0.746664  1
  Fe  Fe9  1  0.406819  0.134724  0.753336  1
  O  O10  1  0.313847  0.568526  0.905175  1
  O  O11  1  0.431474  0.686153  0.594825  1
  O  O12  1  0.686153  0.431474  0.094825  1
  O  O13  1  0.568526  0.313847  0.405175  1
  O  O14  1  0.959354  0.179602  0.579493  1
  O  O15  1  0.820398  0.040646  0.920507  1
  O  O16  1  0.040646  0.820398  0.420507  1
  O  O17  1  0.179602  0.959354  0.079493  1
  O  O18  1  0.160039  0.460084  0.627543  1
  O  O19  1  0.539916  0.839961  0.872457  1
  O  O20  1  0.285389  0.081670  0.446713  1
  O  O21  1  0.918330  0.714611  0.053287  1
  O  O22  1  0.714611  0.918330  0.553287  1
  O  O23  1  0.081670  0.285389  0.946713  1
  O  O24  1  0.460084  0.160039  0.127543  1
  O  O25  1  0.839961  0.539916  0.372457  1
