# generated using pymatgen
data_NaHf2CoF11
_symmetry_space_group_name_H-M   'P 1'
_cell_length_a   5.70828795
_cell_length_b   5.70828778
_cell_length_c   7.78558926
_cell_angle_alpha   69.37891974
_cell_angle_beta   69.37892106
_cell_angle_gamma   72.93653144
_symmetry_Int_Tables_number   1
_chemical_formula_structural   NaHf2CoF11
_chemical_formula_sum   'Na1 Hf2 Co1 F11'
_cell_volume   218.02870604
_cell_formula_units_Z   1
loop_
 _symmetry_equiv_pos_site_id
 _symmetry_equiv_pos_as_xyz
  1  'x, y, z'
loop_
 _atom_site_type_symbol
 _atom_site_label
 _atom_site_symmetry_multiplicity
 _atom_site_fract_x
 _atom_site_fract_y
 _atom_site_fract_z
 _atom_site_occupancy
  Na  Na0  1  0.000000  0.000000  0.000000  1
  Hf  Hf1  1  0.494958  0.494958  0.235707  1
  Hf  Hf2  1  0.505042  0.505042  0.764293  1
  Co  Co3  1  0.000000  0.000000  0.500000  1
  F  F4  1  0.194447  0.780218  0.309063  1
  F  F5  1  0.219782  0.805553  0.690937  1
  F  F6  1  0.805553  0.219782  0.690937  1
  F  F7  1  0.780218  0.194447  0.309063  1
  F  F8  1  0.500000  0.500000  0.500000  1
  F  F9  1  0.669360  0.330640  0.000000  1
  F  F10  1  0.330640  0.669360  0.000000  1
  F  F11  1  0.750505  0.750505  0.646041  1
  F  F12  1  0.249495  0.249495  0.353959  1
  F  F13  1  0.731517  0.731517  0.111444  1
  F  F14  1  0.268483  0.268483  0.888556  1
