# generated using pymatgen
data_Rb3Tb(IO3)6
_symmetry_space_group_name_H-M   'P 1'
_cell_length_a   7.26832731
_cell_length_b   7.27297068
_cell_length_c   11.06039801
_cell_angle_alpha   87.53764537
_cell_angle_beta   107.36485328
_cell_angle_gamma   107.72881258
_symmetry_Int_Tables_number   1
_chemical_formula_structural   Rb3Tb(IO3)6
_chemical_formula_sum   'Rb3 Tb1 I6 O18'
_cell_volume   530.79018526
_cell_formula_units_Z   1
loop_
 _symmetry_equiv_pos_site_id
 _symmetry_equiv_pos_as_xyz
  1  'x, y, z'
loop_
 _atom_site_type_symbol
 _atom_site_label
 _atom_site_symmetry_multiplicity
 _atom_site_fract_x
 _atom_site_fract_y
 _atom_site_fract_z
 _atom_site_occupancy
  Rb  Rb0  1  0.000000  0.000000  0.000000  1
  Rb  Rb1  1  0.831804  0.030021  0.601337  1
  Rb  Rb2  1  0.168196  0.969979  0.398663  1
  Tb  Tb3  1  0.500000  0.500000  0.000000  1
  I  I4  1  0.033412  0.475746  0.192250  1
  I  I5  1  0.966588  0.524254  0.807750  1
  I  I6  1  0.561958  0.963139  0.194253  1
  I  I7  1  0.438042  0.036861  0.805747  1
  I  I8  1  0.414688  0.553642  0.633359  1
  I  I9  1  0.585312  0.446358  0.366641  1
  O  O10  1  0.841586  0.540910  0.056212  1
  O  O11  1  0.158414  0.459090  0.943788  1
  O  O12  1  0.957658  0.548792  0.320708  1
  O  O13  1  0.042342  0.451208  0.679292  1
  O  O14  1  0.926190  0.212177  0.184476  1
  O  O15  1  0.073810  0.787823  0.815524  1
  O  O16  1  0.574349  0.821282  0.061396  1
  O  O17  1  0.425651  0.178718  0.938604  1
  O  O18  1  0.296628  0.854163  0.188465  1
  O  O19  1  0.703372  0.145837  0.811535  1
  O  O20  1  0.691740  0.846352  0.327419  1
  O  O21  1  0.308260  0.153648  0.672581  1
  O  O22  1  0.519988  0.596001  0.808241  1
  O  O23  1  0.480012  0.403999  0.191759  1
  O  O24  1  0.662102  0.571920  0.610870  1
  O  O25  1  0.337898  0.428080  0.389130  1
  O  O26  1  0.408501  0.799390  0.599260  1
  O  O27  1  0.591499  0.200610  0.400740  1
