# generated using pymatgen
data_Hf6Al16Co3Cu4
_symmetry_space_group_name_H-M   'P 1'
_cell_length_a   8.54791055
_cell_length_b   8.53304390
_cell_length_c   8.54791090
_cell_angle_alpha   60.05751101
_cell_angle_beta   59.88497864
_cell_angle_gamma   60.05750847
_symmetry_Int_Tables_number   1
_chemical_formula_structural   Hf6Al16Co3Cu4
_chemical_formula_sum   'Hf6 Al16 Co3 Cu4'
_cell_volume   440.86569773
_cell_formula_units_Z   1
loop_
 _symmetry_equiv_pos_site_id
 _symmetry_equiv_pos_as_xyz
  1  'x, y, z'
loop_
 _atom_site_type_symbol
 _atom_site_label
 _atom_site_symmetry_multiplicity
 _atom_site_fract_x
 _atom_site_fract_y
 _atom_site_fract_z
 _atom_site_occupancy
  Hf  Hf0  1  0.688396  0.688396  0.311604  1
  Hf  Hf1  1  0.308856  0.691144  0.308856  1
  Hf  Hf2  1  0.688396  0.311604  0.311604  1
  Hf  Hf3  1  0.311604  0.311604  0.688396  1
  Hf  Hf4  1  0.691144  0.308856  0.691144  1
  Hf  Hf5  1  0.311604  0.688396  0.688396  1
  Al  Al6  1  0.875580  0.886433  0.351554  1
  Al  Al7  1  0.886433  0.351554  0.886433  1
  Al  Al8  1  0.351554  0.886433  0.875580  1
  Al  Al9  1  0.886433  0.875580  0.886433  1
  Al  Al10  1  0.124420  0.113567  0.648446  1
  Al  Al11  1  0.113567  0.648446  0.113567  1
  Al  Al12  1  0.648446  0.113567  0.124420  1
  Al  Al13  1  0.113567  0.124420  0.113567  1
  Al  Al14  1  0.671986  0.663589  0.000837  1
  Al  Al15  1  0.663589  0.000837  0.663589  1
  Al  Al16  1  0.000837  0.663589  0.671986  1
  Al  Al17  1  0.663589  0.671986  0.663589  1
  Al  Al18  1  0.328014  0.336411  0.999163  1
  Al  Al19  1  0.336411  0.999163  0.336411  1
  Al  Al20  1  0.999163  0.336411  0.328014  1
  Al  Al21  1  0.336411  0.328014  0.336411  1
  Co  Co22  1  0.000000  0.000000  0.000000  1
  Co  Co23  1  0.500000  0.000000  0.500000  1
  Co  Co24  1  0.000000  0.500000  0.000000  1
  Cu  Cu25  1  0.000000  0.000000  0.500000  1
  Cu  Cu26  1  0.000000  0.500000  0.500000  1
  Cu  Cu27  1  0.500000  0.500000  0.000000  1
  Cu  Cu28  1  0.500000  0.000000  0.000000  1
