# generated using pymatgen
data_Lu8Be4Si11B
_symmetry_space_group_name_H-M   'P 1'
_cell_length_a   7.57725700
_cell_length_b   7.57726382
_cell_length_c   7.98213300
_cell_angle_alpha   90.00083177
_cell_angle_beta   89.99911530
_cell_angle_gamma   120.27042982
_symmetry_Int_Tables_number   1
_chemical_formula_structural   Lu8Be4Si11B
_chemical_formula_sum   'Lu8 Be4 Si11 B1'
_cell_volume   395.80756452
_cell_formula_units_Z   1
loop_
 _symmetry_equiv_pos_site_id
 _symmetry_equiv_pos_as_xyz
  1  'x, y, z'
loop_
 _atom_site_type_symbol
 _atom_site_label
 _atom_site_symmetry_multiplicity
 _atom_site_fract_x
 _atom_site_fract_y
 _atom_site_fract_z
 _atom_site_occupancy
  Lu  Lu0  1  0.998433  0.001573  0.751463  1
  Lu  Lu1  1  0.998470  0.001531  0.248550  1
  Lu  Lu2  1  0.498539  0.501457  0.752410  1
  Lu  Lu3  1  0.504367  0.003455  0.752227  1
  Lu  Lu4  1  0.996544  0.495634  0.752227  1
  Lu  Lu5  1  0.498772  0.501233  0.247664  1
  Lu  Lu6  1  0.995956  0.495331  0.247747  1
  Lu  Lu7  1  0.504666  0.004039  0.247745  1
  Be  Be8  1  0.681441  0.318559  0.999348  1
  Be  Be9  1  0.666396  0.333604  0.501218  1
  Be  Be10  1  0.332806  0.667193  0.498754  1
  Be  Be11  1  0.335816  0.664185  0.000814  1
  Si  Si12  1  0.821507  0.651586  0.999921  1
  Si  Si13  1  0.348414  0.178492  0.999921  1
  Si  Si14  1  0.826614  0.173385  0.499977  1
  Si  Si15  1  0.826720  0.653831  0.500028  1
  Si  Si16  1  0.346169  0.173279  0.500026  1
  Si  Si17  1  0.173329  0.826671  0.499933  1
  Si  Si18  1  0.653701  0.826683  0.500007  1
  Si  Si19  1  0.173317  0.346299  0.500006  1
  Si  Si20  1  0.173135  0.826863  0.000082  1
  Si  Si21  1  0.667901  0.853008  0.000084  1
  Si  Si22  1  0.146993  0.332101  0.000085  1
  B  B23  1  0.829995  0.170005  0.999764  1
