# generated using pymatgen
data_TbYbY2(B6Ru)2
_symmetry_space_group_name_H-M   'P 1'
_cell_length_a   3.66080800
_cell_length_b   9.15725087
_cell_length_c   11.54950834
_cell_angle_alpha   89.79503996
_cell_angle_beta   90.00000000
_cell_angle_gamma   90.00000000
_symmetry_Int_Tables_number   1
_chemical_formula_structural   TbYbY2(B6Ru)2
_chemical_formula_sum   'Tb2 Yb2 Y4 B24 Ru4'
_cell_volume   387.17096628
_cell_formula_units_Z   2
loop_
 _symmetry_equiv_pos_site_id
 _symmetry_equiv_pos_as_xyz
  1  'x, y, z'
loop_
 _atom_site_type_symbol
 _atom_site_label
 _atom_site_symmetry_multiplicity
 _atom_site_fract_x
 _atom_site_fract_y
 _atom_site_fract_z
 _atom_site_occupancy
  Tb  Tb0  1  0.000000  0.822804  0.086232  1
  Tb  Tb1  1  0.000000  0.177196  0.913768  1
  Yb  Yb2  1  0.000000  0.325330  0.414991  1
  Yb  Yb3  1  0.000000  0.674670  0.585009  1
  Y  Y4  1  0.000000  0.941544  0.370079  1
  Y  Y5  1  0.000000  0.058456  0.629921  1
  Y  Y6  1  0.000000  0.442431  0.131179  1
  Y  Y7  1  0.000000  0.557569  0.868821  1
  B  B8  1  0.500000  0.554096  0.432585  1
  B  B9  1  0.500000  0.445904  0.567415  1
  B  B10  1  0.500000  0.053861  0.067206  1
  B  B11  1  0.500000  0.946139  0.932794  1
  B  B12  1  0.500000  0.747056  0.418124  1
  B  B13  1  0.500000  0.252944  0.581876  1
  B  B14  1  0.500000  0.247657  0.081648  1
  B  B15  1  0.500000  0.752343  0.918352  1
  B  B16  1  0.500000  0.790219  0.265246  1
  B  B17  1  0.500000  0.209781  0.734754  1
  B  B18  1  0.500000  0.289320  0.234778  1
  B  B19  1  0.500000  0.710680  0.765222  1
  B  B20  1  0.500000  0.631376  0.185930  1
  B  B21  1  0.500000  0.368624  0.814070  1
  B  B22  1  0.500000  0.131039  0.313885  1
  B  B23  1  0.500000  0.868961  0.686115  1
  B  B24  1  0.500000  0.983728  0.211639  1
  B  B25  1  0.500000  0.016272  0.788361  1
  B  B26  1  0.500000  0.484079  0.288880  1
  B  B27  1  0.500000  0.515921  0.711120  1
  B  B28  1  0.500000  0.604012  0.028689  1
  B  B29  1  0.500000  0.395988  0.971311  1
  B  B30  1  0.500000  0.100587  0.472026  1
  B  B31  1  0.500000  0.899413  0.527974  1
  Ru  Ru32  1  0.000000  0.639453  0.319559  1
  Ru  Ru33  1  0.000000  0.360547  0.680441  1
  Ru  Ru34  1  0.000000  0.136870  0.178167  1
  Ru  Ru35  1  0.000000  0.863130  0.821833  1
