# generated using pymatgen
data_HoTm15Cd4Co3Ru
_symmetry_space_group_name_H-M   'P 1'
_cell_length_a   9.43174533
_cell_length_b   9.38164404
_cell_length_c   9.38164400
_cell_angle_alpha   60.00000014
_cell_angle_beta   60.17556418
_cell_angle_gamma   60.17557079
_symmetry_Int_Tables_number   1
_chemical_formula_structural   HoTm15Cd4Co3Ru
_chemical_formula_sum   'Ho1 Tm15 Cd4 Co3 Ru1'
_cell_volume   588.54865734
_cell_formula_units_Z   1
loop_
 _symmetry_equiv_pos_site_id
 _symmetry_equiv_pos_as_xyz
  1  'x, y, z'
loop_
 _atom_site_type_symbol
 _atom_site_label
 _atom_site_symmetry_multiplicity
 _atom_site_fract_x
 _atom_site_fract_y
 _atom_site_fract_z
 _atom_site_occupancy
  Ho  Ho0  1  0.962124  0.345959  0.345959  1
  Tm  Tm1  1  0.937680  0.937179  0.562570  1
  Tm  Tm2  1  0.815198  0.188353  0.188353  1
  Tm  Tm3  1  0.937680  0.562570  0.562570  1
  Tm  Tm4  1  0.937680  0.562570  0.937179  1
  Tm  Tm5  1  0.815198  0.808095  0.188353  1
  Tm  Tm6  1  0.341946  0.349745  0.349745  1
  Tm  Tm7  1  0.562398  0.939328  0.939328  1
  Tm  Tm8  1  0.562398  0.939328  0.558947  1
  Tm  Tm9  1  0.188675  0.811715  0.811715  1
  Tm  Tm10  1  0.188675  0.187895  0.811715  1
  Tm  Tm11  1  0.341946  0.349745  0.958564  1
  Tm  Tm12  1  0.341946  0.958564  0.349745  1
  Tm  Tm13  1  0.815198  0.188353  0.808095  1
  Tm  Tm14  1  0.562398  0.558947  0.939328  1
  Tm  Tm15  1  0.188675  0.811715  0.187895  1
  Cd  Cd16  1  0.581296  0.580750  0.257205  1
  Cd  Cd17  1  0.258525  0.580492  0.580492  1
  Cd  Cd18  1  0.581296  0.580750  0.580750  1
  Cd  Cd19  1  0.581296  0.257205  0.580750  1
  Co  Co20  1  0.140479  0.140678  0.140678  1
  Co  Co21  1  0.140479  0.578166  0.140678  1
  Co  Co22  1  0.140479  0.140678  0.578166  1
  Ru  Ru23  1  0.576341  0.141220  0.141220  1
