# generated using pymatgen
data_Y9Er11Bi12
_symmetry_space_group_name_H-M   'P 1'
_cell_length_a   8.24095136
_cell_length_b   9.47177205
_cell_length_c   12.05781047
_cell_angle_alpha   90.00400428
_cell_angle_beta   90.03183046
_cell_angle_gamma   89.98890426
_symmetry_Int_Tables_number   1
_chemical_formula_structural   Y9Er11Bi12
_chemical_formula_sum   'Y9 Er11 Bi12'
_cell_volume   941.18926563
_cell_formula_units_Z   1
loop_
 _symmetry_equiv_pos_site_id
 _symmetry_equiv_pos_as_xyz
  1  'x, y, z'
loop_
 _atom_site_type_symbol
 _atom_site_label
 _atom_site_symmetry_multiplicity
 _atom_site_fract_x
 _atom_site_fract_y
 _atom_site_fract_z
 _atom_site_occupancy
  Y  Y0  1  0.186282  0.749994  0.718805  1
  Y  Y1  1  0.686300  0.749999  0.781220  1
  Y  Y2  1  0.813729  0.249831  0.281055  1
  Y  Y3  1  0.313632  0.249977  0.218753  1
  Y  Y4  1  0.806542  0.436994  0.559897  1
  Y  Y5  1  0.353879  0.749972  0.215427  1
  Y  Y6  1  0.853790  0.749871  0.284595  1
  Y  Y7  1  0.645767  0.249668  0.784768  1
  Y  Y8  1  0.146332  0.249724  0.715537  1
  Er  Er9  1  0.025867  0.749935  0.989032  1
  Er  Er10  1  0.525622  0.750044  0.510987  1
  Er  Er11  1  0.974187  0.249962  0.010999  1
  Er  Er12  1  0.473682  0.249677  0.488980  1
  Er  Er13  1  0.306409  0.435782  0.940157  1
  Er  Er14  1  0.806383  0.064003  0.559952  1
  Er  Er15  1  0.693624  0.935750  0.059864  1
  Er  Er16  1  0.193611  0.564345  0.440053  1
  Er  Er17  1  0.693570  0.564277  0.059878  1
  Er  Er18  1  0.193771  0.935778  0.440010  1
  Er  Er19  1  0.306371  0.064191  0.940196  1
  Bi  Bi20  1  0.433773  0.003671  0.673147  1
  Bi  Bi21  1  0.934005  0.496087  0.827136  1
  Bi  Bi22  1  0.566109  0.503676  0.326767  1
  Bi  Bi23  1  0.066199  0.996072  0.173034  1
  Bi  Bi24  1  0.566138  0.996124  0.326916  1
  Bi  Bi25  1  0.066264  0.503790  0.172968  1
  Bi  Bi26  1  0.433514  0.496033  0.673183  1
  Bi  Bi27  1  0.933867  0.003737  0.827011  1
  Bi  Bi28  1  0.408301  0.750010  0.958070  1
  Bi  Bi29  1  0.908838  0.751353  0.541686  1
  Bi  Bi30  1  0.591748  0.250029  0.042029  1
  Bi  Bi31  1  0.091894  0.249644  0.457891  1
