# generated using pymatgen
data_DyThFe9P7Ru3
_symmetry_space_group_name_H-M   'P 1'
_cell_length_a   9.05661900
_cell_length_b   9.05661691
_cell_length_c   3.73920100
_cell_angle_alpha   90.00000000
_cell_angle_beta   90.00000000
_cell_angle_gamma   120.00000399
_symmetry_Int_Tables_number   1
_chemical_formula_structural   DyThFe9P7Ru3
_chemical_formula_sum   'Dy1 Th1 Fe9 P7 Ru3'
_cell_volume   265.60822589
_cell_formula_units_Z   1
loop_
 _symmetry_equiv_pos_site_id
 _symmetry_equiv_pos_as_xyz
  1  'x, y, z'
loop_
 _atom_site_type_symbol
 _atom_site_label
 _atom_site_symmetry_multiplicity
 _atom_site_fract_x
 _atom_site_fract_y
 _atom_site_fract_z
 _atom_site_occupancy
  Dy  Dy0  1  0.666667  0.333333  0.000000  1
  Th  Th1  1  0.333333  0.666667  0.500000  1
  Fe  Fe2  1  0.369821  0.941972  0.000000  1
  Fe  Fe3  1  0.058028  0.427849  0.000000  1
  Fe  Fe4  1  0.572151  0.630179  0.000000  1
  Fe  Fe5  1  0.876931  0.724883  0.000000  1
  Fe  Fe6  1  0.275117  0.152048  0.000000  1
  Fe  Fe7  1  0.847952  0.123069  0.000000  1
  Fe  Fe8  1  0.945372  0.562927  0.500000  1
  Fe  Fe9  1  0.437073  0.382446  0.500000  1
  Fe  Fe10  1  0.617554  0.054628  0.500000  1
  P  P11  1  0.101206  0.694654  0.000000  1
  P  P12  1  0.305346  0.406553  0.000000  1
  P  P13  1  0.593447  0.898794  0.000000  1
  P  P14  1  0.707505  0.592573  0.500000  1
  P  P15  1  0.407427  0.114932  0.500000  1
  P  P16  1  0.885068  0.292495  0.500000  1
  P  P17  1  0.000000  0.000000  0.000000  1
  Ru  Ru18  1  0.119263  0.901638  0.500000  1
  Ru  Ru19  1  0.098362  0.217626  0.500000  1
  Ru  Ru20  1  0.782374  0.880737  0.500000  1
