# generated using pymatgen
data_Hf6SiTc6As4P
_symmetry_space_group_name_H-M   'P 1'
_cell_length_a   7.74963587
_cell_length_b   7.75033907
_cell_length_c   7.74963742
_cell_angle_alpha   127.20606420
_cell_angle_beta   125.45272667
_cell_angle_gamma   79.35329329
_symmetry_Int_Tables_number   1
_chemical_formula_structural   Hf6SiTc6As4P
_chemical_formula_sum   'Hf6 Si1 Tc6 As4 P1'
_cell_volume   291.93980677
_cell_formula_units_Z   1
loop_
 _symmetry_equiv_pos_site_id
 _symmetry_equiv_pos_as_xyz
  1  'x, y, z'
loop_
 _atom_site_type_symbol
 _atom_site_label
 _atom_site_symmetry_multiplicity
 _atom_site_fract_x
 _atom_site_fract_y
 _atom_site_fract_z
 _atom_site_occupancy
  Hf  Hf0  1  0.453650  0.660162  0.706512  1
  Hf  Hf1  1  0.551663  0.253046  0.201383  1
  Hf  Hf2  1  0.750179  0.850045  0.599866  1
  Hf  Hf3  1  0.250033  0.852679  0.102645  1
  Hf  Hf4  1  0.046200  0.253145  0.706945  1
  Hf  Hf5  1  0.948225  0.649414  0.201189  1
  Si  Si6  1  0.749842  0.249960  0.000118  1
  Tc  Tc7  1  0.485881  0.498813  0.984684  1
  Tc  Tc8  1  0.014128  0.498813  0.512932  1
  Tc  Tc9  1  0.137097  0.253392  0.145814  1
  Tc  Tc10  1  0.892720  0.008749  0.146190  1
  Tc  Tc11  1  0.362559  0.008749  0.616030  1
  Tc  Tc12  1  0.607578  0.253392  0.616296  1
  As  As13  1  0.333376  0.586727  0.253526  1
  As  As14  1  0.666789  0.920307  0.253425  1
  As  As15  1  0.166882  0.920307  0.753518  1
  As  As16  1  0.833201  0.586727  0.753350  1
  P  P17  1  0.249997  0.255175  0.505178  1
