# generated using pymatgen
data_Li2Dy5In9
_symmetry_space_group_name_H-M   'P 1'
_cell_length_a   10.05484900
_cell_length_b   10.05484900
_cell_length_c   15.03612500
_cell_angle_alpha   90.00000000
_cell_angle_beta   90.00000000
_cell_angle_gamma   90.00000000
_symmetry_Int_Tables_number   1
_chemical_formula_structural   Li2Dy5In9
_chemical_formula_sum   'Li8 Dy20 In36'
_cell_volume   1520.15206327
_cell_formula_units_Z   4
loop_
 _symmetry_equiv_pos_site_id
 _symmetry_equiv_pos_as_xyz
  1  'x, y, z'
loop_
 _atom_site_type_symbol
 _atom_site_label
 _atom_site_symmetry_multiplicity
 _atom_site_fract_x
 _atom_site_fract_y
 _atom_site_fract_z
 _atom_site_occupancy
  Li  Li0  1  0.500000  0.500000  0.898771  1
  Li  Li1  1  0.000000  0.000000  0.408074  1
  Li  Li2  1  0.500000  0.500000  0.408074  1
  Li  Li3  1  0.000000  0.000000  0.591926  1
  Li  Li4  1  0.500000  0.500000  0.591926  1
  Li  Li5  1  0.000000  0.000000  0.898771  1
  Li  Li6  1  0.000000  0.000000  0.101229  1
  Li  Li7  1  0.500000  0.500000  0.101229  1
  Dy  Dy8  1  0.778356  0.278356  0.627628  1
  Dy  Dy9  1  0.781460  0.281460  0.128261  1
  Dy  Dy10  1  0.278356  0.221644  0.372372  1
  Dy  Dy11  1  0.718540  0.218540  0.871739  1
  Dy  Dy12  1  0.000000  0.500000  0.313445  1
  Dy  Dy13  1  0.781460  0.718540  0.128261  1
  Dy  Dy14  1  0.721644  0.778356  0.372372  1
  Dy  Dy15  1  0.500000  0.000000  0.157802  1
  Dy  Dy16  1  0.281460  0.781460  0.871739  1
  Dy  Dy17  1  0.721644  0.221644  0.372372  1
  Dy  Dy18  1  0.281460  0.218540  0.871739  1
  Dy  Dy19  1  0.778356  0.721644  0.627628  1
  Dy  Dy20  1  0.218540  0.281460  0.128261  1
  Dy  Dy21  1  0.221644  0.721644  0.627628  1
  Dy  Dy22  1  0.278356  0.778356  0.372372  1
  Dy  Dy23  1  0.718540  0.781460  0.871739  1
  Dy  Dy24  1  0.221644  0.278356  0.627628  1
  Dy  Dy25  1  0.218540  0.718540  0.128261  1
  Dy  Dy26  1  0.500000  0.000000  0.686555  1
  Dy  Dy27  1  0.000000  0.500000  0.842198  1
  In  In28  1  0.767393  0.500000  0.475006  1
  In  In29  1  0.299895  0.500000  0.267703  1
  In  In30  1  0.500000  0.000000  0.376958  1
  In  In31  1  0.000000  0.500000  0.100188  1
  In  In32  1  0.211071  0.000000  0.231543  1
  In  In33  1  0.500000  0.767393  0.524994  1
  In  In34  1  0.500000  0.254677  0.022366  1
  In  In35  1  0.000000  0.754677  0.977634  1
  In  In36  1  0.200105  0.000000  0.732297  1
  In  In37  1  0.500000  0.288929  0.231543  1
  In  In38  1  0.000000  0.788929  0.768457  1
  In  In39  1  0.000000  0.200105  0.267703  1
  In  In40  1  0.799895  0.000000  0.732297  1
  In  In41  1  0.000000  0.500000  0.623042  1
  In  In42  1  0.788929  0.000000  0.231543  1
  In  In43  1  0.500000  0.745323  0.022366  1
  In  In44  1  0.000000  0.732607  0.475006  1
  In  In45  1  0.000000  0.245323  0.977634  1
  In  In46  1  0.500000  0.299895  0.732297  1
  In  In47  1  0.500000  0.000000  0.899812  1
  In  In48  1  0.254677  0.500000  0.977634  1
  In  In49  1  0.288929  0.500000  0.768457  1
  In  In50  1  0.500000  0.232607  0.524994  1
  In  In51  1  0.000000  0.799895  0.267703  1
  In  In52  1  0.732607  0.000000  0.524994  1
  In  In53  1  0.267393  0.000000  0.524994  1
  In  In54  1  0.000000  0.211071  0.768457  1
  In  In55  1  0.711071  0.500000  0.768457  1
  In  In56  1  0.700105  0.500000  0.267703  1
  In  In57  1  0.500000  0.711071  0.231543  1
  In  In58  1  0.745323  0.500000  0.977634  1
  In  In59  1  0.754677  0.000000  0.022366  1
  In  In60  1  0.245323  0.000000  0.022366  1
  In  In61  1  0.500000  0.700105  0.732297  1
  In  In62  1  0.232607  0.500000  0.475006  1
  In  In63  1  0.000000  0.267393  0.475006  1
