# generated using pymatgen
data_SrLa8Cd(Si3O13)2
_symmetry_space_group_name_H-M   'P 1'
_cell_length_a   9.75656400
_cell_length_b   9.75656413
_cell_length_c   7.20323200
_cell_angle_alpha   90.00000000
_cell_angle_beta   90.00000000
_cell_angle_gamma   119.99999279
_symmetry_Int_Tables_number   1
_chemical_formula_structural   SrLa8Cd(Si3O13)2
_chemical_formula_sum   'Sr1 La8 Cd1 Si6 O26'
_cell_volume   593.81596135
_cell_formula_units_Z   1
loop_
 _symmetry_equiv_pos_site_id
 _symmetry_equiv_pos_as_xyz
  1  'x, y, z'
loop_
 _atom_site_type_symbol
 _atom_site_label
 _atom_site_symmetry_multiplicity
 _atom_site_fract_x
 _atom_site_fract_y
 _atom_site_fract_z
 _atom_site_occupancy
  Sr  Sr0  1  0.333333  0.666667  0.568741  1
  La  La1  1  0.242978  0.232512  0.815949  1
  La  La2  1  0.989534  0.757022  0.815949  1
  La  La3  1  0.767488  0.010466  0.815949  1
  La  La4  1  0.757197  0.769586  0.314079  1
  La  La5  1  0.012389  0.242803  0.314079  1
  La  La6  1  0.230414  0.987611  0.314079  1
  La  La7  1  0.666667  0.333333  0.556091  1
  La  La8  1  0.333333  0.666667  0.068980  1
  Cd  Cd9  1  0.666667  0.333333  0.053657  1
  Si  Si10  1  0.025009  0.399317  0.820710  1
  Si  Si11  1  0.374308  0.974991  0.820710  1
  Si  Si12  1  0.600683  0.625692  0.820710  1
  Si  Si13  1  0.967584  0.597537  0.309227  1
  Si  Si14  1  0.629953  0.032416  0.309227  1
  Si  Si15  1  0.402463  0.370047  0.309227  1
  O  O16  1  0.898408  0.633091  0.502778  1
  O  O17  1  0.734682  0.101592  0.502778  1
  O  O18  1  0.366909  0.265318  0.502778  1
  O  O19  1  0.092029  0.346113  0.000880  1
  O  O20  1  0.254085  0.907971  0.000880  1
  O  O21  1  0.653887  0.745915  0.000880  1
  O  O22  1  0.119765  0.593894  0.823939  1
  O  O23  1  0.474129  0.880235  0.823939  1
  O  O24  1  0.406106  0.525871  0.823939  1
  O  O25  1  0.869649  0.403808  0.285585  1
  O  O26  1  0.534159  0.130351  0.285585  1
  O  O27  1  0.596192  0.465841  0.285585  1
  O  O28  1  0.831792  0.318001  0.821275  1
  O  O29  1  0.486210  0.168208  0.821275  1
  O  O30  1  0.681999  0.513790  0.821275  1
  O  O31  1  0.159123  0.669796  0.314441  1
  O  O32  1  0.510674  0.840877  0.314441  1
  O  O33  1  0.330204  0.489326  0.314441  1
  O  O34  1  0.079837  0.335283  0.638094  1
  O  O35  1  0.255446  0.920163  0.638094  1
  O  O36  1  0.664717  0.744554  0.638094  1
  O  O37  1  0.929888  0.692522  0.145794  1
  O  O38  1  0.762635  0.070112  0.145794  1
  O  O39  1  0.307478  0.237365  0.145794  1
  O  O40  1  0.000000  0.000000  0.828501  1
  O  O41  1  0.000000  0.000000  0.351824  1
