# generated using pymatgen
data_NdTm5CuRh17
_symmetry_space_group_name_H-M   'P 1'
_cell_length_a   5.25839700
_cell_length_b   5.25839692
_cell_length_c   17.39803600
_cell_angle_alpha   90.00000000
_cell_angle_beta   90.00000000
_cell_angle_gamma   120.00000682
_symmetry_Int_Tables_number   1
_chemical_formula_structural   NdTm5CuRh17
_chemical_formula_sum   'Nd1 Tm5 Cu1 Rh17'
_cell_volume   416.61755237
_cell_formula_units_Z   1
loop_
 _symmetry_equiv_pos_site_id
 _symmetry_equiv_pos_as_xyz
  1  'x, y, z'
loop_
 _atom_site_type_symbol
 _atom_site_label
 _atom_site_symmetry_multiplicity
 _atom_site_fract_x
 _atom_site_fract_y
 _atom_site_fract_z
 _atom_site_occupancy
  Nd  Nd0  1  0.666667  0.333333  0.250000  1
  Tm  Tm1  1  0.333333  0.666667  0.540046  1
  Tm  Tm2  1  0.666667  0.333333  0.040641  1
  Tm  Tm3  1  0.666667  0.333333  0.459359  1
  Tm  Tm4  1  0.333333  0.666667  0.959954  1
  Tm  Tm5  1  0.333333  0.666667  0.750000  1
  Cu  Cu6  1  0.000000  0.000000  0.250000  1
  Rh  Rh7  1  0.167453  0.334904  0.124863  1
  Rh  Rh8  1  0.832447  0.664894  0.624825  1
  Rh  Rh9  1  0.665096  0.832547  0.124863  1
  Rh  Rh10  1  0.167453  0.832547  0.124863  1
  Rh  Rh11  1  0.832447  0.167553  0.624825  1
  Rh  Rh12  1  0.335106  0.167553  0.624825  1
  Rh  Rh13  1  0.832447  0.664894  0.875175  1
  Rh  Rh14  1  0.832447  0.167553  0.875175  1
  Rh  Rh15  1  0.335106  0.167553  0.875175  1
  Rh  Rh16  1  0.665096  0.832547  0.375137  1
  Rh  Rh17  1  0.167453  0.832547  0.375137  1
  Rh  Rh18  1  0.167453  0.334904  0.375137  1
  Rh  Rh19  1  0.000000  0.000000  0.750000  1
  Rh  Rh20  1  0.333333  0.666667  0.250000  1
  Rh  Rh21  1  0.666667  0.333333  0.750000  1
  Rh  Rh22  1  0.000000  0.000000  0.001068  1
  Rh  Rh23  1  0.000000  0.000000  0.498932  1
