# generated using pymatgen
data_Pr3Nd3ZrCo17P12
_symmetry_space_group_name_H-M   'P 1'
_cell_length_a   3.78512600
_cell_length_b   10.75992914
_cell_length_c   12.58560817
_cell_angle_alpha   89.98129331
_cell_angle_beta   90.00000000
_cell_angle_gamma   90.00000000
_symmetry_Int_Tables_number   1
_chemical_formula_structural   Pr3Nd3ZrCo17P12
_chemical_formula_sum   'Pr3 Nd3 Zr1 Co17 P12'
_cell_volume   512.58268987
_cell_formula_units_Z   1
loop_
 _symmetry_equiv_pos_site_id
 _symmetry_equiv_pos_as_xyz
  1  'x, y, z'
loop_
 _atom_site_type_symbol
 _atom_site_label
 _atom_site_symmetry_multiplicity
 _atom_site_fract_x
 _atom_site_fract_y
 _atom_site_fract_z
 _atom_site_occupancy
  Pr  Pr0  1  0.000000  0.500066  0.529619  1
  Pr  Pr1  1  0.500000  0.999779  0.478827  1
  Pr  Pr2  1  0.500000  0.179993  0.207508  1
  Nd  Nd3  1  0.500000  0.819753  0.207204  1
  Nd  Nd4  1  0.000000  0.683896  0.795355  1
  Nd  Nd5  1  0.000000  0.316242  0.795510  1
  Zr  Zr6  1  0.500000  0.500199  0.151780  1
  Co  Co7  1  0.000000  0.999944  0.838418  1
  Co  Co8  1  0.500000  0.500054  0.705269  1
  Co  Co9  1  0.000000  0.999004  0.294036  1
  Co  Co10  1  0.000000  0.500415  0.983000  1
  Co  Co11  1  0.500000  0.999686  0.011934  1
  Co  Co12  1  0.500000  0.327243  0.988244  1
  Co  Co13  1  0.500000  0.673065  0.988473  1
  Co  Co14  1  0.000000  0.160706  0.000429  1
  Co  Co15  1  0.000000  0.838875  0.000586  1
  Co  Co16  1  0.500000  0.294882  0.435035  1
  Co  Co17  1  0.500000  0.705371  0.434538  1
  Co  Co18  1  0.000000  0.201885  0.571227  1
  Co  Co19  1  0.000000  0.798065  0.570870  1
  Co  Co20  1  0.500000  0.882509  0.709570  1
  Co  Co21  1  0.500000  0.117474  0.709699  1
  Co  Co22  1  0.000000  0.620003  0.299679  1
  Co  Co23  1  0.000000  0.380674  0.300473  1
  P  P24  1  0.500000  0.500213  0.884212  1
  P  P25  1  0.000000  0.999377  0.112247  1
  P  P26  1  0.500000  0.499994  0.356763  1
  P  P27  1  0.000000  0.000031  0.660196  1
  P  P28  1  0.500000  0.303203  0.616694  1
  P  P29  1  0.500000  0.696914  0.616402  1
  P  P30  1  0.000000  0.193820  0.389351  1
  P  P31  1  0.000000  0.806363  0.388347  1
  P  P32  1  0.500000  0.854204  0.890607  1
  P  P33  1  0.500000  0.145653  0.890737  1
  P  P34  1  0.000000  0.663189  0.094085  1
  P  P35  1  0.000000  0.337254  0.093079  1
