# generated using pymatgen
data_DyTm2Mg3Si2Ag
_symmetry_space_group_name_H-M   'P 1'
_cell_length_a   7.19551700
_cell_length_b   7.20592893
_cell_length_c   4.29446700
_cell_angle_alpha   90.00000000
_cell_angle_beta   90.00000000
_cell_angle_gamma   119.95221878
_symmetry_Int_Tables_number   1
_chemical_formula_structural   DyTm2Mg3Si2Ag
_chemical_formula_sum   'Dy1 Tm2 Mg3 Si2 Ag1'
_cell_volume   192.93045150
_cell_formula_units_Z   1
loop_
 _symmetry_equiv_pos_site_id
 _symmetry_equiv_pos_as_xyz
  1  'x, y, z'
loop_
 _atom_site_type_symbol
 _atom_site_label
 _atom_site_symmetry_multiplicity
 _atom_site_fract_x
 _atom_site_fract_y
 _atom_site_fract_z
 _atom_site_occupancy
  Dy  Dy0  1  0.577306  0.000000  0.000000  1
  Tm  Tm1  1  0.999627  0.577190  0.000000  1
  Tm  Tm2  1  0.422437  0.422810  0.000000  1
  Mg  Mg3  1  0.248244  0.000000  0.500000  1
  Mg  Mg4  1  0.000308  0.248976  0.500000  1
  Mg  Mg5  1  0.751332  0.751024  0.500000  1
  Si  Si6  1  0.332487  0.665391  0.500000  1
  Si  Si7  1  0.667097  0.334609  0.500000  1
  Ag  Ag8  1  0.001161  0.000000  0.000000  1
