# generated using pymatgen
data_Sm2Ho(Cd2Sn)2
_symmetry_space_group_name_H-M   'P 1'
_cell_length_a   7.57397918
_cell_length_b   7.57397798
_cell_length_c   4.63512300
_cell_angle_alpha   90.00000000
_cell_angle_beta   90.00000000
_cell_angle_gamma   119.70997314
_symmetry_Int_Tables_number   1
_chemical_formula_structural   Sm2Ho(Cd2Sn)2
_chemical_formula_sum   'Sm2 Ho1 Cd4 Sn2'
_cell_volume   230.94143648
_cell_formula_units_Z   1
loop_
 _symmetry_equiv_pos_site_id
 _symmetry_equiv_pos_as_xyz
  1  'x, y, z'
loop_
 _atom_site_type_symbol
 _atom_site_label
 _atom_site_symmetry_multiplicity
 _atom_site_fract_x
 _atom_site_fract_y
 _atom_site_fract_z
 _atom_site_occupancy
  Sm  Sm0  1  0.576829  0.999264  0.000000  1
  Sm  Sm1  1  0.999264  0.576829  0.000000  1
  Ho  Ho2  1  0.422174  0.422174  0.000000  1
  Cd  Cd3  1  0.240202  0.997511  0.500000  1
  Cd  Cd4  1  0.997511  0.240202  0.500000  1
  Cd  Cd5  1  0.761860  0.761860  0.500000  1
  Cd  Cd6  1  0.004715  0.004715  0.000000  1
  Sn  Sn7  1  0.335602  0.661843  0.500000  1
  Sn  Sn8  1  0.661843  0.335602  0.500000  1
