# generated using pymatgen
data_CaTb4(Nd5Ir4)3
_symmetry_space_group_name_H-M   'P 1'
_cell_length_a   11.20301259
_cell_length_b   11.21283673
_cell_length_c   6.53470316
_cell_angle_alpha   89.98464835
_cell_angle_beta   90.22109425
_cell_angle_gamma   89.85779217
_symmetry_Int_Tables_number   1
_chemical_formula_structural   CaTb4(Nd5Ir4)3
_chemical_formula_sum   'Ca1 Tb4 Nd15 Ir12'
_cell_volume   820.86473704
_cell_formula_units_Z   1
loop_
 _symmetry_equiv_pos_site_id
 _symmetry_equiv_pos_as_xyz
  1  'x, y, z'
loop_
 _atom_site_type_symbol
 _atom_site_label
 _atom_site_symmetry_multiplicity
 _atom_site_fract_x
 _atom_site_fract_y
 _atom_site_fract_z
 _atom_site_occupancy
  Ca  Ca0  1  0.289863  0.087867  0.380088  1
  Tb  Tb1  1  0.003577  0.001029  0.498600  1
  Tb  Tb2  1  0.999021  0.999931  0.999294  1
  Tb  Tb3  1  0.500477  0.500251  0.997926  1
  Tb  Tb4  1  0.499400  0.501251  0.497950  1
  Nd  Nd5  1  0.289287  0.912638  0.883977  1
  Nd  Nd6  1  0.710577  0.087546  0.882501  1
  Nd  Nd7  1  0.711095  0.912543  0.382668  1
  Nd  Nd8  1  0.588261  0.789431  0.881661  1
  Nd  Nd9  1  0.584037  0.209512  0.382550  1
  Nd  Nd10  1  0.410771  0.792739  0.382454  1
  Nd  Nd11  1  0.410893  0.209325  0.883555  1
  Nd  Nd12  1  0.210236  0.411855  0.619278  1
  Nd  Nd13  1  0.211177  0.587834  0.117472  1
  Nd  Nd14  1  0.789624  0.411095  0.118245  1
  Nd  Nd15  1  0.789877  0.588019  0.618116  1
  Nd  Nd16  1  0.911842  0.709930  0.118013  1
  Nd  Nd17  1  0.911515  0.289166  0.620079  1
  Nd  Nd18  1  0.087541  0.710340  0.618462  1
  Nd  Nd19  1  0.089805  0.289402  0.120357  1
  Ir  Ir20  1  0.851379  0.150312  0.250534  1
  Ir  Ir21  1  0.851363  0.850393  0.748355  1
  Ir  Ir22  1  0.148342  0.150258  0.756687  1
  Ir  Ir23  1  0.146403  0.845095  0.245777  1
  Ir  Ir24  1  0.648731  0.349587  0.748756  1
  Ir  Ir25  1  0.649920  0.649851  0.250236  1
  Ir  Ir26  1  0.350080  0.355280  0.246096  1
  Ir  Ir27  1  0.349973  0.650697  0.748562  1
  Ir  Ir28  1  0.501895  0.999391  0.117518  1
  Ir  Ir29  1  0.502674  0.998693  0.624209  1
  Ir  Ir30  1  0.000321  0.499514  0.880068  1
  Ir  Ir31  1  0.000044  0.499226  0.379953  1
