# generated using pymatgen
data_Dy2Er4Al24Ir5Ru3
_symmetry_space_group_name_H-M   'P 1'
_cell_length_a   8.80495400
_cell_length_b   8.81037994
_cell_length_c   9.49373615
_cell_angle_alpha   90.11992266
_cell_angle_beta   90.00000000
_cell_angle_gamma   119.97962216
_symmetry_Int_Tables_number   1
_chemical_formula_structural   Dy2Er4Al24Ir5Ru3
_chemical_formula_sum   'Dy2 Er4 Al24 Ir5 Ru3'
_cell_volume   637.93641309
_cell_formula_units_Z   1
loop_
 _symmetry_equiv_pos_site_id
 _symmetry_equiv_pos_as_xyz
  1  'x, y, z'
loop_
 _atom_site_type_symbol
 _atom_site_label
 _atom_site_symmetry_multiplicity
 _atom_site_fract_x
 _atom_site_fract_y
 _atom_site_fract_z
 _atom_site_occupancy
  Dy  Dy0  1  0.194285  0.388571  0.249622  1
  Dy  Dy1  1  0.805715  0.611429  0.750378  1
  Er  Er2  1  0.611082  0.805670  0.250847  1
  Er  Er3  1  0.388918  0.194330  0.749153  1
  Er  Er4  1  0.194587  0.805670  0.250847  1
  Er  Er5  1  0.805413  0.194330  0.749153  1
  Al  Al6  1  0.333628  0.667258  0.028061  1
  Al  Al7  1  0.666372  0.332742  0.971939  1
  Al  Al8  1  0.665478  0.330956  0.526358  1
  Al  Al9  1  0.334522  0.669044  0.473642  1
  Al  Al10  1  0.162735  0.325469  0.576797  1
  Al  Al11  1  0.837265  0.674531  0.423203  1
  Al  Al12  1  0.673830  0.837776  0.577095  1
  Al  Al13  1  0.837342  0.674682  0.077073  1
  Al  Al14  1  0.326170  0.162224  0.422905  1
  Al  Al15  1  0.162658  0.325318  0.922927  1
  Al  Al16  1  0.163946  0.837776  0.577095  1
  Al  Al17  1  0.325503  0.162529  0.076287  1
  Al  Al18  1  0.836054  0.162224  0.422905  1
  Al  Al19  1  0.674497  0.837471  0.923713  1
  Al  Al20  1  0.837026  0.162529  0.076287  1
  Al  Al21  1  0.162974  0.837471  0.923713  1
  Al  Al22  1  0.561813  0.123626  0.251123  1
  Al  Al23  1  0.438187  0.876374  0.748877  1
  Al  Al24  1  0.875079  0.438044  0.249661  1
  Al  Al25  1  0.124921  0.561956  0.750339  1
  Al  Al26  1  0.562965  0.438044  0.249661  1
  Al  Al27  1  0.437035  0.561956  0.750339  1
  Al  Al28  1  0.000314  0.000629  0.249926  1
  Al  Al29  1  0.999686  0.999371  0.750074  1
  Ir  Ir30  1  0.500000  0.000000  0.000000  1
  Ir  Ir31  1  0.000000  0.500000  0.000000  1
  Ir  Ir32  1  0.500000  0.500000  0.000000  1
  Ir  Ir33  1  0.000000  0.500000  0.500000  1
  Ir  Ir34  1  0.500000  0.500000  0.500000  1
  Ru  Ru35  1  0.500000  0.000000  0.500000  1
  Ru  Ru36  1  0.000000  0.000000  0.000000  1
  Ru  Ru37  1  0.000000  0.000000  0.500000  1
