# generated using pymatgen
data_Pu3Np(MoN2)4
_symmetry_space_group_name_H-M   'P 1'
_cell_length_a   3.21819200
_cell_length_b   5.61181346
_cell_length_c   10.83285289
_cell_angle_alpha   89.95353768
_cell_angle_beta   90.00000000
_cell_angle_gamma   90.00000000
_symmetry_Int_Tables_number   1
_chemical_formula_structural   Pu3Np(MoN2)4
_chemical_formula_sum   'Pu3 Np1 Mo4 N8'
_cell_volume   195.64010178
_cell_formula_units_Z   1
loop_
 _symmetry_equiv_pos_site_id
 _symmetry_equiv_pos_as_xyz
  1  'x, y, z'
loop_
 _atom_site_type_symbol
 _atom_site_label
 _atom_site_symmetry_multiplicity
 _atom_site_fract_x
 _atom_site_fract_y
 _atom_site_fract_z
 _atom_site_occupancy
  Pu  Pu0  1  0.750000  0.422817  0.144432  1
  Pu  Pu1  1  0.750000  0.923853  0.356407  1
  Pu  Pu2  1  0.250000  0.075887  0.643470  1
  Np  Np3  1  0.250000  0.575678  0.856282  1
  Mo  Mo4  1  0.250000  0.928309  0.099603  1
  Mo  Mo5  1  0.750000  0.071898  0.899921  1
  Mo  Mo6  1  0.750000  0.572051  0.599161  1
  Mo  Mo7  1  0.250000  0.428460  0.400124  1
  N  N8  1  0.250000  0.662162  0.243759  1
  N  N9  1  0.750000  0.340598  0.757194  1
  N  N10  1  0.750000  0.835134  0.745101  1
  N  N11  1  0.250000  0.161532  0.255758  1
  N  N12  1  0.250000  0.754953  0.503551  1
  N  N13  1  0.750000  0.245147  0.496480  1
  N  N14  1  0.750000  0.744185  0.003190  1
  N  N15  1  0.250000  0.257333  0.995566  1
