# generated using pymatgen
data_Gd4YIr3
_symmetry_space_group_name_H-M   'P 1'
_cell_length_a   10.99713600
_cell_length_b   10.99713600
_cell_length_c   6.42386300
_cell_angle_alpha   90.00000000
_cell_angle_beta   90.00000000
_cell_angle_gamma   90.00000000
_symmetry_Int_Tables_number   1
_chemical_formula_structural   Gd4YIr3
_chemical_formula_sum   'Gd16 Y4 Ir12'
_cell_volume   776.88272093
_cell_formula_units_Z   4
loop_
 _symmetry_equiv_pos_site_id
 _symmetry_equiv_pos_as_xyz
  1  'x, y, z'
loop_
 _atom_site_type_symbol
 _atom_site_label
 _atom_site_symmetry_multiplicity
 _atom_site_fract_x
 _atom_site_fract_y
 _atom_site_fract_z
 _atom_site_occupancy
  Gd  Gd0  1  0.290564  0.088113  0.381699  1
  Gd  Gd1  1  0.290564  0.911887  0.881699  1
  Gd  Gd2  1  0.709436  0.088113  0.881699  1
  Gd  Gd3  1  0.709436  0.911887  0.381699  1
  Gd  Gd4  1  0.588113  0.790564  0.881699  1
  Gd  Gd5  1  0.588113  0.209436  0.381699  1
  Gd  Gd6  1  0.411887  0.790564  0.381699  1
  Gd  Gd7  1  0.411887  0.209436  0.881699  1
  Gd  Gd8  1  0.209436  0.411887  0.618301  1
  Gd  Gd9  1  0.209436  0.588113  0.118301  1
  Gd  Gd10  1  0.790564  0.411887  0.118301  1
  Gd  Gd11  1  0.790564  0.588113  0.618301  1
  Gd  Gd12  1  0.911887  0.709436  0.118301  1
  Gd  Gd13  1  0.911887  0.290564  0.618301  1
  Gd  Gd14  1  0.088113  0.709436  0.618301  1
  Gd  Gd15  1  0.088113  0.290564  0.118301  1
  Y  Y16  1  0.000000  0.000000  0.500000  1
  Y  Y17  1  0.000000  0.000000  0.000000  1
  Y  Y18  1  0.500000  0.500000  0.000000  1
  Y  Y19  1  0.500000  0.500000  0.500000  1
  Ir  Ir20  1  0.848354  0.151646  0.250000  1
  Ir  Ir21  1  0.848354  0.848354  0.750000  1
  Ir  Ir22  1  0.151646  0.151646  0.750000  1
  Ir  Ir23  1  0.151646  0.848354  0.250000  1
  Ir  Ir24  1  0.651646  0.348354  0.750000  1
  Ir  Ir25  1  0.651646  0.651646  0.250000  1
  Ir  Ir26  1  0.348354  0.348354  0.250000  1
  Ir  Ir27  1  0.348354  0.651646  0.750000  1
  Ir  Ir28  1  0.500000  0.000000  0.120250  1
  Ir  Ir29  1  0.500000  0.000000  0.620250  1
  Ir  Ir30  1  0.000000  0.500000  0.879750  1
  Ir  Ir31  1  0.000000  0.500000  0.379750  1
