# generated using pymatgen
data_Ho13Er3In5Co2Hg
_symmetry_space_group_name_H-M   'P 1'
_cell_length_a   10.29980500
_cell_length_b   10.28868433
_cell_length_c   6.97568414
_cell_angle_alpha   90.10485219
_cell_angle_beta   90.00000000
_cell_angle_gamma   120.03575149
_symmetry_Int_Tables_number   1
_chemical_formula_structural   Ho13Er3In5Co2Hg
_chemical_formula_sum   'Ho13 Er3 In5 Co2 Hg1'
_cell_volume   639.95397992
_cell_formula_units_Z   1
loop_
 _symmetry_equiv_pos_site_id
 _symmetry_equiv_pos_as_xyz
  1  'x, y, z'
loop_
 _atom_site_type_symbol
 _atom_site_label
 _atom_site_symmetry_multiplicity
 _atom_site_fract_x
 _atom_site_fract_y
 _atom_site_fract_z
 _atom_site_occupancy
  Ho  Ho0  1  0.534140  0.068279  0.792695  1
  Ho  Ho1  1  0.927625  0.468758  0.792709  1
  Ho  Ho2  1  0.541133  0.468758  0.792709  1
  Ho  Ho3  1  0.464378  0.928756  0.289318  1
  Ho  Ho4  1  0.072332  0.533997  0.293857  1
  Ho  Ho5  1  0.461666  0.533997  0.293857  1
  Ho  Ho6  1  0.822261  0.644520  0.483077  1
  Ho  Ho7  1  0.356803  0.177982  0.499596  1
  Ho  Ho8  1  0.821179  0.177982  0.499596  1
  Ho  Ho9  1  0.178218  0.356434  0.995353  1
  Ho  Ho10  1  0.648479  0.820138  0.002022  1
  Ho  Ho11  1  0.171659  0.820138  0.002022  1
  Ho  Ho12  1  0.667941  0.335881  0.178996  1
  Er  Er13  1  0.333835  0.667671  0.683528  1
  Er  Er14  1  0.998680  0.997358  0.778463  1
  Er  Er15  1  0.002098  0.004196  0.279707  1
  In  In16  1  0.325886  0.162796  0.038246  1
  In  In17  1  0.836909  0.162796  0.038246  1
  In  In18  1  0.162357  0.324711  0.541797  1
  In  In19  1  0.673262  0.836795  0.540828  1
  In  In20  1  0.163536  0.836795  0.540828  1
  Co  Co21  1  0.666802  0.333603  0.565984  1
  Co  Co22  1  0.333434  0.666871  0.067082  1
  Hg  Hg23  1  0.835392  0.670786  0.045390  1
