# generated using pymatgen
data_HoNp3(GePt)4
_symmetry_space_group_name_H-M   'P 1'
_cell_length_a   4.46172600
_cell_length_b   7.05009289
_cell_length_c   7.56288515
_cell_angle_alpha   89.86564004
_cell_angle_beta   90.00000000
_cell_angle_gamma   90.00000000
_symmetry_Int_Tables_number   1
_chemical_formula_structural   HoNp3(GePt)4
_chemical_formula_sum   'Ho1 Np3 Ge4 Pt4'
_cell_volume   237.89430561
_cell_formula_units_Z   1
loop_
 _symmetry_equiv_pos_site_id
 _symmetry_equiv_pos_as_xyz
  1  'x, y, z'
loop_
 _atom_site_type_symbol
 _atom_site_label
 _atom_site_symmetry_multiplicity
 _atom_site_fract_x
 _atom_site_fract_y
 _atom_site_fract_z
 _atom_site_occupancy
  Ho  Ho0  1  0.750000  0.002855  0.202981  1
  Np  Np1  1  0.250000  0.493959  0.699385  1
  Np  Np2  1  0.250000  0.993139  0.796480  1
  Np  Np3  1  0.750000  0.506786  0.298571  1
  Ge  Ge4  1  0.250000  0.812180  0.411886  1
  Ge  Ge5  1  0.250000  0.310902  0.088135  1
  Ge  Ge6  1  0.750000  0.190656  0.587131  1
  Ge  Ge7  1  0.750000  0.685922  0.913148  1
  Pt  Pt8  1  0.250000  0.202818  0.415273  1
  Pt  Pt9  1  0.250000  0.713940  0.084456  1
  Pt  Pt10  1  0.750000  0.792903  0.582192  1
  Pt  Pt11  1  0.750000  0.293940  0.920362  1
