# generated using pymatgen
data_Ti5(ReTc)12
_symmetry_space_group_name_H-M   'P 1'
_cell_length_a   8.34181948
_cell_length_b   8.34181952
_cell_length_c   8.34182000
_cell_angle_alpha   109.47121694
_cell_angle_beta   109.47121705
_cell_angle_gamma   109.47122754
_symmetry_Int_Tables_number   1
_chemical_formula_structural   Ti5(ReTc)12
_chemical_formula_sum   'Ti5 Re12 Tc12'
_cell_volume   446.84870367
_cell_formula_units_Z   1
loop_
 _symmetry_equiv_pos_site_id
 _symmetry_equiv_pos_as_xyz
  1  'x, y, z'
loop_
 _atom_site_type_symbol
 _atom_site_label
 _atom_site_symmetry_multiplicity
 _atom_site_fract_x
 _atom_site_fract_y
 _atom_site_fract_z
 _atom_site_occupancy
  Ti  Ti0  1  0.000000  0.000000  0.000000  1
  Ti  Ti1  1  0.629347  0.000000  0.000000  1
  Ti  Ti2  1  0.000000  0.629347  0.000000  1
  Ti  Ti3  1  0.000000  0.000000  0.629347  1
  Ti  Ti4  1  0.370653  0.370653  0.370653  1
  Re  Re5  1  0.374976  0.193163  0.000000  1
  Re  Re6  1  0.181814  0.806837  0.806837  1
  Re  Re7  1  0.374976  0.000000  0.193163  1
  Re  Re8  1  0.193163  0.374976  0.000000  1
  Re  Re9  1  0.000000  0.374976  0.193163  1
  Re  Re10  1  0.806837  0.181814  0.806837  1
  Re  Re11  1  0.806837  0.806837  0.181814  1
  Re  Re12  1  0.000000  0.193163  0.374976  1
  Re  Re13  1  0.193163  0.000000  0.374976  1
  Re  Re14  1  0.625024  0.625024  0.818186  1
  Re  Re15  1  0.818186  0.625024  0.625024  1
  Re  Re16  1  0.625024  0.818186  0.625024  1
  Tc  Tc17  1  0.400627  0.681344  0.000000  1
  Tc  Tc18  1  0.719284  0.318656  0.318656  1
  Tc  Tc19  1  0.400627  0.000000  0.681344  1
  Tc  Tc20  1  0.681344  0.400627  0.000000  1
  Tc  Tc21  1  0.000000  0.400627  0.681344  1
  Tc  Tc22  1  0.318656  0.719284  0.318656  1
  Tc  Tc23  1  0.318656  0.318656  0.719284  1
  Tc  Tc24  1  0.000000  0.681344  0.400627  1
  Tc  Tc25  1  0.681344  0.000000  0.400627  1
  Tc  Tc26  1  0.599373  0.599373  0.280716  1
  Tc  Tc27  1  0.280716  0.599373  0.599373  1
  Tc  Tc28  1  0.599373  0.280716  0.599373  1
