# generated using pymatgen
data_Hg3Au(BrO3)8
_symmetry_space_group_name_H-M   'P 1'
_cell_length_a   6.00886741
_cell_length_b   8.60055084
_cell_length_c   14.85642000
_cell_angle_alpha   66.27719879
_cell_angle_beta   89.25907489
_cell_angle_gamma   89.20220739
_symmetry_Int_Tables_number   1
_chemical_formula_structural   Hg3Au(BrO3)8
_chemical_formula_sum   'Hg3 Au1 Br8 O24'
_cell_volume   702.80784104
_cell_formula_units_Z   1
loop_
 _symmetry_equiv_pos_site_id
 _symmetry_equiv_pos_as_xyz
  1  'x, y, z'
loop_
 _atom_site_type_symbol
 _atom_site_label
 _atom_site_symmetry_multiplicity
 _atom_site_fract_x
 _atom_site_fract_y
 _atom_site_fract_z
 _atom_site_occupancy
  Hg  Hg0  1  0.898019  0.079489  0.952013  1
  Hg  Hg1  1  0.096602  0.103006  0.458761  1
  Hg  Hg2  1  0.739543  0.500405  0.008826  1
  Au  Au3  1  0.252720  0.489840  0.506196  1
  Br  Br4  1  0.453752  0.273610  0.850675  1
  Br  Br5  1  0.991089  0.728780  0.619930  1
  Br  Br6  1  0.016368  0.735592  0.135805  1
  Br  Br7  1  0.549493  0.291881  0.359560  1
  Br  Br8  1  0.099145  0.218827  0.175379  1
  Br  Br9  1  0.572623  0.770331  0.329926  1
  Br  Br10  1  0.428654  0.770761  0.829127  1
  Br  Br11  1  0.887918  0.214414  0.674043  1
  O  O12  1  0.705056  0.314346  0.898892  1
  O  O13  1  0.202920  0.592099  0.621715  1
  O  O14  1  0.811954  0.600380  0.146305  1
  O  O15  1  0.296788  0.352870  0.405692  1
  O  O16  1  0.542273  0.102004  0.833864  1
  O  O17  1  0.110413  0.875760  0.649457  1
  O  O18  1  0.905003  0.897699  0.155742  1
  O  O19  1  0.435496  0.118784  0.353313  1
  O  O20  1  0.944930  0.195586  0.274804  1
  O  O21  1  0.387537  0.812096  0.241395  1
  O  O22  1  0.625939  0.800538  0.745539  1
  O  O23  1  0.050867  0.175426  0.771457  1
  O  O24  1  0.251490  0.391757  0.144846  1
  O  O25  1  0.704201  0.588126  0.348171  1
  O  O26  1  0.304847  0.586905  0.852690  1
  O  O27  1  0.754123  0.396480  0.648161  1
  O  O28  1  0.284317  0.206725  0.948002  1
  O  O29  1  0.935926  0.849919  0.497045  1
  O  O30  1  0.066052  0.837561  0.007584  1
  O  O31  1  0.714110  0.219968  0.457448  1
  O  O32  1  0.899169  0.264761  0.080182  1
  O  O33  1  0.413578  0.720583  0.438908  1
  O  O34  1  0.577791  0.731306  0.940602  1
  O  O35  1  0.089294  0.256426  0.577662  1
