# generated using pymatgen
data_Tm5Pa3(ReB6)4
_symmetry_space_group_name_H-M   'P 1'
_cell_length_a   3.68752400
_cell_length_b   9.12518283
_cell_length_c   11.48166736
_cell_angle_alpha   90.12961154
_cell_angle_beta   90.00000000
_cell_angle_gamma   90.00000000
_symmetry_Int_Tables_number   1
_chemical_formula_structural   Tm5Pa3(ReB6)4
_chemical_formula_sum   'Tm5 Pa3 Re4 B24'
_cell_volume   386.34943311
_cell_formula_units_Z   1
loop_
 _symmetry_equiv_pos_site_id
 _symmetry_equiv_pos_as_xyz
  1  'x, y, z'
loop_
 _atom_site_type_symbol
 _atom_site_label
 _atom_site_symmetry_multiplicity
 _atom_site_fract_x
 _atom_site_fract_y
 _atom_site_fract_z
 _atom_site_occupancy
  Tm  Tm0  1  0.000000  0.179731  0.913052  1
  Tm  Tm1  1  0.000000  0.945506  0.374525  1
  Tm  Tm2  1  0.000000  0.055484  0.627451  1
  Tm  Tm3  1  0.000000  0.443363  0.124708  1
  Tm  Tm4  1  0.000000  0.553522  0.874100  1
  Pa  Pa5  1  0.000000  0.321032  0.413267  1
  Pa  Pa6  1  0.000000  0.678218  0.587322  1
  Pa  Pa7  1  0.000000  0.823190  0.085958  1
  Re  Re8  1  0.000000  0.638851  0.321459  1
  Re  Re9  1  0.000000  0.363432  0.676149  1
  Re  Re10  1  0.000000  0.138032  0.180546  1
  Re  Re11  1  0.000000  0.860093  0.821205  1
  B  B12  1  0.500000  0.553760  0.432477  1
  B  B13  1  0.500000  0.446678  0.566656  1
  B  B14  1  0.500000  0.053339  0.067445  1
  B  B15  1  0.500000  0.946117  0.933131  1
  B  B16  1  0.500000  0.749586  0.420240  1
  B  B17  1  0.500000  0.250845  0.580669  1
  B  B18  1  0.500000  0.248493  0.079000  1
  B  B19  1  0.500000  0.751351  0.920218  1
  B  B20  1  0.500000  0.792983  0.265518  1
  B  B21  1  0.500000  0.207343  0.734648  1
  B  B22  1  0.500000  0.292779  0.233226  1
  B  B23  1  0.500000  0.706974  0.766061  1
  B  B24  1  0.500000  0.632097  0.184287  1
  B  B25  1  0.500000  0.367554  0.815171  1
  B  B26  1  0.500000  0.132313  0.315350  1
  B  B27  1  0.500000  0.868194  0.685860  1
  B  B28  1  0.500000  0.982596  0.213198  1
  B  B29  1  0.500000  0.018531  0.787042  1
  B  B30  1  0.500000  0.482618  0.285465  1
  B  B31  1  0.500000  0.516783  0.714324  1
  B  B32  1  0.500000  0.607472  0.029744  1
  B  B33  1  0.500000  0.390962  0.969604  1
  B  B34  1  0.500000  0.108221  0.470568  1
  B  B35  1  0.500000  0.891957  0.530357  1
