# generated using pymatgen
data_LiTb2ErTl3Pd2
_symmetry_space_group_name_H-M   'P 1'
_cell_length_a   7.94030300
_cell_length_b   7.91671136
_cell_length_c   3.71027600
_cell_angle_alpha   90.00000000
_cell_angle_beta   90.00000000
_cell_angle_gamma   120.09863018
_symmetry_Int_Tables_number   1
_chemical_formula_structural   LiTb2ErTl3Pd2
_chemical_formula_sum   'Li1 Tb2 Er1 Tl3 Pd2'
_cell_volume   201.78377723
_cell_formula_units_Z   1
loop_
 _symmetry_equiv_pos_site_id
 _symmetry_equiv_pos_as_xyz
  1  'x, y, z'
loop_
 _atom_site_type_symbol
 _atom_site_label
 _atom_site_symmetry_multiplicity
 _atom_site_fract_x
 _atom_site_fract_y
 _atom_site_fract_z
 _atom_site_occupancy
  Li  Li0  1  0.000199  0.000000  0.000000  1
  Tb  Tb1  1  0.000155  0.584001  0.000000  1
  Tb  Tb2  1  0.416154  0.415999  0.000000  1
  Er  Er3  1  0.583189  0.000000  0.000000  1
  Tl  Tl4  1  0.257356  0.000000  0.500000  1
  Tl  Tl5  1  0.998886  0.255887  0.500000  1
  Tl  Tl6  1  0.742999  0.744113  0.500000  1
  Pd  Pd7  1  0.335289  0.669519  0.500000  1
  Pd  Pd8  1  0.665771  0.330481  0.500000  1
