# generated using pymatgen
data_Hf6Zn22FeRh
_symmetry_space_group_name_H-M   'P 1'
_cell_length_a   8.71154228
_cell_length_b   8.71154273
_cell_length_c   8.71154200
_cell_angle_alpha   60.00000278
_cell_angle_beta   60.00000106
_cell_angle_gamma   60.00000024
_symmetry_Int_Tables_number   1
_chemical_formula_structural   Hf6Zn22FeRh
_chemical_formula_sum   'Hf6 Zn22 Fe1 Rh1'
_cell_volume   467.48768026
_cell_formula_units_Z   1
loop_
 _symmetry_equiv_pos_site_id
 _symmetry_equiv_pos_as_xyz
  1  'x, y, z'
loop_
 _atom_site_type_symbol
 _atom_site_label
 _atom_site_symmetry_multiplicity
 _atom_site_fract_x
 _atom_site_fract_y
 _atom_site_fract_z
 _atom_site_occupancy
  Hf  Hf0  1  0.698438  0.301562  0.301562  1
  Hf  Hf1  1  0.301562  0.698438  0.698438  1
  Hf  Hf2  1  0.301562  0.698438  0.301562  1
  Hf  Hf3  1  0.698438  0.301562  0.698438  1
  Hf  Hf4  1  0.301562  0.301562  0.698438  1
  Hf  Hf5  1  0.698438  0.698438  0.301562  1
  Zn  Zn6  1  0.119919  0.119919  0.119919  1
  Zn  Zn7  1  0.880081  0.880081  0.880081  1
  Zn  Zn8  1  0.119919  0.119919  0.640242  1
  Zn  Zn9  1  0.119919  0.640242  0.119919  1
  Zn  Zn10  1  0.880081  0.880081  0.359758  1
  Zn  Zn11  1  0.880081  0.359758  0.880081  1
  Zn  Zn12  1  0.640242  0.119919  0.119919  1
  Zn  Zn13  1  0.359758  0.880081  0.880081  1
  Zn  Zn14  1  0.500000  0.000000  0.000000  1
  Zn  Zn15  1  0.000000  0.500000  0.500000  1
  Zn  Zn16  1  0.000000  0.500000  0.000000  1
  Zn  Zn17  1  0.500000  0.000000  0.500000  1
  Zn  Zn18  1  0.000000  0.000000  0.500000  1
  Zn  Zn19  1  0.500000  0.500000  0.000000  1
  Zn  Zn20  1  0.332915  0.332915  0.332915  1
  Zn  Zn21  1  0.667085  0.667085  0.667085  1
  Zn  Zn22  1  0.332915  0.332915  0.001256  1
  Zn  Zn23  1  0.332915  0.001256  0.332915  1
  Zn  Zn24  1  0.667085  0.667085  0.998744  1
  Zn  Zn25  1  0.667085  0.998744  0.667085  1
  Zn  Zn26  1  0.001256  0.332915  0.332915  1
  Zn  Zn27  1  0.998744  0.667085  0.667085  1
  Fe  Fe28  1  0.500000  0.500000  0.500000  1
  Rh  Rh29  1  0.000000  0.000000  0.000000  1
