# generated using pymatgen
data_Li4In8Ir3Pt
_symmetry_space_group_name_H-M   'P 1'
_cell_length_a   6.59411101
_cell_length_b   4.63654000
_cell_length_c   9.25663201
_cell_angle_alpha   90.00000000
_cell_angle_beta   90.00459514
_cell_angle_gamma   90.00000000
_symmetry_Int_Tables_number   1
_chemical_formula_structural   Li4In8Ir3Pt
_chemical_formula_sum   'Li4 In8 Ir3 Pt1'
_cell_volume   283.01096498
_cell_formula_units_Z   1
loop_
 _symmetry_equiv_pos_site_id
 _symmetry_equiv_pos_as_xyz
  1  'x, y, z'
loop_
 _atom_site_type_symbol
 _atom_site_label
 _atom_site_symmetry_multiplicity
 _atom_site_fract_x
 _atom_site_fract_y
 _atom_site_fract_z
 _atom_site_occupancy
  Li  Li0  1  0.249998  0.250000  0.122023  1
  Li  Li1  1  0.750080  0.750001  0.379435  1
  Li  Li2  1  0.250085  0.250000  0.618998  1
  Li  Li3  1  0.750029  0.750001  0.879457  1
  In  In4  1  0.997341  0.750001  0.129726  1
  In  In5  1  0.502440  0.750001  0.129764  1
  In  In6  1  0.000556  0.250000  0.373155  1
  In  In7  1  0.499568  0.250000  0.373204  1
  In  In8  1  0.502319  0.750001  0.623921  1
  In  In9  1  0.997656  0.750001  0.623948  1
  In  In10  1  0.502504  0.250000  0.872952  1
  In  In11  1  0.997514  0.250000  0.872949  1
  Ir  Ir12  1  0.749932  0.250000  0.121094  1
  Ir  Ir13  1  0.249954  0.750001  0.377466  1
  Ir  Ir14  1  0.750053  0.250000  0.624092  1
  Pt  Pt15  1  0.249973  0.750001  0.877817  1
