# generated using pymatgen
data_Ti3Mn3AsP2
_symmetry_space_group_name_H-M   'P 1'
_cell_length_a   6.29337933
_cell_length_b   6.29405072
_cell_length_c   3.39996600
_cell_angle_alpha   90.00000000
_cell_angle_beta   90.00000000
_cell_angle_gamma   119.95908673
_symmetry_Int_Tables_number   1
_chemical_formula_structural   Ti3Mn3AsP2
_chemical_formula_sum   'Ti3 Mn3 As1 P2'
_cell_volume   116.68049227
_cell_formula_units_Z   1
loop_
 _symmetry_equiv_pos_site_id
 _symmetry_equiv_pos_as_xyz
  1  'x, y, z'
loop_
 _atom_site_type_symbol
 _atom_site_label
 _atom_site_symmetry_multiplicity
 _atom_site_fract_x
 _atom_site_fract_y
 _atom_site_fract_z
 _atom_site_occupancy
  Ti  Ti0  1  0.601724  0.014524  0.000000  1
  Ti  Ti1  1  0.985439  0.587161  0.000000  1
  Ti  Ti2  1  0.412692  0.398122  0.000000  1
  Mn  Mn3  1  0.249180  0.009276  0.500000  1
  Mn  Mn4  1  0.990775  0.240009  0.500000  1
  Mn  Mn5  1  0.760148  0.750853  0.500000  1
  As  As6  1  0.333302  0.666698  0.500000  1
  P  P7  1  0.666651  0.333258  0.500000  1
  P  P8  1  0.000089  0.000101  0.000000  1
