# generated using pymatgen
data_Pr12Ga8Ir7Ru
_symmetry_space_group_name_H-M   'P 1'
_cell_length_a   5.81023504
_cell_length_b   8.20610186
_cell_length_c   13.67882401
_cell_angle_alpha   90.19800476
_cell_angle_beta   89.81869646
_cell_angle_gamma   89.98499229
_symmetry_Int_Tables_number   1
_chemical_formula_structural   Pr12Ga8Ir7Ru
_chemical_formula_sum   'Pr12 Ga8 Ir7 Ru1'
_cell_volume   652.19067199
_cell_formula_units_Z   1
loop_
 _symmetry_equiv_pos_site_id
 _symmetry_equiv_pos_as_xyz
  1  'x, y, z'
loop_
 _atom_site_type_symbol
 _atom_site_label
 _atom_site_symmetry_multiplicity
 _atom_site_fract_x
 _atom_site_fract_y
 _atom_site_fract_z
 _atom_site_occupancy
  Pr  Pr0  1  0.144625  0.897188  0.598620  1
  Pr  Pr1  1  0.855029  0.103334  0.098927  1
  Pr  Pr2  1  0.143681  0.602804  0.400854  1
  Pr  Pr3  1  0.854277  0.398151  0.903597  1
  Pr  Pr4  1  0.855894  0.103209  0.401293  1
  Pr  Pr5  1  0.143794  0.896970  0.901856  1
  Pr  Pr6  1  0.855616  0.396156  0.598836  1
  Pr  Pr7  1  0.147210  0.600682  0.098771  1
  Pr  Pr8  1  0.369671  0.256031  0.750434  1
  Pr  Pr9  1  0.627730  0.742942  0.249055  1
  Pr  Pr10  1  0.371820  0.244704  0.250060  1
  Pr  Pr11  1  0.627597  0.755218  0.750148  1
  Ga  Ga12  1  0.863275  0.105522  0.750727  1
  Ga  Ga13  1  0.134880  0.894663  0.249841  1
  Ga  Ga14  1  0.862849  0.395014  0.249427  1
  Ga  Ga15  1  0.133654  0.604797  0.749740  1
  Ga  Ga16  1  0.378824  0.249514  0.500202  1
  Ga  Ga17  1  0.623030  0.749847  0.000186  1
  Ga  Ga18  1  0.621697  0.749930  0.499891  1
  Ga  Ga19  1  0.380477  0.251658  0.000451  1
  Ir  Ir20  1  0.645981  0.031344  0.592128  1
  Ir  Ir21  1  0.354298  0.969720  0.092139  1
  Ir  Ir22  1  0.646265  0.468289  0.408717  1
  Ir  Ir23  1  0.355137  0.533444  0.906764  1
  Ir  Ir24  1  0.354646  0.968029  0.407823  1
  Ir  Ir25  1  0.644319  0.029884  0.908039  1
  Ir  Ir26  1  0.354138  0.531583  0.591554  1
  Ru  Ru27  1  0.649587  0.469373  0.089919  1
