# generated using pymatgen
data_NdSm7(Si3Ni)4
_symmetry_space_group_name_H-M   'P 1'
_cell_length_a   8.02401800
_cell_length_b   8.02401849
_cell_length_c   8.42834700
_cell_angle_alpha   90.00000000
_cell_angle_beta   90.00000000
_cell_angle_gamma   119.99999796
_symmetry_Int_Tables_number   1
_chemical_formula_structural   NdSm7(Si3Ni)4
_chemical_formula_sum   'Nd1 Sm7 Si12 Ni4'
_cell_volume   469.95563717
_cell_formula_units_Z   1
loop_
 _symmetry_equiv_pos_site_id
 _symmetry_equiv_pos_as_xyz
  1  'x, y, z'
loop_
 _atom_site_type_symbol
 _atom_site_label
 _atom_site_symmetry_multiplicity
 _atom_site_fract_x
 _atom_site_fract_y
 _atom_site_fract_z
 _atom_site_occupancy
  Nd  Nd0  1  0.000000  0.000000  0.250000  1
  Sm  Sm1  1  0.499845  0.500155  0.750000  1
  Sm  Sm2  1  0.500133  0.499867  0.250000  1
  Sm  Sm3  1  0.000312  0.500155  0.750000  1
  Sm  Sm4  1  0.999736  0.499867  0.250000  1
  Sm  Sm5  1  0.499845  0.999688  0.750000  1
  Sm  Sm6  1  0.500133  0.000264  0.250000  1
  Sm  Sm7  1  0.000000  0.000000  0.750000  1
  Si  Si8  1  0.828532  0.171468  0.998667  1
  Si  Si9  1  0.171486  0.828514  0.999224  1
  Si  Si10  1  0.342935  0.171468  0.998667  1
  Si  Si11  1  0.171486  0.828514  0.500776  1
  Si  Si12  1  0.657027  0.828514  0.999224  1
  Si  Si13  1  0.828532  0.171468  0.501333  1
  Si  Si14  1  0.828532  0.657065  0.998667  1
  Si  Si15  1  0.657027  0.828514  0.500776  1
  Si  Si16  1  0.171486  0.342973  0.999224  1
  Si  Si17  1  0.342935  0.171468  0.501333  1
  Si  Si18  1  0.171486  0.342973  0.500776  1
  Si  Si19  1  0.828532  0.657065  0.501333  1
  Ni  Ni20  1  0.666667  0.333333  0.999655  1
  Ni  Ni21  1  0.333333  0.666667  0.000681  1
  Ni  Ni22  1  0.333333  0.666667  0.499319  1
  Ni  Ni23  1  0.666667  0.333333  0.500345  1
