# generated using pymatgen
data_Tb3ZrSn2Ir3
_symmetry_space_group_name_H-M   'P 1'
_cell_length_a   7.28359400
_cell_length_b   7.39567436
_cell_length_c   4.21038800
_cell_angle_alpha   90.00000000
_cell_angle_beta   90.00000000
_cell_angle_gamma   119.49992614
_symmetry_Int_Tables_number   1
_chemical_formula_structural   Tb3ZrSn2Ir3
_chemical_formula_sum   'Tb3 Zr1 Sn2 Ir3'
_cell_volume   197.39798801
_cell_formula_units_Z   1
loop_
 _symmetry_equiv_pos_site_id
 _symmetry_equiv_pos_as_xyz
  1  'x, y, z'
loop_
 _atom_site_type_symbol
 _atom_site_label
 _atom_site_symmetry_multiplicity
 _atom_site_fract_x
 _atom_site_fract_y
 _atom_site_fract_z
 _atom_site_occupancy
  Tb  Tb0  1  0.603829  0.000000  0.000000  1
  Tb  Tb1  1  0.994068  0.583239  0.000000  1
  Tb  Tb2  1  0.410829  0.416761  0.000000  1
  Zr  Zr3  1  0.249592  0.000000  0.500000  1
  Sn  Sn4  1  0.001500  0.254131  0.500000  1
  Sn  Sn5  1  0.747369  0.745869  0.500000  1
  Ir  Ir6  1  0.327425  0.676795  0.500000  1
  Ir  Ir7  1  0.650632  0.323205  0.500000  1
  Ir  Ir8  1  0.014755  0.000000  0.000000  1
