# generated using pymatgen
data_CaZr(Si7Rh3)2
_symmetry_space_group_name_H-M   'P 1'
_cell_length_a   7.96910928
_cell_length_b   7.96910821
_cell_length_c   7.96910886
_cell_angle_alpha   57.16561156
_cell_angle_beta   57.16560938
_cell_angle_gamma   57.16560164
_symmetry_Int_Tables_number   1
_chemical_formula_structural   CaZr(Si7Rh3)2
_chemical_formula_sum   'Ca1 Zr1 Si14 Rh6'
_cell_volume   334.49236151
_cell_formula_units_Z   1
loop_
 _symmetry_equiv_pos_site_id
 _symmetry_equiv_pos_as_xyz
  1  'x, y, z'
loop_
 _atom_site_type_symbol
 _atom_site_label
 _atom_site_symmetry_multiplicity
 _atom_site_fract_x
 _atom_site_fract_y
 _atom_site_fract_z
 _atom_site_occupancy
  Ca  Ca0  1  0.000000  0.000000  0.000000  1
  Zr  Zr1  1  0.500000  0.500000  0.500000  1
  Si  Si2  1  0.750024  0.750024  0.750024  1
  Si  Si3  1  0.249976  0.249976  0.249976  1
  Si  Si4  1  0.850767  0.068155  0.671247  1
  Si  Si5  1  0.671247  0.850767  0.068155  1
  Si  Si6  1  0.068155  0.671247  0.850767  1
  Si  Si7  1  0.648316  0.826685  0.434538  1
  Si  Si8  1  0.434538  0.648316  0.826685  1
  Si  Si9  1  0.826685  0.434538  0.648316  1
  Si  Si10  1  0.173315  0.565462  0.351684  1
  Si  Si11  1  0.565462  0.351684  0.173315  1
  Si  Si12  1  0.351684  0.173315  0.565462  1
  Si  Si13  1  0.931845  0.328753  0.149233  1
  Si  Si14  1  0.328753  0.149233  0.931845  1
  Si  Si15  1  0.149233  0.931845  0.328753  1
  Rh  Rh16  1  0.073288  0.432559  0.746569  1
  Rh  Rh17  1  0.253431  0.926712  0.567441  1
  Rh  Rh18  1  0.567441  0.253431  0.926712  1
  Rh  Rh19  1  0.926712  0.567441  0.253431  1
  Rh  Rh20  1  0.432559  0.746569  0.073288  1
  Rh  Rh21  1  0.746569  0.073288  0.432559  1
