# generated using pymatgen
data_Er3Sn3IrRuAu
_symmetry_space_group_name_H-M   'P 1'
_cell_length_a   7.66382400
_cell_length_b   7.66382513
_cell_length_c   3.82515800
_cell_angle_alpha   90.00000000
_cell_angle_beta   90.00000000
_cell_angle_gamma   120.00000376
_symmetry_Int_Tables_number   1
_chemical_formula_structural   Er3Sn3IrRuAu
_chemical_formula_sum   'Er3 Sn3 Ir1 Ru1 Au1'
_cell_volume   194.56786034
_cell_formula_units_Z   1
loop_
 _symmetry_equiv_pos_site_id
 _symmetry_equiv_pos_as_xyz
  1  'x, y, z'
loop_
 _atom_site_type_symbol
 _atom_site_label
 _atom_site_symmetry_multiplicity
 _atom_site_fract_x
 _atom_site_fract_y
 _atom_site_fract_z
 _atom_site_occupancy
  Er  Er0  1  0.391980  0.412031  0.500000  1
  Er  Er1  1  0.587969  0.979950  0.500000  1
  Er  Er2  1  0.020050  0.608020  0.500000  1
  Sn  Sn3  1  0.739569  0.741454  0.000000  1
  Sn  Sn4  1  0.258546  0.998113  0.000000  1
  Sn  Sn5  1  0.001887  0.260431  0.000000  1
  Ir  Ir6  1  0.333333  0.666667  0.000000  1
  Ru  Ru7  1  0.000000  0.000000  0.500000  1
  Au  Au8  1  0.666667  0.333333  0.000000  1
