# generated using pymatgen
data_AgCl15
_symmetry_space_group_name_H-M   'P 1'
_cell_length_a   9.39319478
_cell_length_b   12.47204425
_cell_length_c   15.03460638
_cell_angle_alpha   70.76129358
_cell_angle_beta   126.92095988
_cell_angle_gamma   112.22852345
_symmetry_Int_Tables_number   1
_chemical_formula_structural   AgCl15
_chemical_formula_sum   'Ag2 Cl30'
_cell_volume   1290.97769048
_cell_formula_units_Z   2
loop_
 _symmetry_equiv_pos_site_id
 _symmetry_equiv_pos_as_xyz
  1  'x, y, z'
loop_
 _atom_site_type_symbol
 _atom_site_label
 _atom_site_symmetry_multiplicity
 _atom_site_fract_x
 _atom_site_fract_y
 _atom_site_fract_z
 _atom_site_occupancy
  Ag  Ag0  1  0.156590  0.137721  0.991250  1
  Ag  Ag1  1  0.843410  0.862279  0.008750  1
  Cl  Cl2  1  0.145048  0.332985  0.936943  1
  Cl  Cl3  1  0.854952  0.667015  0.063057  1
  Cl  Cl4  1  0.151834  0.931353  0.046571  1
  Cl  Cl5  1  0.848166  0.068647  0.953429  1
  Cl  Cl6  1  0.146731  0.694432  0.291627  1
  Cl  Cl7  1  0.853269  0.305568  0.708373  1
  Cl  Cl8  1  0.351363  0.704296  0.454050  1
  Cl  Cl9  1  0.648637  0.295704  0.545950  1
  Cl  Cl10  1  0.192276  0.600472  0.677830  1
  Cl  Cl11  1  0.807724  0.399528  0.322170  1
  Cl  Cl12  1  0.026201  0.350051  0.466650  1
  Cl  Cl13  1  0.973799  0.649949  0.533350  1
  Cl  Cl14  1  0.389990  0.235850  0.816314  1
  Cl  Cl15  1  0.610010  0.764150  0.183686  1
  Cl  Cl16  1  0.297543  0.982338  0.528118  1
  Cl  Cl17  1  0.702457  0.017662  0.471882  1
  Cl  Cl18  1  0.276386  0.424608  0.281702  1
  Cl  Cl19  1  0.723614  0.575392  0.718298  1
  Cl  Cl20  1  0.019967  0.915865  0.665832  1
  Cl  Cl21  1  0.980033  0.084135  0.334168  1
  Cl  Cl22  1  0.760827  0.607245  0.854544  1
  Cl  Cl23  1  0.239173  0.392755  0.145456  1
  Cl  Cl24  1  0.639682  0.735591  0.334514  1
  Cl  Cl25  1  0.360318  0.264409  0.665486  1
  Cl  Cl26  1  0.512999  0.920959  0.664145  1
  Cl  Cl27  1  0.487001  0.079041  0.335855  1
  Cl  Cl28  1  0.062298  0.916295  0.813176  1
  Cl  Cl29  1  0.937702  0.083705  0.186824  1
  Cl  Cl30  1  0.549091  0.809138  0.970745  1
  Cl  Cl31  1  0.450909  0.190862  0.029255  1
