# generated using pymatgen
data_ZrTe14
_symmetry_space_group_name_H-M   'P 1'
_cell_length_a   4.22954634
_cell_length_b   4.22954674
_cell_length_c   32.67671551
_cell_angle_alpha   90.09217188
_cell_angle_beta   90.09217076
_cell_angle_gamma   59.96191784
_symmetry_Int_Tables_number   1
_chemical_formula_structural   ZrTe14
_chemical_formula_sum   'Zr1 Te14'
_cell_volume   506.04496946
_cell_formula_units_Z   1
loop_
 _symmetry_equiv_pos_site_id
 _symmetry_equiv_pos_as_xyz
  1  'x, y, z'
loop_
 _atom_site_type_symbol
 _atom_site_label
 _atom_site_symmetry_multiplicity
 _atom_site_fract_x
 _atom_site_fract_y
 _atom_site_fract_z
 _atom_site_occupancy
  Zr  Zr0  1  0.000000  0.000000  0.800000  1
  Te  Te1  1  0.658334  0.658334  0.057970  1
  Te  Te2  1  0.664286  0.664286  0.256780  1
  Te  Te3  1  0.669677  0.669677  0.457343  1
  Te  Te4  1  0.675586  0.675586  0.654879  1
  Te  Te5  1  0.666701  0.666701  0.851468  1
  Te  Te6  1  0.330323  0.330323  0.142657  1
  Te  Te7  1  0.335714  0.335714  0.343220  1
  Te  Te8  1  0.341666  0.341666  0.542030  1
  Te  Te9  1  0.333299  0.333299  0.748532  1
  Te  Te10  1  0.324414  0.324414  0.945121  1
  Te  Te11  1  0.990452  0.990452  0.001337  1
  Te  Te12  1  0.997568  0.997568  0.199658  1
  Te  Te13  1  0.002432  0.002432  0.400342  1
  Te  Te14  1  0.009548  0.009548  0.598663  1
