# generated using pymatgen
data_Tm20Ir8Ru3Au
_symmetry_space_group_name_H-M   'P 1'
_cell_length_a   10.74112997
_cell_length_b   10.73129837
_cell_length_c   6.37060331
_cell_angle_alpha   90.03313650
_cell_angle_beta   90.01312082
_cell_angle_gamma   89.70776630
_symmetry_Int_Tables_number   1
_chemical_formula_structural   Tm20Ir8Ru3Au
_chemical_formula_sum   'Tm20 Ir8 Ru3 Au1'
_cell_volume   734.30599148
_cell_formula_units_Z   1
loop_
 _symmetry_equiv_pos_site_id
 _symmetry_equiv_pos_as_xyz
  1  'x, y, z'
loop_
 _atom_site_type_symbol
 _atom_site_label
 _atom_site_symmetry_multiplicity
 _atom_site_fract_x
 _atom_site_fract_y
 _atom_site_fract_z
 _atom_site_occupancy
  Tm  Tm0  1  0.292341  0.085719  0.376810  1
  Tm  Tm1  1  0.295211  0.913660  0.877198  1
  Tm  Tm2  1  0.701595  0.082638  0.865439  1
  Tm  Tm3  1  0.703370  0.906986  0.380534  1
  Tm  Tm4  1  0.585751  0.793080  0.878420  1
  Tm  Tm5  1  0.577847  0.207146  0.378230  1
  Tm  Tm6  1  0.412635  0.793180  0.377470  1
  Tm  Tm7  1  0.413221  0.206411  0.878413  1
  Tm  Tm8  1  0.208915  0.413118  0.623133  1
  Tm  Tm9  1  0.208057  0.588237  0.121234  1
  Tm  Tm10  1  0.791265  0.421455  0.119797  1
  Tm  Tm11  1  0.791587  0.587953  0.623263  1
  Tm  Tm12  1  0.913202  0.708718  0.121989  1
  Tm  Tm13  1  0.916544  0.296696  0.637130  1
  Tm  Tm14  1  0.087561  0.706660  0.625049  1
  Tm  Tm15  1  0.094423  0.295394  0.117738  1
  Tm  Tm16  1  0.003699  0.995605  0.502009  1
  Tm  Tm17  1  0.004381  0.996269  0.995912  1
  Tm  Tm18  1  0.499348  0.500299  0.997839  1
  Tm  Tm19  1  0.499666  0.500659  0.499816  1
  Ir  Ir20  1  0.847682  0.848035  0.750097  1
  Ir  Ir21  1  0.151573  0.152744  0.749380  1
  Ir  Ir22  1  0.153341  0.845910  0.249779  1
  Ir  Ir23  1  0.654282  0.346079  0.749857  1
  Ir  Ir24  1  0.652935  0.652212  0.249682  1
  Ir  Ir25  1  0.347336  0.347693  0.249983  1
  Ir  Ir26  1  0.346509  0.653230  0.749756  1
  Ir  Ir27  1  0.000124  0.499268  0.376411  1
  Ru  Ru28  1  0.500426  0.999817  0.126195  1
  Ru  Ru29  1  0.499725  0.999761  0.623720  1
  Ru  Ru30  1  0.000175  0.500077  0.877695  1
  Au  Au31  1  0.845272  0.155294  0.250020  1
