# generated using pymatgen
data_HfNp3I16
_symmetry_space_group_name_H-M   'P 1'
_cell_length_a   9.08403820
_cell_length_b   9.14104422
_cell_length_c   14.05714733
_cell_angle_alpha   72.93339645
_cell_angle_beta   71.86267259
_cell_angle_gamma   89.45884021
_symmetry_Int_Tables_number   1
_chemical_formula_structural   HfNp3I16
_chemical_formula_sum   'Hf1 Np3 I16'
_cell_volume   1056.10628356
_cell_formula_units_Z   1
loop_
 _symmetry_equiv_pos_site_id
 _symmetry_equiv_pos_as_xyz
  1  'x, y, z'
loop_
 _atom_site_type_symbol
 _atom_site_label
 _atom_site_symmetry_multiplicity
 _atom_site_fract_x
 _atom_site_fract_y
 _atom_site_fract_z
 _atom_site_occupancy
  Hf  Hf0  1  0.202444  0.939083  0.375636  1
  Np  Np1  1  0.059145  0.804481  0.126846  1
  Np  Np2  1  0.804955  0.061110  0.620995  1
  Np  Np3  1  0.939910  0.195559  0.876449  1
  I  I4  1  0.058305  0.830378  0.602319  1
  I  I5  1  0.051842  0.279579  0.634927  1
  I  I6  1  0.720160  0.950120  0.862577  1
  I  I7  1  0.580457  0.826022  0.636209  1
  I  I8  1  0.174322  0.418893  0.863306  1
  I  I9  1  0.955754  0.729995  0.365504  1
  I  I10  1  0.697440  0.402403  0.890920  1
  I  I11  1  0.176205  0.949357  0.885997  1
  I  I12  1  0.405927  0.162495  0.364716  1
  I  I13  1  0.826520  0.581657  0.137298  1
  I  I14  1  0.391384  0.708821  0.388585  1
  I  I15  1  0.596559  0.301550  0.608901  1
  I  I16  1  0.955085  0.162621  0.382901  1
  I  I17  1  0.302803  0.598703  0.110351  1
  I  I18  1  0.823890  0.051453  0.116988  1
  I  I19  1  0.276895  0.045721  0.148575  1
