# generated using pymatgen
data_YEr2PdRh2Pb3
_symmetry_space_group_name_H-M   'P 1'
_cell_length_a   7.89614154
_cell_length_b   7.89196387
_cell_length_c   3.70180200
_cell_angle_alpha   90.00000000
_cell_angle_beta   90.00000000
_cell_angle_gamma   120.08907220
_symmetry_Int_Tables_number   1
_chemical_formula_structural   YEr2PdRh2Pb3
_chemical_formula_sum   'Y1 Er2 Pd1 Rh2 Pb3'
_cell_volume   199.59668721
_cell_formula_units_Z   1
loop_
 _symmetry_equiv_pos_site_id
 _symmetry_equiv_pos_as_xyz
  1  'x, y, z'
loop_
 _atom_site_type_symbol
 _atom_site_label
 _atom_site_symmetry_multiplicity
 _atom_site_fract_x
 _atom_site_fract_y
 _atom_site_fract_z
 _atom_site_occupancy
  Y  Y0  1  0.403837  0.392020  0.500000  1
  Er  Er1  1  0.608235  0.012398  0.500000  1
  Er  Er2  1  0.987608  0.595816  0.500000  1
  Pd  Pd3  1  0.333072  0.667965  0.000000  1
  Rh  Rh4  1  0.668396  0.332967  0.000000  1
  Rh  Rh5  1  0.999167  0.999186  0.500000  1
  Pb  Pb6  1  0.729510  0.732812  0.000000  1
  Pb  Pb7  1  0.267388  0.996062  0.000000  1
  Pb  Pb8  1  0.002789  0.270774  0.000000  1
