# generated using pymatgen
data_Tb2LuZn3(GaCo)6
_symmetry_space_group_name_H-M   'P 1'
_cell_length_a   4.10171800
_cell_length_b   8.86148579
_cell_length_c   8.86148830
_cell_angle_alpha   59.98212271
_cell_angle_beta   90.00000000
_cell_angle_gamma   90.00000000
_symmetry_Int_Tables_number   1
_chemical_formula_structural   Tb2LuZn3(GaCo)6
_chemical_formula_sum   'Tb2 Lu1 Zn3 Ga6 Co6'
_cell_volume   278.88899711
_cell_formula_units_Z   1
loop_
 _symmetry_equiv_pos_site_id
 _symmetry_equiv_pos_as_xyz
  1  'x, y, z'
loop_
 _atom_site_type_symbol
 _atom_site_label
 _atom_site_symmetry_multiplicity
 _atom_site_fract_x
 _atom_site_fract_y
 _atom_site_fract_z
 _atom_site_occupancy
  Tb  Tb0  1  0.500000  0.333439  0.333307  1
  Tb  Tb1  1  0.500000  0.666693  0.666561  1
  Lu  Lu2  1  0.000000  0.999788  0.000212  1
  Zn  Zn3  1  0.500000  0.291581  0.708419  1
  Zn  Zn4  1  0.500000  0.708418  0.999947  1
  Zn  Zn5  1  0.500000  0.000053  0.291582  1
  Ga  Ga6  1  0.000000  0.493848  0.506152  1
  Ga  Ga7  1  0.000000  0.506343  0.000055  1
  Ga  Ga8  1  0.000000  0.999945  0.493657  1
  Ga  Ga9  1  0.500000  0.717272  0.282728  1
  Ga  Ga10  1  0.500000  0.282764  0.000116  1
  Ga  Ga11  1  0.500000  0.999884  0.717236  1
  Co  Co12  1  0.000000  0.186767  0.177397  1
  Co  Co13  1  0.000000  0.177364  0.635947  1
  Co  Co14  1  0.000000  0.635895  0.186810  1
  Co  Co15  1  0.000000  0.822603  0.813233  1
  Co  Co16  1  0.000000  0.364053  0.822636  1
  Co  Co17  1  0.000000  0.813190  0.364105  1
