# generated using pymatgen
data_Gd5(MoO6)2
_symmetry_space_group_name_H-M   'P 1'
_cell_length_a   6.92173997
_cell_length_b   6.92173970
_cell_length_c   7.69688921
_cell_angle_alpha   73.70600673
_cell_angle_beta   73.70600634
_cell_angle_gamma   49.80443462
_symmetry_Int_Tables_number   1
_chemical_formula_structural   Gd5(MoO6)2
_chemical_formula_sum   'Gd5 Mo2 O12'
_cell_volume   267.86268606
_cell_formula_units_Z   1
loop_
 _symmetry_equiv_pos_site_id
 _symmetry_equiv_pos_as_xyz
  1  'x, y, z'
loop_
 _atom_site_type_symbol
 _atom_site_label
 _atom_site_symmetry_multiplicity
 _atom_site_fract_x
 _atom_site_fract_y
 _atom_site_fract_z
 _atom_site_occupancy
  Gd  Gd0  1  0.499824  0.499824  0.500078  1
  Gd  Gd1  1  0.185550  0.185550  0.178094  1
  Gd  Gd2  1  0.814419  0.814419  0.822632  1
  Gd  Gd3  1  0.805784  0.805784  0.359989  1
  Gd  Gd4  1  0.194112  0.194112  0.640824  1
  Mo  Mo5  1  0.718038  0.281976  0.999840  1
  Mo  Mo6  1  0.281976  0.718038  0.999840  1
  O  O7  1  0.999743  0.999743  0.178488  1
  O  O8  1  0.000261  0.000261  0.821172  1
  O  O9  1  0.498756  0.498756  0.796904  1
  O  O10  1  0.501511  0.501511  0.202632  1
  O  O11  1  0.597188  0.092597  0.575346  1
  O  O12  1  0.907258  0.402970  0.425022  1
  O  O13  1  0.402970  0.907258  0.425022  1
  O  O14  1  0.409197  0.916493  0.916723  1
  O  O15  1  0.083515  0.590809  0.082663  1
  O  O16  1  0.590809  0.083515  0.082663  1
  O  O17  1  0.916493  0.409197  0.916723  1
  O  O18  1  0.092597  0.597188  0.575346  1
