# generated using pymatgen
data_Ta6Be4Re3Si2Ru3
_symmetry_space_group_name_H-M   'P 1'
_cell_length_a   7.40927652
_cell_length_b   7.41600251
_cell_length_c   7.40923477
_cell_angle_alpha   126.41040295
_cell_angle_beta   128.38286747
_cell_angle_gamma   77.58942659
_symmetry_Int_Tables_number   1
_chemical_formula_structural   Ta6Be4Re3Si2Ru3
_chemical_formula_sum   'Ta6 Be4 Re3 Si2 Ru3'
_cell_volume   249.09884302
_cell_formula_units_Z   1
loop_
 _symmetry_equiv_pos_site_id
 _symmetry_equiv_pos_as_xyz
  1  'x, y, z'
loop_
 _atom_site_type_symbol
 _atom_site_label
 _atom_site_symmetry_multiplicity
 _atom_site_fract_x
 _atom_site_fract_y
 _atom_site_fract_z
 _atom_site_occupancy
  Ta  Ta0  1  0.948762  0.907814  0.457934  1
  Ta  Ta1  1  0.051219  0.505776  0.953218  1
  Ta  Ta2  1  0.552566  0.505737  0.454554  1
  Ta  Ta3  1  0.449930  0.907812  0.959110  1
  Ta  Ta4  1  0.738221  0.096003  0.837508  1
  Ta  Ta5  1  0.258640  0.096144  0.357858  1
  Be  Be6  1  0.749007  0.501173  0.248527  1
  Be  Be7  1  0.252642  0.501151  0.752151  1
  Be  Be8  1  0.668314  0.172385  0.504213  1
  Be  Be9  1  0.330311  0.832324  0.501714  1
  Re  Re10  1  0.500304  0.756201  0.256042  1
  Re  Re11  1  0.000661  0.753523  0.752928  1
  Re  Re12  1  0.873738  0.252200  0.378352  1
  Si  Si13  1  0.166286  0.174723  0.008329  1
  Si  Si14  1  0.832797  0.837608  0.004870  1
  Ru  Ru15  1  0.126021  0.504190  0.378054  1
  Ru  Ru16  1  0.375211  0.251633  0.876374  1
  Ru  Ru17  1  0.625369  0.501405  0.876062  1
