# generated using pymatgen
data_Dy4Cd(NiTe)2
_symmetry_space_group_name_H-M   'P 1'
_cell_length_a   7.60947400
_cell_length_b   7.60947343
_cell_length_c   15.12271900
_cell_angle_alpha   90.00000000
_cell_angle_beta   90.00000000
_cell_angle_gamma   149.92878255
_symmetry_Int_Tables_number   1
_chemical_formula_structural   Dy4Cd(NiTe)2
_chemical_formula_sum   'Dy8 Cd2 Ni4 Te4'
_cell_volume   438.77591724
_cell_formula_units_Z   2
loop_
 _symmetry_equiv_pos_site_id
 _symmetry_equiv_pos_as_xyz
  1  'x, y, z'
loop_
 _atom_site_type_symbol
 _atom_site_label
 _atom_site_symmetry_multiplicity
 _atom_site_fract_x
 _atom_site_fract_y
 _atom_site_fract_z
 _atom_site_occupancy
  Dy  Dy0  1  0.968086  0.031914  0.131253  1
  Dy  Dy1  1  0.031914  0.968086  0.868747  1
  Dy  Dy2  1  0.031914  0.968086  0.631253  1
  Dy  Dy3  1  0.968086  0.031914  0.368747  1
  Dy  Dy4  1  0.751216  0.248784  0.634294  1
  Dy  Dy5  1  0.248784  0.751216  0.365706  1
  Dy  Dy6  1  0.248784  0.751216  0.134294  1
  Dy  Dy7  1  0.751216  0.248784  0.865706  1
  Cd  Cd8  1  0.607740  0.392260  0.250000  1
  Cd  Cd9  1  0.392260  0.607740  0.750000  1
  Ni  Ni10  1  0.414675  0.585325  0.250000  1
  Ni  Ni11  1  0.585325  0.414675  0.750000  1
  Ni  Ni12  1  0.809625  0.190375  0.250000  1
  Ni  Ni13  1  0.190375  0.809625  0.750000  1
  Te  Te14  1  0.619443  0.380557  0.027193  1
  Te  Te15  1  0.380557  0.619443  0.972807  1
  Te  Te16  1  0.380557  0.619443  0.527193  1
  Te  Te17  1  0.619443  0.380557  0.472807  1
