# generated using pymatgen
data_ErU4Ga15
_symmetry_space_group_name_H-M   'P 1'
_cell_length_a   12.59947614
_cell_length_b   12.59947639
_cell_length_c   12.59947598
_cell_angle_alpha   27.97704493
_cell_angle_beta   27.97704384
_cell_angle_gamma   27.97703959
_symmetry_Int_Tables_number   1
_chemical_formula_structural   ErU4Ga15
_chemical_formula_sum   'Er1 U4 Ga15'
_cell_volume   388.76483536
_cell_formula_units_Z   1
loop_
 _symmetry_equiv_pos_site_id
 _symmetry_equiv_pos_as_xyz
  1  'x, y, z'
loop_
 _atom_site_type_symbol
 _atom_site_label
 _atom_site_symmetry_multiplicity
 _atom_site_fract_x
 _atom_site_fract_y
 _atom_site_fract_z
 _atom_site_occupancy
  Er  Er0  1  0.000000  0.000000  0.000000  1
  U  U1  1  0.130327  0.130327  0.130327  1
  U  U2  1  0.869673  0.869673  0.869673  1
  U  U3  1  0.400738  0.400738  0.400738  1
  U  U4  1  0.599262  0.599262  0.599262  1
  Ga  Ga5  1  0.427962  0.885184  0.885184  1
  Ga  Ga6  1  0.885184  0.885184  0.427962  1
  Ga  Ga7  1  0.885184  0.427962  0.885184  1
  Ga  Ga8  1  0.114816  0.572038  0.114816  1
  Ga  Ga9  1  0.114816  0.114816  0.572038  1
  Ga  Ga10  1  0.572038  0.114816  0.114816  1
  Ga  Ga11  1  0.129830  0.636202  0.636202  1
  Ga  Ga12  1  0.636202  0.636202  0.129830  1
  Ga  Ga13  1  0.636202  0.129830  0.636202  1
  Ga  Ga14  1  0.363798  0.870170  0.363798  1
  Ga  Ga15  1  0.363798  0.363798  0.870170  1
  Ga  Ga16  1  0.870170  0.363798  0.363798  1
  Ga  Ga17  1  0.500000  0.500000  0.000000  1
  Ga  Ga18  1  0.500000  0.000000  0.500000  1
  Ga  Ga19  1  0.000000  0.500000  0.500000  1
