# generated using pymatgen
data_Hf4TiV3P4
_symmetry_space_group_name_H-M   'P 1'
_cell_length_a   3.48066900
_cell_length_b   6.62960068
_cell_length_c   7.95362882
_cell_angle_alpha   90.05199898
_cell_angle_beta   90.00000000
_cell_angle_gamma   90.00000000
_symmetry_Int_Tables_number   1
_chemical_formula_structural   Hf4TiV3P4
_chemical_formula_sum   'Hf4 Ti1 V3 P4'
_cell_volume   183.53345338
_cell_formula_units_Z   1
loop_
 _symmetry_equiv_pos_site_id
 _symmetry_equiv_pos_as_xyz
  1  'x, y, z'
loop_
 _atom_site_type_symbol
 _atom_site_label
 _atom_site_symmetry_multiplicity
 _atom_site_fract_x
 _atom_site_fract_y
 _atom_site_fract_z
 _atom_site_occupancy
  Hf  Hf0  1  0.250000  0.038563  0.833201  1
  Hf  Hf1  1  0.250000  0.541071  0.668824  1
  Hf  Hf2  1  0.750000  0.959032  0.167168  1
  Hf  Hf3  1  0.750000  0.464734  0.327632  1
  Ti  Ti4  1  0.250000  0.131662  0.441020  1
  V  V5  1  0.250000  0.632059  0.057155  1
  V  V6  1  0.750000  0.862986  0.560965  1
  V  V7  1  0.750000  0.370393  0.941464  1
  P  P8  1  0.250000  0.760439  0.362222  1
  P  P9  1  0.250000  0.263028  0.133882  1
  P  P10  1  0.750000  0.238384  0.643395  1
  P  P11  1  0.750000  0.737650  0.863073  1
