# generated using pymatgen
data_Be2Al5V12GaN4
_symmetry_space_group_name_H-M   'P 1'
_cell_length_a   6.55105106
_cell_length_b   6.54237903
_cell_length_c   6.54128006
_cell_angle_alpha   90.06532979
_cell_angle_beta   89.99895077
_cell_angle_gamma   90.08994951
_symmetry_Int_Tables_number   1
_chemical_formula_structural   Be2Al5V12GaN4
_chemical_formula_sum   'Be2 Al5 V12 Ga1 N4'
_cell_volume   280.35519746
_cell_formula_units_Z   1
loop_
 _symmetry_equiv_pos_site_id
 _symmetry_equiv_pos_as_xyz
  1  'x, y, z'
loop_
 _atom_site_type_symbol
 _atom_site_label
 _atom_site_symmetry_multiplicity
 _atom_site_fract_x
 _atom_site_fract_y
 _atom_site_fract_z
 _atom_site_occupancy
  Be  Be0  1  0.179828  0.828077  0.320504  1
  Be  Be1  1  0.318256  0.172384  0.822301  1
  Al  Al2  1  0.823335  0.319691  0.177949  1
  Al  Al3  1  0.677450  0.679431  0.678536  1
  Al  Al4  1  0.557144  0.416144  0.924390  1
  Al  Al5  1  0.414552  0.933998  0.571128  1
  Al  Al6  1  0.943217  0.583585  0.424479  1
  V  V7  1  0.792611  0.957187  0.375889  1
  V  V8  1  0.706249  0.042443  0.873680  1
  V  V9  1  0.206602  0.460892  0.126093  1
  V  V10  1  0.293463  0.539182  0.627554  1
  V  V11  1  0.960140  0.374302  0.791818  1
  V  V12  1  0.042754  0.875172  0.707055  1
  V  V13  1  0.458758  0.123680  0.207526  1
  V  V14  1  0.538732  0.627561  0.292012  1
  V  V15  1  0.373664  0.793124  0.959714  1
  V  V16  1  0.875866  0.708348  0.043544  1
  V  V17  1  0.126564  0.207437  0.460956  1
  V  V18  1  0.624670  0.291292  0.541827  1
  Ga  Ga19  1  0.085207  0.065188  0.070792  1
  N  N20  1  0.876288  0.124663  0.625592  1
  N  N21  1  0.624982  0.875441  0.124406  1
  N  N22  1  0.124870  0.625303  0.876360  1
  N  N23  1  0.374798  0.375473  0.375892  1
