# generated using pymatgen
data_Sr(SbO2)2
_symmetry_space_group_name_H-M   'P 1'
_cell_length_a   10.37871759
_cell_length_b   10.37871727
_cell_length_c   6.60919312
_cell_angle_alpha   80.54261807
_cell_angle_beta   80.54261682
_cell_angle_gamma   23.43639855
_symmetry_Int_Tables_number   1
_chemical_formula_structural   Sr(SbO2)2
_chemical_formula_sum   'Sr2 Sb4 O8'
_cell_volume   279.14015605
_cell_formula_units_Z   2
loop_
 _symmetry_equiv_pos_site_id
 _symmetry_equiv_pos_as_xyz
  1  'x, y, z'
loop_
 _atom_site_type_symbol
 _atom_site_label
 _atom_site_symmetry_multiplicity
 _atom_site_fract_x
 _atom_site_fract_y
 _atom_site_fract_z
 _atom_site_occupancy
  Sr  Sr0  1  0.246783  0.246783  0.748483  1
  Sr  Sr1  1  0.753217  0.753217  0.251517  1
  Sb  Sb2  1  0.404630  0.404630  0.272388  1
  Sb  Sb3  1  0.595370  0.595370  0.727612  1
  Sb  Sb4  1  0.097280  0.097280  0.135554  1
  Sb  Sb5  1  0.902720  0.902720  0.864446  1
  O  O6  1  0.105837  0.105837  0.819766  1
  O  O7  1  0.894163  0.894163  0.180234  1
  O  O8  1  0.192802  0.192802  0.135503  1
  O  O9  1  0.807198  0.807198  0.864497  1
  O  O10  1  0.309921  0.309921  0.385900  1
  O  O11  1  0.690079  0.690079  0.614100  1
  O  O12  1  0.597739  0.597739  0.037085  1
  O  O13  1  0.402261  0.402261  0.962915  1
