# generated using pymatgen
data_Ca4YEr(Si3Os)8
_symmetry_space_group_name_H-M   'P 1'
_cell_length_a   10.17797150
_cell_length_b   10.17781815
_cell_length_c   8.18135787
_cell_angle_alpha   89.94428176
_cell_angle_beta   90.07211687
_cell_angle_gamma   132.59735855
_symmetry_Int_Tables_number   1
_chemical_formula_structural   Ca4YEr(Si3Os)8
_chemical_formula_sum   'Ca4 Y1 Er1 Si24 Os8'
_cell_volume   623.87052386
_cell_formula_units_Z   1
loop_
 _symmetry_equiv_pos_site_id
 _symmetry_equiv_pos_as_xyz
  1  'x, y, z'
loop_
 _atom_site_type_symbol
 _atom_site_label
 _atom_site_symmetry_multiplicity
 _atom_site_fract_x
 _atom_site_fract_y
 _atom_site_fract_z
 _atom_site_occupancy
  Ca  Ca0  1  0.499368  0.999452  0.750188  1
  Ca  Ca1  1  0.000672  0.500682  0.249893  1
  Ca  Ca2  1  0.499947  0.999881  0.249897  1
  Ca  Ca3  1  0.999731  0.999847  0.000094  1
  Y  Y4  1  0.998071  0.497979  0.750257  1
  Er  Er5  1  0.499725  0.499709  0.499708  1
  Si  Si6  1  0.792867  0.204413  0.498400  1
  Si  Si7  1  0.703930  0.293220  0.001691  1
  Si  Si8  1  0.206709  0.794707  0.499468  1
  Si  Si9  1  0.295074  0.706271  0.000594  1
  Si  Si10  1  0.665365  0.668287  0.167194  1
  Si  Si11  1  0.165957  0.162859  0.330389  1
  Si  Si12  1  0.835490  0.834122  0.669192  1
  Si  Si13  1  0.331971  0.333278  0.833148  1
  Si  Si14  1  0.846213  0.612836  0.992203  1
  Si  Si15  1  0.110348  0.344571  0.507090  1
  Si  Si16  1  0.654454  0.889193  0.493448  1
  Si  Si17  1  0.386640  0.152808  0.007227  1
  Si  Si18  1  0.154524  0.387888  0.006668  1
  Si  Si19  1  0.890405  0.656226  0.494144  1
  Si  Si20  1  0.122559  0.889435  0.728777  1
  Si  Si21  1  0.389531  0.622941  0.772271  1
  Si  Si22  1  0.376983  0.610942  0.228783  1
  Si  Si23  1  0.111073  0.877225  0.270096  1
  Si  Si24  1  0.877025  0.110935  0.270194  1
  Si  Si25  1  0.610878  0.376748  0.228793  1
  Si  Si26  1  0.623798  0.390439  0.772333  1
  Si  Si27  1  0.890282  0.123370  0.728697  1
  Si  Si28  1  0.612964  0.847534  0.993582  1
  Si  Si29  1  0.345859  0.110526  0.505638  1
  Os  Os30  1  0.625806  0.625895  0.872617  1
  Os  Os31  1  0.129919  0.129885  0.623297  1
  Os  Os32  1  0.374414  0.373780  0.127831  1
  Os  Os33  1  0.869685  0.870409  0.376299  1
  Os  Os34  1  0.168154  0.829152  0.998227  1
  Os  Os35  1  0.330523  0.666878  0.501728  1
  Os  Os36  1  0.832339  0.172077  0.998086  1
  Os  Os37  1  0.670749  0.333601  0.501858  1
