# generated using pymatgen
data_U3Pa(Co3Sn)4
_symmetry_space_group_name_H-M   'P 1'
_cell_length_a   5.18470200
_cell_length_b   7.27248493
_cell_length_c   8.19598587
_cell_angle_alpha   89.42799875
_cell_angle_beta   90.00000000
_cell_angle_gamma   90.00000000
_symmetry_Int_Tables_number   1
_chemical_formula_structural   U3Pa(Co3Sn)4
_chemical_formula_sum   'U3 Pa1 Co12 Sn4'
_cell_volume   309.01971515
_cell_formula_units_Z   1
loop_
 _symmetry_equiv_pos_site_id
 _symmetry_equiv_pos_as_xyz
  1  'x, y, z'
loop_
 _atom_site_type_symbol
 _atom_site_label
 _atom_site_symmetry_multiplicity
 _atom_site_fract_x
 _atom_site_fract_y
 _atom_site_fract_z
 _atom_site_occupancy
  U  U0  1  0.750000  0.384502  0.669108  1
  U  U1  1  0.250000  0.118266  0.171360  1
  U  U2  1  0.250000  0.616732  0.331743  1
  Pa  Pa3  1  0.750000  0.883344  0.830576  1
  Co  Co4  1  0.750000  0.547951  0.421097  1
  Co  Co5  1  0.750000  0.056398  0.083201  1
  Co  Co6  1  0.250000  0.443519  0.577265  1
  Co  Co7  1  0.250000  0.954222  0.930249  1
  Co  Co8  1  0.998684  0.250146  0.373936  1
  Co  Co9  1  0.502043  0.751000  0.128135  1
  Co  Co10  1  0.495804  0.743078  0.617639  1
  Co  Co11  1  0.002034  0.252681  0.873055  1
  Co  Co12  1  0.004196  0.743078  0.617639  1
  Co  Co13  1  0.497966  0.252681  0.873055  1
  Co  Co14  1  0.501316  0.250146  0.373936  1
  Co  Co15  1  0.997957  0.751000  0.128135  1
  Sn  Sn16  1  0.750000  0.925657  0.386330  1
  Sn  Sn17  1  0.750000  0.426956  0.113601  1
  Sn  Sn18  1  0.250000  0.070805  0.616030  1
  Sn  Sn19  1  0.250000  0.577838  0.883911  1
