# generated using pymatgen
data_LiYb3YRuC8
_symmetry_space_group_name_H-M   'P 1'
_cell_length_a   6.84338028
_cell_length_b   6.77599450
_cell_length_c   6.79110638
_cell_angle_alpha   134.60623673
_cell_angle_beta   108.90362008
_cell_angle_gamma   88.78356911
_symmetry_Int_Tables_number   1
_chemical_formula_structural   LiYb3YRuC8
_chemical_formula_sum   'Li1 Yb3 Y1 Ru1 C8'
_cell_volume   201.91495948
_cell_formula_units_Z   1
loop_
 _symmetry_equiv_pos_site_id
 _symmetry_equiv_pos_as_xyz
  1  'x, y, z'
loop_
 _atom_site_type_symbol
 _atom_site_label
 _atom_site_symmetry_multiplicity
 _atom_site_fract_x
 _atom_site_fract_y
 _atom_site_fract_z
 _atom_site_occupancy
  Li  Li0  1  0.002143  0.249657  0.242851  1
  Yb  Yb1  1  0.797953  0.641830  0.142770  1
  Yb  Yb2  1  0.511046  0.862640  0.667268  1
  Yb  Yb3  1  0.500583  0.158581  0.359398  1
  Y  Y4  1  0.200659  0.343458  0.840219  1
  Ru  Ru5  1  0.994863  0.738784  0.744614  1
  C  C6  1  0.799140  0.139424  0.677483  1
  C  C7  1  0.213895  0.883950  0.350980  1
  C  C8  1  0.460266  0.616687  0.830805  1
  C  C9  1  0.526053  0.377320  0.155055  1
  C  C10  1  0.899128  0.020822  0.751515  1
  C  C11  1  0.105217  0.857450  0.132007  1
  C  C12  1  0.269710  0.638676  0.744514  1
  C  C13  1  0.719345  0.470721  0.360521  1
