# generated using pymatgen
data_Li3IrOs
_symmetry_space_group_name_H-M   'P 1'
_cell_length_a   6.68693600
_cell_length_b   6.68693600
_cell_length_c   6.68693600
_cell_angle_alpha   90.00000000
_cell_angle_beta   90.00000000
_cell_angle_gamma   90.00000000
_symmetry_Int_Tables_number   1
_chemical_formula_structural   Li3IrOs
_chemical_formula_sum   'Li12 Ir4 Os4'
_cell_volume   299.00709932
_cell_formula_units_Z   4
loop_
 _symmetry_equiv_pos_site_id
 _symmetry_equiv_pos_as_xyz
  1  'x, y, z'
loop_
 _atom_site_type_symbol
 _atom_site_label
 _atom_site_symmetry_multiplicity
 _atom_site_fract_x
 _atom_site_fract_y
 _atom_site_fract_z
 _atom_site_occupancy
  Li  Li0  1  0.125281  0.210453  0.460710  1
  Li  Li1  1  0.460710  0.125281  0.210453  1
  Li  Li2  1  0.210453  0.460710  0.125281  1
  Li  Li3  1  0.289547  0.539290  0.625281  1
  Li  Li4  1  0.960710  0.374719  0.789547  1
  Li  Li5  1  0.789547  0.960710  0.374719  1
  Li  Li6  1  0.039290  0.874719  0.710453  1
  Li  Li7  1  0.539290  0.625281  0.289547  1
  Li  Li8  1  0.710453  0.039290  0.874719  1
  Li  Li9  1  0.625281  0.289547  0.539290  1
  Li  Li10  1  0.874719  0.710453  0.039290  1
  Li  Li11  1  0.374719  0.789547  0.960710  1
  Ir  Ir12  1  0.327155  0.172845  0.827155  1
  Ir  Ir13  1  0.172845  0.827155  0.327155  1
  Ir  Ir14  1  0.827155  0.327155  0.172845  1
  Ir  Ir15  1  0.672845  0.672845  0.672845  1
  Os  Os16  1  0.923074  0.576926  0.423074  1
  Os  Os17  1  0.576926  0.423074  0.923074  1
  Os  Os18  1  0.423074  0.923074  0.576926  1
  Os  Os19  1  0.076926  0.076926  0.076926  1
