# generated using pymatgen
data_YHo5Hf4(Si5Ir2)4
_symmetry_space_group_name_H-M   'P 1'
_cell_length_a   12.50836700
_cell_length_b   12.50836700
_cell_length_c   4.18156600
_cell_angle_alpha   90.00000000
_cell_angle_beta   90.00000000
_cell_angle_gamma   90.00000000
_symmetry_Int_Tables_number   1
_chemical_formula_structural   YHo5Hf4(Si5Ir2)4
_chemical_formula_sum   'Y1 Ho5 Hf4 Si20 Ir8'
_cell_volume   654.24465931
_cell_formula_units_Z   1
loop_
 _symmetry_equiv_pos_site_id
 _symmetry_equiv_pos_as_xyz
  1  'x, y, z'
loop_
 _atom_site_type_symbol
 _atom_site_label
 _atom_site_symmetry_multiplicity
 _atom_site_fract_x
 _atom_site_fract_y
 _atom_site_fract_z
 _atom_site_occupancy
  Y  Y0  1  0.500000  0.500000  0.000000  1
  Ho  Ho1  1  0.000000  0.000000  0.000000  1
  Ho  Ho2  1  0.884446  0.384440  0.500000  1
  Ho  Ho3  1  0.115554  0.615560  0.500000  1
  Ho  Ho4  1  0.384440  0.115554  0.500000  1
  Ho  Ho5  1  0.615560  0.884446  0.500000  1
  Hf  Hf6  1  0.673719  0.173868  0.500000  1
  Hf  Hf7  1  0.326281  0.826132  0.500000  1
  Hf  Hf8  1  0.173868  0.326281  0.500000  1
  Hf  Hf9  1  0.826132  0.673719  0.500000  1
  Si  Si10  1  0.566719  0.066615  0.000000  1
  Si  Si11  1  0.433281  0.933385  0.000000  1
  Si  Si12  1  0.066615  0.433281  0.000000  1
  Si  Si13  1  0.933385  0.566719  0.000000  1
  Si  Si14  1  0.664968  0.700209  0.000000  1
  Si  Si15  1  0.335032  0.299791  0.000000  1
  Si  Si16  1  0.164848  0.800140  0.000000  1
  Si  Si17  1  0.835152  0.199860  0.000000  1
  Si  Si18  1  0.299791  0.664968  0.000000  1
  Si  Si19  1  0.700209  0.335032  0.000000  1
  Si  Si20  1  0.199860  0.164848  0.000000  1
  Si  Si21  1  0.800140  0.835152  0.000000  1
  Si  Si22  1  0.657155  0.508095  0.500000  1
  Si  Si23  1  0.342845  0.491905  0.500000  1
  Si  Si24  1  0.156745  0.992269  0.500000  1
  Si  Si25  1  0.843255  0.007731  0.500000  1
  Si  Si26  1  0.491905  0.657155  0.500000  1
  Si  Si27  1  0.508095  0.342845  0.500000  1
  Si  Si28  1  0.007731  0.156745  0.500000  1
  Si  Si29  1  0.992269  0.843255  0.500000  1
  Ir  Ir30  1  0.746297  0.521505  0.000000  1
  Ir  Ir31  1  0.253703  0.478495  0.000000  1
  Ir  Ir32  1  0.246096  0.978485  0.000000  1
  Ir  Ir33  1  0.753904  0.021515  0.000000  1
  Ir  Ir34  1  0.478495  0.746297  0.000000  1
  Ir  Ir35  1  0.521505  0.253703  0.000000  1
  Ir  Ir36  1  0.021515  0.246096  0.000000  1
  Ir  Ir37  1  0.978485  0.753904  0.000000  1
