# generated using pymatgen
data_Hf18TiGaRe7Si
_symmetry_space_group_name_H-M   'P 1'
_cell_length_a   8.58998100
_cell_length_b   8.58998145
_cell_length_c   8.69099100
_cell_angle_alpha   90.00000000
_cell_angle_beta   90.00000000
_cell_angle_gamma   120.00000210
_symmetry_Int_Tables_number   1
_chemical_formula_structural   Hf18TiGaRe7Si
_chemical_formula_sum   'Hf18 Ti1 Ga1 Re7 Si1'
_cell_volume   555.37247548
_cell_formula_units_Z   1
loop_
 _symmetry_equiv_pos_site_id
 _symmetry_equiv_pos_as_xyz
  1  'x, y, z'
loop_
 _atom_site_type_symbol
 _atom_site_label
 _atom_site_symmetry_multiplicity
 _atom_site_fract_x
 _atom_site_fract_y
 _atom_site_fract_z
 _atom_site_occupancy
  Hf  Hf0  1  0.195212  0.804788  0.453006  1
  Hf  Hf1  1  0.195212  0.390422  0.453006  1
  Hf  Hf2  1  0.609578  0.804788  0.453006  1
  Hf  Hf3  1  0.803725  0.196275  0.547613  1
  Hf  Hf4  1  0.803725  0.607451  0.547613  1
  Hf  Hf5  1  0.392549  0.196275  0.547613  1
  Hf  Hf6  1  0.805319  0.194681  0.951704  1
  Hf  Hf7  1  0.805319  0.610639  0.951704  1
  Hf  Hf8  1  0.389361  0.194681  0.951704  1
  Hf  Hf9  1  0.193926  0.806074  0.047455  1
  Hf  Hf10  1  0.193926  0.387851  0.047455  1
  Hf  Hf11  1  0.612149  0.806074  0.047455  1
  Hf  Hf12  1  0.540943  0.459057  0.249170  1
  Hf  Hf13  1  0.540943  0.081885  0.249170  1
  Hf  Hf14  1  0.918115  0.459057  0.249170  1
  Hf  Hf15  1  0.460061  0.539939  0.750455  1
  Hf  Hf16  1  0.460061  0.920123  0.750455  1
  Hf  Hf17  1  0.079877  0.539939  0.750455  1
  Ti  Ti18  1  0.000000  0.000000  0.499771  1
  Ga  Ga19  1  0.333333  0.666667  0.248794  1
  Re  Re20  1  0.889499  0.110501  0.252450  1
  Re  Re21  1  0.889499  0.778997  0.252450  1
  Re  Re22  1  0.221003  0.110501  0.252450  1
  Re  Re23  1  0.109972  0.890028  0.748156  1
  Re  Re24  1  0.109972  0.219944  0.748156  1
  Re  Re25  1  0.780056  0.890028  0.748156  1
  Re  Re26  1  0.000000  0.000000  0.000370  1
  Si  Si27  1  0.666667  0.333333  0.751040  1
