# generated using pymatgen
data_Y2MgCoRu
_symmetry_space_group_name_H-M   'P 1'
_cell_length_a   4.30064830
_cell_length_b   5.77415406
_cell_length_c   5.49784525
_cell_angle_alpha   121.67692915
_cell_angle_beta   113.02431103
_cell_angle_gamma   89.99998189
_symmetry_Int_Tables_number   1
_chemical_formula_structural   Y2MgCoRu
_chemical_formula_sum   'Y2 Mg1 Co1 Ru1'
_cell_volume   103.18891326
_cell_formula_units_Z   1
loop_
 _symmetry_equiv_pos_site_id
 _symmetry_equiv_pos_as_xyz
  1  'x, y, z'
loop_
 _atom_site_type_symbol
 _atom_site_label
 _atom_site_symmetry_multiplicity
 _atom_site_fract_x
 _atom_site_fract_y
 _atom_site_fract_z
 _atom_site_occupancy
  Y  Y0  1  0.792379  0.285637  0.584759  1
  Y  Y1  1  0.207621  0.700878  0.415241  1
  Mg  Mg2  1  0.000000  0.994545  0.000000  1
  Co  Co3  1  0.500000  0.715571  0.000000  1
  Ru  Ru4  1  0.500000  0.303369  0.000000  1
