# generated using pymatgen
data_Li3Ge(PRh3)2
_symmetry_space_group_name_H-M   'P 1'
_cell_length_a   4.12389100
_cell_length_b   5.80711300
_cell_length_c   12.34953400
_cell_angle_alpha   90.00000000
_cell_angle_beta   90.00005098
_cell_angle_gamma   90.00000000
_symmetry_Int_Tables_number   1
_chemical_formula_structural   Li3Ge(PRh3)2
_chemical_formula_sum   'Li6 Ge2 P4 Rh12'
_cell_volume   295.74541808
_cell_formula_units_Z   2
loop_
 _symmetry_equiv_pos_site_id
 _symmetry_equiv_pos_as_xyz
  1  'x, y, z'
loop_
 _atom_site_type_symbol
 _atom_site_label
 _atom_site_symmetry_multiplicity
 _atom_site_fract_x
 _atom_site_fract_y
 _atom_site_fract_z
 _atom_site_occupancy
  Li  Li0  1  0.000005  0.500000  0.002991  1
  Li  Li1  1  0.499897  0.000000  0.170321  1
  Li  Li2  1  0.999901  0.500000  0.329615  1
  Li  Li3  1  0.500004  0.000000  0.497132  1
  Li  Li4  1  0.000094  0.500000  0.667816  1
  Li  Li5  1  0.500093  0.000000  0.832114  1
  Ge  Ge6  1  0.000055  0.000000  0.666798  1
  Ge  Ge7  1  0.500057  0.500000  0.833196  1
  P  P8  1  0.000005  0.000000  0.999735  1
  P  P9  1  0.499928  0.500000  0.166732  1
  P  P10  1  0.999928  0.000000  0.333300  1
  P  P11  1  0.500006  0.500000  0.500197  1
  Rh  Rh12  1  0.499996  0.246157  0.008254  1
  Rh  Rh13  1  0.499996  0.753844  0.008254  1
  Rh  Rh14  1  0.999953  0.248240  0.168943  1
  Rh  Rh15  1  0.999953  0.751761  0.168943  1
  Rh  Rh16  1  0.499956  0.251724  0.331098  1
  Rh  Rh17  1  0.499956  0.748275  0.331098  1
  Rh  Rh18  1  0.000001  0.253866  0.491738  1
  Rh  Rh19  1  0.000001  0.746135  0.491738  1
  Rh  Rh20  1  0.500051  0.254843  0.659718  1
  Rh  Rh21  1  0.500051  0.745156  0.659718  1
  Rh  Rh22  1  0.000053  0.245221  0.840275  1
  Rh  Rh23  1  0.000053  0.754780  0.840275  1
