# generated using pymatgen
data_Ti2AlCo4Si
_symmetry_space_group_name_H-M   'P 1'
_cell_length_a   7.09057109
_cell_length_b   7.09057095
_cell_length_c   7.09057101
_cell_angle_alpha   33.56721109
_cell_angle_beta   33.56721380
_cell_angle_gamma   33.56722003
_symmetry_Int_Tables_number   1
_chemical_formula_structural   Ti2AlCo4Si
_chemical_formula_sum   'Ti2 Al1 Co4 Si1'
_cell_volume   97.07561651
_cell_formula_units_Z   1
loop_
 _symmetry_equiv_pos_site_id
 _symmetry_equiv_pos_as_xyz
  1  'x, y, z'
loop_
 _atom_site_type_symbol
 _atom_site_label
 _atom_site_symmetry_multiplicity
 _atom_site_fract_x
 _atom_site_fract_y
 _atom_site_fract_z
 _atom_site_occupancy
  Ti  Ti0  1  0.249849  0.249849  0.249849  1
  Ti  Ti1  1  0.750151  0.750151  0.750151  1
  Al  Al2  1  0.000000  0.000000  0.000000  1
  Co  Co3  1  0.873073  0.873073  0.873073  1
  Co  Co4  1  0.377305  0.377305  0.377305  1
  Co  Co5  1  0.126927  0.126927  0.126927  1
  Co  Co6  1  0.622695  0.622695  0.622695  1
  Si  Si7  1  0.500000  0.500000  0.500000  1
