# generated using pymatgen
data_Ca(CuPd)6
_symmetry_space_group_name_H-M   'P 1'
_cell_length_a   6.67764568
_cell_length_b   6.67764657
_cell_length_c   6.67764658
_cell_angle_alpha   136.10987533
_cell_angle_beta   96.84251490
_cell_angle_gamma   99.21784697
_symmetry_Int_Tables_number   1
_chemical_formula_structural   Ca(CuPd)6
_chemical_formula_sum   'Ca1 Cu6 Pd6'
_cell_volume   191.42015830
_cell_formula_units_Z   1
loop_
 _symmetry_equiv_pos_site_id
 _symmetry_equiv_pos_as_xyz
  1  'x, y, z'
loop_
 _atom_site_type_symbol
 _atom_site_label
 _atom_site_symmetry_multiplicity
 _atom_site_fract_x
 _atom_site_fract_y
 _atom_site_fract_z
 _atom_site_occupancy
  Ca  Ca0  1  0.000000  0.000000  0.000000  1
  Cu  Cu1  1  0.000000  0.000000  0.500000  1
  Cu  Cu2  1  0.000000  0.500000  0.000000  1
  Cu  Cu3  1  0.500000  0.500000  0.500000  1
  Cu  Cu4  1  0.500000  0.000000  0.000000  1
  Cu  Cu5  1  0.236725  0.500000  0.736725  1
  Cu  Cu6  1  0.763275  0.500000  0.263275  1
  Pd  Pd7  1  0.650152  0.000000  0.650152  1
  Pd  Pd8  1  0.349848  0.000000  0.349848  1
  Pd  Pd9  1  0.655848  0.655848  0.000000  1
  Pd  Pd10  1  0.344152  0.344152  0.000000  1
  Pd  Pd11  1  0.191651  0.691651  0.500000  1
  Pd  Pd12  1  0.808349  0.308349  0.500000  1
