# generated using pymatgen
data_HoEr2In3GePt2
_symmetry_space_group_name_H-M   'P 1'
_cell_length_a   7.46402476
_cell_length_b   7.47028764
_cell_length_c   4.11151200
_cell_angle_alpha   90.00000000
_cell_angle_beta   90.00000000
_cell_angle_gamma   120.02404149
_symmetry_Int_Tables_number   1
_chemical_formula_structural   HoEr2In3GePt2
_chemical_formula_sum   'Ho1 Er2 In3 Ge1 Pt2'
_cell_volume   198.48940382
_cell_formula_units_Z   1
loop_
 _symmetry_equiv_pos_site_id
 _symmetry_equiv_pos_as_xyz
  1  'x, y, z'
loop_
 _atom_site_type_symbol
 _atom_site_label
 _atom_site_symmetry_multiplicity
 _atom_site_fract_x
 _atom_site_fract_y
 _atom_site_fract_z
 _atom_site_occupancy
  Ho  Ho0  1  0.598201  0.009879  0.500000  1
  Er  Er1  1  0.411677  0.401270  0.500000  1
  Er  Er2  1  0.989526  0.588367  0.500000  1
  In  In3  1  0.748582  0.742449  0.000000  1
  In  In4  1  0.994220  0.251722  0.000000  1
  In  In5  1  0.257503  0.006146  0.000000  1
  Ge  Ge6  1  0.333153  0.666373  0.000000  1
  Pt  Pt7  1  0.666790  0.333741  0.000000  1
  Pt  Pt8  1  0.000347  0.000053  0.500000  1
