# generated using pymatgen
data_CaHo6Sn23Ru6
_symmetry_space_group_name_H-M   'P 1'
_cell_length_a   9.84259200
_cell_length_b   9.84259088
_cell_length_c   10.07607500
_cell_angle_alpha   90.00000000
_cell_angle_beta   90.00000000
_cell_angle_gamma   119.99999703
_symmetry_Int_Tables_number   1
_chemical_formula_structural   CaHo6Sn23Ru6
_chemical_formula_sum   'Ca1 Ho6 Sn23 Ru6'
_cell_volume   845.35855624
_cell_formula_units_Z   1
loop_
 _symmetry_equiv_pos_site_id
 _symmetry_equiv_pos_as_xyz
  1  'x, y, z'
loop_
 _atom_site_type_symbol
 _atom_site_label
 _atom_site_symmetry_multiplicity
 _atom_site_fract_x
 _atom_site_fract_y
 _atom_site_fract_z
 _atom_site_occupancy
  Ca  Ca0  1  0.000000  0.000000  0.000000  1
  Ho  Ho1  1  0.515236  0.484764  0.697646  1
  Ho  Ho2  1  0.515236  0.030473  0.697646  1
  Ho  Ho3  1  0.969527  0.484764  0.697646  1
  Ho  Ho4  1  0.030473  0.515236  0.302354  1
  Ho  Ho5  1  0.484764  0.969527  0.302354  1
  Ho  Ho6  1  0.484764  0.515236  0.302354  1
  Sn  Sn7  1  0.666667  0.333333  0.176938  1
  Sn  Sn8  1  0.666667  0.333333  0.871388  1
  Sn  Sn9  1  0.333333  0.666667  0.128612  1
  Sn  Sn10  1  0.348637  0.348637  0.000000  1
  Sn  Sn11  1  0.000000  0.651363  0.000000  1
  Sn  Sn12  1  0.651363  0.000000  0.000000  1
  Sn  Sn13  1  0.651363  0.651363  0.000000  1
  Sn  Sn14  1  0.333333  0.666667  0.823062  1
  Sn  Sn15  1  0.439591  0.219796  0.463635  1
  Sn  Sn16  1  0.219796  0.780204  0.536365  1
  Sn  Sn17  1  0.219796  0.439591  0.536365  1
  Sn  Sn18  1  0.560409  0.780204  0.536365  1
  Sn  Sn19  1  0.118851  0.881149  0.273322  1
  Sn  Sn20  1  0.780204  0.560409  0.463635  1
  Sn  Sn21  1  0.780204  0.219796  0.463635  1
  Sn  Sn22  1  0.348637  0.000000  0.000000  1
  Sn  Sn23  1  0.118851  0.237700  0.273322  1
  Sn  Sn24  1  0.762300  0.881149  0.273322  1
  Sn  Sn25  1  0.237700  0.118851  0.726678  1
  Sn  Sn26  1  0.881149  0.762300  0.726678  1
  Sn  Sn27  1  0.881149  0.118851  0.726678  1
  Sn  Sn28  1  0.000000  0.000000  0.500000  1
  Sn  Sn29  1  0.000000  0.348637  0.000000  1
  Ru  Ru30  1  0.171273  0.828727  0.795404  1
  Ru  Ru31  1  0.171273  0.342544  0.795404  1
  Ru  Ru32  1  0.657456  0.828727  0.795404  1
  Ru  Ru33  1  0.342544  0.171273  0.204596  1
  Ru  Ru34  1  0.828727  0.657456  0.204596  1
  Ru  Ru35  1  0.828727  0.171273  0.204596  1
