# generated using pymatgen
data_Na12Li8V3SnAs12
_symmetry_space_group_name_H-M   'P 1'
_cell_length_a   9.66677061
_cell_length_b   9.66677016
_cell_length_c   13.85853163
_cell_angle_alpha   89.95880308
_cell_angle_beta   89.95880340
_cell_angle_gamma   143.49575920
_symmetry_Int_Tables_number   1
_chemical_formula_structural   Na12Li8V3SnAs12
_chemical_formula_sum   'Na12 Li8 V3 Sn1 As12'
_cell_volume   770.38871771
_cell_formula_units_Z   1
loop_
 _symmetry_equiv_pos_site_id
 _symmetry_equiv_pos_as_xyz
  1  'x, y, z'
loop_
 _atom_site_type_symbol
 _atom_site_label
 _atom_site_symmetry_multiplicity
 _atom_site_fract_x
 _atom_site_fract_y
 _atom_site_fract_z
 _atom_site_occupancy
  Na  Na0  1  0.598158  0.939664  0.822330  1
  Na  Na1  1  0.269654  0.269408  0.323868  1
  Na  Na2  1  0.234774  0.232877  0.819405  1
  Na  Na3  1  0.730592  0.730346  0.676132  1
  Na  Na4  1  0.435864  0.099685  0.670014  1
  Na  Na5  1  0.900315  0.564136  0.329986  1
  Na  Na6  1  0.060336  0.401842  0.177670  1
  Na  Na7  1  0.410714  0.069724  0.181151  1
  Na  Na8  1  0.566240  0.903125  0.326450  1
  Na  Na9  1  0.096875  0.433760  0.673550  1
  Na  Na10  1  0.930276  0.589286  0.818849  1
  Na  Na11  1  0.767123  0.765226  0.180595  1
  Li  Li12  1  0.084387  0.915613  0.000000  1
  Li  Li13  1  0.583426  0.416574  0.500000  1
  Li  Li14  1  0.916872  0.083128  0.000000  1
  Li  Li15  1  0.754489  0.245511  0.000000  1
  Li  Li16  1  0.747831  0.252169  0.500000  1
  Li  Li17  1  0.246433  0.753567  0.000000  1
  Li  Li18  1  0.252911  0.747089  0.500000  1
  Li  Li19  1  0.416047  0.583953  0.500000  1
  V  V20  1  0.084433  0.915567  0.500000  1
  V  V21  1  0.410249  0.589751  0.000000  1
  V  V22  1  0.915192  0.084808  0.500000  1
  Sn  Sn23  1  0.588994  0.411006  0.000000  1
  As  As24  1  0.064248  0.385463  0.396705  1
  As  As25  1  0.916481  0.582521  0.117187  1
  As  As26  1  0.417479  0.083519  0.882813  1
  As  As27  1  0.614537  0.935752  0.603295  1
  As  As28  1  0.935193  0.613784  0.602075  1
  As  As29  1  0.112779  0.433831  0.894573  1
  As  As30  1  0.566169  0.887221  0.105427  1
  As  As31  1  0.386216  0.064807  0.397925  1
  As  As32  1  0.221850  0.222630  0.596762  1
  As  As33  1  0.723922  0.738429  0.896405  1
  As  As34  1  0.261571  0.276078  0.103595  1
  As  As35  1  0.777370  0.778150  0.403238  1
