# generated using pymatgen
data_Dy4Al4PtRh3
_symmetry_space_group_name_H-M   'P 1'
_cell_length_a   4.29666400
_cell_length_b   6.85577482
_cell_length_c   7.90783192
_cell_angle_alpha   89.91841923
_cell_angle_beta   90.00000000
_cell_angle_gamma   90.00000000
_symmetry_Int_Tables_number   1
_chemical_formula_structural   Dy4Al4PtRh3
_chemical_formula_sum   'Dy4 Al4 Pt1 Rh3'
_cell_volume   232.94045896
_cell_formula_units_Z   1
loop_
 _symmetry_equiv_pos_site_id
 _symmetry_equiv_pos_as_xyz
  1  'x, y, z'
loop_
 _atom_site_type_symbol
 _atom_site_label
 _atom_site_symmetry_multiplicity
 _atom_site_fract_x
 _atom_site_fract_y
 _atom_site_fract_z
 _atom_site_occupancy
  Dy  Dy0  1  0.250000  0.468077  0.182643  1
  Dy  Dy1  1  0.750000  0.535892  0.819304  1
  Dy  Dy2  1  0.750000  0.031634  0.678050  1
  Dy  Dy3  1  0.250000  0.966660  0.319792  1
  Al  Al4  1  0.250000  0.858404  0.937514  1
  Al  Al5  1  0.750000  0.137270  0.063929  1
  Al  Al6  1  0.750000  0.638420  0.438045  1
  Al  Al7  1  0.250000  0.363000  0.562119  1
  Pt  Pt8  1  0.250000  0.232186  0.880751  1
  Rh  Rh9  1  0.250000  0.735407  0.618027  1
  Rh  Rh10  1  0.750000  0.267014  0.382273  1
  Rh  Rh11  1  0.750000  0.766037  0.117551  1
