# generated using pymatgen
data_Yb5Sm3(Si3Pt)4
_symmetry_space_group_name_H-M   'P 1'
_cell_length_a   8.18321900
_cell_length_b   8.18634260
_cell_length_c   8.34820400
_cell_angle_alpha   90.00000000
_cell_angle_beta   90.00000000
_cell_angle_gamma   119.98736669
_symmetry_Int_Tables_number   1
_chemical_formula_structural   Yb5Sm3(Si3Pt)4
_chemical_formula_sum   'Yb5 Sm3 Si12 Pt4'
_cell_volume   484.38763370
_cell_formula_units_Z   1
loop_
 _symmetry_equiv_pos_site_id
 _symmetry_equiv_pos_as_xyz
  1  'x, y, z'
loop_
 _atom_site_type_symbol
 _atom_site_label
 _atom_site_symmetry_multiplicity
 _atom_site_fract_x
 _atom_site_fract_y
 _atom_site_fract_z
 _atom_site_occupancy
  Yb  Yb0  1  0.499389  0.500646  0.750000  1
  Yb  Yb1  1  0.500584  0.499639  0.250000  1
  Yb  Yb2  1  0.001255  0.500645  0.750000  1
  Yb  Yb3  1  0.999054  0.499638  0.250000  1
  Yb  Yb4  1  0.499335  0.998669  0.750000  1
  Sm  Sm5  1  0.500602  0.001203  0.250000  1
  Sm  Sm6  1  0.999939  0.999877  0.750000  1
  Sm  Sm7  1  0.999998  0.999997  0.250000  1
  Si  Si8  1  0.834851  0.165504  0.998102  1
  Si  Si9  1  0.165132  0.834499  0.999215  1
  Si  Si10  1  0.330654  0.165503  0.998102  1
  Si  Si11  1  0.165132  0.834499  0.500785  1
  Si  Si12  1  0.669367  0.834499  0.999215  1
  Si  Si13  1  0.834851  0.165504  0.501898  1
  Si  Si14  1  0.834688  0.669375  0.999745  1
  Si  Si15  1  0.669367  0.834499  0.500785  1
  Si  Si16  1  0.165266  0.330532  0.000521  1
  Si  Si17  1  0.330654  0.165503  0.501898  1
  Si  Si18  1  0.165266  0.330532  0.499479  1
  Si  Si19  1  0.834688  0.669375  0.500255  1
  Pt  Pt20  1  0.666811  0.333622  0.996181  1
  Pt  Pt21  1  0.333155  0.666309  0.997898  1
  Pt  Pt22  1  0.333155  0.666309  0.502102  1
  Pt  Pt23  1  0.666811  0.333622  0.503819  1
