# generated using pymatgen
data_Tb7HoHf9Si16Mo3
_symmetry_space_group_name_H-M   'P 1'
_cell_length_a   7.20805217
_cell_length_b   7.20757429
_cell_length_c   13.18080005
_cell_angle_alpha   90.12482789
_cell_angle_beta   90.11187925
_cell_angle_gamma   90.06556665
_symmetry_Int_Tables_number   1
_chemical_formula_structural   Tb7HoHf9Si16Mo3
_chemical_formula_sum   'Tb7 Ho1 Hf9 Si16 Mo3'
_cell_volume   684.77307517
_cell_formula_units_Z   1
loop_
 _symmetry_equiv_pos_site_id
 _symmetry_equiv_pos_as_xyz
  1  'x, y, z'
loop_
 _atom_site_type_symbol
 _atom_site_label
 _atom_site_symmetry_multiplicity
 _atom_site_fract_x
 _atom_site_fract_y
 _atom_site_fract_z
 _atom_site_occupancy
  Tb  Tb0  1  0.003367  0.656863  0.714495  1
  Tb  Tb1  1  0.154973  0.500018  0.463845  1
  Tb  Tb2  1  0.499954  0.844912  0.036109  1
  Tb  Tb3  1  0.846206  0.501458  0.967807  1
  Tb  Tb4  1  0.498512  0.153825  0.532257  1
  Tb  Tb5  1  0.343123  0.996599  0.785476  1
  Tb  Tb6  1  0.655854  0.000580  0.284777  1
  Ho  Ho7  1  0.000047  0.344534  0.215058  1
  Hf  Hf8  1  0.675652  0.324370  0.750004  1
  Hf  Hf9  1  0.146269  0.992639  0.373417  1
  Hf  Hf10  1  0.854899  0.005072  0.876744  1
  Hf  Hf11  1  0.506342  0.649347  0.621451  1
  Hf  Hf12  1  0.350597  0.493662  0.878587  1
  Hf  Hf13  1  0.492478  0.352889  0.125552  1
  Hf  Hf14  1  0.647172  0.507385  0.374378  1
  Hf  Hf15  1  0.994994  0.145152  0.623290  1
  Hf  Hf16  1  0.007328  0.853769  0.126499  1
  Si  Si17  1  0.360852  0.296908  0.316688  1
  Si  Si18  1  0.637558  0.705340  0.817354  1
  Si  Si19  1  0.204308  0.862018  0.565942  1
  Si  Si20  1  0.137934  0.795582  0.934052  1
  Si  Si21  1  0.796609  0.138310  0.067721  1
  Si  Si22  1  0.862248  0.203975  0.432536  1
  Si  Si23  1  0.294662  0.362469  0.682649  1
  Si  Si24  1  0.703638  0.638178  0.183125  1
  Si  Si25  1  0.295141  0.051818  0.184365  1
  Si  Si26  1  0.705174  0.947412  0.682561  1
  Si  Si27  1  0.448212  0.794991  0.432583  1
  Si  Si28  1  0.204598  0.551366  0.067674  1
  Si  Si29  1  0.548318  0.203413  0.936185  1
  Si  Si30  1  0.796627  0.451827  0.563815  1
  Si  Si31  1  0.052533  0.294890  0.817394  1
  Si  Si32  1  0.948725  0.703977  0.315468  1
  Mo  Mo33  1  0.176425  0.175690  0.001571  1
  Mo  Mo34  1  0.824565  0.823377  0.498594  1
  Mo  Mo35  1  0.324105  0.675385  0.249977  1
