# generated using pymatgen
data_Pr3U5(P7Ir8)2
_symmetry_space_group_name_H-M   'P 1'
_cell_length_a   3.94137000
_cell_length_b   12.75459491
_cell_length_c   13.26698577
_cell_angle_alpha   81.06560132
_cell_angle_beta   90.00000000
_cell_angle_gamma   90.00000000
_symmetry_Int_Tables_number   1
_chemical_formula_structural   Pr3U5(P7Ir8)2
_chemical_formula_sum   'Pr3 U5 P14 Ir16'
_cell_volume   658.84693776
_cell_formula_units_Z   1
loop_
 _symmetry_equiv_pos_site_id
 _symmetry_equiv_pos_as_xyz
  1  'x, y, z'
loop_
 _atom_site_type_symbol
 _atom_site_label
 _atom_site_symmetry_multiplicity
 _atom_site_fract_x
 _atom_site_fract_y
 _atom_site_fract_z
 _atom_site_occupancy
  Pr  Pr0  1  0.250000  0.106925  0.787438  1
  Pr  Pr1  1  0.750000  0.891941  0.212532  1
  Pr  Pr2  1  0.250000  0.281194  0.099962  1
  U  U3  1  0.750000  0.790361  0.562673  1
  U  U4  1  0.250000  0.210535  0.438628  1
  U  U5  1  0.750000  0.484927  0.709006  1
  U  U6  1  0.250000  0.515522  0.291113  1
  U  U7  1  0.750000  0.720212  0.899975  1
  P  P8  1  0.250000  0.906794  0.408109  1
  P  P9  1  0.750000  0.469839  0.127285  1
  P  P10  1  0.250000  0.530151  0.873487  1
  P  P11  1  0.750000  0.092402  0.591361  1
  P  P12  1  0.250000  0.743329  0.073614  1
  P  P13  1  0.750000  0.253598  0.917919  1
  P  P14  1  0.750000  0.161248  0.285826  1
  P  P15  1  0.250000  0.839492  0.720168  1
  P  P16  1  0.250000  0.049926  0.101796  1
  P  P17  1  0.750000  0.943828  0.898920  1
  P  P18  1  0.250000  0.321228  0.689164  1
  P  P19  1  0.750000  0.677329  0.309905  1
  P  P20  1  0.250000  0.608910  0.564384  1
  P  P21  1  0.750000  0.393351  0.437875  1
  Ir  Ir22  1  0.250000  0.991695  0.574963  1
  Ir  Ir23  1  0.750000  0.007378  0.425526  1
  Ir  Ir24  1  0.250000  0.657191  0.728134  1
  Ir  Ir25  1  0.750000  0.344998  0.277065  1
  Ir  Ir26  1  0.250000  0.553766  0.046656  1
  Ir  Ir27  1  0.750000  0.452329  0.949224  1
  Ir  Ir28  1  0.250000  0.064708  0.275271  1
  Ir  Ir29  1  0.750000  0.934086  0.724538  1
  Ir  Ir30  1  0.250000  0.424535  0.525883  1
  Ir  Ir31  1  0.750000  0.576719  0.475267  1
  Ir  Ir32  1  0.250000  0.917227  0.994337  1
  Ir  Ir33  1  0.750000  0.081813  0.005280  1
  Ir  Ir34  1  0.250000  0.726962  0.396328  1
  Ir  Ir35  1  0.750000  0.272657  0.603233  1
  Ir  Ir36  1  0.250000  0.343220  0.858828  1
  Ir  Ir37  1  0.750000  0.657673  0.138325  1
