# generated using pymatgen
data_CaHf(Ga3Rh)3
_symmetry_space_group_name_H-M   'P 1'
_cell_length_a   7.52556231
_cell_length_b   7.50465853
_cell_length_c   9.46931200
_cell_angle_alpha   90.00000000
_cell_angle_beta   90.00000000
_cell_angle_gamma   119.88314327
_symmetry_Int_Tables_number   1
_chemical_formula_structural   CaHf(Ga3Rh)3
_chemical_formula_sum   'Ca2 Hf2 Ga18 Rh6'
_cell_volume   463.69150505
_cell_formula_units_Z   2
loop_
 _symmetry_equiv_pos_site_id
 _symmetry_equiv_pos_as_xyz
  1  'x, y, z'
loop_
 _atom_site_type_symbol
 _atom_site_label
 _atom_site_symmetry_multiplicity
 _atom_site_fract_x
 _atom_site_fract_y
 _atom_site_fract_z
 _atom_site_occupancy
  Ca  Ca0  1  0.668509  0.996046  0.250000  1
  Ca  Ca1  1  0.331491  0.003954  0.750000  1
  Hf  Hf2  1  0.996228  0.669390  0.250000  1
  Hf  Hf3  1  0.003772  0.330610  0.750000  1
  Ga  Ga4  1  0.125117  0.123717  0.250000  1
  Ga  Ga5  1  0.874883  0.876283  0.750000  1
  Ga  Ga6  1  0.999047  0.337944  0.080120  1
  Ga  Ga7  1  0.000953  0.662056  0.919880  1
  Ga  Ga8  1  0.000953  0.662056  0.580120  1
  Ga  Ga9  1  0.330826  0.996527  0.416945  1
  Ga  Ga10  1  0.999047  0.337944  0.419880  1
  Ga  Ga11  1  0.669174  0.003473  0.583055  1
  Ga  Ga12  1  0.669174  0.003473  0.916945  1
  Ga  Ga13  1  0.330826  0.996527  0.083055  1
  Ga  Ga14  1  0.329635  0.332722  0.569250  1
  Ga  Ga15  1  0.670365  0.667278  0.430750  1
  Ga  Ga16  1  0.670365  0.667278  0.069250  1
  Ga  Ga17  1  0.329635  0.332722  0.930750  1
  Ga  Ga18  1  0.334917  0.546859  0.250000  1
  Ga  Ga19  1  0.665083  0.453141  0.750000  1
  Ga  Ga20  1  0.552405  0.340926  0.250000  1
  Ga  Ga21  1  0.447595  0.659074  0.750000  1
  Rh  Rh22  1  0.671851  0.328712  0.999213  1
  Rh  Rh23  1  0.328149  0.671288  0.000787  1
  Rh  Rh24  1  0.328149  0.671288  0.499213  1
  Rh  Rh25  1  0.671851  0.328712  0.500787  1
  Rh  Rh26  1  0.000000  0.000000  0.000000  1
  Rh  Rh27  1  0.000000  0.000000  0.500000  1
