# generated using pymatgen
data_Er16In4Ir3Ru
_symmetry_space_group_name_H-M   'P 1'
_cell_length_a   9.58697244
_cell_length_b   9.58697191
_cell_length_c   9.58697240
_cell_angle_alpha   59.90072631
_cell_angle_beta   59.90072518
_cell_angle_gamma   59.90072235
_symmetry_Int_Tables_number   1
_chemical_formula_structural   Er16In4Ir3Ru
_chemical_formula_sum   'Er16 In4 Ir3 Ru1'
_cell_volume   621.65607445
_cell_formula_units_Z   1
loop_
 _symmetry_equiv_pos_site_id
 _symmetry_equiv_pos_as_xyz
  1  'x, y, z'
loop_
 _atom_site_type_symbol
 _atom_site_label
 _atom_site_symmetry_multiplicity
 _atom_site_fract_x
 _atom_site_fract_y
 _atom_site_fract_z
 _atom_site_occupancy
  Er  Er0  1  0.059376  0.059376  0.440915  1
  Er  Er1  1  0.650757  0.046345  0.650757  1
  Er  Er2  1  0.191688  0.809423  0.191688  1
  Er  Er3  1  0.439379  0.060791  0.439379  1
  Er  Er4  1  0.191688  0.191688  0.809423  1
  Er  Er5  1  0.651451  0.651451  0.651451  1
  Er  Er6  1  0.046345  0.650757  0.650757  1
  Er  Er7  1  0.440915  0.059376  0.059376  1
  Er  Er8  1  0.650757  0.650757  0.046345  1
  Er  Er9  1  0.190479  0.809228  0.809228  1
  Er  Er10  1  0.809228  0.190479  0.809228  1
  Er  Er11  1  0.809423  0.191688  0.191688  1
  Er  Er12  1  0.809228  0.809228  0.190479  1
  Er  Er13  1  0.060791  0.439379  0.439379  1
  Er  Er14  1  0.439379  0.439379  0.060791  1
  Er  Er15  1  0.059376  0.440915  0.059376  1
  In  In16  1  0.748858  0.417177  0.417177  1
  In  In17  1  0.417177  0.417177  0.748858  1
  In  In18  1  0.417177  0.748858  0.417177  1
  In  In19  1  0.417130  0.417130  0.417130  1
  Ir  Ir20  1  0.422752  0.858671  0.858671  1
  Ir  Ir21  1  0.858671  0.858671  0.422752  1
  Ir  Ir22  1  0.858671  0.422752  0.858671  1
  Ru  Ru23  1  0.859309  0.859309  0.859309  1
