# generated using pymatgen
data_Hf3Zr3AlNiSe
_symmetry_space_group_name_H-M   'P 1'
_cell_length_a   3.46638300
_cell_length_b   7.69322897
_cell_length_c   7.69323000
_cell_angle_alpha   119.99999585
_cell_angle_beta   90.00000000
_cell_angle_gamma   90.00000000
_symmetry_Int_Tables_number   1
_chemical_formula_structural   Hf3Zr3AlNiSe
_chemical_formula_sum   'Hf3 Zr3 Al1 Ni1 Se1'
_cell_volume   177.67428261
_cell_formula_units_Z   1
loop_
 _symmetry_equiv_pos_site_id
 _symmetry_equiv_pos_as_xyz
  1  'x, y, z'
loop_
 _atom_site_type_symbol
 _atom_site_label
 _atom_site_symmetry_multiplicity
 _atom_site_fract_x
 _atom_site_fract_y
 _atom_site_fract_z
 _atom_site_occupancy
  Hf  Hf0  1  0.500000  0.750342  0.756111  1
  Hf  Hf1  1  0.500000  0.005769  0.249658  1
  Hf  Hf2  1  0.500000  0.243889  0.994231  1
  Zr  Zr3  1  0.000000  0.411281  0.402014  1
  Zr  Zr4  1  0.000000  0.990733  0.588719  1
  Zr  Zr5  1  0.000000  0.597986  0.009267  1
  Al  Al6  1  0.500000  0.333333  0.666667  1
  Ni  Ni7  1  0.000000  0.000000  0.000000  1
  Se  Se8  1  0.500000  0.666667  0.333333  1
