# generated using pymatgen
data_Nd8Sc12Si15Ir
_symmetry_space_group_name_H-M   'P 1'
_cell_length_a   7.21740147
_cell_length_b   7.56872010
_cell_length_c   14.16867200
_cell_angle_alpha   90.00000000
_cell_angle_beta   90.00000000
_cell_angle_gamma   90.12681224
_symmetry_Int_Tables_number   1
_chemical_formula_structural   Nd8Sc12Si15Ir
_chemical_formula_sum   'Nd8 Sc12 Si15 Ir1'
_cell_volume   773.98294646
_cell_formula_units_Z   1
loop_
 _symmetry_equiv_pos_site_id
 _symmetry_equiv_pos_as_xyz
  1  'x, y, z'
loop_
 _atom_site_type_symbol
 _atom_site_label
 _atom_site_symmetry_multiplicity
 _atom_site_fract_x
 _atom_site_fract_y
 _atom_site_fract_z
 _atom_site_occupancy
  Nd  Nd0  1  0.011649  0.176929  0.096915  1
  Nd  Nd1  1  0.990696  0.826556  0.903214  1
  Nd  Nd2  1  0.488555  0.673799  0.903658  1
  Nd  Nd3  1  0.990696  0.826556  0.596786  1
  Nd  Nd4  1  0.511384  0.326311  0.096431  1
  Nd  Nd5  1  0.011649  0.176929  0.403085  1
  Nd  Nd6  1  0.511384  0.326311  0.403569  1
  Nd  Nd7  1  0.488555  0.673799  0.596342  1
  Sc  Sc8  1  0.155540  0.493635  0.750000  1
  Sc  Sc9  1  0.839654  0.499220  0.250000  1
  Sc  Sc10  1  0.339610  0.001942  0.250000  1
  Sc  Sc11  1  0.668004  0.002923  0.750000  1
  Sc  Sc12  1  0.319567  0.171924  0.627438  1
  Sc  Sc13  1  0.671839  0.826391  0.373481  1
  Sc  Sc14  1  0.171839  0.676946  0.373833  1
  Sc  Sc15  1  0.671839  0.826391  0.126519  1
  Sc  Sc16  1  0.834807  0.319748  0.627538  1
  Sc  Sc17  1  0.319567  0.171924  0.872562  1
  Sc  Sc18  1  0.834807  0.319748  0.872462  1
  Sc  Sc19  1  0.171839  0.676946  0.126167  1
  Si  Si20  1  0.968534  0.877484  0.250000  1
  Si  Si21  1  0.467987  0.621182  0.250000  1
  Si  Si22  1  0.530505  0.382352  0.750000  1
  Si  Si23  1  0.287956  0.877095  0.750000  1
  Si  Si24  1  0.711085  0.121538  0.250000  1
  Si  Si25  1  0.211853  0.379714  0.250000  1
  Si  Si26  1  0.781156  0.618272  0.750000  1
  Si  Si27  1  0.154202  0.466609  0.537907  1
  Si  Si28  1  0.848729  0.537866  0.461060  1
  Si  Si29  1  0.349841  0.964106  0.460252  1
  Si  Si30  1  0.848729  0.537866  0.038940  1
  Si  Si31  1  0.651395  0.035751  0.538735  1
  Si  Si32  1  0.154202  0.466609  0.962093  1
  Si  Si33  1  0.651395  0.035751  0.961265  1
  Si  Si34  1  0.349841  0.964106  0.039748  1
  Ir  Ir35  1  0.029110  0.118769  0.750000  1
