# generated using pymatgen
data_Mn2Ni4P3
_symmetry_space_group_name_H-M   'P 1'
_cell_length_a   5.88934411
_cell_length_b   5.81073464
_cell_length_c   3.42092700
_cell_angle_alpha   90.00000000
_cell_angle_beta   90.00000000
_cell_angle_gamma   119.55942692
_symmetry_Int_Tables_number   1
_chemical_formula_structural   Mn2Ni4P3
_chemical_formula_sum   'Mn2 Ni4 P3'
_cell_volume   101.83179430
_cell_formula_units_Z   1
loop_
 _symmetry_equiv_pos_site_id
 _symmetry_equiv_pos_as_xyz
  1  'x, y, z'
loop_
 _atom_site_type_symbol
 _atom_site_label
 _atom_site_symmetry_multiplicity
 _atom_site_fract_x
 _atom_site_fract_y
 _atom_site_fract_z
 _atom_site_occupancy
  Mn  Mn0  1  0.399887  0.997874  0.500000  1
  Mn  Mn1  1  0.600113  0.597987  0.500000  1
  Ni  Ni2  1  0.000000  0.395610  0.500000  1
  Ni  Ni3  1  0.000000  0.738486  0.000000  1
  Ni  Ni4  1  0.252939  0.258955  0.000000  1
  Ni  Ni5  1  0.747061  0.006016  0.000000  1
  P  P6  1  0.000000  0.999248  0.500000  1
  P  P7  1  0.661511  0.333666  0.000000  1
  P  P8  1  0.338489  0.672157  0.000000  1
