# generated using pymatgen
data_Tm3Mg(ZnPt)4
_symmetry_space_group_name_H-M   'P 1'
_cell_length_a   4.19076200
_cell_length_b   6.72321536
_cell_length_c   7.97908658
_cell_angle_alpha   91.26309328
_cell_angle_beta   90.00000000
_cell_angle_gamma   90.00000000
_symmetry_Int_Tables_number   1
_chemical_formula_structural   Tm3Mg(ZnPt)4
_chemical_formula_sum   'Tm3 Mg1 Zn4 Pt4'
_cell_volume   224.75929350
_cell_formula_units_Z   1
loop_
 _symmetry_equiv_pos_site_id
 _symmetry_equiv_pos_as_xyz
  1  'x, y, z'
loop_
 _atom_site_type_symbol
 _atom_site_label
 _atom_site_symmetry_multiplicity
 _atom_site_fract_x
 _atom_site_fract_y
 _atom_site_fract_z
 _atom_site_occupancy
  Tm  Tm0  1  0.750000  0.467673  0.824160  1
  Tm  Tm1  1  0.750000  0.962868  0.681900  1
  Tm  Tm2  1  0.250000  0.033716  0.310912  1
  Mg  Mg3  1  0.250000  0.533839  0.182424  1
  Zn  Zn4  1  0.250000  0.641720  0.557588  1
  Zn  Zn5  1  0.750000  0.361049  0.437485  1
  Zn  Zn6  1  0.750000  0.852642  0.063516  1
  Zn  Zn7  1  0.250000  0.146885  0.939940  1
  Pt  Pt8  1  0.250000  0.755862  0.879573  1
  Pt  Pt9  1  0.750000  0.246459  0.122728  1
  Pt  Pt10  1  0.750000  0.742796  0.375991  1
  Pt  Pt11  1  0.250000  0.254491  0.623782  1
