# generated using pymatgen
data_CsUPdS3
_symmetry_space_group_name_H-M   'P 1'
_cell_length_a   3.99179600
_cell_length_b   8.06567434
_cell_length_c   10.16685200
_cell_angle_alpha   90.00000000
_cell_angle_beta   90.00000000
_cell_angle_gamma   75.67298146
_symmetry_Int_Tables_number   1
_chemical_formula_structural   CsUPdS3
_chemical_formula_sum   'Cs2 U2 Pd2 S6'
_cell_volume   317.15685113
_cell_formula_units_Z   2
loop_
 _symmetry_equiv_pos_site_id
 _symmetry_equiv_pos_as_xyz
  1  'x, y, z'
loop_
 _atom_site_type_symbol
 _atom_site_label
 _atom_site_symmetry_multiplicity
 _atom_site_fract_x
 _atom_site_fract_y
 _atom_site_fract_z
 _atom_site_occupancy
  Cs  Cs0  1  0.743415  0.513172  0.250000  1
  Cs  Cs1  1  0.256587  0.486828  0.750000  1
  U  U2  1  0.000000  0.000000  0.000000  1
  U  U3  1  0.000000  0.000000  0.500000  1
  Pd  Pd4  1  0.465964  0.068074  0.250000  1
  Pd  Pd5  1  0.534037  0.931925  0.750000  1
  S  S6  1  0.388589  0.222825  0.044302  1
  S  S7  1  0.055291  0.889421  0.250000  1
  S  S8  1  0.388589  0.222825  0.455699  1
  S  S9  1  0.611412  0.777175  0.544302  1
  S  S10  1  0.944710  0.110579  0.750000  1
  S  S11  1  0.611412  0.777175  0.955699  1
