# generated using pymatgen
data_Na15Sn3Bi
_symmetry_space_group_name_H-M   'P 1'
_cell_length_a   11.42004667
_cell_length_b   11.43322507
_cell_length_c   11.41141689
_cell_angle_alpha   109.47769508
_cell_angle_beta   109.43086620
_cell_angle_gamma   109.55904710
_symmetry_Int_Tables_number   1
_chemical_formula_structural   Na15Sn3Bi
_chemical_formula_sum   'Na30 Sn6 Bi2'
_cell_volume   1146.21059054
_cell_formula_units_Z   2
loop_
 _symmetry_equiv_pos_site_id
 _symmetry_equiv_pos_as_xyz
  1  'x, y, z'
loop_
 _atom_site_type_symbol
 _atom_site_label
 _atom_site_symmetry_multiplicity
 _atom_site_fract_x
 _atom_site_fract_y
 _atom_site_fract_z
 _atom_site_occupancy
  Na  Na0  1  0.627212  0.374029  0.247732  1
  Na  Na1  1  0.244479  0.622740  0.371764  1
  Na  Na2  1  0.750101  0.875005  0.125024  1
  Na  Na3  1  0.125077  0.749980  0.874976  1
  Na  Na4  1  0.372715  0.250976  0.628236  1
  Na  Na5  1  0.879480  0.126296  0.752268  1
  Na  Na6  1  0.081396  0.275094  0.111916  1
  Na  Na7  1  0.694097  0.031369  0.919304  1
  Na  Na8  1  0.885072  0.470358  0.161958  1
  Na  Na9  1  0.157145  0.882746  0.468690  1
  Na  Na10  1  0.336171  0.807672  0.725881  1
  Na  Na11  1  0.726536  0.342333  0.813183  1
  Na  Na12  1  0.030217  0.915035  0.691771  1
  Na  Na13  1  0.223115  0.308400  0.838042  1
  Na  Na14  1  0.188455  0.414057  0.531310  1
  Na  Na15  1  0.971952  0.385909  0.662653  1
  Na  Na16  1  0.306665  0.836625  0.218875  1
  Na  Na17  1  0.531541  0.190362  0.411217  1
  Na  Na18  1  0.384795  0.661814  0.969786  1
  Na  Na19  1  0.110290  0.081790  0.274119  1
  Na  Na20  1  0.274795  0.112067  0.080696  1
  Na  Na21  1  0.838446  0.223263  0.308229  1
  Na  Na22  1  0.413353  0.529150  0.186817  1
  Na  Na23  1  0.663698  0.970220  0.381953  1
  Na  Na24  1  0.620325  0.779146  0.588783  1
  Na  Na25  1  0.587789  0.617750  0.781125  1
  Na  Na26  1  0.781744  0.588266  0.618047  1
  Na  Na27  1  0.809299  0.723255  0.337347  1
  Na  Na28  1  0.915009  0.692028  0.030214  1
  Na  Na29  1  0.469481  0.163178  0.888084  1
  Sn  Sn30  1  0.581851  0.497552  0.997085  1
  Sn  Sn31  1  0.001355  0.583262  0.500053  1
  Sn  Sn32  1  0.084766  0.500468  0.002915  1
  Sn  Sn33  1  0.001302  0.083208  0.499947  1
  Sn  Sn34  1  0.499606  0.002234  0.086507  1
  Sn  Sn35  1  0.913099  0.915727  0.913493  1
  Bi  Bi36  1  0.417705  0.417238  0.417842  1
  Bi  Bi37  1  0.499863  0.999396  0.582158  1
