# generated using pymatgen
data_YCo2P3Ir2Ru
_symmetry_space_group_name_H-M   'P 1'
_cell_length_a   3.85285000
_cell_length_b   10.57284500
_cell_length_c   12.18774500
_cell_angle_alpha   90.00000000
_cell_angle_beta   90.00000000
_cell_angle_gamma   90.00000000
_symmetry_Int_Tables_number   1
_chemical_formula_structural   YCo2P3Ir2Ru
_chemical_formula_sum   'Y4 Co8 P12 Ir8 Ru4'
_cell_volume   496.47493287
_cell_formula_units_Z   4
loop_
 _symmetry_equiv_pos_site_id
 _symmetry_equiv_pos_as_xyz
  1  'x, y, z'
loop_
 _atom_site_type_symbol
 _atom_site_label
 _atom_site_symmetry_multiplicity
 _atom_site_fract_x
 _atom_site_fract_y
 _atom_site_fract_z
 _atom_site_occupancy
  Y  Y0  1  0.250000  0.915451  0.210669  1
  Y  Y1  1  0.750000  0.084549  0.789331  1
  Y  Y2  1  0.750000  0.415451  0.289331  1
  Y  Y3  1  0.250000  0.584549  0.710669  1
  Co  Co4  1  0.250000  0.615869  0.197630  1
  Co  Co5  1  0.750000  0.384131  0.802370  1
  Co  Co6  1  0.750000  0.115869  0.302370  1
  Co  Co7  1  0.250000  0.884131  0.697630  1
  Co  Co8  1  0.250000  0.037278  0.433601  1
  Co  Co9  1  0.750000  0.962722  0.566399  1
  Co  Co10  1  0.750000  0.537278  0.066399  1
  Co  Co11  1  0.250000  0.462722  0.933601  1
  P  P12  1  0.250000  0.068669  0.609839  1
  P  P13  1  0.750000  0.931331  0.390161  1
  P  P14  1  0.750000  0.568669  0.890161  1
  P  P15  1  0.250000  0.431331  0.109839  1
  P  P16  1  0.250000  0.226309  0.370907  1
  P  P17  1  0.750000  0.773691  0.629093  1
  P  P18  1  0.750000  0.726309  0.129093  1
  P  P19  1  0.250000  0.273691  0.870907  1
  P  P20  1  0.250000  0.899178  0.880717  1
  P  P21  1  0.750000  0.100822  0.119283  1
  P  P22  1  0.750000  0.399178  0.619283  1
  P  P23  1  0.250000  0.600822  0.380717  1
  Ir  Ir24  1  0.250000  0.091271  0.978443  1
  Ir  Ir25  1  0.750000  0.908729  0.021557  1
  Ir  Ir26  1  0.750000  0.591271  0.521557  1
  Ir  Ir27  1  0.250000  0.408729  0.478443  1
  Ir  Ir28  1  0.250000  0.273647  0.679093  1
  Ir  Ir29  1  0.750000  0.726353  0.320907  1
  Ir  Ir30  1  0.750000  0.773647  0.820907  1
  Ir  Ir31  1  0.250000  0.226353  0.179093  1
  Ru  Ru32  1  0.250000  0.782121  0.490274  1
  Ru  Ru33  1  0.750000  0.217879  0.509726  1
  Ru  Ru34  1  0.750000  0.282121  0.009726  1
  Ru  Ru35  1  0.250000  0.717879  0.990274  1
