# generated using pymatgen
data_LuPa2(ZnPt)3
_symmetry_space_group_name_H-M   'P 1'
_cell_length_a   7.29583584
_cell_length_b   7.34735867
_cell_length_c   3.81522400
_cell_angle_alpha   90.00000000
_cell_angle_beta   90.00000000
_cell_angle_gamma   120.23387062
_symmetry_Int_Tables_number   1
_chemical_formula_structural   LuPa2(ZnPt)3
_chemical_formula_sum   'Lu1 Pa2 Zn3 Pt3'
_cell_volume   176.69679094
_cell_formula_units_Z   1
loop_
 _symmetry_equiv_pos_site_id
 _symmetry_equiv_pos_as_xyz
  1  'x, y, z'
loop_
 _atom_site_type_symbol
 _atom_site_label
 _atom_site_symmetry_multiplicity
 _atom_site_fract_x
 _atom_site_fract_y
 _atom_site_fract_z
 _atom_site_occupancy
  Lu  Lu0  1  0.000000  0.399367  0.000000  1
  Pa  Pa1  1  0.591292  0.592944  0.000000  1
  Pa  Pa2  1  0.408708  0.001653  0.000000  1
  Zn  Zn3  1  0.241715  0.254385  0.500000  1
  Zn  Zn4  1  0.758285  0.012670  0.500000  1
  Zn  Zn5  1  0.000000  0.737052  0.500000  1
  Pt  Pt6  1  0.000000  0.992125  0.000000  1
  Pt  Pt7  1  0.654516  0.332159  0.500000  1
  Pt  Pt8  1  0.345484  0.677644  0.500000  1
