# generated using pymatgen
data_CaLa18TmGa12
_symmetry_space_group_name_H-M   'P 1'
_cell_length_a   7.97172300
_cell_length_b   7.97172300
_cell_length_c   14.96008300
_cell_angle_alpha   90.00000000
_cell_angle_beta   90.00000000
_cell_angle_gamma   90.00000000
_symmetry_Int_Tables_number   1
_chemical_formula_structural   CaLa18TmGa12
_chemical_formula_sum   'Ca1 La18 Tm1 Ga12'
_cell_volume   950.68885364
_cell_formula_units_Z   1
loop_
 _symmetry_equiv_pos_site_id
 _symmetry_equiv_pos_as_xyz
  1  'x, y, z'
loop_
 _atom_site_type_symbol
 _atom_site_label
 _atom_site_symmetry_multiplicity
 _atom_site_fract_x
 _atom_site_fract_y
 _atom_site_fract_z
 _atom_site_occupancy
  Ca  Ca0  1  0.500000  0.000000  0.767740  1
  La  La1  1  0.337515  0.312502  0.103990  1
  La  La2  1  0.837505  0.812761  0.897468  1
  La  La3  1  0.839926  0.182272  0.396101  1
  La  La4  1  0.162495  0.187239  0.897468  1
  La  La5  1  0.662485  0.687498  0.103990  1
  La  La6  1  0.000000  0.500000  0.707518  1
  La  La7  1  0.819147  0.839856  0.602844  1
  La  La8  1  0.317728  0.339926  0.396101  1
  La  La9  1  0.187498  0.837515  0.103990  1
  La  La10  1  0.180853  0.160144  0.602844  1
  La  La11  1  0.812502  0.162485  0.103990  1
  La  La12  1  0.339856  0.680853  0.602844  1
  La  La13  1  0.500000  0.000000  0.291744  1
  La  La14  1  0.687239  0.337505  0.897468  1
  La  La15  1  0.660144  0.319147  0.602844  1
  La  La16  1  0.312761  0.662495  0.897468  1
  La  La17  1  0.160074  0.817728  0.396101  1
  La  La18  1  0.682272  0.660074  0.396101  1
  Tm  Tm19  1  0.000000  0.500000  0.226654  1
  Ga  Ga20  1  0.624627  0.383953  0.248021  1
  Ga  Ga21  1  0.880955  0.117950  0.751962  1
  Ga  Ga22  1  0.500000  0.000000  0.499927  1
  Ga  Ga23  1  0.883953  0.875373  0.248021  1
  Ga  Ga24  1  0.000000  0.500000  0.019747  1
  Ga  Ga25  1  0.119045  0.882050  0.751962  1
  Ga  Ga26  1  0.382050  0.380955  0.751962  1
  Ga  Ga27  1  0.116047  0.124627  0.248021  1
  Ga  Ga28  1  0.375373  0.616047  0.248021  1
  Ga  Ga29  1  0.617950  0.619045  0.751962  1
  Ga  Ga30  1  0.500000  0.000000  0.985322  1
  Ga  Ga31  1  0.000000  0.500000  0.499797  1
