# generated using pymatgen
data_Nb8AlSiSb4
_symmetry_space_group_name_H-M   'P 1'
_cell_length_a   7.83617994
_cell_length_b   7.83618034
_cell_length_c   7.83617900
_cell_angle_alpha   95.79113395
_cell_angle_beta   95.79842299
_cell_angle_gamma   142.94607191
_symmetry_Int_Tables_number   1
_chemical_formula_structural   Nb8AlSiSb4
_chemical_formula_sum   'Nb8 Al1 Si1 Sb4'
_cell_volume   274.91995679
_cell_formula_units_Z   1
loop_
 _symmetry_equiv_pos_site_id
 _symmetry_equiv_pos_as_xyz
  1  'x, y, z'
loop_
 _atom_site_type_symbol
 _atom_site_label
 _atom_site_symmetry_multiplicity
 _atom_site_fract_x
 _atom_site_fract_y
 _atom_site_fract_z
 _atom_site_occupancy
  Nb  Nb0  1  0.912688  0.790549  0.706933  1
  Nb  Nb1  1  0.790588  0.083656  0.877944  1
  Nb  Nb2  1  0.416384  0.709451  0.122139  1
  Nb  Nb3  1  0.587310  0.294251  0.877855  1
  Nb  Nb4  1  0.709417  0.587360  0.293073  1
  Nb  Nb5  1  0.294286  0.416344  0.706932  1
  Nb  Nb6  1  0.205713  0.912640  0.122056  1
  Nb  Nb7  1  0.083604  0.205749  0.293059  1
  Al  Al8  1  0.250017  0.250000  0.000017  1
  Si  Si9  1  0.750009  0.750000  0.000009  1
  Sb  Sb10  1  0.641007  0.859072  0.500064  1
  Sb  Sb11  1  0.140992  0.640928  0.781935  1
  Sb  Sb12  1  0.858999  0.359092  0.218077  1
  Sb  Sb13  1  0.358985  0.140908  0.499906  1
