# generated using pymatgen
data_RbTb3Se5
_symmetry_space_group_name_H-M   'P 1'
_cell_length_a   4.16995900
_cell_length_b   12.34903500
_cell_length_c   22.31547700
_cell_angle_alpha   90.00000000
_cell_angle_beta   90.00000000
_cell_angle_gamma   90.00000000
_symmetry_Int_Tables_number   1
_chemical_formula_structural   RbTb3Se5
_chemical_formula_sum   'Rb4 Tb12 Se20'
_cell_volume   1149.13481061
_cell_formula_units_Z   4
loop_
 _symmetry_equiv_pos_site_id
 _symmetry_equiv_pos_as_xyz
  1  'x, y, z'
loop_
 _atom_site_type_symbol
 _atom_site_label
 _atom_site_symmetry_multiplicity
 _atom_site_fract_x
 _atom_site_fract_y
 _atom_site_fract_z
 _atom_site_occupancy
  Rb  Rb0  1  0.250000  0.846939  0.097197  1
  Rb  Rb1  1  0.750000  0.153061  0.902803  1
  Rb  Rb2  1  0.750000  0.346939  0.402803  1
  Rb  Rb3  1  0.250000  0.653061  0.597197  1
  Tb  Tb4  1  0.750000  0.802508  0.828236  1
  Tb  Tb5  1  0.250000  0.197492  0.171764  1
  Tb  Tb6  1  0.250000  0.302508  0.671764  1
  Tb  Tb7  1  0.750000  0.697492  0.328236  1
  Tb  Tb8  1  0.250000  0.958876  0.698408  1
  Tb  Tb9  1  0.750000  0.041124  0.301592  1
  Tb  Tb10  1  0.750000  0.458876  0.801592  1
  Tb  Tb11  1  0.250000  0.541124  0.198408  1
  Tb  Tb12  1  0.750000  0.388704  0.052873  1
  Tb  Tb13  1  0.250000  0.611296  0.947127  1
  Tb  Tb14  1  0.250000  0.888704  0.447127  1
  Tb  Tb15  1  0.750000  0.111296  0.552873  1
  Se  Se16  1  0.250000  0.948471  0.569462  1
  Se  Se17  1  0.750000  0.051529  0.430538  1
  Se  Se18  1  0.750000  0.448471  0.930538  1
  Se  Se19  1  0.250000  0.551529  0.069462  1
  Se  Se20  1  0.750000  0.769851  0.955445  1
  Se  Se21  1  0.250000  0.230149  0.044555  1
  Se  Se22  1  0.250000  0.269851  0.544555  1
  Se  Se23  1  0.750000  0.730149  0.455445  1
  Se  Se24  1  0.250000  0.957593  0.826884  1
  Se  Se25  1  0.750000  0.042407  0.173116  1
  Se  Se26  1  0.750000  0.457593  0.673116  1
  Se  Se27  1  0.250000  0.542407  0.326884  1
  Se  Se28  1  0.750000  0.129654  0.683553  1
  Se  Se29  1  0.250000  0.870346  0.316447  1
  Se  Se30  1  0.250000  0.629654  0.816447  1
  Se  Se31  1  0.750000  0.370346  0.183553  1
  Se  Se32  1  0.750000  0.694731  0.199844  1
  Se  Se33  1  0.250000  0.305269  0.800156  1
  Se  Se34  1  0.250000  0.194731  0.300156  1
  Se  Se35  1  0.750000  0.805269  0.699844  1
