# generated using pymatgen
data_UV2ReBr20
_symmetry_space_group_name_H-M   'P 1'
_cell_length_a   7.78935669
_cell_length_b   8.04913480
_cell_length_c   15.00826800
_cell_angle_alpha   90.33783425
_cell_angle_beta   91.47919423
_cell_angle_gamma   106.87145368
_symmetry_Int_Tables_number   1
_chemical_formula_structural   UV2ReBr20
_chemical_formula_sum   'U1 V2 Re1 Br20'
_cell_volume   900.09241346
_cell_formula_units_Z   1
loop_
 _symmetry_equiv_pos_site_id
 _symmetry_equiv_pos_as_xyz
  1  'x, y, z'
loop_
 _atom_site_type_symbol
 _atom_site_label
 _atom_site_symmetry_multiplicity
 _atom_site_fract_x
 _atom_site_fract_y
 _atom_site_fract_z
 _atom_site_occupancy
  U  U0  1  0.000000  0.000000  0.000000  1
  V  V1  1  0.383059  0.591168  0.761224  1
  V  V2  1  0.616941  0.408832  0.238776  1
  Re  Re3  1  0.000000  0.000000  0.500000  1
  Br  Br4  1  0.311755  0.083739  0.917791  1
  Br  Br5  1  0.688245  0.916261  0.082209  1
  Br  Br6  1  0.116807  0.283709  0.102958  1
  Br  Br7  1  0.883193  0.716291  0.897042  1
  Br  Br8  1  0.131784  0.819098  0.117883  1
  Br  Br9  1  0.868216  0.180902  0.882117  1
  Br  Br10  1  0.223669  0.287210  0.478805  1
  Br  Br11  1  0.776331  0.712790  0.521195  1
  Br  Br12  1  0.226805  0.851094  0.459170  1
  Br  Br13  1  0.773195  0.148906  0.540830  1
  Br  Br14  1  0.097912  0.004497  0.658626  1
  Br  Br15  1  0.902088  0.995503  0.341374  1
  Br  Br16  1  0.663169  0.410281  0.090927  1
  Br  Br17  1  0.336831  0.589719  0.909073  1
  Br  Br18  1  0.884208  0.484039  0.313254  1
  Br  Br19  1  0.115792  0.515961  0.686746  1
  Br  Br20  1  0.460910  0.141483  0.282541  1
  Br  Br21  1  0.539090  0.858517  0.717459  1
  Br  Br22  1  0.467922  0.601726  0.275829  1
  Br  Br23  1  0.532078  0.398274  0.724171  1
