# generated using pymatgen
data_Cr2H3
_symmetry_space_group_name_H-M   'P 1'
_cell_length_a   2.78428389
_cell_length_b   2.77833778
_cell_length_c   4.53520648
_cell_angle_alpha   90.02795785
_cell_angle_beta   89.96008340
_cell_angle_gamma   60.12975681
_symmetry_Int_Tables_number   1
_chemical_formula_structural   Cr2H3
_chemical_formula_sum   'Cr2 H3'
_cell_volume   30.42231870
_cell_formula_units_Z   1
loop_
 _symmetry_equiv_pos_site_id
 _symmetry_equiv_pos_as_xyz
  1  'x, y, z'
loop_
 _atom_site_type_symbol
 _atom_site_label
 _atom_site_symmetry_multiplicity
 _atom_site_fract_x
 _atom_site_fract_y
 _atom_site_fract_z
 _atom_site_occupancy
  Cr  Cr0  1  0.279286  0.511523  0.781221  1
  Cr  Cr1  1  0.946597  0.179326  0.229008  1
  H  H2  1  0.613600  0.845032  0.003377  1
  H  H3  1  0.281231  0.512716  0.384674  1
  H  H4  1  0.944505  0.178231  0.625841  1
