# generated using pymatgen
data_Ho4Sc4B24IrRu3
_symmetry_space_group_name_H-M   'P 1'
_cell_length_a   3.55205200
_cell_length_b   8.96730402
_cell_length_c   11.33871702
_cell_angle_alpha   90.00724082
_cell_angle_beta   90.00000000
_cell_angle_gamma   90.00000000
_symmetry_Int_Tables_number   1
_chemical_formula_structural   Ho4Sc4B24IrRu3
_chemical_formula_sum   'Ho4 Sc4 B24 Ir1 Ru3'
_cell_volume   361.16455544
_cell_formula_units_Z   1
loop_
 _symmetry_equiv_pos_site_id
 _symmetry_equiv_pos_as_xyz
  1  'x, y, z'
loop_
 _atom_site_type_symbol
 _atom_site_label
 _atom_site_symmetry_multiplicity
 _atom_site_fract_x
 _atom_site_fract_y
 _atom_site_fract_z
 _atom_site_occupancy
  Ho  Ho0  1  0.500000  0.318303  0.414537  1
  Ho  Ho1  1  0.500000  0.679843  0.588405  1
  Ho  Ho2  1  0.500000  0.179586  0.913439  1
  Ho  Ho3  1  0.500000  0.821798  0.084338  1
  Sc  Sc4  1  0.500000  0.442811  0.124278  1
  Sc  Sc5  1  0.500000  0.555041  0.874292  1
  Sc  Sc6  1  0.500000  0.055119  0.625787  1
  Sc  Sc7  1  0.500000  0.947411  0.374572  1
  B  B8  1  0.000000  0.100294  0.472869  1
  B  B9  1  0.000000  0.899331  0.526936  1
  B  B10  1  0.000000  0.399559  0.972915  1
  B  B11  1  0.000000  0.600559  0.027346  1
  B  B12  1  0.000000  0.129848  0.317654  1
  B  B13  1  0.000000  0.870132  0.682673  1
  B  B14  1  0.000000  0.370346  0.817320  1
  B  B15  1  0.000000  0.629829  0.181239  1
  B  B16  1  0.000000  0.055203  0.066935  1
  B  B17  1  0.000000  0.945047  0.932928  1
  B  B18  1  0.000000  0.444764  0.566953  1
  B  B19  1  0.000000  0.554745  0.433727  1
  B  B20  1  0.000000  0.481703  0.285207  1
  B  B21  1  0.000000  0.517641  0.714545  1
  B  B22  1  0.000000  0.017587  0.785499  1
  B  B23  1  0.000000  0.982523  0.214535  1
  B  B24  1  0.000000  0.253355  0.081008  1
  B  B25  1  0.000000  0.746663  0.918951  1
  B  B26  1  0.000000  0.246245  0.581144  1
  B  B27  1  0.000000  0.754545  0.419904  1
  B  B28  1  0.000000  0.294197  0.234854  1
  B  B29  1  0.000000  0.705614  0.765475  1
  B  B30  1  0.000000  0.205773  0.734518  1
  B  B31  1  0.000000  0.794729  0.264858  1
  Ir  Ir32  1  0.500000  0.640229  0.319252  1
  Ru  Ru33  1  0.500000  0.140555  0.181380  1
  Ru  Ru34  1  0.500000  0.859332  0.818827  1
  Ru  Ru35  1  0.500000  0.359743  0.680899  1
