# generated using pymatgen
data_Tb10CdBi5S2
_symmetry_space_group_name_H-M   'P 1'
_cell_length_a   9.21022209
_cell_length_b   9.21022202
_cell_length_c   6.62375300
_cell_angle_alpha   90.00000000
_cell_angle_beta   90.00000000
_cell_angle_gamma   119.78580600
_symmetry_Int_Tables_number   1
_chemical_formula_structural   Tb10CdBi5S2
_chemical_formula_sum   'Tb10 Cd1 Bi5 S2'
_cell_volume   487.65006493
_cell_formula_units_Z   1
loop_
 _symmetry_equiv_pos_site_id
 _symmetry_equiv_pos_as_xyz
  1  'x, y, z'
loop_
 _atom_site_type_symbol
 _atom_site_label
 _atom_site_symmetry_multiplicity
 _atom_site_fract_x
 _atom_site_fract_y
 _atom_site_fract_z
 _atom_site_occupancy
  Tb  Tb0  1  0.662206  0.334914  0.498899  1
  Tb  Tb1  1  0.334914  0.662206  0.498899  1
  Tb  Tb2  1  0.334914  0.662206  0.001101  1
  Tb  Tb3  1  0.662206  0.334914  0.001101  1
  Tb  Tb4  1  0.753865  0.753865  0.250000  1
  Tb  Tb5  1  0.246644  0.007491  0.250000  1
  Tb  Tb6  1  0.007491  0.246644  0.250000  1
  Tb  Tb7  1  0.244163  0.244163  0.750000  1
  Tb  Tb8  1  0.756822  0.000484  0.750000  1
  Tb  Tb9  1  0.000484  0.756822  0.750000  1
  Cd  Cd10  1  0.397143  0.397143  0.250000  1
  Bi  Bi11  1  0.605606  0.000412  0.250000  1
  Bi  Bi12  1  0.000412  0.605606  0.250000  1
  Bi  Bi13  1  0.602087  0.602087  0.750000  1
  Bi  Bi14  1  0.394687  0.999114  0.750000  1
  Bi  Bi15  1  0.999114  0.394687  0.750000  1
  S  S16  1  0.998621  0.998621  0.500534  1
  S  S17  1  0.998621  0.998621  0.999466  1
