# generated using pymatgen
data_Ho4AgHgPt2
_symmetry_space_group_name_H-M   'P 1'
_cell_length_a   4.64216000
_cell_length_b   5.61403536
_cell_length_c   7.22824600
_cell_angle_alpha   87.49811813
_cell_angle_beta   90.00000000
_cell_angle_gamma   90.00000000
_symmetry_Int_Tables_number   1
_chemical_formula_structural   Ho4AgHgPt2
_chemical_formula_sum   'Ho4 Ag1 Hg1 Pt2'
_cell_volume   188.19756572
_cell_formula_units_Z   1
loop_
 _symmetry_equiv_pos_site_id
 _symmetry_equiv_pos_as_xyz
  1  'x, y, z'
loop_
 _atom_site_type_symbol
 _atom_site_label
 _atom_site_symmetry_multiplicity
 _atom_site_fract_x
 _atom_site_fract_y
 _atom_site_fract_z
 _atom_site_occupancy
  Ho  Ho0  1  0.250000  0.639435  0.209372  1
  Ho  Ho1  1  0.750000  0.361056  0.791183  1
  Ho  Ho2  1  0.750000  0.153413  0.336179  1
  Ho  Ho3  1  0.250000  0.845316  0.663264  1
  Ag  Ag4  1  0.250000  0.156363  0.033376  1
  Hg  Hg5  1  0.750000  0.847440  0.968183  1
  Pt  Pt6  1  0.750000  0.662644  0.453451  1
  Pt  Pt7  1  0.250000  0.334332  0.544993  1
