# generated using pymatgen
data_PrCu5Ag
_symmetry_space_group_name_H-M   'P 1'
_cell_length_a   5.16908200
_cell_length_b   8.27870700
_cell_length_c   10.44478300
_cell_angle_alpha   90.00000000
_cell_angle_beta   90.00000000
_cell_angle_gamma   90.00000000
_symmetry_Int_Tables_number   1
_chemical_formula_structural   PrCu5Ag
_chemical_formula_sum   'Pr4 Cu20 Ag4'
_cell_volume   446.96689255
_cell_formula_units_Z   4
loop_
 _symmetry_equiv_pos_site_id
 _symmetry_equiv_pos_as_xyz
  1  'x, y, z'
loop_
 _atom_site_type_symbol
 _atom_site_label
 _atom_site_symmetry_multiplicity
 _atom_site_fract_x
 _atom_site_fract_y
 _atom_site_fract_z
 _atom_site_occupancy
  Pr  Pr0  1  0.750000  0.242036  0.062997  1
  Pr  Pr1  1  0.250000  0.757964  0.937003  1
  Pr  Pr2  1  0.750000  0.742036  0.437003  1
  Pr  Pr3  1  0.250000  0.257964  0.562997  1
  Cu  Cu4  1  0.750000  0.683041  0.751167  1
  Cu  Cu5  1  0.250000  0.316959  0.248833  1
  Cu  Cu6  1  0.750000  0.183041  0.748833  1
  Cu  Cu7  1  0.250000  0.816959  0.251167  1
  Cu  Cu8  1  0.750000  0.940011  0.890637  1
  Cu  Cu9  1  0.250000  0.059989  0.109363  1
  Cu  Cu10  1  0.750000  0.440011  0.609363  1
  Cu  Cu11  1  0.250000  0.559989  0.390637  1
  Cu  Cu12  1  0.750000  0.590669  0.982565  1
  Cu  Cu13  1  0.250000  0.409331  0.017435  1
  Cu  Cu14  1  0.750000  0.090669  0.517435  1
  Cu  Cu15  1  0.250000  0.909331  0.482565  1
  Cu  Cu16  1  0.501157  0.066613  0.314161  1
  Cu  Cu17  1  0.001157  0.933387  0.685839  1
  Cu  Cu18  1  0.998843  0.566613  0.185839  1
  Cu  Cu19  1  0.498843  0.433387  0.814161  1
  Cu  Cu20  1  0.498843  0.933387  0.685839  1
  Cu  Cu21  1  0.998843  0.066613  0.314161  1
  Cu  Cu22  1  0.001157  0.433387  0.814161  1
  Cu  Cu23  1  0.501157  0.566613  0.185839  1
  Ag  Ag24  1  0.750000  0.360487  0.361507  1
  Ag  Ag25  1  0.250000  0.639513  0.638493  1
  Ag  Ag26  1  0.750000  0.860487  0.138493  1
  Ag  Ag27  1  0.250000  0.139513  0.861507  1
