# generated using pymatgen
data_Y10Si4Bi3Pb
_symmetry_space_group_name_H-M   'P 1'
_cell_length_a   8.66556630
_cell_length_b   8.66556787
_cell_length_c   7.96105835
_cell_angle_alpha   89.88398581
_cell_angle_beta   89.88399072
_cell_angle_gamma   125.30839833
_symmetry_Int_Tables_number   1
_chemical_formula_structural   Y10Si4Bi3Pb
_chemical_formula_sum   'Y10 Si4 Bi3 Pb1'
_cell_volume   487.84164041
_cell_formula_units_Z   1
loop_
 _symmetry_equiv_pos_site_id
 _symmetry_equiv_pos_as_xyz
  1  'x, y, z'
loop_
 _atom_site_type_symbol
 _atom_site_label
 _atom_site_symmetry_multiplicity
 _atom_site_fract_x
 _atom_site_fract_y
 _atom_site_fract_z
 _atom_site_occupancy
  Y  Y0  1  0.041514  0.286934  0.332927  1
  Y  Y1  1  0.956741  0.710599  0.665971  1
  Y  Y2  1  0.460482  0.212838  0.837057  1
  Y  Y3  1  0.787162  0.539518  0.162943  1
  Y  Y4  1  0.543904  0.789397  0.162897  1
  Y  Y5  1  0.210603  0.456096  0.837103  1
  Y  Y6  1  0.713066  0.958486  0.667073  1
  Y  Y7  1  0.289401  0.043259  0.334029  1
  Y  Y8  1  0.997912  0.002088  0.000000  1
  Y  Y9  1  0.500390  0.499610  0.500000  1
  Si  Si10  1  0.366280  0.366075  0.133802  1
  Si  Si11  1  0.633925  0.633720  0.866198  1
  Si  Si12  1  0.134633  0.133922  0.633230  1
  Si  Si13  1  0.866078  0.865367  0.366770  1
  Bi  Bi14  1  0.207060  0.792940  0.000000  1
  Bi  Bi15  1  0.706976  0.293024  0.500000  1
  Bi  Bi16  1  0.292559  0.707441  0.500000  1
  Pb  Pb17  1  0.791314  0.208686  0.000000  1
