# generated using pymatgen
data_ZrSc3(Al3Ir)6
_symmetry_space_group_name_H-M   'P 1'
_cell_length_a   7.47838270
_cell_length_b   7.47513260
_cell_length_c   9.31115400
_cell_angle_alpha   90.00000000
_cell_angle_beta   90.00000000
_cell_angle_gamma   119.71787991
_symmetry_Int_Tables_number   1
_chemical_formula_structural   ZrSc3(Al3Ir)6
_chemical_formula_sum   'Zr1 Sc3 Al18 Ir6'
_cell_volume   452.05194989
_cell_formula_units_Z   1
loop_
 _symmetry_equiv_pos_site_id
 _symmetry_equiv_pos_as_xyz
  1  'x, y, z'
loop_
 _atom_site_type_symbol
 _atom_site_label
 _atom_site_symmetry_multiplicity
 _atom_site_fract_x
 _atom_site_fract_y
 _atom_site_fract_z
 _atom_site_occupancy
  Zr  Zr0  1  0.995475  0.671250  0.250000  1
  Sc  Sc1  1  0.006091  0.326663  0.750000  1
  Sc  Sc2  1  0.671626  0.995678  0.250000  1
  Sc  Sc3  1  0.328410  0.007068  0.750000  1
  Al  Al4  1  0.124019  0.122813  0.250000  1
  Al  Al5  1  0.874508  0.874213  0.750000  1
  Al  Al6  1  0.997946  0.334447  0.077733  1
  Al  Al7  1  0.002119  0.664968  0.922925  1
  Al  Al8  1  0.002119  0.664968  0.577075  1
  Al  Al9  1  0.335390  0.998702  0.421974  1
  Al  Al10  1  0.997946  0.334447  0.422267  1
  Al  Al11  1  0.664808  0.001635  0.577249  1
  Al  Al12  1  0.664808  0.001635  0.922751  1
  Al  Al13  1  0.335390  0.998702  0.078026  1
  Al  Al14  1  0.331483  0.331622  0.557976  1
  Al  Al15  1  0.668511  0.669004  0.441186  1
  Al  Al16  1  0.668511  0.669004  0.058814  1
  Al  Al17  1  0.331483  0.331622  0.942024  1
  Al  Al18  1  0.337699  0.552452  0.250000  1
  Al  Al19  1  0.660119  0.447412  0.750000  1
  Al  Al20  1  0.554153  0.341566  0.250000  1
  Al  Al21  1  0.446386  0.659481  0.750000  1
  Ir  Ir22  1  0.672873  0.329049  0.000599  1
  Ir  Ir23  1  0.327693  0.672213  0.001212  1
  Ir  Ir24  1  0.327693  0.672213  0.498788  1
  Ir  Ir25  1  0.672873  0.329049  0.499401  1
  Ir  Ir26  1  0.999932  0.999062  0.000485  1
  Ir  Ir27  1  0.999932  0.999062  0.499515  1
