# generated using pymatgen
data_Pr8Cd2RuPt
_symmetry_space_group_name_H-M   'P 1'
_cell_length_a   10.05046138
_cell_length_b   10.05046205
_cell_length_c   10.10234200
_cell_angle_alpha   59.82909017
_cell_angle_beta   59.82908793
_cell_angle_gamma   59.88032857
_symmetry_Int_Tables_number   1
_chemical_formula_structural   Pr8Cd2RuPt
_chemical_formula_sum   'Pr16 Cd4 Ru2 Pt2'
_cell_volume   719.05158323
_cell_formula_units_Z   2
loop_
 _symmetry_equiv_pos_site_id
 _symmetry_equiv_pos_as_xyz
  1  'x, y, z'
loop_
 _atom_site_type_symbol
 _atom_site_label
 _atom_site_symmetry_multiplicity
 _atom_site_fract_x
 _atom_site_fract_y
 _atom_site_fract_z
 _atom_site_occupancy
  Pr  Pr0  1  0.347071  0.347071  0.354082  1
  Pr  Pr1  1  0.347071  0.347071  0.951776  1
  Pr  Pr2  1  0.343753  0.955957  0.350145  1
  Pr  Pr3  1  0.955957  0.343753  0.350145  1
  Pr  Pr4  1  0.814931  0.190170  0.190770  1
  Pr  Pr5  1  0.190170  0.814931  0.804128  1
  Pr  Pr6  1  0.190170  0.814931  0.190770  1
  Pr  Pr7  1  0.814931  0.190170  0.804128  1
  Pr  Pr8  1  0.189495  0.189495  0.810505  1
  Pr  Pr9  1  0.806618  0.806618  0.193382  1
  Pr  Pr10  1  0.938063  0.559225  0.563995  1
  Pr  Pr11  1  0.559225  0.938063  0.938717  1
  Pr  Pr12  1  0.559225  0.938063  0.563995  1
  Pr  Pr13  1  0.938063  0.559225  0.938717  1
  Pr  Pr14  1  0.562504  0.562504  0.937496  1
  Pr  Pr15  1  0.938566  0.938566  0.561434  1
  Cd  Cd16  1  0.579796  0.579796  0.579955  1
  Cd  Cd17  1  0.579796  0.579796  0.260451  1
  Cd  Cd18  1  0.580420  0.259159  0.580210  1
  Cd  Cd19  1  0.259159  0.580420  0.580210  1
  Ru  Ru20  1  0.142845  0.142845  0.137404  1
  Ru  Ru21  1  0.142845  0.142845  0.576906  1
  Pt  Pt22  1  0.145376  0.573948  0.140338  1
  Pt  Pt23  1  0.573948  0.145376  0.140338  1
