# generated using pymatgen
data_Tb2DyTh3Si4
_symmetry_space_group_name_H-M   'P 1'
_cell_length_a   7.64410856
_cell_length_b   7.64389825
_cell_length_c   4.24533900
_cell_angle_alpha   90.00000000
_cell_angle_beta   90.00000000
_cell_angle_gamma   90.59991001
_symmetry_Int_Tables_number   1
_chemical_formula_structural   Tb2DyTh3Si4
_chemical_formula_sum   'Tb2 Dy1 Th3 Si4'
_cell_volume   248.04490637
_cell_formula_units_Z   1
loop_
 _symmetry_equiv_pos_site_id
 _symmetry_equiv_pos_as_xyz
  1  'x, y, z'
loop_
 _atom_site_type_symbol
 _atom_site_label
 _atom_site_symmetry_multiplicity
 _atom_site_fract_x
 _atom_site_fract_y
 _atom_site_fract_z
 _atom_site_occupancy
  Tb  Tb0  1  0.500554  0.501404  0.000000  1
  Tb  Tb1  1  0.676317  0.176236  0.500000  1
  Dy  Dy2  1  0.001385  0.000579  0.000000  1
  Th  Th3  1  0.322650  0.822728  0.500000  1
  Th  Th4  1  0.178183  0.320275  0.500000  1
  Th  Th5  1  0.820341  0.678253  0.500000  1
  Si  Si6  1  0.115580  0.615639  0.000000  1
  Si  Si7  1  0.881076  0.380994  0.000000  1
  Si  Si8  1  0.617449  0.886517  0.000000  1
  Si  Si9  1  0.386464  0.117374  0.000000  1
