# generated using pymatgen
data_CaLuGaSe4
_symmetry_space_group_name_H-M   'P 1'
_cell_length_a   6.59977200
_cell_length_b   8.28279400
_cell_length_c   14.54860500
_cell_angle_alpha   90.00000000
_cell_angle_beta   90.00000000
_cell_angle_gamma   90.00000000
_symmetry_Int_Tables_number   1
_chemical_formula_structural   CaLuGaSe4
_chemical_formula_sum   'Ca4 Lu4 Ga4 Se16'
_cell_volume   795.29297343
_cell_formula_units_Z   4
loop_
 _symmetry_equiv_pos_site_id
 _symmetry_equiv_pos_as_xyz
  1  'x, y, z'
loop_
 _atom_site_type_symbol
 _atom_site_label
 _atom_site_symmetry_multiplicity
 _atom_site_fract_x
 _atom_site_fract_y
 _atom_site_fract_z
 _atom_site_occupancy
  Ca  Ca0  1  0.492937  0.500000  0.235834  1
  Ca  Ca1  1  0.992938  0.000000  0.264166  1
  Ca  Ca2  1  0.007064  0.500000  0.735834  1
  Ca  Ca3  1  0.507063  0.000000  0.764166  1
  Lu  Lu4  1  0.000000  0.250000  0.000000  1
  Lu  Lu5  1  0.000000  0.750001  0.000000  1
  Lu  Lu6  1  0.500001  0.250000  0.500000  1
  Lu  Lu7  1  0.500001  0.750001  0.500000  1
  Ga  Ga8  1  0.400731  0.000000  0.082884  1
  Ga  Ga9  1  0.900734  0.500000  0.417116  1
  Ga  Ga10  1  0.099268  0.000000  0.582884  1
  Ga  Ga11  1  0.599268  0.500000  0.917117  1
  Se  Se12  1  0.757304  0.500000  0.070960  1
  Se  Se13  1  0.767863  0.000000  0.084899  1
  Se  Se14  1  0.245673  0.232944  0.157573  1
  Se  Se15  1  0.245673  0.767057  0.157573  1
  Se  Se16  1  0.745674  0.267055  0.342426  1
  Se  Se17  1  0.745674  0.732945  0.342426  1
  Se  Se18  1  0.267864  0.500000  0.415101  1
  Se  Se19  1  0.257303  0.000000  0.429040  1
  Se  Se20  1  0.742697  0.500000  0.570960  1
  Se  Se21  1  0.732138  0.000000  0.584899  1
  Se  Se22  1  0.254328  0.232944  0.657573  1
  Se  Se23  1  0.254328  0.767057  0.657573  1
  Se  Se24  1  0.754327  0.267055  0.842426  1
  Se  Se25  1  0.754327  0.732945  0.842426  1
  Se  Se26  1  0.232137  0.500000  0.915101  1
  Se  Se27  1  0.242698  0.000000  0.929040  1
