# generated using pymatgen
data_Rb12NaLi7(TiAs3)4
_symmetry_space_group_name_H-M   'P 1'
_cell_length_a   10.43070869
_cell_length_b   10.43070871
_cell_length_c   15.71678141
_cell_angle_alpha   89.96116520
_cell_angle_beta   89.96116730
_cell_angle_gamma   142.82203891
_symmetry_Int_Tables_number   1
_chemical_formula_structural   Rb12NaLi7(TiAs3)4
_chemical_formula_sum   'Rb12 Na1 Li7 Ti4 As12'
_cell_volume   1033.32658128
_cell_formula_units_Z   1
loop_
 _symmetry_equiv_pos_site_id
 _symmetry_equiv_pos_as_xyz
  1  'x, y, z'
loop_
 _atom_site_type_symbol
 _atom_site_label
 _atom_site_symmetry_multiplicity
 _atom_site_fract_x
 _atom_site_fract_y
 _atom_site_fract_z
 _atom_site_occupancy
  Rb  Rb0  1  0.606688  0.947888  0.830038  1
  Rb  Rb1  1  0.282925  0.281338  0.318357  1
  Rb  Rb2  1  0.218013  0.217971  0.821511  1
  Rb  Rb3  1  0.718662  0.717075  0.681643  1
  Rb  Rb4  1  0.446797  0.106284  0.671513  1
  Rb  Rb5  1  0.893716  0.553203  0.328487  1
  Rb  Rb6  1  0.052112  0.393312  0.169962  1
  Rb  Rb7  1  0.393582  0.052668  0.170259  1
  Rb  Rb8  1  0.549404  0.892611  0.326544  1
  Rb  Rb9  1  0.107389  0.450596  0.673456  1
  Rb  Rb10  1  0.947332  0.606418  0.829741  1
  Rb  Rb11  1  0.782029  0.781987  0.178489  1
  Na  Na12  1  0.418349  0.581651  0.500000  1
  Li  Li13  1  0.081426  0.918574  0.000000  1
  Li  Li14  1  0.584426  0.415574  0.500000  1
  Li  Li15  1  0.918585  0.081415  0.000000  1
  Li  Li16  1  0.748729  0.251271  0.000000  1
  Li  Li17  1  0.750044  0.249956  0.500000  1
  Li  Li18  1  0.251232  0.748768  0.000000  1
  Li  Li19  1  0.246578  0.753422  0.500000  1
  Ti  Ti20  1  0.087116  0.912884  0.500000  1
  Ti  Ti21  1  0.413825  0.586175  0.000000  1
  Ti  Ti22  1  0.913563  0.086437  0.500000  1
  Ti  Ti23  1  0.586186  0.413814  0.000000  1
  As  As24  1  0.049332  0.372389  0.410046  1
  As  As25  1  0.885796  0.566862  0.084374  1
  As  As26  1  0.433138  0.114204  0.915626  1
  As  As27  1  0.627611  0.950668  0.589954  1
  As  As28  1  0.932349  0.611976  0.584950  1
  As  As29  1  0.114357  0.433339  0.915578  1
  As  As30  1  0.566661  0.885643  0.084422  1
  As  As31  1  0.388024  0.067651  0.415050  1
  As  As32  1  0.203593  0.199615  0.585528  1
  As  As33  1  0.715907  0.715861  0.919643  1
  As  As34  1  0.284139  0.284093  0.080357  1
  As  As35  1  0.800385  0.796407  0.414472  1
