# generated using pymatgen
data_Er6Fe3Si6Rh
_symmetry_space_group_name_H-M   'P 1'
_cell_length_a   5.61637690
_cell_length_b   5.61637682
_cell_length_c   13.54099952
_cell_angle_alpha   90.07615181
_cell_angle_beta   89.92384774
_cell_angle_gamma   137.18005933
_symmetry_Int_Tables_number   1
_chemical_formula_structural   Er6Fe3Si6Rh
_chemical_formula_sum   'Er6 Fe3 Si6 Rh1'
_cell_volume   290.32061515
_cell_formula_units_Z   1
loop_
 _symmetry_equiv_pos_site_id
 _symmetry_equiv_pos_as_xyz
  1  'x, y, z'
loop_
 _atom_site_type_symbol
 _atom_site_label
 _atom_site_symmetry_multiplicity
 _atom_site_fract_x
 _atom_site_fract_y
 _atom_site_fract_z
 _atom_site_occupancy
  Er  Er0  1  0.637497  0.362503  0.248826  1
  Er  Er1  1  0.362316  0.637684  0.749696  1
  Er  Er2  1  0.918919  0.081081  0.111806  1
  Er  Er3  1  0.077561  0.922439  0.889487  1
  Er  Er4  1  0.081383  0.918617  0.614335  1
  Er  Er5  1  0.920642  0.079358  0.383940  1
  Fe  Fe6  1  0.215156  0.784844  0.419044  1
  Fe  Fe7  1  0.212805  0.787195  0.080674  1
  Fe  Fe8  1  0.785309  0.214691  0.920318  1
  Si  Si9  1  0.325867  0.674133  0.249048  1
  Si  Si10  1  0.670123  0.329877  0.755884  1
  Si  Si11  1  0.622193  0.377807  0.039420  1
  Si  Si12  1  0.374136  0.625864  0.960441  1
  Si  Si13  1  0.388721  0.611279  0.534810  1
  Si  Si14  1  0.618558  0.381442  0.458208  1
  Rh  Rh15  1  0.788813  0.211187  0.584061  1
