# generated using pymatgen
data_Dy3Ho2Zr3(Co4As3)4
_symmetry_space_group_name_H-M   'P 1'
_cell_length_a   12.76005006
_cell_length_b   12.76005148
_cell_length_c   3.84069200
_cell_angle_alpha   90.00000000
_cell_angle_beta   90.00000000
_cell_angle_gamma   120.01139335
_symmetry_Int_Tables_number   1
_chemical_formula_structural   Dy3Ho2Zr3(Co4As3)4
_chemical_formula_sum   'Dy3 Ho2 Zr3 Co16 As12'
_cell_volume   541.49574175
_cell_formula_units_Z   1
loop_
 _symmetry_equiv_pos_site_id
 _symmetry_equiv_pos_as_xyz
  1  'x, y, z'
loop_
 _atom_site_type_symbol
 _atom_site_label
 _atom_site_symmetry_multiplicity
 _atom_site_fract_x
 _atom_site_fract_y
 _atom_site_fract_z
 _atom_site_occupancy
  Dy  Dy0  1  0.182613  0.182613  0.500000  1
  Dy  Dy1  1  0.333262  0.666685  0.000000  1
  Dy  Dy2  1  0.666685  0.333262  0.000000  1
  Ho  Ho3  1  0.817292  0.000037  0.500000  1
  Ho  Ho4  1  0.000037  0.817292  0.500000  1
  Zr  Zr5  1  0.561065  0.561065  0.000000  1
  Zr  Zr6  1  0.439219  0.999974  0.000000  1
  Zr  Zr7  1  0.999974  0.439219  0.000000  1
  Co  Co8  1  0.720130  0.720130  0.500000  1
  Co  Co9  1  0.279954  0.999820  0.500000  1
  Co  Co10  1  0.999820  0.279954  0.500000  1
  Co  Co11  1  0.177663  0.373622  0.000000  1
  Co  Co12  1  0.626595  0.804272  0.000000  1
  Co  Co13  1  0.195739  0.822264  0.000000  1
  Co  Co14  1  0.804272  0.626595  0.000000  1
  Co  Co15  1  0.822264  0.195739  0.000000  1
  Co  Co16  1  0.373622  0.177663  0.000000  1
  Co  Co17  1  0.357038  0.479451  0.500000  1
  Co  Co18  1  0.520659  0.877643  0.500000  1
  Co  Co19  1  0.122395  0.642984  0.500000  1
  Co  Co20  1  0.877643  0.520659  0.500000  1
  Co  Co21  1  0.642984  0.122395  0.500000  1
  Co  Co22  1  0.479451  0.357038  0.500000  1
  Co  Co23  1  0.999793  0.999793  0.000000  1
  As  As24  1  0.822817  0.822817  0.000000  1
  As  As25  1  0.177001  0.999612  0.000000  1
  As  As26  1  0.999612  0.177001  0.000000  1
  As  As27  1  0.173329  0.481529  0.500000  1
  As  As28  1  0.518419  0.691808  0.500000  1
  As  As29  1  0.308265  0.826638  0.500000  1
  As  As30  1  0.691808  0.518419  0.500000  1
  As  As31  1  0.826638  0.308265  0.500000  1
  As  As32  1  0.481529  0.173329  0.500000  1
  As  As33  1  0.351972  0.351972  0.000000  1
  As  As34  1  0.648451  0.999990  0.000000  1
  As  As35  1  0.999990  0.648451  0.000000  1
