# generated using pymatgen
data_Hf15ScNi4(Ir2N)2
_symmetry_space_group_name_H-M   'P 1'
_cell_length_a   8.61126260
_cell_length_b   8.61126406
_cell_length_c   8.61126348
_cell_angle_alpha   120.00303307
_cell_angle_beta   119.94989374
_cell_angle_gamma   90.04078012
_symmetry_Int_Tables_number   1
_chemical_formula_structural   Hf15ScNi4(Ir2N)2
_chemical_formula_sum   'Hf15 Sc1 Ni4 Ir4 N2'
_cell_volume   451.68934839
_cell_formula_units_Z   1
loop_
 _symmetry_equiv_pos_site_id
 _symmetry_equiv_pos_as_xyz
  1  'x, y, z'
loop_
 _atom_site_type_symbol
 _atom_site_label
 _atom_site_symmetry_multiplicity
 _atom_site_fract_x
 _atom_site_fract_y
 _atom_site_fract_z
 _atom_site_occupancy
  Hf  Hf0  1  0.321245  0.571245  0.750000  1
  Hf  Hf1  1  0.933148  0.566835  0.756448  1
  Hf  Hf2  1  0.310387  0.176700  0.743552  1
  Hf  Hf3  1  0.933148  0.176700  0.366313  1
  Hf  Hf4  1  0.310387  0.566835  0.133687  1
  Hf  Hf5  1  0.058704  0.808704  0.250000  1
  Hf  Hf6  1  0.689762  0.439762  0.250000  1
  Hf  Hf7  1  0.058929  0.438042  0.243537  1
  Hf  Hf8  1  0.694504  0.815391  0.256463  1
  Hf  Hf9  1  0.058929  0.815391  0.620887  1
  Hf  Hf10  1  0.694504  0.438042  0.879113  1
  Hf  Hf11  1  0.484885  0.015184  0.030300  1
  Hf  Hf12  1  0.484885  0.454584  0.469700  1
  Hf  Hf13  1  0.485833  0.014454  0.471380  1
  Hf  Hf14  1  0.043074  0.014454  0.028620  1
  Sc  Sc15  1  0.938451  0.188451  0.750000  1
  Ni  Ni16  1  0.272760  0.231226  0.458465  1
  Ni  Ni17  1  0.272760  0.814295  0.041535  1
  Ni  Ni18  1  0.276602  0.229320  0.047283  1
  Ni  Ni19  1  0.682036  0.229320  0.452717  1
  Ir  Ir20  1  0.707253  0.782416  0.575164  1
  Ir  Ir21  1  0.707253  0.132088  0.924836  1
  Ir  Ir22  1  0.705948  0.789789  0.916159  1
  Ir  Ir23  1  0.373630  0.789789  0.583841  1
  N  N24  1  0.000492  0.502875  0.002382  1
  N  N25  1  0.000492  0.998109  0.497618  1
