# generated using pymatgen
data_Tb9Er2In9Ru4
_symmetry_space_group_name_H-M   'P 1'
_cell_length_a   3.77883700
_cell_length_b   13.00878787
_cell_length_c   13.00683003
_cell_angle_alpha   112.60547262
_cell_angle_beta   90.00000000
_cell_angle_gamma   90.00000000
_symmetry_Int_Tables_number   1
_chemical_formula_structural   Tb9Er2In9Ru4
_chemical_formula_sum   'Tb9 Er2 In9 Ru4'
_cell_volume   590.26874601
_cell_formula_units_Z   1
loop_
 _symmetry_equiv_pos_site_id
 _symmetry_equiv_pos_as_xyz
  1  'x, y, z'
loop_
 _atom_site_type_symbol
 _atom_site_label
 _atom_site_symmetry_multiplicity
 _atom_site_fract_x
 _atom_site_fract_y
 _atom_site_fract_z
 _atom_site_occupancy
  Tb  Tb0  1  0.000000  0.581374  0.917411  1
  Tb  Tb1  1  0.000000  0.418626  0.082589  1
  Tb  Tb2  1  0.000000  0.161455  0.837934  1
  Tb  Tb3  1  0.000000  0.838545  0.162066  1
  Tb  Tb4  1  0.000000  0.374190  0.625384  1
  Tb  Tb5  1  0.000000  0.625810  0.374616  1
  Tb  Tb6  1  0.000000  0.689978  0.689431  1
  Tb  Tb7  1  0.000000  0.310022  0.310569  1
  Tb  Tb8  1  0.000000  0.000000  0.000000  1
  Er  Er9  1  0.000000  0.916181  0.581367  1
  Er  Er10  1  0.000000  0.083819  0.418633  1
  In  In11  1  0.500000  0.155955  0.630900  1
  In  In12  1  0.500000  0.844045  0.369100  1
  In  In13  1  0.500000  0.632181  0.157199  1
  In  In14  1  0.500000  0.367819  0.842801  1
  In  In15  1  0.500000  0.925635  0.779605  1
  In  In16  1  0.500000  0.074365  0.220395  1
  In  In17  1  0.500000  0.780698  0.925506  1
  In  In18  1  0.500000  0.219302  0.074494  1
  In  In19  1  0.500000  0.500000  0.500000  1
  Ru  Ru20  1  0.500000  0.748610  0.551133  1
  Ru  Ru21  1  0.500000  0.251390  0.448867  1
  Ru  Ru22  1  0.500000  0.551220  0.747654  1
  Ru  Ru23  1  0.500000  0.448780  0.252346  1
