# generated using pymatgen
data_Tb4Zn9In2Ag
_symmetry_space_group_name_H-M   'P 1'
_cell_length_a   4.45768500
_cell_length_b   7.19958801
_cell_length_c   9.92607502
_cell_angle_alpha   89.99276296
_cell_angle_beta   90.00000000
_cell_angle_gamma   90.00000000
_symmetry_Int_Tables_number   1
_chemical_formula_structural   Tb4Zn9In2Ag
_chemical_formula_sum   'Tb4 Zn9 In2 Ag1'
_cell_volume   318.56244142
_cell_formula_units_Z   1
loop_
 _symmetry_equiv_pos_site_id
 _symmetry_equiv_pos_as_xyz
  1  'x, y, z'
loop_
 _atom_site_type_symbol
 _atom_site_label
 _atom_site_symmetry_multiplicity
 _atom_site_fract_x
 _atom_site_fract_y
 _atom_site_fract_z
 _atom_site_occupancy
  Tb  Tb0  1  0.250000  0.315272  0.678070  1
  Tb  Tb1  1  0.250000  0.813794  0.820809  1
  Tb  Tb2  1  0.750000  0.691948  0.331538  1
  Tb  Tb3  1  0.750000  0.191092  0.167694  1
  Zn  Zn4  1  0.750000  0.971918  0.599435  1
  Zn  Zn5  1  0.250000  0.909028  0.144707  1
  Zn  Zn6  1  0.250000  0.408912  0.355328  1
  Zn  Zn7  1  0.750000  0.099383  0.843575  1
  Zn  Zn8  1  0.750000  0.603256  0.652703  1
  Zn  Zn9  1  0.250000  0.182022  0.960950  1
  Zn  Zn10  1  0.250000  0.682413  0.537693  1
  Zn  Zn11  1  0.750000  0.805893  0.034018  1
  Zn  Zn12  1  0.750000  0.303231  0.467624  1
  In  In13  1  0.250000  0.525672  0.091389  1
  In  In14  1  0.250000  0.026040  0.410942  1
  Ag  Ag15  1  0.750000  0.470124  0.903525  1
