# generated using pymatgen
data_Zr8V11Si16W
_symmetry_space_group_name_H-M   'P 1'
_cell_length_a   6.50343244
_cell_length_b   6.65130852
_cell_length_c   12.60034100
_cell_angle_alpha   90.00000000
_cell_angle_beta   90.00000000
_cell_angle_gamma   90.01759470
_symmetry_Int_Tables_number   1
_chemical_formula_structural   Zr8V11Si16W
_chemical_formula_sum   'Zr8 V11 Si16 W1'
_cell_volume   545.04455315
_cell_formula_units_Z   1
loop_
 _symmetry_equiv_pos_site_id
 _symmetry_equiv_pos_as_xyz
  1  'x, y, z'
loop_
 _atom_site_type_symbol
 _atom_site_label
 _atom_site_symmetry_multiplicity
 _atom_site_fract_x
 _atom_site_fract_y
 _atom_site_fract_z
 _atom_site_occupancy
  Zr  Zr0  1  0.495462  0.670054  0.595222  1
  Zr  Zr1  1  0.995962  0.829178  0.904633  1
  Zr  Zr2  1  0.504751  0.329952  0.093793  1
  Zr  Zr3  1  0.004911  0.170099  0.405942  1
  Zr  Zr4  1  0.504751  0.329952  0.406207  1
  Zr  Zr5  1  0.004911  0.170099  0.094058  1
  Zr  Zr6  1  0.495462  0.670054  0.904778  1
  Zr  Zr7  1  0.995962  0.829178  0.595367  1
  V  V8  1  0.662871  0.167917  0.625072  1
  V  V9  1  0.163653  0.332558  0.874939  1
  V  V10  1  0.335774  0.833138  0.124320  1
  V  V11  1  0.836285  0.666708  0.375485  1
  V  V12  1  0.335774  0.833138  0.375680  1
  V  V13  1  0.836285  0.666708  0.124515  1
  V  V14  1  0.662871  0.167917  0.874928  1
  V  V15  1  0.163653  0.332558  0.625061  1
  V  V16  1  0.837906  0.491944  0.750000  1
  V  V17  1  0.337620  0.008048  0.750000  1
  V  V18  1  0.162431  0.506744  0.250000  1
  Si  Si19  1  0.667874  0.955674  0.460436  1
  Si  Si20  1  0.167093  0.543503  0.040848  1
  Si  Si21  1  0.332242  0.043442  0.958283  1
  Si  Si22  1  0.832750  0.456321  0.541605  1
  Si  Si23  1  0.332242  0.043442  0.541717  1
  Si  Si24  1  0.832750  0.456321  0.958395  1
  Si  Si25  1  0.667874  0.955674  0.039564  1
  Si  Si26  1  0.167093  0.543503  0.459152  1
  Si  Si27  1  0.464365  0.372758  0.750000  1
  Si  Si28  1  0.964008  0.127405  0.750000  1
  Si  Si29  1  0.533663  0.624807  0.250000  1
  Si  Si30  1  0.039121  0.870359  0.250000  1
  Si  Si31  1  0.698318  0.869486  0.750000  1
  Si  Si32  1  0.198339  0.630297  0.750000  1
  Si  Si33  1  0.297831  0.134749  0.250000  1
  Si  Si34  1  0.803550  0.371196  0.250000  1
  W  W35  1  0.663588  0.995117  0.250000  1
