# generated using pymatgen
data_Gd4CrS5O24
_symmetry_space_group_name_H-M   'P 1'
_cell_length_a   6.60309912
_cell_length_b   6.82899413
_cell_length_c   11.17395800
_cell_angle_alpha   105.71710124
_cell_angle_beta   107.18560744
_cell_angle_gamma   90.00000204
_symmetry_Int_Tables_number   1
_chemical_formula_structural   Gd4CrS5O24
_chemical_formula_sum   'Gd4 Cr1 S5 O24'
_cell_volume   461.60974549
_cell_formula_units_Z   1
loop_
 _symmetry_equiv_pos_site_id
 _symmetry_equiv_pos_as_xyz
  1  'x, y, z'
loop_
 _atom_site_type_symbol
 _atom_site_label
 _atom_site_symmetry_multiplicity
 _atom_site_fract_x
 _atom_site_fract_y
 _atom_site_fract_z
 _atom_site_occupancy
  Gd  Gd0  1  0.773293  0.136012  0.265531  1
  Gd  Gd1  1  0.483740  0.635911  0.267588  1
  Gd  Gd2  1  0.507772  0.363965  0.734486  1
  Gd  Gd3  1  0.216151  0.864090  0.732411  1
  Cr  Cr4  1  0.682486  0.249994  0.999993  1
  S  S5  1  0.335260  0.750008  0.000003  1
  S  S6  1  0.999790  0.681345  0.368258  1
  S  S7  1  0.362020  0.180990  0.369232  1
  S  S8  1  0.992767  0.319012  0.630783  1
  S  S9  1  0.631533  0.818623  0.631724  1
  O  O10  1  0.240061  0.612915  0.054608  1
  O  O11  1  0.846007  0.094441  0.059080  1
  O  O12  1  0.597701  0.370846  0.126016  1
  O  O13  1  0.522644  0.867512  0.109948  1
  O  O14  1  0.151283  0.629724  0.293406  1
  O  O15  1  0.135303  0.126616  0.298305  1
  O  O16  1  0.457869  0.307488  0.304337  1
  O  O17  1  0.833693  0.804428  0.304026  1
  O  O18  1  0.481059  0.994901  0.355888  1
  O  O19  1  0.876996  0.493784  0.360468  1
  O  O20  1  0.890037  0.205506  0.494406  1
  O  O21  1  0.603335  0.701913  0.496411  1
  O  O22  1  0.395721  0.294535  0.505604  1
  O  O23  1  0.106905  0.798054  0.503572  1
  O  O24  1  0.125155  0.505094  0.644107  1
  O  O25  1  0.516532  0.006189  0.639503  1
  O  O26  1  0.153527  0.192501  0.695644  1
  O  O27  1  0.529679  0.695549  0.695963  1
  O  O28  1  0.857877  0.870267  0.706580  1
  O  O29  1  0.837026  0.373384  0.701743  1
  O  O30  1  0.471713  0.129154  0.873963  1
  O  O31  1  0.412690  0.632513  0.890054  1
  O  O32  1  0.185447  0.887118  0.945415  1
  O  O33  1  0.786930  0.405621  0.940946  1
