# generated using pymatgen
data_Er2Tm6Cd2IrRu
_symmetry_space_group_name_H-M   'P 1'
_cell_length_a   9.52401994
_cell_length_b   9.52271793
_cell_length_c   9.56289910
_cell_angle_alpha   59.87179961
_cell_angle_beta   59.85719805
_cell_angle_gamma   59.71749469
_symmetry_Int_Tables_number   1
_chemical_formula_structural   Er2Tm6Cd2IrRu
_chemical_formula_sum   'Er4 Tm12 Cd4 Ir2 Ru2'
_cell_volume   610.70466103
_cell_formula_units_Z   2
loop_
 _symmetry_equiv_pos_site_id
 _symmetry_equiv_pos_as_xyz
  1  'x, y, z'
loop_
 _atom_site_type_symbol
 _atom_site_label
 _atom_site_symmetry_multiplicity
 _atom_site_fract_x
 _atom_site_fract_y
 _atom_site_fract_z
 _atom_site_occupancy
  Er  Er0  1  0.809783  0.188338  0.813198  1
  Er  Er1  1  0.188380  0.809684  0.188738  1
  Er  Er2  1  0.811062  0.811109  0.188924  1
  Er  Er3  1  0.188487  0.188453  0.811484  1
  Tm  Tm4  1  0.598215  0.598417  0.598348  1
  Tm  Tm5  1  0.598418  0.598214  0.205028  1
  Tm  Tm6  1  0.596915  0.209193  0.596875  1
  Tm  Tm7  1  0.209177  0.596924  0.597013  1
  Tm  Tm8  1  0.062020  0.437730  0.439955  1
  Tm  Tm9  1  0.437726  0.062015  0.060309  1
  Tm  Tm10  1  0.437800  0.062001  0.440038  1
  Tm  Tm11  1  0.061999  0.437789  0.060154  1
  Tm  Tm12  1  0.437992  0.437988  0.062014  1
  Tm  Tm13  1  0.059458  0.059464  0.440537  1
  Tm  Tm14  1  0.188397  0.809655  0.812965  1
  Tm  Tm15  1  0.809634  0.188413  0.188986  1
  Cd  Cd16  1  0.830595  0.830389  0.830415  1
  Cd  Cd17  1  0.830393  0.830592  0.508611  1
  Cd  Cd18  1  0.830730  0.507462  0.831002  1
  Cd  Cd19  1  0.507452  0.830738  0.830802  1
  Ir  Ir20  1  0.393909  0.827018  0.389596  1
  Ir  Ir21  1  0.826993  0.393912  0.389482  1
  Ru  Ru22  1  0.392300  0.392189  0.387377  1
  Ru  Ru23  1  0.392164  0.392313  0.828145  1
