# generated using pymatgen
data_TmPa2(SnOs)3
_symmetry_space_group_name_H-M   'P 1'
_cell_length_a   7.27289800
_cell_length_b   7.46566430
_cell_length_c   4.02967300
_cell_angle_alpha   90.00000000
_cell_angle_beta   90.00000000
_cell_angle_gamma   119.14948199
_symmetry_Int_Tables_number   1
_chemical_formula_structural   TmPa2(SnOs)3
_chemical_formula_sum   'Tm1 Pa2 Sn3 Os3'
_cell_volume   191.08870730
_cell_formula_units_Z   1
loop_
 _symmetry_equiv_pos_site_id
 _symmetry_equiv_pos_as_xyz
  1  'x, y, z'
loop_
 _atom_site_type_symbol
 _atom_site_label
 _atom_site_symmetry_multiplicity
 _atom_site_fract_x
 _atom_site_fract_y
 _atom_site_fract_z
 _atom_site_occupancy
  Tm  Tm0  1  0.406098  0.000000  0.000000  1
  Pa  Pa1  1  0.998147  0.411415  0.000000  1
  Pa  Pa2  1  0.586730  0.588585  0.000000  1
  Sn  Sn3  1  0.253987  0.239862  0.500000  1
  Sn  Sn4  1  0.014125  0.760138  0.500000  1
  Sn  Sn5  1  0.732835  0.000000  0.500000  1
  Os  Os6  1  0.690926  0.360715  0.500000  1
  Os  Os7  1  0.330211  0.639285  0.500000  1
  Os  Os8  1  0.986941  0.000000  0.000000  1
