# generated using pymatgen
data_Rb2Nd10Ru2Cl17
_symmetry_space_group_name_H-M   'P 1'
_cell_length_a   9.12952700
_cell_length_b   10.67842604
_cell_length_c   10.67843400
_cell_angle_alpha   107.67447927
_cell_angle_beta   93.69626152
_cell_angle_gamma   93.69533030
_symmetry_Int_Tables_number   1
_chemical_formula_structural   Rb2Nd10Ru2Cl17
_chemical_formula_sum   'Rb2 Nd10 Ru2 Cl17'
_cell_volume   985.95389903
_cell_formula_units_Z   1
loop_
 _symmetry_equiv_pos_site_id
 _symmetry_equiv_pos_as_xyz
  1  'x, y, z'
loop_
 _atom_site_type_symbol
 _atom_site_label
 _atom_site_symmetry_multiplicity
 _atom_site_fract_x
 _atom_site_fract_y
 _atom_site_fract_z
 _atom_site_occupancy
  Rb  Rb0  1  0.994624  0.792656  0.200651  1
  Rb  Rb1  1  0.994726  0.200417  0.792478  1
  Nd  Nd2  1  0.431668  0.154995  0.154988  1
  Nd  Nd3  1  0.576654  0.514741  0.199594  1
  Nd  Nd4  1  0.841252  0.285697  0.285676  1
  Nd  Nd5  1  0.297587  0.432257  0.432263  1
  Nd  Nd6  1  0.423064  0.808864  0.482495  1
  Nd  Nd7  1  0.576735  0.199600  0.514789  1
  Nd  Nd8  1  0.702028  0.573656  0.573678  1
  Nd  Nd9  1  0.164306  0.712462  0.712487  1
  Nd  Nd10  1  0.423107  0.482560  0.808848  1
  Nd  Nd11  1  0.567192  0.842849  0.842900  1
  Ru  Ru12  1  0.572427  0.358354  0.358366  1
  Ru  Ru13  1  0.429481  0.642276  0.642282  1
  Cl  Cl14  1  0.585363  0.684704  0.020355  1
  Cl  Cl15  1  0.712594  0.068457  0.068393  1
  Cl  Cl16  1  0.860465  0.455011  0.125150  1
  Cl  Cl17  1  0.133704  0.203187  0.203214  1
  Cl  Cl18  1  0.285836  0.607876  0.252717  1
  Cl  Cl19  1  0.417369  0.983138  0.311980  1
  Cl  Cl20  1  0.714240  0.748713  0.394664  1
  Cl  Cl21  1  0.860442  0.125096  0.454989  1
  Cl  Cl22  1  0.000216  0.500021  0.500040  1
  Cl  Cl23  1  0.138324  0.873606  0.541389  1
  Cl  Cl24  1  0.285863  0.252749  0.607906  1
  Cl  Cl25  1  0.585343  0.020391  0.684699  1
  Cl  Cl26  1  0.714278  0.394667  0.748759  1
  Cl  Cl27  1  0.867740  0.797281  0.797180  1
  Cl  Cl28  1  0.138364  0.541394  0.873588  1
  Cl  Cl29  1  0.287647  0.930369  0.930334  1
  Cl  Cl30  1  0.417365  0.311955  0.983151  1
