# generated using pymatgen
data_PrNd3Ir3RhO14
_symmetry_space_group_name_H-M   'P 1'
_cell_length_a   7.41149894
_cell_length_b   7.40383005
_cell_length_c   7.40887120
_cell_angle_alpha   60.02249682
_cell_angle_beta   60.05306717
_cell_angle_gamma   60.03421372
_symmetry_Int_Tables_number   1
_chemical_formula_structural   PrNd3Ir3RhO14
_chemical_formula_sum   'Pr1 Nd3 Ir3 Rh1 O14'
_cell_volume   287.71304540
_cell_formula_units_Z   1
loop_
 _symmetry_equiv_pos_site_id
 _symmetry_equiv_pos_as_xyz
  1  'x, y, z'
loop_
 _atom_site_type_symbol
 _atom_site_label
 _atom_site_symmetry_multiplicity
 _atom_site_fract_x
 _atom_site_fract_y
 _atom_site_fract_z
 _atom_site_occupancy
  Pr  Pr0  1  0.625000  0.125000  0.125000  1
  Nd  Nd1  1  0.125000  0.625000  0.125000  1
  Nd  Nd2  1  0.125000  0.125000  0.625000  1
  Nd  Nd3  1  0.125000  0.125000  0.125000  1
  Ir  Ir4  1  0.125000  0.625000  0.625000  1
  Ir  Ir5  1  0.625000  0.125000  0.625000  1
  Ir  Ir6  1  0.625000  0.625000  0.625000  1
  Rh  Rh7  1  0.625000  0.625000  0.125000  1
  O  O8  1  0.709072  0.707529  0.294981  1
  O  O9  1  0.294739  0.294712  0.702093  1
  O  O10  1  0.708826  0.295013  0.701148  1
  O  O11  1  0.288078  0.708651  0.294622  1
  O  O12  1  0.294739  0.708456  0.702093  1
  O  O13  1  0.709072  0.288419  0.294981  1
  O  O14  1  0.540928  0.542471  0.955019  1
  O  O15  1  0.955261  0.955288  0.547907  1
  O  O16  1  0.541174  0.954987  0.548852  1
  O  O17  1  0.961922  0.541349  0.955378  1
  O  O18  1  0.955261  0.541544  0.547907  1
  O  O19  1  0.540928  0.961581  0.955019  1
  O  O20  1  0.247025  0.250273  0.252430  1
  O  O21  1  0.002975  0.999727  0.997570  1
