# generated using pymatgen
data_PrDy3(TcB2)6
_symmetry_space_group_name_H-M   'P 1'
_cell_length_a   6.21736212
_cell_length_b   6.24470772
_cell_length_c   7.54189314
_cell_angle_alpha   89.77215377
_cell_angle_beta   88.94492652
_cell_angle_gamma   113.98443885
_symmetry_Int_Tables_number   1
_chemical_formula_structural   PrDy3(TcB2)6
_chemical_formula_sum   'Pr1 Dy3 Tc6 B12'
_cell_volume   267.46902103
_cell_formula_units_Z   1
loop_
 _symmetry_equiv_pos_site_id
 _symmetry_equiv_pos_as_xyz
  1  'x, y, z'
loop_
 _atom_site_type_symbol
 _atom_site_label
 _atom_site_symmetry_multiplicity
 _atom_site_fract_x
 _atom_site_fract_y
 _atom_site_fract_z
 _atom_site_occupancy
  Pr  Pr0  1  0.563369  0.909647  0.826536  1
  Dy  Dy1  1  0.899185  0.556552  0.323254  1
  Dy  Dy2  1  0.438625  0.099804  0.179233  1
  Dy  Dy3  1  0.101771  0.443230  0.677016  1
  Tc  Tc4  1  0.411334  0.586898  0.250112  1
  Tc  Tc5  1  0.588565  0.415855  0.747717  1
  Tc  Tc6  1  0.010520  0.195619  0.089766  1
  Tc  Tc7  1  0.805008  0.989643  0.409544  1
  Tc  Tc8  1  0.991265  0.800905  0.913157  1
  Tc  Tc9  1  0.193001  0.011475  0.588745  1
  B  B10  1  0.760051  0.845308  0.134209  1
  B  B11  1  0.151194  0.247875  0.371318  1
  B  B12  1  0.240706  0.152309  0.869648  1
  B  B13  1  0.850469  0.750469  0.626933  1
  B  B14  1  0.413896  0.841876  0.478275  1
  B  B15  1  0.156503  0.582299  0.020598  1
  B  B16  1  0.583020  0.160240  0.513078  1
  B  B17  1  0.841144  0.412679  0.982591  1
  B  B18  1  0.558001  0.650081  0.531932  1
  B  B19  1  0.350041  0.440972  0.966459  1
  B  B20  1  0.442425  0.351194  0.464643  1
  B  B21  1  0.649906  0.555068  0.035235  1
