# generated using pymatgen
data_Ta6Be12Co8Si3
_symmetry_space_group_name_H-M   'P 1'
_cell_length_a   7.63786280
_cell_length_b   7.63786196
_cell_length_c   7.63356878
_cell_angle_alpha   59.82400122
_cell_angle_beta   59.82401277
_cell_angle_gamma   59.98922679
_symmetry_Int_Tables_number   1
_chemical_formula_structural   Ta6Be12Co8Si3
_chemical_formula_sum   'Ta6 Be12 Co8 Si3'
_cell_volume   314.02243891
_cell_formula_units_Z   1
loop_
 _symmetry_equiv_pos_site_id
 _symmetry_equiv_pos_as_xyz
  1  'x, y, z'
loop_
 _atom_site_type_symbol
 _atom_site_label
 _atom_site_symmetry_multiplicity
 _atom_site_fract_x
 _atom_site_fract_y
 _atom_site_fract_z
 _atom_site_occupancy
  Ta  Ta0  1  0.708901  0.295300  0.290829  1
  Ta  Ta1  1  0.291099  0.704700  0.709171  1
  Ta  Ta2  1  0.295300  0.708901  0.290829  1
  Ta  Ta3  1  0.704700  0.291099  0.709171  1
  Ta  Ta4  1  0.295325  0.295325  0.708750  1
  Ta  Ta5  1  0.704675  0.704675  0.291250  1
  Be  Be6  1  0.331783  0.331783  0.315251  1
  Be  Be7  1  0.668217  0.668217  0.684749  1
  Be  Be8  1  0.327030  0.327030  0.018432  1
  Be  Be9  1  0.322115  0.019783  0.321467  1
  Be  Be10  1  0.672970  0.672970  0.981568  1
  Be  Be11  1  0.677885  0.980217  0.678533  1
  Be  Be12  1  0.019783  0.322115  0.321467  1
  Be  Be13  1  0.980217  0.677885  0.678533  1
  Be  Be14  1  0.500000  0.000000  0.000000  1
  Be  Be15  1  0.000000  0.500000  0.000000  1
  Be  Be16  1  0.000000  0.000000  0.500000  1
  Be  Be17  1  0.500000  0.500000  0.000000  1
  Co  Co18  1  0.123296  0.123296  0.122381  1
  Co  Co19  1  0.876704  0.876705  0.877619  1
  Co  Co20  1  0.122757  0.122757  0.628176  1
  Co  Co21  1  0.124359  0.629640  0.121069  1
  Co  Co22  1  0.877243  0.877244  0.371824  1
  Co  Co23  1  0.875641  0.370360  0.878930  1
  Co  Co24  1  0.629640  0.124359  0.121070  1
  Co  Co25  1  0.370360  0.875641  0.878930  1
  Si  Si26  1  0.000000  0.500000  0.500000  1
  Si  Si27  1  0.500000  0.000000  0.500000  1
  Si  Si28  1  0.000000  0.000000  0.000000  1
