# generated using pymatgen
data_Rb5SrTaAs4
_symmetry_space_group_name_H-M   'P 1'
_cell_length_a   10.81287191
_cell_length_b   10.81287195
_cell_length_c   8.20222506
_cell_angle_alpha   88.11048704
_cell_angle_beta   88.11049324
_cell_angle_gamma   120.93606744
_symmetry_Int_Tables_number   1
_chemical_formula_structural   Rb5SrTaAs4
_chemical_formula_sum   'Rb10 Sr2 Ta2 As8'
_cell_volume   820.72253746
_cell_formula_units_Z   2
loop_
 _symmetry_equiv_pos_site_id
 _symmetry_equiv_pos_as_xyz
  1  'x, y, z'
loop_
 _atom_site_type_symbol
 _atom_site_label
 _atom_site_symmetry_multiplicity
 _atom_site_fract_x
 _atom_site_fract_y
 _atom_site_fract_z
 _atom_site_occupancy
  Rb  Rb0  1  0.466240  0.527099  0.605159  1
  Rb  Rb1  1  0.060253  0.528656  0.609361  1
  Rb  Rb2  1  0.527099  0.466240  0.105159  1
  Rb  Rb3  1  0.528656  0.060253  0.109361  1
  Rb  Rb4  1  0.865831  0.143064  0.788711  1
  Rb  Rb5  1  0.290465  0.151321  0.824603  1
  Rb  Rb6  1  0.855461  0.714311  0.768425  1
  Rb  Rb7  1  0.143064  0.865831  0.288711  1
  Rb  Rb8  1  0.714311  0.855461  0.268425  1
  Rb  Rb9  1  0.151321  0.290465  0.324603  1
  Sr  Sr10  1  0.466409  0.940446  0.608403  1
  Sr  Sr11  1  0.940446  0.466409  0.108403  1
  Ta  Ta12  1  0.670535  0.329046  0.499784  1
  Ta  Ta13  1  0.329046  0.670535  0.999784  1
  As  As14  1  0.684602  0.336000  0.805381  1
  As  As15  1  0.336000  0.684602  0.305381  1
  As  As16  1  0.198400  0.791405  0.893487  1
  As  As17  1  0.582194  0.800751  0.872040  1
  As  As18  1  0.188509  0.409002  0.931847  1
  As  As19  1  0.791405  0.198400  0.393487  1
  As  As20  1  0.409002  0.188509  0.431847  1
  As  As21  1  0.800751  0.582194  0.372040  1
