# generated using pymatgen
data_Er4Fe(CoSi2)5
_symmetry_space_group_name_H-M   'P 1'
_cell_length_a   5.45607667
_cell_length_b   7.86401214
_cell_length_c   7.86401201
_cell_angle_alpha   73.81138028
_cell_angle_beta   69.70207969
_cell_angle_gamma   69.70207850
_symmetry_Int_Tables_number   1
_chemical_formula_structural   Er4Fe(CoSi2)5
_chemical_formula_sum   'Er4 Fe1 Co5 Si10'
_cell_volume   291.95781566
_cell_formula_units_Z   1
loop_
 _symmetry_equiv_pos_site_id
 _symmetry_equiv_pos_as_xyz
  1  'x, y, z'
loop_
 _atom_site_type_symbol
 _atom_site_label
 _atom_site_symmetry_multiplicity
 _atom_site_fract_x
 _atom_site_fract_y
 _atom_site_fract_z
 _atom_site_occupancy
  Er  Er0  1  0.365977  0.868180  0.402681  1
  Er  Er1  1  0.636838  0.131820  0.597319  1
  Er  Er2  1  0.863162  0.402681  0.868180  1
  Er  Er3  1  0.134023  0.597319  0.131820  1
  Fe  Fe4  1  0.750000  0.000000  0.000000  1
  Co  Co5  1  0.250000  0.000000  0.000000  1
  Co  Co6  1  0.142806  0.255123  0.466561  1
  Co  Co7  1  0.864491  0.744877  0.533439  1
  Co  Co8  1  0.635509  0.466561  0.255123  1
  Co  Co9  1  0.357194  0.533439  0.744877  1
  Si  Si10  1  0.750000  0.500000  0.500000  1
  Si  Si11  1  0.250000  0.500000  0.500000  1
  Si  Si12  1  0.528787  0.221213  0.221213  1
  Si  Si13  1  0.971213  0.778787  0.778787  1
  Si  Si14  1  0.473915  0.776085  0.776085  1
  Si  Si15  1  0.026085  0.223915  0.223915  1
  Si  Si16  1  0.098551  0.062197  0.740572  1
  Si  Si17  1  0.901320  0.937803  0.259428  1
  Si  Si18  1  0.598680  0.740572  0.062197  1
  Si  Si19  1  0.401449  0.259428  0.937803  1
