# generated using pymatgen
data_TbPrAgPd5
_symmetry_space_group_name_H-M   'P 1'
_cell_length_a   4.20255400
_cell_length_b   4.20255400
_cell_length_c   8.17325600
_cell_angle_alpha   90.00000000
_cell_angle_beta   90.00000000
_cell_angle_gamma   90.00000000
_symmetry_Int_Tables_number   1
_chemical_formula_structural   TbPrAgPd5
_chemical_formula_sum   'Tb1 Pr1 Ag1 Pd5'
_cell_volume   144.35163492
_cell_formula_units_Z   1
loop_
 _symmetry_equiv_pos_site_id
 _symmetry_equiv_pos_as_xyz
  1  'x, y, z'
loop_
 _atom_site_type_symbol
 _atom_site_label
 _atom_site_symmetry_multiplicity
 _atom_site_fract_x
 _atom_site_fract_y
 _atom_site_fract_z
 _atom_site_occupancy
  Tb  Tb0  1  0.000000  0.000000  0.000000  1
  Pr  Pr1  1  0.000000  0.000000  0.500000  1
  Ag  Ag2  1  0.500000  0.500000  0.000000  1
  Pd  Pd3  1  0.500000  0.500000  0.500000  1
  Pd  Pd4  1  0.500000  0.000000  0.242641  1
  Pd  Pd5  1  0.500000  0.000000  0.757359  1
  Pd  Pd6  1  0.000000  0.500000  0.242641  1
  Pd  Pd7  1  0.000000  0.500000  0.757359  1
