# generated using pymatgen
data_HfMg(B4Ir3)2
_symmetry_space_group_name_H-M   'P 1'
_cell_length_a   7.63337600
_cell_length_b   7.63337640
_cell_length_c   3.45833800
_cell_angle_alpha   90.00000000
_cell_angle_beta   90.00000000
_cell_angle_gamma   119.99999825
_symmetry_Int_Tables_number   1
_chemical_formula_structural   HfMg(B4Ir3)2
_chemical_formula_sum   'Hf1 Mg1 B8 Ir6'
_cell_volume   174.51445661
_cell_formula_units_Z   1
loop_
 _symmetry_equiv_pos_site_id
 _symmetry_equiv_pos_as_xyz
  1  'x, y, z'
loop_
 _atom_site_type_symbol
 _atom_site_label
 _atom_site_symmetry_multiplicity
 _atom_site_fract_x
 _atom_site_fract_y
 _atom_site_fract_z
 _atom_site_occupancy
  Hf  Hf0  1  0.666667  0.333333  0.750000  1
  Mg  Mg1  1  0.333333  0.666667  0.250000  1
  B  B2  1  0.056441  0.601133  0.750000  1
  B  B3  1  0.544690  0.943559  0.750000  1
  B  B4  1  0.398867  0.455310  0.750000  1
  B  B5  1  0.956740  0.405713  0.250000  1
  B  B6  1  0.448974  0.043260  0.250000  1
  B  B7  1  0.594287  0.551026  0.250000  1
  B  B8  1  0.000000  0.000000  0.000518  1
  B  B9  1  0.000000  0.000000  0.499482  1
  Ir  Ir10  1  0.253793  0.923979  0.750000  1
  Ir  Ir11  1  0.670188  0.746207  0.750000  1
  Ir  Ir12  1  0.076021  0.329812  0.750000  1
  Ir  Ir13  1  0.748789  0.080241  0.250000  1
  Ir  Ir14  1  0.331451  0.251211  0.250000  1
  Ir  Ir15  1  0.919759  0.668549  0.250000  1
