# generated using pymatgen
data_Sm4Ga10Ni5Pd
_symmetry_space_group_name_H-M   'P 1'
_cell_length_a   8.43011575
_cell_length_b   8.43011561
_cell_length_c   8.43011584
_cell_angle_alpha   140.49650350
_cell_angle_beta   107.79701480
_cell_angle_gamma   85.57054666
_symmetry_Int_Tables_number   1
_chemical_formula_structural   Sm4Ga10Ni5Pd
_chemical_formula_sum   'Sm4 Ga10 Ni5 Pd1'
_cell_volume   350.20495907
_cell_formula_units_Z   1
loop_
 _symmetry_equiv_pos_site_id
 _symmetry_equiv_pos_as_xyz
  1  'x, y, z'
loop_
 _atom_site_type_symbol
 _atom_site_label
 _atom_site_symmetry_multiplicity
 _atom_site_fract_x
 _atom_site_fract_y
 _atom_site_fract_z
 _atom_site_occupancy
  Sm  Sm0  1  0.863479  0.645362  0.231647  1
  Sm  Sm1  1  0.136521  0.368168  0.781884  1
  Sm  Sm2  1  0.413716  0.131832  0.268353  1
  Sm  Sm3  1  0.586284  0.854638  0.718116  1
  Ga  Ga4  1  0.500000  0.750000  0.250000  1
  Ga  Ga5  1  0.500000  0.250000  0.750000  1
  Ga  Ga6  1  0.217643  0.967643  0.750000  1
  Ga  Ga7  1  0.782357  0.532357  0.750000  1
  Ga  Ga8  1  0.785271  0.035271  0.250000  1
  Ga  Ga9  1  0.214729  0.464729  0.250000  1
  Ga  Ga10  1  0.073882  0.916177  0.181835  1
  Ga  Ga11  1  0.926118  0.107953  0.842295  1
  Ga  Ga12  1  0.734342  0.392047  0.318165  1
  Ga  Ga13  1  0.265658  0.583823  0.657705  1
  Ni  Ni14  1  0.000000  0.250000  0.250000  1
  Ni  Ni15  1  0.263358  0.857645  0.404301  1
  Ni  Ni16  1  0.736642  0.140943  0.594287  1
  Ni  Ni17  1  0.453345  0.359057  0.095699  1
  Ni  Ni18  1  0.546655  0.642355  0.905713  1
  Pd  Pd19  1  0.000000  0.750000  0.750000  1
