# generated using pymatgen
data_Ce3U5Tc(B8Mo)3
_symmetry_space_group_name_H-M   'P 1'
_cell_length_a   3.72490000
_cell_length_b   9.30941051
_cell_length_c   11.41776515
_cell_angle_alpha   90.06143719
_cell_angle_beta   90.00000000
_cell_angle_gamma   90.00000000
_symmetry_Int_Tables_number   1
_chemical_formula_structural   Ce3U5Tc(B8Mo)3
_chemical_formula_sum   'Ce3 U5 Tc1 B24 Mo3'
_cell_volume   395.92931214
_cell_formula_units_Z   1
loop_
 _symmetry_equiv_pos_site_id
 _symmetry_equiv_pos_as_xyz
  1  'x, y, z'
loop_
 _atom_site_type_symbol
 _atom_site_label
 _atom_site_symmetry_multiplicity
 _atom_site_fract_x
 _atom_site_fract_y
 _atom_site_fract_z
 _atom_site_occupancy
  Ce  Ce0  1  0.000000  0.335279  0.408063  1
  Ce  Ce1  1  0.000000  0.664558  0.592799  1
  Ce  Ce2  1  0.000000  0.835615  0.091552  1
  U  U3  1  0.000000  0.164888  0.907472  1
  U  U4  1  0.000000  0.956846  0.394931  1
  U  U5  1  0.000000  0.042943  0.605173  1
  U  U6  1  0.000000  0.455690  0.104667  1
  U  U7  1  0.000000  0.543092  0.895414  1
  Tc  Tc8  1  0.000000  0.646503  0.318647  1
  B  B9  1  0.500000  0.553279  0.430071  1
  B  B10  1  0.500000  0.446863  0.569688  1
  B  B11  1  0.500000  0.053601  0.066519  1
  B  B12  1  0.500000  0.951424  0.930993  1
  B  B13  1  0.500000  0.744272  0.422072  1
  B  B14  1  0.500000  0.254800  0.577517  1
  B  B15  1  0.500000  0.243776  0.075377  1
  B  B16  1  0.500000  0.755649  0.922803  1
  B  B17  1  0.500000  0.802299  0.274188  1
  B  B18  1  0.500000  0.195697  0.727640  1
  B  B19  1  0.500000  0.303385  0.225331  1
  B  B20  1  0.500000  0.697350  0.774646  1
  B  B21  1  0.500000  0.643302  0.188578  1
  B  B22  1  0.500000  0.354260  0.813016  1
  B  B23  1  0.500000  0.143535  0.311907  1
  B  B24  1  0.500000  0.856758  0.688148  1
  B  B25  1  0.500000  0.988583  0.219578  1
  B  B26  1  0.500000  0.014280  0.781621  1
  B  B27  1  0.500000  0.489622  0.280602  1
  B  B28  1  0.500000  0.511243  0.720554  1
  B  B29  1  0.500000  0.637997  0.038457  1
  B  B30  1  0.500000  0.357638  0.960660  1
  B  B31  1  0.500000  0.137679  0.461705  1
  B  B32  1  0.500000  0.861904  0.537893  1
  Mo  Mo33  1  0.000000  0.351588  0.683191  1
  Mo  Mo34  1  0.000000  0.147020  0.178939  1
  Mo  Mo35  1  0.000000  0.856780  0.819590  1
