# generated using pymatgen
data_Cs3PuF8
_symmetry_space_group_name_H-M   'P 1'
_cell_length_a   9.61397700
_cell_length_b   9.61397648
_cell_length_c   7.34430400
_cell_angle_alpha   90.00000000
_cell_angle_beta   90.00000000
_cell_angle_gamma   119.99999835
_symmetry_Int_Tables_number   1
_chemical_formula_structural   Cs3PuF8
_chemical_formula_sum   'Cs6 Pu2 F16'
_cell_volume   587.87828442
_cell_formula_units_Z   2
loop_
 _symmetry_equiv_pos_site_id
 _symmetry_equiv_pos_as_xyz
  1  'x, y, z'
loop_
 _atom_site_type_symbol
 _atom_site_label
 _atom_site_symmetry_multiplicity
 _atom_site_fract_x
 _atom_site_fract_y
 _atom_site_fract_z
 _atom_site_occupancy
  Cs  Cs0  1  0.155084  0.310168  0.241629  1
  Cs  Cs1  1  0.844916  0.689832  0.741630  1
  Cs  Cs2  1  0.689832  0.844916  0.241629  1
  Cs  Cs3  1  0.155084  0.844916  0.241629  1
  Cs  Cs4  1  0.844916  0.155084  0.741630  1
  Cs  Cs5  1  0.310168  0.155084  0.741630  1
  Pu  Pu6  1  0.333333  0.666667  0.729461  1
  Pu  Pu7  1  0.666667  0.333333  0.229461  1
  F  F8  1  0.000000  0.000000  0.003480  1
  F  F9  1  0.000000  0.000000  0.503480  1
  F  F10  1  0.432709  0.567291  0.547688  1
  F  F11  1  0.567291  0.432709  0.047688  1
  F  F12  1  0.432709  0.865417  0.547688  1
  F  F13  1  0.134583  0.567291  0.547688  1
  F  F14  1  0.865417  0.432709  0.047688  1
  F  F15  1  0.567291  0.134583  0.047688  1
  F  F16  1  0.333333  0.666667  0.030041  1
  F  F17  1  0.666667  0.333333  0.530041  1
  F  F18  1  0.209635  0.790365  0.818071  1
  F  F19  1  0.790365  0.209635  0.318071  1
  F  F20  1  0.209635  0.419268  0.818071  1
  F  F21  1  0.580732  0.790365  0.818071  1
  F  F22  1  0.419268  0.209635  0.318071  1
  F  F23  1  0.790365  0.580732  0.318071  1
