# generated using pymatgen
data_Ho2Co9Re3Si7
_symmetry_space_group_name_H-M   'P 1'
_cell_length_a   9.18747084
_cell_length_b   9.18803208
_cell_length_c   3.74768600
_cell_angle_alpha   89.99855387
_cell_angle_beta   89.99995391
_cell_angle_gamma   120.03640071
_symmetry_Int_Tables_number   1
_chemical_formula_structural   Ho2Co9Re3Si7
_chemical_formula_sum   'Ho2 Co9 Re3 Si7'
_cell_volume   273.87531433
_cell_formula_units_Z   1
loop_
 _symmetry_equiv_pos_site_id
 _symmetry_equiv_pos_as_xyz
  1  'x, y, z'
loop_
 _atom_site_type_symbol
 _atom_site_label
 _atom_site_symmetry_multiplicity
 _atom_site_fract_x
 _atom_site_fract_y
 _atom_site_fract_z
 _atom_site_occupancy
  Ho  Ho0  1  0.333245  0.666759  0.261886  1
  Ho  Ho1  1  0.666574  0.333328  0.761893  1
  Co  Co2  1  0.429077  0.374998  0.261895  1
  Co  Co3  1  0.945607  0.570512  0.261893  1
  Co  Co4  1  0.624646  0.053949  0.261877  1
  Co  Co5  1  0.566205  0.615582  0.761912  1
  Co  Co6  1  0.049576  0.433903  0.761900  1
  Co  Co7  1  0.384577  0.950722  0.761909  1
  Co  Co8  1  0.155974  0.876521  0.261913  1
  Co  Co9  1  0.720445  0.843859  0.261900  1
  Co  Co10  1  0.123397  0.279427  0.261919  1
  Re  Re11  1  0.886611  0.103924  0.761927  1
  Re  Re12  1  0.217767  0.114660  0.761923  1
  Re  Re13  1  0.896515  0.782194  0.761937  1
  Si  Si14  1  0.999948  0.999725  0.261983  1
  Si  Si15  1  0.410727  0.112944  0.261900  1
  Si  Si16  1  0.701983  0.588959  0.261896  1
  Si  Si17  1  0.886933  0.297643  0.261897  1
  Si  Si18  1  0.594204  0.884920  0.761862  1
  Si  Si19  1  0.290814  0.406149  0.761899  1
  Si  Si20  1  0.115174  0.709321  0.761879  1
