# generated using pymatgen
data_Tb3DyLuRu2
_symmetry_space_group_name_H-M   'P 1'
_cell_length_a   6.34830600
_cell_length_b   7.25708345
_cell_length_c   8.48221270
_cell_angle_alpha   96.70093358
_cell_angle_beta   112.04169202
_cell_angle_gamma   89.90080881
_symmetry_Int_Tables_number   1
_chemical_formula_structural   Tb3DyLuRu2
_chemical_formula_sum   'Tb6 Dy2 Lu2 Ru4'
_cell_volume   359.36558095
_cell_formula_units_Z   2
loop_
 _symmetry_equiv_pos_site_id
 _symmetry_equiv_pos_as_xyz
  1  'x, y, z'
loop_
 _atom_site_type_symbol
 _atom_site_label
 _atom_site_symmetry_multiplicity
 _atom_site_fract_x
 _atom_site_fract_y
 _atom_site_fract_z
 _atom_site_occupancy
  Tb  Tb0  1  0.523275  0.083435  0.814445  1
  Tb  Tb1  1  0.476725  0.916565  0.185555  1
  Tb  Tb2  1  0.708667  0.416633  0.185884  1
  Tb  Tb3  1  0.291333  0.583367  0.814116  1
  Tb  Tb4  1  0.296702  0.312345  0.431862  1
  Tb  Tb5  1  0.703298  0.687655  0.568138  1
  Dy  Dy6  1  0.865162  0.187243  0.568160  1
  Dy  Dy7  1  0.134838  0.812757  0.431840  1
  Lu  Lu8  1  0.076914  0.250394  0.999843  1
  Lu  Lu9  1  0.923086  0.749606  0.000157  1
  Ru  Ru10  1  0.318910  0.575701  0.217507  1
  Ru  Ru11  1  0.681090  0.424299  0.782493  1
  Ru  Ru12  1  0.101597  0.925423  0.782097  1
  Ru  Ru13  1  0.898403  0.074577  0.217903  1
