# generated using pymatgen
data_Ho2Sc2ReB12Os
_symmetry_space_group_name_H-M   'P 1'
_cell_length_a   3.57126000
_cell_length_b   8.96927311
_cell_length_c   11.35865266
_cell_angle_alpha   90.06648996
_cell_angle_beta   90.00000000
_cell_angle_gamma   90.00000000
_symmetry_Int_Tables_number   1
_chemical_formula_structural   Ho2Sc2ReB12Os
_chemical_formula_sum   'Ho4 Sc4 Re2 B24 Os2'
_cell_volume   363.83564521
_cell_formula_units_Z   2
loop_
 _symmetry_equiv_pos_site_id
 _symmetry_equiv_pos_as_xyz
  1  'x, y, z'
loop_
 _atom_site_type_symbol
 _atom_site_label
 _atom_site_symmetry_multiplicity
 _atom_site_fract_x
 _atom_site_fract_y
 _atom_site_fract_z
 _atom_site_occupancy
  Ho  Ho0  1  0.000000  0.319197  0.413063  1
  Ho  Ho1  1  0.000000  0.680803  0.586937  1
  Ho  Ho2  1  0.000000  0.822454  0.085397  1
  Ho  Ho3  1  0.000000  0.177546  0.914603  1
  Sc  Sc4  1  0.000000  0.945339  0.371775  1
  Sc  Sc5  1  0.000000  0.054661  0.628225  1
  Sc  Sc6  1  0.000000  0.443155  0.128086  1
  Sc  Sc7  1  0.000000  0.556845  0.871914  1
  Re  Re8  1  0.000000  0.139985  0.181692  1
  Re  Re9  1  0.000000  0.860015  0.818308  1
  B  B10  1  0.500000  0.554564  0.432893  1
  B  B11  1  0.500000  0.445436  0.567107  1
  B  B12  1  0.500000  0.053852  0.067113  1
  B  B13  1  0.500000  0.946148  0.932887  1
  B  B14  1  0.500000  0.753274  0.418559  1
  B  B15  1  0.500000  0.246726  0.581441  1
  B  B16  1  0.500000  0.253451  0.081210  1
  B  B17  1  0.500000  0.746549  0.918790  1
  B  B18  1  0.500000  0.793590  0.265388  1
  B  B19  1  0.500000  0.206410  0.734612  1
  B  B20  1  0.500000  0.294581  0.235146  1
  B  B21  1  0.500000  0.705419  0.764854  1
  B  B22  1  0.500000  0.628635  0.183487  1
  B  B23  1  0.500000  0.371365  0.816513  1
  B  B24  1  0.500000  0.128988  0.317165  1
  B  B25  1  0.500000  0.871012  0.682835  1
  B  B26  1  0.500000  0.980793  0.214378  1
  B  B27  1  0.500000  0.019207  0.785622  1
  B  B28  1  0.500000  0.481234  0.286304  1
  B  B29  1  0.500000  0.518766  0.713696  1
  B  B30  1  0.500000  0.597183  0.026654  1
  B  B31  1  0.500000  0.402817  0.973346  1
  B  B32  1  0.500000  0.097821  0.473563  1
  B  B33  1  0.500000  0.902179  0.526437  1
  Os  Os34  1  0.000000  0.639496  0.319258  1
  Os  Os35  1  0.000000  0.360504  0.680742  1
