# generated using pymatgen
data_Rb20Lu(HfAs4)3
_symmetry_space_group_name_H-M   'P 1'
_cell_length_a   8.85151252
_cell_length_b   9.49460454
_cell_length_c   18.39982000
_cell_angle_alpha   60.41876964
_cell_angle_beta   89.98043214
_cell_angle_gamma   90.08340523
_symmetry_Int_Tables_number   1
_chemical_formula_structural   Rb20Lu(HfAs4)3
_chemical_formula_sum   'Rb20 Lu1 Hf3 As12'
_cell_volume   1344.79165242
_cell_formula_units_Z   1
loop_
 _symmetry_equiv_pos_site_id
 _symmetry_equiv_pos_as_xyz
  1  'x, y, z'
loop_
 _atom_site_type_symbol
 _atom_site_label
 _atom_site_symmetry_multiplicity
 _atom_site_fract_x
 _atom_site_fract_y
 _atom_site_fract_z
 _atom_site_occupancy
  Rb  Rb0  1  0.173425  0.844490  0.740516  1
  Rb  Rb1  1  0.674399  0.156811  0.759521  1
  Rb  Rb2  1  0.823606  0.156228  0.257246  1
  Rb  Rb3  1  0.328129  0.838909  0.243020  1
  Rb  Rb4  1  0.162245  0.162653  0.419611  1
  Rb  Rb5  1  0.660384  0.842282  0.081284  1
  Rb  Rb6  1  0.837285  0.837416  0.581177  1
  Rb  Rb7  1  0.338871  0.162625  0.916652  1
  Rb  Rb8  1  0.012681  0.082334  0.090054  1
  Rb  Rb9  1  0.506134  0.918922  0.408415  1
  Rb  Rb10  1  0.990139  0.914104  0.912696  1
  Rb  Rb11  1  0.493455  0.083709  0.590731  1
  Rb  Rb12  1  0.508499  0.269011  0.075081  1
  Rb  Rb13  1  0.019701  0.735324  0.419105  1
  Rb  Rb14  1  0.483844  0.728574  0.922816  1
  Rb  Rb15  1  0.985665  0.273894  0.577845  1
  Rb  Rb16  1  0.969641  0.545753  0.251491  1
  Rb  Rb17  1  0.478660  0.453818  0.243881  1
  Rb  Rb18  1  0.025969  0.454109  0.747167  1
  Rb  Rb19  1  0.522731  0.546185  0.755303  1
  Lu  Lu20  1  0.129504  0.492921  0.080284  1
  Hf  Hf21  1  0.373782  0.495151  0.578953  1
  Hf  Hf22  1  0.870546  0.505994  0.921402  1
  Hf  Hf23  1  0.629171  0.504243  0.422399  1
  As  As24  1  0.328292  0.482390  0.439228  1
  As  As25  1  0.812333  0.517619  0.059852  1
  As  As26  1  0.674414  0.515821  0.562981  1
  As  As27  1  0.170837  0.483855  0.931188  1
  As  As28  1  0.210909  0.207410  0.222649  1
  As  As29  1  0.707880  0.771166  0.288484  1
  As  As30  1  0.793439  0.776195  0.786222  1
  As  As31  1  0.295136  0.226047  0.712335  1
  As  As32  1  0.257264  0.764278  0.076540  1
  As  As33  1  0.751170  0.250514  0.424355  1
  As  As34  1  0.749418  0.250637  0.922718  1
  As  As35  1  0.250444  0.748611  0.576804  1
