# generated using pymatgen
data_HfZr3Fe3Si4Ni
_symmetry_space_group_name_H-M   'P 1'
_cell_length_a   3.91718000
_cell_length_b   6.43871158
_cell_length_c   7.05216051
_cell_angle_alpha   89.89585527
_cell_angle_beta   90.00000000
_cell_angle_gamma   90.00000000
_symmetry_Int_Tables_number   1
_chemical_formula_structural   HfZr3Fe3Si4Ni
_chemical_formula_sum   'Hf1 Zr3 Fe3 Si4 Ni1'
_cell_volume   177.86642297
_cell_formula_units_Z   1
loop_
 _symmetry_equiv_pos_site_id
 _symmetry_equiv_pos_as_xyz
  1  'x, y, z'
loop_
 _atom_site_type_symbol
 _atom_site_label
 _atom_site_symmetry_multiplicity
 _atom_site_fract_x
 _atom_site_fract_y
 _atom_site_fract_z
 _atom_site_occupancy
  Hf  Hf0  1  0.250000  0.504102  0.199208  1
  Zr  Zr1  1  0.250000  0.997036  0.303172  1
  Zr  Zr2  1  0.750000  0.993217  0.692526  1
  Zr  Zr3  1  0.750000  0.502010  0.802542  1
  Fe  Fe4  1  0.250000  0.650930  0.569254  1
  Fe  Fe5  1  0.750000  0.850333  0.069636  1
  Fe  Fe6  1  0.750000  0.349499  0.431316  1
  Si  Si7  1  0.250000  0.286592  0.597405  1
  Si  Si8  1  0.250000  0.785064  0.897271  1
  Si  Si9  1  0.750000  0.709700  0.394065  1
  Si  Si10  1  0.750000  0.216100  0.111613  1
  Ni  Ni11  1  0.250000  0.155418  0.931994  1
