# generated using pymatgen
data_La4CoRu3I2
_symmetry_space_group_name_H-M   'P 1'
_cell_length_a   4.28734100
_cell_length_b   4.28734192
_cell_length_c   17.82721600
_cell_angle_alpha   90.00000000
_cell_angle_beta   90.00000000
_cell_angle_gamma   120.00000058
_symmetry_Int_Tables_number   1
_chemical_formula_structural   La4CoRu3I2
_chemical_formula_sum   'La4 Co1 Ru3 I2'
_cell_volume   283.78556681
_cell_formula_units_Z   1
loop_
 _symmetry_equiv_pos_site_id
 _symmetry_equiv_pos_as_xyz
  1  'x, y, z'
loop_
 _atom_site_type_symbol
 _atom_site_label
 _atom_site_symmetry_multiplicity
 _atom_site_fract_x
 _atom_site_fract_y
 _atom_site_fract_z
 _atom_site_occupancy
  La  La0  1  0.000000  0.000000  0.101994  1
  La  La1  1  0.000000  0.000000  0.897878  1
  La  La2  1  0.000000  0.000000  0.606424  1
  La  La3  1  0.000000  0.000000  0.393780  1
  Co  Co4  1  0.333333  0.666667  0.998440  1
  Ru  Ru5  1  0.333333  0.666667  0.499683  1
  Ru  Ru6  1  0.666667  0.333333  0.500397  1
  Ru  Ru7  1  0.666667  0.333333  0.001401  1
  I  I8  1  0.333333  0.666667  0.247842  1
  I  I9  1  0.666667  0.333333  0.752161  1
