# generated using pymatgen
data_La9Nd2(Ni2Sn3)2
_symmetry_space_group_name_H-M   'P 1'
_cell_length_a   4.52841971
_cell_length_b   9.84432635
_cell_length_c   14.74965589
_cell_angle_alpha   106.10930555
_cell_angle_beta   90.20952890
_cell_angle_gamma   103.18906632
_symmetry_Int_Tables_number   1
_chemical_formula_structural   La9Nd2(Ni2Sn3)2
_chemical_formula_sum   'La9 Nd2 Ni4 Sn6'
_cell_volume   613.46888365
_cell_formula_units_Z   1
loop_
 _symmetry_equiv_pos_site_id
 _symmetry_equiv_pos_as_xyz
  1  'x, y, z'
loop_
 _atom_site_type_symbol
 _atom_site_label
 _atom_site_symmetry_multiplicity
 _atom_site_fract_x
 _atom_site_fract_y
 _atom_site_fract_z
 _atom_site_occupancy
  La  La0  1  0.852956  0.703153  0.643473  1
  La  La1  1  0.211193  0.422088  0.099495  1
  La  La2  1  0.546484  0.095713  0.122888  1
  La  La3  1  0.339240  0.678879  0.417686  1
  La  La4  1  0.453147  0.904539  0.879210  1
  La  La5  1  0.147005  0.295068  0.356318  1
  La  La6  1  0.789575  0.580690  0.903809  1
  La  La7  1  0.662098  0.321521  0.583094  1
  La  La8  1  0.093941  0.188250  0.782579  1
  Nd  Nd9  1  0.906095  0.812088  0.218321  1
  Nd  Nd10  1  0.000307  0.998788  0.498741  1
  Ni  Ni11  1  0.750476  0.502020  0.454367  1
  Ni  Ni12  1  0.941250  0.888094  0.025474  1
  Ni  Ni13  1  0.057026  0.110651  0.976834  1
  Ni  Ni14  1  0.250213  0.495541  0.545729  1
  Sn  Sn15  1  0.630429  0.260507  0.947719  1
  Sn  Sn16  1  0.260964  0.520751  0.735556  1
  Sn  Sn17  1  0.741928  0.483619  0.266446  1
  Sn  Sn18  1  0.368892  0.739954  0.056632  1
  Sn  Sn19  1  0.514496  0.028704  0.349647  1
  Sn  Sn20  1  0.484878  0.966429  0.647508  1
