# generated using pymatgen
data_Dy6Al24Ir2(RuPt)3
_symmetry_space_group_name_H-M   'P 1'
_cell_length_a   8.84529058
_cell_length_b   8.83554464
_cell_length_c   9.49178358
_cell_angle_alpha   90.00000163
_cell_angle_beta   90.17966579
_cell_angle_gamma   119.96355161
_symmetry_Int_Tables_number   1
_chemical_formula_structural   Dy6Al24Ir2(RuPt)3
_chemical_formula_sum   'Dy6 Al24 Ir2 Ru3 Pt3'
_cell_volume   642.65876346
_cell_formula_units_Z   1
loop_
 _symmetry_equiv_pos_site_id
 _symmetry_equiv_pos_as_xyz
  1  'x, y, z'
loop_
 _atom_site_type_symbol
 _atom_site_label
 _atom_site_symmetry_multiplicity
 _atom_site_fract_x
 _atom_site_fract_y
 _atom_site_fract_z
 _atom_site_occupancy
  Dy  Dy0  1  0.190402  0.808349  0.251024  1
  Dy  Dy1  1  0.190402  0.382053  0.251024  1
  Dy  Dy2  1  0.617476  0.808737  0.248536  1
  Dy  Dy3  1  0.809598  0.191651  0.748976  1
  Dy  Dy4  1  0.809598  0.617947  0.748976  1
  Dy  Dy5  1  0.382524  0.191263  0.751464  1
  Al  Al6  1  0.562873  0.436494  0.252165  1
  Al  Al7  1  0.562873  0.126379  0.252165  1
  Al  Al8  1  0.874802  0.437401  0.246318  1
  Al  Al9  1  0.437127  0.563506  0.747835  1
  Al  Al10  1  0.437127  0.873621  0.747835  1
  Al  Al11  1  0.125198  0.562599  0.753682  1
  Al  Al12  1  0.326061  0.163030  0.425473  1
  Al  Al13  1  0.833834  0.159184  0.423880  1
  Al  Al14  1  0.833834  0.674649  0.423880  1
  Al  Al15  1  0.673939  0.836970  0.574527  1
  Al  Al16  1  0.166166  0.840816  0.576120  1
  Al  Al17  1  0.166166  0.325351  0.576120  1
  Al  Al18  1  0.675903  0.837952  0.922724  1
  Al  Al19  1  0.157905  0.832154  0.923575  1
  Al  Al20  1  0.157905  0.325751  0.923575  1
  Al  Al21  1  0.324097  0.162048  0.077276  1
  Al  Al22  1  0.842095  0.167846  0.076425  1
  Al  Al23  1  0.842095  0.674249  0.076425  1
  Al  Al24  1  0.663372  0.331685  0.531479  1
  Al  Al25  1  0.336628  0.668315  0.468521  1
  Al  Al26  1  0.327263  0.663632  0.031655  1
  Al  Al27  1  0.672737  0.336368  0.968345  1
  Al  Al28  1  0.998532  0.999265  0.250122  1
  Al  Al29  1  0.001468  0.000735  0.749878  1
  Ir  Ir30  1  0.500000  0.500000  0.500000  1
  Ir  Ir31  1  0.500000  0.000000  0.500000  1
  Ru  Ru32  1  0.000000  0.000000  0.500000  1
  Ru  Ru33  1  0.000000  0.000000  0.000000  1
  Ru  Ru34  1  0.000000  0.500000  0.000000  1
  Pt  Pt35  1  0.000000  0.500000  0.500000  1
  Pt  Pt36  1  0.500000  0.500000  0.000000  1
  Pt  Pt37  1  0.500000  0.000000  0.000000  1
