# generated using pymatgen
data_Nd7Sm(SiI6)2
_symmetry_space_group_name_H-M   'P 1'
_cell_length_a   4.35284200
_cell_length_b   14.46665989
_cell_length_c   15.22695806
_cell_angle_alpha   90.19352142
_cell_angle_beta   90.00000000
_cell_angle_gamma   90.00000000
_symmetry_Int_Tables_number   1
_chemical_formula_structural   Nd7Sm(SiI6)2
_chemical_formula_sum   'Nd7 Sm1 Si2 I12'
_cell_volume   958.85259722
_cell_formula_units_Z   1
loop_
 _symmetry_equiv_pos_site_id
 _symmetry_equiv_pos_as_xyz
  1  'x, y, z'
loop_
 _atom_site_type_symbol
 _atom_site_label
 _atom_site_symmetry_multiplicity
 _atom_site_fract_x
 _atom_site_fract_y
 _atom_site_fract_z
 _atom_site_occupancy
  Nd  Nd0  1  0.500000  0.115097  0.346709  1
  Nd  Nd1  1  0.500000  0.885597  0.653901  1
  Nd  Nd2  1  0.500000  0.614362  0.153166  1
  Nd  Nd3  1  0.000000  0.114202  0.576748  1
  Nd  Nd4  1  0.000000  0.887003  0.424395  1
  Nd  Nd5  1  0.000000  0.612780  0.923921  1
  Nd  Nd6  1  0.000000  0.386468  0.074978  1
  Sm  Sm7  1  0.500000  0.385984  0.847041  1
  Si  Si8  1  0.500000  0.000631  0.500432  1
  Si  Si9  1  0.500000  0.499362  0.999122  1
  I  I10  1  0.500000  0.243459  0.160946  1
  I  I11  1  0.500000  0.755348  0.837653  1
  I  I12  1  0.500000  0.743924  0.338310  1
  I  I13  1  0.500000  0.256703  0.664260  1
  I  I14  1  0.000000  0.259004  0.415178  1
  I  I15  1  0.000000  0.741696  0.585479  1
  I  I16  1  0.000000  0.758272  0.085584  1
  I  I17  1  0.000000  0.243820  0.910989  1
  I  I18  1  0.000000  0.998206  0.240865  1
  I  I19  1  0.000000  0.002058  0.760022  1
  I  I20  1  0.000000  0.498166  0.258923  1
  I  I21  1  0.000000  0.497856  0.741380  1
