# generated using pymatgen
data_Li3Hg(Pd3Pb)2
_symmetry_space_group_name_H-M   'P 1'
_cell_length_a   4.79685151
_cell_length_b   5.97616900
_cell_length_c   14.48370714
_cell_angle_alpha   90.00010013
_cell_angle_beta   103.82928984
_cell_angle_gamma   89.99951122
_symmetry_Int_Tables_number   1
_chemical_formula_structural   Li3Hg(Pd3Pb)2
_chemical_formula_sum   'Li6 Hg2 Pd12 Pb4'
_cell_volume   403.16569632
_cell_formula_units_Z   2
loop_
 _symmetry_equiv_pos_site_id
 _symmetry_equiv_pos_as_xyz
  1  'x, y, z'
loop_
 _atom_site_type_symbol
 _atom_site_label
 _atom_site_symmetry_multiplicity
 _atom_site_fract_x
 _atom_site_fract_y
 _atom_site_fract_z
 _atom_site_occupancy
  Li  Li0  1  0.991175  0.999999  0.993846  1
  Li  Li1  1  0.501293  0.500000  0.165778  1
  Li  Li2  1  0.998916  0.000004  0.334134  1
  Li  Li3  1  0.508986  0.500000  0.506217  1
  Li  Li4  1  0.008841  0.999996  0.672134  1
  Li  Li5  1  0.491092  0.500001  0.827737  1
  Hg  Hg6  1  0.999439  0.499996  0.667045  1
  Hg  Hg7  1  0.500408  0.999999  0.833011  1
  Pd  Pd8  1  0.496694  0.248803  0.000083  1
  Pd  Pd9  1  0.496692  0.751196  0.000083  1
  Pd  Pd10  1  0.003674  0.252692  0.165438  1
  Pd  Pd11  1  0.003678  0.747310  0.165438  1
  Pd  Pd12  1  0.496433  0.247654  0.334593  1
  Pd  Pd13  1  0.496436  0.752354  0.334593  1
  Pd  Pd14  1  0.003305  0.251390  0.499928  1
  Pd  Pd15  1  0.003307  0.748609  0.499929  1
  Pd  Pd16  1  0.499919  0.249596  0.666752  1
  Pd  Pd17  1  0.499918  0.750396  0.666752  1
  Pd  Pd18  1  0.999854  0.250470  0.833265  1
  Pd  Pd19  1  0.999857  0.749527  0.833265  1
  Pb  Pb20  1  0.992821  0.499999  0.996617  1
  Pb  Pb21  1  0.502794  0.000001  0.166542  1
  Pb  Pb22  1  0.997365  0.500002  0.333486  1
  Pb  Pb23  1  0.507121  0.000000  0.503336  1
