# generated using pymatgen
data_Ho2Tm6B24MoRh3
_symmetry_space_group_name_H-M   'P 1'
_cell_length_a   3.63474800
_cell_length_b   9.12689146
_cell_length_c   11.49072583
_cell_angle_alpha   90.21897147
_cell_angle_beta   90.00000000
_cell_angle_gamma   90.00000000
_symmetry_Int_Tables_number   1
_chemical_formula_structural   Ho2Tm6B24MoRh3
_chemical_formula_sum   'Ho2 Tm6 B24 Mo1 Rh3'
_cell_volume   381.18998595
_cell_formula_units_Z   1
loop_
 _symmetry_equiv_pos_site_id
 _symmetry_equiv_pos_as_xyz
  1  'x, y, z'
loop_
 _atom_site_type_symbol
 _atom_site_label
 _atom_site_symmetry_multiplicity
 _atom_site_fract_x
 _atom_site_fract_y
 _atom_site_fract_z
 _atom_site_occupancy
  Ho  Ho0  1  0.500000  0.319120  0.410916  1
  Ho  Ho1  1  0.500000  0.676957  0.585202  1
  Tm  Tm2  1  0.500000  0.178532  0.916936  1
  Tm  Tm3  1  0.500000  0.823674  0.086698  1
  Tm  Tm4  1  0.500000  0.444790  0.125505  1
  Tm  Tm5  1  0.500000  0.557120  0.872194  1
  Tm  Tm6  1  0.500000  0.055876  0.629070  1
  Tm  Tm7  1  0.500000  0.945178  0.373761  1
  B  B8  1  0.000000  0.106011  0.472918  1
  B  B9  1  0.000000  0.893078  0.530163  1
  B  B10  1  0.000000  0.394653  0.969193  1
  B  B11  1  0.000000  0.608864  0.028682  1
  B  B12  1  0.000000  0.131823  0.316951  1
  B  B13  1  0.000000  0.866804  0.683923  1
  B  B14  1  0.000000  0.368071  0.816608  1
  B  B15  1  0.000000  0.633201  0.183298  1
  B  B16  1  0.000000  0.051495  0.064093  1
  B  B17  1  0.000000  0.946447  0.933410  1
  B  B18  1  0.000000  0.445040  0.565767  1
  B  B19  1  0.000000  0.553403  0.433702  1
  B  B20  1  0.000000  0.483461  0.286618  1
  B  B21  1  0.000000  0.517156  0.712696  1
  B  B22  1  0.000000  0.017602  0.787523  1
  B  B23  1  0.000000  0.979623  0.213743  1
  B  B24  1  0.000000  0.251303  0.077922  1
  B  B25  1  0.000000  0.751204  0.920129  1
  B  B26  1  0.000000  0.249769  0.579792  1
  B  B27  1  0.000000  0.749405  0.420741  1
  B  B28  1  0.000000  0.295581  0.235456  1
  B  B29  1  0.000000  0.705886  0.764107  1
  B  B30  1  0.000000  0.206997  0.736613  1
  B  B31  1  0.000000  0.792643  0.265447  1
  Mo  Mo32  1  0.500000  0.138011  0.178623  1
  Rh  Rh33  1  0.500000  0.861144  0.820976  1
  Rh  Rh34  1  0.500000  0.360763  0.679762  1
  Rh  Rh35  1  0.500000  0.639315  0.320863  1
