# generated using pymatgen
data_Tc5Os3
_symmetry_space_group_name_H-M   'P 1'
_cell_length_a   5.53134700
_cell_length_b   5.53485884
_cell_length_c   4.36528100
_cell_angle_alpha   90.00000000
_cell_angle_beta   90.00000000
_cell_angle_gamma   119.97900733
_symmetry_Int_Tables_number   1
_chemical_formula_structural   Tc5Os3
_chemical_formula_sum   'Tc5 Os3'
_cell_volume   115.76362561
_cell_formula_units_Z   1
loop_
 _symmetry_equiv_pos_site_id
 _symmetry_equiv_pos_as_xyz
  1  'x, y, z'
loop_
 _atom_site_type_symbol
 _atom_site_label
 _atom_site_symmetry_multiplicity
 _atom_site_fract_x
 _atom_site_fract_y
 _atom_site_fract_z
 _atom_site_occupancy
  Tc  Tc0  1  0.666454  0.833103  0.250000  1
  Tc  Tc1  1  0.166649  0.833103  0.250000  1
  Tc  Tc2  1  0.833018  0.666037  0.750000  1
  Tc  Tc3  1  0.333779  0.166970  0.750000  1
  Tc  Tc4  1  0.833189  0.166970  0.750000  1
  Os  Os5  1  0.166789  0.333578  0.250000  1
  Os  Os6  1  0.333236  0.666473  0.750000  1
  Os  Os7  1  0.666885  0.333769  0.250000  1
