# generated using pymatgen
data_Zr2Ru2Rh4C
_symmetry_space_group_name_H-M   'P 1'
_cell_length_a   5.69802424
_cell_length_b   5.71251961
_cell_length_c   5.69802478
_cell_angle_alpha   59.91582935
_cell_angle_beta   60.28591559
_cell_angle_gamma   59.91581745
_symmetry_Int_Tables_number   1
_chemical_formula_structural   Zr2Ru2Rh4C
_chemical_formula_sum   'Zr2 Ru2 Rh4 C1'
_cell_volume   131.26073466
_cell_formula_units_Z   1
loop_
 _symmetry_equiv_pos_site_id
 _symmetry_equiv_pos_as_xyz
  1  'x, y, z'
loop_
 _atom_site_type_symbol
 _atom_site_label
 _atom_site_symmetry_multiplicity
 _atom_site_fract_x
 _atom_site_fract_y
 _atom_site_fract_z
 _atom_site_occupancy
  Zr  Zr0  1  0.249201  0.249472  0.251855  1
  Zr  Zr1  1  0.748145  0.750528  0.750799  1
  Ru  Ru2  1  0.753183  0.754304  0.246816  1
  Ru  Ru3  1  0.753183  0.245695  0.246816  1
  Rh  Rh4  1  0.242278  0.756179  0.245362  1
  Rh  Rh5  1  0.244904  0.247115  0.755095  1
  Rh  Rh6  1  0.754637  0.243820  0.757721  1
  Rh  Rh7  1  0.244904  0.752884  0.755095  1
  C  C8  1  0.509563  0.500000  0.490437  1
