# generated using pymatgen
data_RbBa3(Si2Au5)4
_symmetry_space_group_name_H-M   'P 1'
_cell_length_a   6.98610600
_cell_length_b   9.13310062
_cell_length_c   10.86562313
_cell_angle_alpha   90.07928214
_cell_angle_beta   90.00000000
_cell_angle_gamma   90.00000000
_symmetry_Int_Tables_number   1
_chemical_formula_structural   RbBa3(Si2Au5)4
_chemical_formula_sum   'Rb1 Ba3 Si8 Au20'
_cell_volume   693.27834524
_cell_formula_units_Z   1
loop_
 _symmetry_equiv_pos_site_id
 _symmetry_equiv_pos_as_xyz
  1  'x, y, z'
loop_
 _atom_site_type_symbol
 _atom_site_label
 _atom_site_symmetry_multiplicity
 _atom_site_fract_x
 _atom_site_fract_y
 _atom_site_fract_z
 _atom_site_occupancy
  Rb  Rb0  1  0.250000  0.233552  0.113542  1
  Ba  Ba1  1  0.250000  0.733505  0.384811  1
  Ba  Ba2  1  0.750000  0.766741  0.885150  1
  Ba  Ba3  1  0.750000  0.265832  0.616362  1
  Si  Si4  1  0.250000  0.046228  0.647802  1
  Si  Si5  1  0.250000  0.550577  0.855347  1
  Si  Si6  1  0.750000  0.954210  0.347623  1
  Si  Si7  1  0.750000  0.452037  0.149543  1
  Si  Si8  1  0.250000  0.315722  0.445994  1
  Si  Si9  1  0.250000  0.813795  0.053628  1
  Si  Si10  1  0.750000  0.682915  0.556146  1
  Si  Si11  1  0.750000  0.186166  0.943846  1
  Au  Au12  1  0.044545  0.089262  0.393532  1
  Au  Au13  1  0.455737  0.588567  0.109388  1
  Au  Au14  1  0.545757  0.909003  0.609094  1
  Au  Au15  1  0.953816  0.413136  0.890476  1
  Au  Au16  1  0.954243  0.909003  0.609094  1
  Au  Au17  1  0.546184  0.413136  0.890476  1
  Au  Au18  1  0.455455  0.089262  0.393532  1
  Au  Au19  1  0.044263  0.588567  0.109388  1
  Au  Au20  1  0.034737  0.088512  0.846076  1
  Au  Au21  1  0.461531  0.585879  0.651706  1
  Au  Au22  1  0.537418  0.911764  0.149978  1
  Au  Au23  1  0.961972  0.412394  0.350171  1
  Au  Au24  1  0.962582  0.911764  0.149978  1
  Au  Au25  1  0.538028  0.412394  0.350171  1
  Au  Au26  1  0.465263  0.088512  0.846076  1
  Au  Au27  1  0.038469  0.585879  0.651706  1
  Au  Au28  1  0.250000  0.316191  0.672549  1
  Au  Au29  1  0.250000  0.819812  0.827292  1
  Au  Au30  1  0.750000  0.683130  0.330623  1
  Au  Au31  1  0.750000  0.182551  0.168901  1
