# generated using pymatgen
data_Dy15Lu(ScBi3)4
_symmetry_space_group_name_H-M   'P 1'
_cell_length_a   8.10425101
_cell_length_b   9.41689525
_cell_length_c   11.95075237
_cell_angle_alpha   89.98375584
_cell_angle_beta   89.94722173
_cell_angle_gamma   90.02112909
_symmetry_Int_Tables_number   1
_chemical_formula_structural   Dy15Lu(ScBi3)4
_chemical_formula_sum   'Dy15 Lu1 Sc4 Bi12'
_cell_volume   912.04368319
_cell_formula_units_Z   1
loop_
 _symmetry_equiv_pos_site_id
 _symmetry_equiv_pos_as_xyz
  1  'x, y, z'
loop_
 _atom_site_type_symbol
 _atom_site_label
 _atom_site_symmetry_multiplicity
 _atom_site_fract_x
 _atom_site_fract_y
 _atom_site_fract_z
 _atom_site_occupancy
  Dy  Dy0  1  0.355184  0.249362  0.284323  1
  Dy  Dy1  1  0.644306  0.749061  0.715236  1
  Dy  Dy2  1  0.146274  0.749166  0.783915  1
  Dy  Dy3  1  0.855062  0.249813  0.215724  1
  Dy  Dy4  1  0.184490  0.249861  0.780411  1
  Dy  Dy5  1  0.815461  0.749868  0.219806  1
  Dy  Dy6  1  0.315318  0.749444  0.280814  1
  Dy  Dy7  1  0.685028  0.250019  0.719435  1
  Dy  Dy8  1  0.195014  0.064833  0.058324  1
  Dy  Dy9  1  0.804982  0.935097  0.941481  1
  Dy  Dy10  1  0.304834  0.935527  0.558151  1
  Dy  Dy11  1  0.804792  0.564723  0.941560  1
  Dy  Dy12  1  0.694370  0.064847  0.442048  1
  Dy  Dy13  1  0.195394  0.435422  0.058398  1
  Dy  Dy14  1  0.695915  0.435523  0.441518  1
  Lu  Lu15  1  0.303751  0.567719  0.558255  1
  Sc  Sc16  1  0.025111  0.249554  0.512905  1
  Sc  Sc17  1  0.976452  0.749598  0.487276  1
  Sc  Sc18  1  0.475154  0.750170  0.012841  1
  Sc  Sc19  1  0.524702  0.249432  0.986934  1
  Bi  Bi20  1  0.400790  0.254237  0.543454  1
  Bi  Bi21  1  0.597291  0.749126  0.457436  1
  Bi  Bi22  1  0.097788  0.750135  0.042612  1
  Bi  Bi23  1  0.902140  0.250055  0.957195  1
  Bi  Bi24  1  0.065667  0.003568  0.331862  1
  Bi  Bi25  1  0.934451  0.995512  0.668139  1
  Bi  Bi26  1  0.434353  0.995749  0.831417  1
  Bi  Bi27  1  0.935523  0.503824  0.667837  1
  Bi  Bi28  1  0.565470  0.003649  0.168403  1
  Bi  Bi29  1  0.065537  0.495554  0.332257  1
  Bi  Bi30  1  0.565250  0.495818  0.168586  1
  Bi  Bi31  1  0.434148  0.503735  0.831447  1
