# generated using pymatgen
data_Np4B16Os3Ru
_symmetry_space_group_name_H-M   'P 1'
_cell_length_a   3.51147900
_cell_length_b   6.00370812
_cell_length_c   11.62288723
_cell_angle_alpha   89.97726131
_cell_angle_beta   90.00000000
_cell_angle_gamma   90.00000000
_symmetry_Int_Tables_number   1
_chemical_formula_structural   Np4B16Os3Ru
_chemical_formula_sum   'Np4 B16 Os3 Ru1'
_cell_volume   245.03246862
_cell_formula_units_Z   1
loop_
 _symmetry_equiv_pos_site_id
 _symmetry_equiv_pos_as_xyz
  1  'x, y, z'
loop_
 _atom_site_type_symbol
 _atom_site_label
 _atom_site_symmetry_multiplicity
 _atom_site_fract_x
 _atom_site_fract_y
 _atom_site_fract_z
 _atom_site_occupancy
  Np  Np0  1  0.500000  0.127177  0.650240  1
  Np  Np1  1  0.500000  0.872536  0.349797  1
  Np  Np2  1  0.500000  0.627505  0.849902  1
  Np  Np3  1  0.500000  0.372719  0.149869  1
  B  B4  1  0.000000  0.471012  0.692005  1
  B  B5  1  0.000000  0.528743  0.308159  1
  B  B6  1  0.000000  0.971987  0.808054  1
  B  B7  1  0.000000  0.028384  0.191850  1
  B  B8  1  0.000000  0.288410  0.812587  1
  B  B9  1  0.000000  0.711517  0.187568  1
  B  B10  1  0.000000  0.788843  0.687750  1
  B  B11  1  0.000000  0.211159  0.312319  1
  B  B12  1  0.000000  0.365922  0.968191  1
  B  B13  1  0.000000  0.634052  0.031544  1
  B  B14  1  0.000000  0.866028  0.531578  1
  B  B15  1  0.000000  0.133960  0.468521  1
  B  B16  1  0.000000  0.385118  0.546871  1
  B  B17  1  0.000000  0.614852  0.453171  1
  B  B18  1  0.000000  0.885450  0.953444  1
  B  B19  1  0.000000  0.114261  0.046729  1
  Os  Os20  1  0.500000  0.862237  0.092735  1
  Os  Os21  1  0.500000  0.638958  0.593100  1
  Os  Os22  1  0.500000  0.361193  0.406723  1
  Ru  Ru23  1  0.500000  0.137977  0.907292  1
