# generated using pymatgen
data_RbTbDy2F10
_symmetry_space_group_name_H-M   'P 1'
_cell_length_a   8.31062654
_cell_length_b   8.31062410
_cell_length_c   8.30177500
_cell_angle_alpha   60.03505819
_cell_angle_beta   60.03508185
_cell_angle_gamma   59.92942289
_symmetry_Int_Tables_number   1
_chemical_formula_structural   RbTbDy2F10
_chemical_formula_sum   'Rb2 Tb2 Dy4 F20'
_cell_volume   405.43473001
_cell_formula_units_Z   2
loop_
 _symmetry_equiv_pos_site_id
 _symmetry_equiv_pos_as_xyz
  1  'x, y, z'
loop_
 _atom_site_type_symbol
 _atom_site_label
 _atom_site_symmetry_multiplicity
 _atom_site_fract_x
 _atom_site_fract_y
 _atom_site_fract_z
 _atom_site_occupancy
  Rb  Rb0  1  0.250002  0.250000  0.250000  1
  Rb  Rb1  1  0.749998  0.750000  0.750000  1
  Tb  Tb2  1  0.240451  0.240451  0.759549  1
  Tb  Tb3  1  0.759549  0.759549  0.240451  1
  Dy  Dy4  1  0.759436  0.240564  0.240564  1
  Dy  Dy5  1  0.240564  0.759436  0.759436  1
  Dy  Dy6  1  0.240564  0.759436  0.240564  1
  Dy  Dy7  1  0.759436  0.240564  0.759436  1
  F  F8  1  0.830047  0.498951  0.501047  1
  F  F9  1  0.169953  0.501049  0.498953  1
  F  F10  1  0.498952  0.830047  0.169953  1
  F  F11  1  0.501048  0.169953  0.830047  1
  F  F12  1  0.498951  0.830047  0.501047  1
  F  F13  1  0.169953  0.501048  0.830047  1
  F  F14  1  0.501049  0.169953  0.498953  1
  F  F15  1  0.830047  0.498952  0.169953  1
  F  F16  1  0.499999  0.499999  0.829519  1
  F  F17  1  0.500001  0.500001  0.170481  1
  F  F18  1  0.170479  0.829521  0.500000  1
  F  F19  1  0.829521  0.170479  0.500000  1
  F  F20  1  0.110176  0.110176  0.111453  1
  F  F21  1  0.889824  0.889824  0.888547  1
  F  F22  1  0.110175  0.110176  0.668196  1
  F  F23  1  0.111453  0.668195  0.110176  1
  F  F24  1  0.889825  0.889824  0.331804  1
  F  F25  1  0.888547  0.331805  0.889824  1
  F  F26  1  0.668196  0.111453  0.110176  1
  F  F27  1  0.331804  0.888547  0.889824  1
