# generated using pymatgen
data_PrBi5(RuO6)3
_symmetry_space_group_name_H-M   'P 1'
_cell_length_a   9.24870856
_cell_length_b   9.27990827
_cell_length_c   5.28152300
_cell_angle_alpha   90.00000000
_cell_angle_beta   90.24208906
_cell_angle_gamma   120.11165322
_symmetry_Int_Tables_number   1
_chemical_formula_structural   PrBi5(RuO6)3
_chemical_formula_sum   'Pr1 Bi5 Ru3 O18'
_cell_volume   392.12062193
_cell_formula_units_Z   1
loop_
 _symmetry_equiv_pos_site_id
 _symmetry_equiv_pos_as_xyz
  1  'x, y, z'
loop_
 _atom_site_type_symbol
 _atom_site_label
 _atom_site_symmetry_multiplicity
 _atom_site_fract_x
 _atom_site_fract_y
 _atom_site_fract_z
 _atom_site_occupancy
  Pr  Pr0  1  0.000000  0.386058  0.500000  1
  Bi  Bi1  1  0.286601  0.287575  0.998616  1
  Bi  Bi2  1  0.000000  0.713981  0.000000  1
  Bi  Bi3  1  0.624988  0.623441  0.502614  1
  Bi  Bi4  1  0.375012  0.998454  0.497386  1
  Bi  Bi5  1  0.713399  0.000974  0.001384  1
  Ru  Ru6  1  0.000000  0.998994  0.500000  1
  Ru  Ru7  1  0.335322  0.667442  0.006465  1
  Ru  Ru8  1  0.664678  0.332118  0.993535  1
  O  O9  1  0.076664  0.195552  0.713942  1
  O  O10  1  0.229884  0.464039  0.213165  1
  O  O11  1  0.134418  0.597162  0.800418  1
  O  O12  1  0.402122  0.540453  0.788295  1
  O  O13  1  0.233731  0.766304  0.228758  1
  O  O14  1  0.122287  0.921572  0.707933  1
  O  O15  1  0.536796  0.763131  0.217596  1
  O  O16  1  0.199917  0.077818  0.286119  1
  O  O17  1  0.458519  0.866621  0.799605  1
  O  O18  1  0.800083  0.877902  0.713881  1
  O  O19  1  0.463204  0.226334  0.782404  1
  O  O20  1  0.597878  0.138331  0.211705  1
  O  O21  1  0.541481  0.408102  0.200395  1
  O  O22  1  0.770116  0.234156  0.786835  1
  O  O23  1  0.923336  0.118888  0.286058  1
  O  O24  1  0.766269  0.532573  0.771242  1
  O  O25  1  0.865582  0.462743  0.199582  1
  O  O26  1  0.877713  0.799286  0.292067  1
