# generated using pymatgen
data_Pr2YHo5(WO6)4
_symmetry_space_group_name_H-M   'P 1'
_cell_length_a   5.45433000
_cell_length_b   7.77427490
_cell_length_c   11.54764211
_cell_angle_alpha   75.61821498
_cell_angle_beta   90.00000000
_cell_angle_gamma   90.00000000
_symmetry_Int_Tables_number   1
_chemical_formula_structural   Pr2YHo5(WO6)4
_chemical_formula_sum   'Pr2 Y1 Ho5 W4 O24'
_cell_volume   474.31511012
_cell_formula_units_Z   1
loop_
 _symmetry_equiv_pos_site_id
 _symmetry_equiv_pos_as_xyz
  1  'x, y, z'
loop_
 _atom_site_type_symbol
 _atom_site_label
 _atom_site_symmetry_multiplicity
 _atom_site_fract_x
 _atom_site_fract_y
 _atom_site_fract_z
 _atom_site_occupancy
  Pr  Pr0  1  0.314320  0.500000  0.750000  1
  Pr  Pr1  1  0.685337  0.500000  0.250000  1
  Y  Y2  1  0.742254  0.000000  0.250000  1
  Ho  Ho3  1  0.186153  0.797255  0.076578  1
  Ho  Ho4  1  0.258191  0.000000  0.750000  1
  Ho  Ho5  1  0.186153  0.202745  0.423422  1
  Ho  Ho6  1  0.814109  0.202596  0.922946  1
  Ho  Ho7  1  0.814109  0.797404  0.577054  1
  W  W8  1  0.746350  0.728781  0.884113  1
  W  W9  1  0.253561  0.728149  0.384440  1
  W  W10  1  0.746350  0.271219  0.615887  1
  W  W11  1  0.253561  0.271851  0.115560  1
  O  O12  1  0.854803  0.357174  0.454754  1
  O  O13  1  0.465758  0.846000  0.930376  1
  O  O14  1  0.854803  0.642826  0.045246  1
  O  O15  1  0.013775  0.279272  0.730516  1
  O  O16  1  0.986350  0.279942  0.230293  1
  O  O17  1  0.144763  0.357812  0.954482  1
  O  O18  1  0.653435  0.493976  0.887347  1
  O  O19  1  0.533886  0.154889  0.068956  1
  O  O20  1  0.144763  0.642188  0.545518  1
  O  O21  1  0.013775  0.720728  0.769484  1
  O  O22  1  0.453784  0.205086  0.273034  1
  O  O23  1  0.043849  0.941739  0.396475  1
  O  O24  1  0.465758  0.154000  0.569624  1
  O  O25  1  0.986350  0.720058  0.269707  1
  O  O26  1  0.957683  0.057970  0.604361  1
  O  O27  1  0.544921  0.203906  0.773129  1
  O  O28  1  0.544921  0.796094  0.726871  1
  O  O29  1  0.043849  0.058261  0.103525  1
  O  O30  1  0.653435  0.506024  0.612653  1
  O  O31  1  0.346770  0.506613  0.112309  1
  O  O32  1  0.453784  0.794914  0.226966  1
  O  O33  1  0.346770  0.493387  0.387691  1
  O  O34  1  0.533886  0.845111  0.431044  1
  O  O35  1  0.957683  0.942030  0.895639  1
