# generated using pymatgen
data_Hf3Ti2Ga2Sb
_symmetry_space_group_name_H-M   'P 1'
_cell_length_a   8.03294800
_cell_length_b   8.02239344
_cell_length_c   5.45636500
_cell_angle_alpha   90.00000000
_cell_angle_beta   90.00000000
_cell_angle_gamma   120.04353050
_symmetry_Int_Tables_number   1
_chemical_formula_structural   Hf3Ti2Ga2Sb
_chemical_formula_sum   'Hf6 Ti4 Ga4 Sb2'
_cell_volume   304.38433060
_cell_formula_units_Z   2
loop_
 _symmetry_equiv_pos_site_id
 _symmetry_equiv_pos_as_xyz
  1  'x, y, z'
loop_
 _atom_site_type_symbol
 _atom_site_label
 _atom_site_symmetry_multiplicity
 _atom_site_fract_x
 _atom_site_fract_y
 _atom_site_fract_z
 _atom_site_occupancy
  Hf  Hf0  1  0.231327  0.000000  0.250000  1
  Hf  Hf1  1  0.768673  0.000000  0.750000  1
  Hf  Hf2  1  0.013478  0.256857  0.250000  1
  Hf  Hf3  1  0.986522  0.743143  0.750000  1
  Hf  Hf4  1  0.756621  0.743143  0.250000  1
  Hf  Hf5  1  0.243379  0.256857  0.750000  1
  Ti  Ti6  1  0.326567  0.653134  0.000000  1
  Ti  Ti7  1  0.673433  0.346866  0.000000  1
  Ti  Ti8  1  0.673433  0.346866  0.500000  1
  Ti  Ti9  1  0.326567  0.653134  0.500000  1
  Ga  Ga10  1  0.004282  0.602785  0.250000  1
  Ga  Ga11  1  0.995718  0.397215  0.750000  1
  Ga  Ga12  1  0.401497  0.397215  0.250000  1
  Ga  Ga13  1  0.598503  0.602785  0.750000  1
  Sb  Sb14  1  0.606080  0.000000  0.250000  1
  Sb  Sb15  1  0.393920  0.000000  0.750000  1
