# generated using pymatgen
data_Pr5Y5(Pb3Br)2
_symmetry_space_group_name_H-M   'P 1'
_cell_length_a   9.53008600
_cell_length_b   9.53008511
_cell_length_c   6.84304900
_cell_angle_alpha   90.00000000
_cell_angle_beta   90.00000000
_cell_angle_gamma   120.09451953
_symmetry_Int_Tables_number   1
_chemical_formula_structural   Pr5Y5(Pb3Br)2
_chemical_formula_sum   'Pr5 Y5 Pb6 Br2'
_cell_volume   537.72403881
_cell_formula_units_Z   1
loop_
 _symmetry_equiv_pos_site_id
 _symmetry_equiv_pos_as_xyz
  1  'x, y, z'
loop_
 _atom_site_type_symbol
 _atom_site_label
 _atom_site_symmetry_multiplicity
 _atom_site_fract_x
 _atom_site_fract_y
 _atom_site_fract_z
 _atom_site_occupancy
  Pr  Pr0  1  0.268052  0.001155  0.250002  1
  Pr  Pr1  1  0.001156  0.268053  0.250002  1
  Pr  Pr2  1  0.264112  0.264113  0.749998  1
  Pr  Pr3  1  0.734862  0.999582  0.750002  1
  Pr  Pr4  1  0.999583  0.734863  0.750002  1
  Y  Y5  1  0.666794  0.334245  0.000805  1
  Y  Y6  1  0.334245  0.666795  0.000805  1
  Y  Y7  1  0.734189  0.734189  0.249998  1
  Y  Y8  1  0.666795  0.334246  0.499195  1
  Y  Y9  1  0.334246  0.666795  0.499195  1
  Pb  Pb10  1  0.610149  0.996176  0.250000  1
  Pb  Pb11  1  0.996176  0.610149  0.250000  1
  Pb  Pb12  1  0.396571  0.396571  0.250001  1
  Pb  Pb13  1  0.391174  0.999719  0.750000  1
  Pb  Pb14  1  0.999719  0.391175  0.750000  1
  Pb  Pb15  1  0.608595  0.608596  0.750001  1
  Br  Br16  1  0.996791  0.996791  0.003597  1
  Br  Br17  1  0.996790  0.996790  0.496403  1
