# generated using pymatgen
data_ErTh3(B4Ir)4
_symmetry_space_group_name_H-M   'P 1'
_cell_length_a   7.09599778
_cell_length_b   7.09599852
_cell_length_c   7.09599825
_cell_angle_alpha   111.72388594
_cell_angle_beta   111.72387660
_cell_angle_gamma   105.05415721
_symmetry_Int_Tables_number   1
_chemical_formula_structural   ErTh3(B4Ir)4
_chemical_formula_sum   'Er1 Th3 B16 Ir4'
_cell_volume   273.84080303
_cell_formula_units_Z   1
loop_
 _symmetry_equiv_pos_site_id
 _symmetry_equiv_pos_as_xyz
  1  'x, y, z'
loop_
 _atom_site_type_symbol
 _atom_site_label
 _atom_site_symmetry_multiplicity
 _atom_site_fract_x
 _atom_site_fract_y
 _atom_site_fract_z
 _atom_site_occupancy
  Er  Er0  1  0.212777  0.212777  0.000000  1
  Th  Th1  1  0.248727  0.748727  0.500000  1
  Th  Th2  1  0.748727  0.248727  0.500000  1
  Th  Th3  1  0.788305  0.788305  0.000000  1
  B  B4  1  0.112414  0.112414  0.528341  1
  B  B5  1  0.584073  0.584073  0.471659  1
  B  B6  1  0.887679  0.887679  0.472492  1
  B  B7  1  0.584073  0.112414  0.000000  1
  B  B8  1  0.112414  0.584073  0.000000  1
  B  B9  1  0.887679  0.415187  0.000000  1
  B  B10  1  0.415187  0.887679  0.000000  1
  B  B11  1  0.415187  0.415187  0.527508  1
  B  B12  1  0.107716  0.264135  0.370808  1
  B  B13  1  0.264135  0.893327  0.156419  1
  B  B14  1  0.736908  0.107716  0.843581  1
  B  B15  1  0.107716  0.736908  0.843581  1
  B  B16  1  0.893327  0.264135  0.156419  1
  B  B17  1  0.893327  0.736908  0.629192  1
  B  B18  1  0.736908  0.893327  0.629192  1
  B  B19  1  0.264135  0.107716  0.370808  1
  Ir  Ir20  1  0.499646  0.739260  0.239614  1
  Ir  Ir21  1  0.739260  0.499646  0.239614  1
  Ir  Ir22  1  0.260034  0.499646  0.760386  1
  Ir  Ir23  1  0.499646  0.260034  0.760386  1
