# generated using pymatgen
data_CaNd9(Si2Pb)2
_symmetry_space_group_name_H-M   'P 1'
_cell_length_a   9.21482550
_cell_length_b   9.21482586
_cell_length_c   9.21482595
_cell_angle_alpha   129.16010957
_cell_angle_beta   129.16011648
_cell_angle_gamma   74.75308102
_symmetry_Int_Tables_number   1
_chemical_formula_structural   CaNd9(Si2Pb)2
_chemical_formula_sum   'Ca1 Nd9 Si4 Pb2'
_cell_volume   458.27290147
_cell_formula_units_Z   1
loop_
 _symmetry_equiv_pos_site_id
 _symmetry_equiv_pos_as_xyz
  1  'x, y, z'
loop_
 _atom_site_type_symbol
 _atom_site_label
 _atom_site_symmetry_multiplicity
 _atom_site_fract_x
 _atom_site_fract_y
 _atom_site_fract_z
 _atom_site_occupancy
  Ca  Ca0  1  0.500000  0.500000  0.000000  1
  Nd  Nd1  1  0.534583  0.035442  0.846620  1
  Nd  Nd2  1  0.188821  0.687961  0.153380  1
  Nd  Nd3  1  0.035442  0.188821  0.500859  1
  Nd  Nd4  1  0.687961  0.534583  0.499141  1
  Nd  Nd5  1  0.465417  0.964558  0.153380  1
  Nd  Nd6  1  0.811179  0.312039  0.846620  1
  Nd  Nd7  1  0.964558  0.811179  0.499141  1
  Nd  Nd8  1  0.312039  0.465417  0.500859  1
  Nd  Nd9  1  0.000000  0.000000  0.000000  1
  Si  Si10  1  0.884699  0.381112  0.265811  1
  Si  Si11  1  0.115301  0.618888  0.734189  1
  Si  Si12  1  0.381112  0.115301  0.496413  1
  Si  Si13  1  0.618888  0.884699  0.503587  1
  Pb  Pb14  1  0.248106  0.248106  0.000000  1
  Pb  Pb15  1  0.751894  0.751894  0.000000  1
