# generated using pymatgen
data_Ta12CoB12Os11
_symmetry_space_group_name_H-M   'P 1'
_cell_length_a   3.11458000
_cell_length_b   9.05140938
_cell_length_c   15.74454922
_cell_angle_alpha   89.52246114
_cell_angle_beta   90.00000000
_cell_angle_gamma   90.00000000
_symmetry_Int_Tables_number   1
_chemical_formula_structural   Ta12CoB12Os11
_chemical_formula_sum   'Ta12 Co1 B12 Os11'
_cell_volume   443.84450194
_cell_formula_units_Z   1
loop_
 _symmetry_equiv_pos_site_id
 _symmetry_equiv_pos_as_xyz
  1  'x, y, z'
loop_
 _atom_site_type_symbol
 _atom_site_label
 _atom_site_symmetry_multiplicity
 _atom_site_fract_x
 _atom_site_fract_y
 _atom_site_fract_z
 _atom_site_occupancy
  Ta  Ta0  1  0.000000  0.801840  0.492839  1
  Ta  Ta1  1  0.000000  0.200962  0.502825  1
  Ta  Ta2  1  0.000000  0.297568  0.006205  1
  Ta  Ta3  1  0.000000  0.699817  0.995428  1
  Ta  Ta4  1  0.000000  0.516405  0.592806  1
  Ta  Ta5  1  0.000000  0.487331  0.405439  1
  Ta  Ta6  1  0.000000  0.015220  0.909808  1
  Ta  Ta7  1  0.000000  0.978939  0.099745  1
  Ta  Ta8  1  0.000000  0.694152  0.202795  1
  Ta  Ta9  1  0.000000  0.310520  0.798066  1
  Ta  Ta10  1  0.000000  0.182484  0.295325  1
  Ta  Ta11  1  0.000000  0.811899  0.702068  1
  Co  Co12  1  0.500000  0.945325  0.239770  1
  B  B13  1  0.500000  0.607194  0.495585  1
  B  B14  1  0.500000  0.395475  0.502494  1
  B  B15  1  0.500000  0.101874  0.007581  1
  B  B16  1  0.500000  0.894885  0.001031  1
  B  B17  1  0.000000  0.609200  0.832875  1
  B  B18  1  0.000000  0.391158  0.168420  1
  B  B19  1  0.000000  0.107841  0.667756  1
  B  B20  1  0.000000  0.898856  0.320927  1
  B  B21  1  0.500000  0.715320  0.596779  1
  B  B22  1  0.500000  0.286274  0.399350  1
  B  B23  1  0.500000  0.213822  0.903372  1
  B  B24  1  0.500000  0.779916  0.097523  1
  Os  Os25  1  0.500000  0.723750  0.351822  1
  Os  Os26  1  0.500000  0.280446  0.643779  1
  Os  Os27  1  0.500000  0.215901  0.147016  1
  Os  Os28  1  0.500000  0.780622  0.855163  1
  Os  Os29  1  0.500000  0.514390  0.093900  1
  Os  Os30  1  0.500000  0.482035  0.906565  1
  Os  Os31  1  0.500000  0.017082  0.405303  1
  Os  Os32  1  0.500000  0.983545  0.593263  1
  Os  Os33  1  0.500000  0.560210  0.734135  1
  Os  Os34  1  0.500000  0.438177  0.266129  1
  Os  Os35  1  0.500000  0.059561  0.766116  1
