# generated using pymatgen
data_Er6Sc4(GaSb)3
_symmetry_space_group_name_H-M   'P 1'
_cell_length_a   8.54472300
_cell_length_b   8.55419866
_cell_length_c   6.16094700
_cell_angle_alpha   90.00000000
_cell_angle_beta   90.00000000
_cell_angle_gamma   119.96335982
_symmetry_Int_Tables_number   1
_chemical_formula_structural   Er6Sc4(GaSb)3
_chemical_formula_sum   'Er6 Sc4 Ga3 Sb3'
_cell_volume   390.13566366
_cell_formula_units_Z   1
loop_
 _symmetry_equiv_pos_site_id
 _symmetry_equiv_pos_as_xyz
  1  'x, y, z'
loop_
 _atom_site_type_symbol
 _atom_site_label
 _atom_site_symmetry_multiplicity
 _atom_site_fract_x
 _atom_site_fract_y
 _atom_site_fract_z
 _atom_site_occupancy
  Er  Er0  1  0.235930  0.000000  0.250000  1
  Er  Er1  1  0.243501  0.231466  0.750000  1
  Er  Er2  1  0.012036  0.768534  0.750000  1
  Er  Er3  1  0.012778  0.249865  0.250000  1
  Er  Er4  1  0.762913  0.750135  0.250000  1
  Er  Er5  1  0.753626  0.000000  0.750000  1
  Sc  Sc6  1  0.327470  0.666605  0.003954  1
  Sc  Sc7  1  0.660866  0.333395  0.496046  1
  Sc  Sc8  1  0.660866  0.333395  0.003954  1
  Sc  Sc9  1  0.327470  0.666605  0.496046  1
  Ga  Ga10  1  0.998935  0.599785  0.250000  1
  Ga  Ga11  1  0.399149  0.400215  0.250000  1
  Ga  Ga12  1  0.401192  0.000000  0.750000  1
  Sb  Sb13  1  0.605056  0.000000  0.250000  1
  Sb  Sb14  1  0.600348  0.602484  0.750000  1
  Sb  Sb15  1  0.997863  0.397516  0.750000  1
