# generated using pymatgen
data_Nb8IrS20
_symmetry_space_group_name_H-M   'P 1'
_cell_length_a   10.14495469
_cell_length_b   10.14495401
_cell_length_c   18.87464865
_cell_angle_alpha   75.67240174
_cell_angle_beta   75.67240312
_cell_angle_gamma   19.05251913
_symmetry_Int_Tables_number   1
_chemical_formula_structural   Nb8IrS20
_chemical_formula_sum   'Nb8 Ir1 S20'
_cell_volume   613.83771582
_cell_formula_units_Z   1
loop_
 _symmetry_equiv_pos_site_id
 _symmetry_equiv_pos_as_xyz
  1  'x, y, z'
loop_
 _atom_site_type_symbol
 _atom_site_label
 _atom_site_symmetry_multiplicity
 _atom_site_fract_x
 _atom_site_fract_y
 _atom_site_fract_z
 _atom_site_occupancy
  Nb  Nb0  1  0.076716  0.076716  0.090404  1
  Nb  Nb1  1  0.923284  0.923284  0.909596  1
  Nb  Nb2  1  0.330991  0.330991  0.809808  1
  Nb  Nb3  1  0.669009  0.669009  0.190192  1
  Nb  Nb4  1  0.267866  0.267866  0.280064  1
  Nb  Nb5  1  0.732134  0.732134  0.719936  1
  Nb  Nb6  1  0.158462  0.158462  0.555727  1
  Nb  Nb7  1  0.841538  0.841538  0.444273  1
  Ir  Ir8  1  0.500000  0.500000  0.000000  1
  S  S9  1  0.438494  0.438494  0.398830  1
  S  S10  1  0.561506  0.561506  0.601170  1
  S  S11  1  0.401324  0.401324  0.509988  1
  S  S12  1  0.598676  0.598676  0.490012  1
  S  S13  1  0.148178  0.148178  0.693805  1
  S  S14  1  0.851822  0.851822  0.306195  1
  S  S15  1  0.382418  0.382418  0.007629  1
  S  S16  1  0.617582  0.617582  0.992371  1
  S  S17  1  0.204046  0.204046  0.820967  1
  S  S18  1  0.795954  0.795954  0.179033  1
  S  S19  1  0.252999  0.252999  0.429193  1
  S  S20  1  0.747001  0.747001  0.570807  1
  S  S21  1  0.327709  0.327709  0.678740  1
  S  S22  1  0.672291  0.672291  0.321260  1
  S  S23  1  0.482829  0.482829  0.126884  1
  S  S24  1  0.517171  0.517171  0.873116  1
  S  S25  1  0.201185  0.201185  0.091169  1
  S  S26  1  0.798815  0.798815  0.908831  1
  S  S27  1  0.074687  0.074687  0.224288  1
  S  S28  1  0.925313  0.925313  0.775712  1
