# generated using pymatgen
data_Tb3Ag2Hg3Pd
_symmetry_space_group_name_H-M   'P 1'
_cell_length_a   7.93685000
_cell_length_b   7.93685024
_cell_length_c   3.79611700
_cell_angle_alpha   90.00000000
_cell_angle_beta   90.00000000
_cell_angle_gamma   119.99999901
_symmetry_Int_Tables_number   1
_chemical_formula_structural   Tb3Ag2Hg3Pd
_chemical_formula_sum   'Tb3 Ag2 Hg3 Pd1'
_cell_volume   207.09355507
_cell_formula_units_Z   1
loop_
 _symmetry_equiv_pos_site_id
 _symmetry_equiv_pos_as_xyz
  1  'x, y, z'
loop_
 _atom_site_type_symbol
 _atom_site_label
 _atom_site_symmetry_multiplicity
 _atom_site_fract_x
 _atom_site_fract_y
 _atom_site_fract_z
 _atom_site_occupancy
  Tb  Tb0  1  0.391922  0.410201  0.500000  1
  Tb  Tb1  1  0.589799  0.981720  0.500000  1
  Tb  Tb2  1  0.018280  0.608078  0.500000  1
  Ag  Ag3  1  0.666667  0.333333  0.000000  1
  Ag  Ag4  1  0.000000  0.000000  0.500000  1
  Hg  Hg5  1  0.726616  0.723545  0.000000  1
  Hg  Hg6  1  0.276455  0.003071  0.000000  1
  Hg  Hg7  1  0.996929  0.273384  0.000000  1
  Pd  Pd8  1  0.333333  0.666667  0.000000  1
