# generated using pymatgen
data_Sr3Ac(FeO3)4
_symmetry_space_group_name_H-M   'P 1'
_cell_length_a   5.56671736
_cell_length_b   5.56658349
_cell_length_c   7.86883300
_cell_angle_alpha   90.00103819
_cell_angle_beta   90.00109813
_cell_angle_gamma   89.95513414
_symmetry_Int_Tables_number   1
_chemical_formula_structural   Sr3Ac(FeO3)4
_chemical_formula_sum   'Sr3 Ac1 Fe4 O12'
_cell_volume   243.83615103
_cell_formula_units_Z   1
loop_
 _symmetry_equiv_pos_site_id
 _symmetry_equiv_pos_as_xyz
  1  'x, y, z'
loop_
 _atom_site_type_symbol
 _atom_site_label
 _atom_site_symmetry_multiplicity
 _atom_site_fract_x
 _atom_site_fract_y
 _atom_site_fract_z
 _atom_site_occupancy
  Sr  Sr0  1  0.500000  0.999993  0.250005  1
  Sr  Sr1  1  0.999999  0.500006  0.250007  1
  Sr  Sr2  1  0.000000  0.500006  0.749997  1
  Ac  Ac3  1  0.499999  0.999994  0.750001  1
  Fe  Fe4  1  0.000000  0.000002  0.002509  1
  Fe  Fe5  1  0.500000  0.500001  0.002524  1
  Fe  Fe6  1  0.000001  0.000002  0.497480  1
  Fe  Fe7  1  0.500001  0.499999  0.497467  1
  O  O8  1  0.252378  0.247620  0.996182  1
  O  O9  1  0.747624  0.752380  0.996183  1
  O  O10  1  0.252377  0.247618  0.503820  1
  O  O11  1  0.747623  0.752381  0.503820  1
  O  O12  1  0.999999  0.000002  0.249998  1
  O  O13  1  0.499999  0.499997  0.250000  1
  O  O14  1  0.000000  0.000002  0.750000  1
  O  O15  1  0.500000  0.499999  0.750005  1
  O  O16  1  0.252370  0.752370  0.996188  1
  O  O17  1  0.747631  0.247630  0.996190  1
  O  O18  1  0.252368  0.752373  0.503811  1
  O  O19  1  0.747632  0.247627  0.503813  1
