# generated using pymatgen
data_CaTmNiIr3
_symmetry_space_group_name_H-M   'P 1'
_cell_length_a   5.18972436
_cell_length_b   5.35307420
_cell_length_c   5.35307500
_cell_angle_alpha   60.00000125
_cell_angle_beta   58.95321698
_cell_angle_gamma   58.95322084
_symmetry_Int_Tables_number   1
_chemical_formula_structural   CaTmNiIr3
_chemical_formula_sum   'Ca1 Tm1 Ni1 Ir3'
_cell_volume   103.46181643
_cell_formula_units_Z   1
loop_
 _symmetry_equiv_pos_site_id
 _symmetry_equiv_pos_as_xyz
  1  'x, y, z'
loop_
 _atom_site_type_symbol
 _atom_site_label
 _atom_site_symmetry_multiplicity
 _atom_site_fract_x
 _atom_site_fract_y
 _atom_site_fract_z
 _atom_site_occupancy
  Ca  Ca0  1  0.748906  0.750365  0.750365  1
  Tm  Tm1  1  0.499852  0.500049  0.500049  1
  Ni  Ni2  1  0.625252  0.124916  0.124916  1
  Ir  Ir3  1  0.125330  0.625045  0.124813  1
  Ir  Ir4  1  0.125330  0.124813  0.625045  1
  Ir  Ir5  1  0.125330  0.124813  0.124813  1
