# generated using pymatgen
data_LaDyY2(WO6)2
_symmetry_space_group_name_H-M   'P 1'
_cell_length_a   5.47919300
_cell_length_b   7.81264317
_cell_length_c   11.61651125
_cell_angle_alpha   75.71111110
_cell_angle_beta   90.00000000
_cell_angle_gamma   90.00000000
_symmetry_Int_Tables_number   1
_chemical_formula_structural   LaDyY2(WO6)2
_chemical_formula_sum   'La2 Dy2 Y4 W4 O24'
_cell_volume   481.88409386
_cell_formula_units_Z   2
loop_
 _symmetry_equiv_pos_site_id
 _symmetry_equiv_pos_as_xyz
  1  'x, y, z'
loop_
 _atom_site_type_symbol
 _atom_site_label
 _atom_site_symmetry_multiplicity
 _atom_site_fract_x
 _atom_site_fract_y
 _atom_site_fract_z
 _atom_site_occupancy
  La  La0  1  0.686339  0.499907  0.750056  1
  La  La1  1  0.313661  0.499907  0.250056  1
  Dy  Dy2  1  0.187942  0.201318  0.923746  1
  Dy  Dy3  1  0.812058  0.201318  0.423746  1
  Y  Y4  1  0.741124  0.000148  0.750005  1
  Y  Y5  1  0.258876  0.000148  0.250005  1
  Y  Y6  1  0.188182  0.798632  0.576293  1
  Y  Y7  1  0.811818  0.798632  0.076293  1
  W  W8  1  0.252015  0.728741  0.883970  1
  W  W9  1  0.747985  0.728741  0.383970  1
  W  W10  1  0.251989  0.271067  0.616016  1
  W  W11  1  0.748011  0.271067  0.116016  1
  O  O12  1  0.041259  0.941809  0.895749  1
  O  O13  1  0.529780  0.846474  0.930605  1
  O  O14  1  0.958741  0.941809  0.395749  1
  O  O15  1  0.453795  0.795391  0.727993  1
  O  O16  1  0.470220  0.846474  0.430605  1
  O  O17  1  0.986920  0.721226  0.769549  1
  O  O18  1  0.546205  0.795391  0.227993  1
  O  O19  1  0.857150  0.643288  0.543742  1
  O  O20  1  0.346111  0.495184  0.887404  1
  O  O21  1  0.013080  0.721226  0.269549  1
  O  O22  1  0.346421  0.504514  0.612532  1
  O  O23  1  0.857840  0.356400  0.956213  1
  O  O24  1  0.142850  0.643288  0.043742  1
  O  O25  1  0.653889  0.495184  0.387404  1
  O  O26  1  0.987259  0.278767  0.730739  1
  O  O27  1  0.653579  0.504514  0.112532  1
  O  O28  1  0.142160  0.356400  0.456213  1
  O  O29  1  0.453309  0.204545  0.772172  1
  O  O30  1  0.012741  0.278767  0.230739  1
  O  O31  1  0.530062  0.153793  0.569149  1
  O  O32  1  0.546691  0.204545  0.272172  1
  O  O33  1  0.040545  0.058794  0.604066  1
  O  O34  1  0.469938  0.153793  0.069149  1
  O  O35  1  0.959455  0.058794  0.104066  1
