# generated using pymatgen
data_La8Ho2In5Pb
_symmetry_space_group_name_H-M   'P 1'
_cell_length_a   6.30573692
_cell_length_b   9.37726850
_cell_length_c   9.45707100
_cell_angle_alpha   83.79236632
_cell_angle_beta   70.85458854
_cell_angle_gamma   70.71034234
_symmetry_Int_Tables_number   1
_chemical_formula_structural   La8Ho2In5Pb
_chemical_formula_sum   'La8 Ho2 In5 Pb1'
_cell_volume   498.61538505
_cell_formula_units_Z   1
loop_
 _symmetry_equiv_pos_site_id
 _symmetry_equiv_pos_as_xyz
  1  'x, y, z'
loop_
 _atom_site_type_symbol
 _atom_site_label
 _atom_site_symmetry_multiplicity
 _atom_site_fract_x
 _atom_site_fract_y
 _atom_site_fract_z
 _atom_site_occupancy
  La  La0  1  0.721834  0.864380  0.689142  1
  La  La1  1  0.277388  0.135009  0.311868  1
  La  La2  1  0.777265  0.311897  0.135158  1
  La  La3  1  0.223824  0.688616  0.860805  1
  La  La4  1  0.587053  0.689110  0.135569  1
  La  La5  1  0.416062  0.310437  0.860805  1
  La  La6  1  0.086934  0.135593  0.689310  1
  La  La7  1  0.913046  0.864959  0.311277  1
  Ho  Ho8  1  0.749811  0.500736  0.501510  1
  Ho  Ho9  1  0.247301  0.499460  0.503810  1
  In  In10  1  0.842320  0.500051  0.813455  1
  In  In11  1  0.344883  0.810763  0.499007  1
  In  In12  1  0.656000  0.189261  0.498600  1
  In  In13  1  0.250304  0.999859  0.000616  1
  In  In14  1  0.749895  0.000100  0.000827  1
  Pb  Pb15  1  0.156080  0.499769  0.188240  1
