# generated using pymatgen
data_La2Dy2Zn10SiSn
_symmetry_space_group_name_H-M   'P 1'
_cell_length_a   8.42309371
_cell_length_b   8.42309330
_cell_length_c   8.94792100
_cell_angle_alpha   90.00000000
_cell_angle_beta   90.00000000
_cell_angle_gamma   149.54447335
_symmetry_Int_Tables_number   1
_chemical_formula_structural   La2Dy2Zn10SiSn
_chemical_formula_sum   'La2 Dy2 Zn10 Si1 Sn1'
_cell_volume   321.78179136
_cell_formula_units_Z   1
loop_
 _symmetry_equiv_pos_site_id
 _symmetry_equiv_pos_as_xyz
  1  'x, y, z'
loop_
 _atom_site_type_symbol
 _atom_site_label
 _atom_site_symmetry_multiplicity
 _atom_site_fract_x
 _atom_site_fract_y
 _atom_site_fract_z
 _atom_site_occupancy
  La  La0  1  0.000968  0.999032  0.487029  1
  La  La1  1  0.000968  0.999032  0.012971  1
  Dy  Dy2  1  0.202413  0.797587  0.250000  1
  Dy  Dy3  1  0.794511  0.205489  0.750000  1
  Zn  Zn4  1  0.811293  0.188707  0.390051  1
  Zn  Zn5  1  0.187386  0.812614  0.608112  1
  Zn  Zn6  1  0.811293  0.188707  0.109949  1
  Zn  Zn7  1  0.187386  0.812614  0.891888  1
  Zn  Zn8  1  0.653484  0.346516  0.473888  1
  Zn  Zn9  1  0.341550  0.658450  0.514699  1
  Zn  Zn10  1  0.653484  0.346516  0.026112  1
  Zn  Zn11  1  0.341550  0.658450  0.985301  1
  Zn  Zn12  1  0.403980  0.596020  0.250000  1
  Zn  Zn13  1  0.606142  0.393858  0.750000  1
  Si  Si14  1  0.561422  0.438578  0.250000  1
  Sn  Sn15  1  0.442169  0.557831  0.750000  1
