# generated using pymatgen
data_SrSm3(Pt2O7)2
_symmetry_space_group_name_H-M   'P 1'
_cell_length_a   7.40013381
_cell_length_b   7.40013413
_cell_length_c   7.40013385
_cell_angle_alpha   60.10715741
_cell_angle_beta   60.10715513
_cell_angle_gamma   60.10715568
_symmetry_Int_Tables_number   1
_chemical_formula_structural   SrSm3(Pt2O7)2
_chemical_formula_sum   'Sr1 Sm3 Pt4 O14'
_cell_volume   287.24790225
_cell_formula_units_Z   1
loop_
 _symmetry_equiv_pos_site_id
 _symmetry_equiv_pos_as_xyz
  1  'x, y, z'
loop_
 _atom_site_type_symbol
 _atom_site_label
 _atom_site_symmetry_multiplicity
 _atom_site_fract_x
 _atom_site_fract_y
 _atom_site_fract_z
 _atom_site_occupancy
  Sr  Sr0  1  0.125000  0.125000  0.125000  1
  Sm  Sm1  1  0.625000  0.125000  0.125000  1
  Sm  Sm2  1  0.125000  0.625000  0.125000  1
  Sm  Sm3  1  0.125000  0.125000  0.625000  1
  Pt  Pt4  1  0.625000  0.625000  0.125000  1
  Pt  Pt5  1  0.625000  0.625000  0.625000  1
  Pt  Pt6  1  0.625000  0.125000  0.625000  1
  Pt  Pt7  1  0.125000  0.625000  0.625000  1
  O  O8  1  0.696235  0.294179  0.294179  1
  O  O9  1  0.710383  0.290777  0.710383  1
  O  O10  1  0.994644  0.994644  0.994644  1
  O  O11  1  0.294179  0.696235  0.294179  1
  O  O12  1  0.710383  0.710383  0.290777  1
  O  O13  1  0.959223  0.539617  0.539617  1
  O  O14  1  0.290777  0.710383  0.710383  1
  O  O15  1  0.255356  0.255356  0.255356  1
  O  O16  1  0.955821  0.553765  0.955821  1
  O  O17  1  0.539617  0.959223  0.539617  1
  O  O18  1  0.539617  0.539617  0.959223  1
  O  O19  1  0.955821  0.955821  0.553765  1
  O  O20  1  0.553765  0.955821  0.955821  1
  O  O21  1  0.294179  0.294179  0.696235  1
