# generated using pymatgen
data_Pr3SmY4(SiO5)4
_symmetry_space_group_name_H-M   'P 1'
_cell_length_a   8.15811279
_cell_length_b   8.13356770
_cell_length_c   10.80440600
_cell_angle_alpha   61.13971507
_cell_angle_beta   61.10214393
_cell_angle_gamma   50.28161504
_symmetry_Int_Tables_number   1
_chemical_formula_structural   Pr3SmY4(SiO5)4
_chemical_formula_sum   'Pr3 Sm1 Y4 Si4 O20'
_cell_volume   466.41706307
_cell_formula_units_Z   1
loop_
 _symmetry_equiv_pos_site_id
 _symmetry_equiv_pos_as_xyz
  1  'x, y, z'
loop_
 _atom_site_type_symbol
 _atom_site_label
 _atom_site_symmetry_multiplicity
 _atom_site_fract_x
 _atom_site_fract_y
 _atom_site_fract_z
 _atom_site_occupancy
  Pr  Pr0  1  0.708887  0.215565  0.464151  1
  Pr  Pr1  1  0.216528  0.710320  0.964519  1
  Pr  Pr2  1  0.291135  0.784145  0.535695  1
  Sm  Sm3  1  0.779150  0.294696  0.033451  1
  Y  Y4  1  0.237031  0.477055  0.336437  1
  Y  Y5  1  0.523855  0.761564  0.162741  1
  Y  Y6  1  0.763715  0.521872  0.664070  1
  Y  Y7  1  0.479853  0.235268  0.837193  1
  Si  Si8  1  0.728911  0.905475  0.305227  1
  Si  Si9  1  0.096177  0.271085  0.191659  1
  Si  Si10  1  0.269428  0.098352  0.694660  1
  Si  Si11  1  0.904129  0.726050  0.808450  1
  O  O12  1  0.426358  0.606929  0.107813  1
  O  O13  1  0.387918  0.578614  0.390976  1
  O  O14  1  0.581620  0.384750  0.892675  1
  O  O15  1  0.612766  0.421752  0.609111  1
  O  O16  1  0.867153  0.726474  0.431740  1
  O  O17  1  0.278540  0.130842  0.066556  1
  O  O18  1  0.133053  0.274946  0.567202  1
  O  O19  1  0.726192  0.866282  0.933854  1
  O  O20  1  0.568121  0.842195  0.315779  1
  O  O21  1  0.152133  0.437572  0.182388  1
  O  O22  1  0.433327  0.158089  0.683284  1
  O  O23  1  0.842040  0.562265  0.821618  1
  O  O24  1  0.159630  0.587597  0.823069  1
  O  O25  1  0.410280  0.841098  0.680164  1
  O  O26  1  0.842805  0.407408  0.173826  1
  O  O27  1  0.585998  0.160797  0.322619  1
  O  O28  1  0.907786  0.903583  0.646615  1
  O  O29  1  0.089376  0.096439  0.855327  1
  O  O30  1  0.091336  0.094153  0.353698  1
  O  O31  1  0.904771  0.916770  0.143434  1
