# generated using pymatgen
data_Lu5(GaTe)2
_symmetry_space_group_name_H-M   'P 1'
_cell_length_a   8.45150539
_cell_length_b   8.45150624
_cell_length_c   7.78660900
_cell_angle_alpha   90.00000000
_cell_angle_beta   90.00000000
_cell_angle_gamma   125.20794810
_symmetry_Int_Tables_number   1
_chemical_formula_structural   Lu5(GaTe)2
_chemical_formula_sum   'Lu10 Ga4 Te4'
_cell_volume   454.43641553
_cell_formula_units_Z   2
loop_
 _symmetry_equiv_pos_site_id
 _symmetry_equiv_pos_as_xyz
  1  'x, y, z'
loop_
 _atom_site_type_symbol
 _atom_site_label
 _atom_site_symmetry_multiplicity
 _atom_site_fract_x
 _atom_site_fract_y
 _atom_site_fract_z
 _atom_site_occupancy
  Lu  Lu0  1  0.000000  0.000000  0.000000  1
  Lu  Lu1  1  0.500000  0.500000  0.500000  1
  Lu  Lu2  1  0.786167  0.540235  0.163574  1
  Lu  Lu3  1  0.459765  0.213833  0.836426  1
  Lu  Lu4  1  0.959765  0.713833  0.663574  1
  Lu  Lu5  1  0.286167  0.040235  0.336426  1
  Lu  Lu6  1  0.213833  0.459765  0.836426  1
  Lu  Lu7  1  0.540235  0.786167  0.163574  1
  Lu  Lu8  1  0.040235  0.286167  0.336426  1
  Lu  Lu9  1  0.713833  0.959765  0.663574  1
  Ga  Ga10  1  0.863273  0.863273  0.364019  1
  Ga  Ga11  1  0.136727  0.136727  0.635981  1
  Ga  Ga12  1  0.636727  0.636727  0.864019  1
  Ga  Ga13  1  0.363273  0.363273  0.135981  1
  Te  Te14  1  0.206791  0.793209  0.000000  1
  Te  Te15  1  0.706791  0.293209  0.500000  1
  Te  Te16  1  0.793209  0.206791  0.000000  1
  Te  Te17  1  0.293209  0.706791  0.500000  1
