# generated using pymatgen
data_HoAs4(RuRh2)2
_symmetry_space_group_name_H-M   'P 1'
_cell_length_a   7.19811103
_cell_length_b   7.27146712
_cell_length_c   3.86453700
_cell_angle_alpha   90.00000000
_cell_angle_beta   90.00000000
_cell_angle_gamma   120.33770196
_symmetry_Int_Tables_number   1
_chemical_formula_structural   HoAs4(RuRh2)2
_chemical_formula_sum   'Ho1 As4 Ru2 Rh4'
_cell_volume   174.57447386
_cell_formula_units_Z   1
loop_
 _symmetry_equiv_pos_site_id
 _symmetry_equiv_pos_as_xyz
  1  'x, y, z'
loop_
 _atom_site_type_symbol
 _atom_site_label
 _atom_site_symmetry_multiplicity
 _atom_site_fract_x
 _atom_site_fract_y
 _atom_site_fract_z
 _atom_site_occupancy
  Ho  Ho0  1  0.000196  0.000098  0.000000  1
  As  As1  1  0.804319  0.616466  0.500000  1
  As  As2  1  0.335661  0.667831  0.000000  1
  As  As3  1  0.387053  0.193527  0.500000  1
  As  As4  1  0.804319  0.187852  0.500000  1
  Ru  Ru5  1  0.537385  0.069252  0.000000  1
  Ru  Ru6  1  0.537385  0.468132  0.000000  1
  Rh  Rh7  1  0.600906  0.800453  0.500000  1
  Rh  Rh8  1  0.195819  0.390315  0.500000  1
  Rh  Rh9  1  0.195819  0.805505  0.500000  1
  Rh  Rh10  1  0.934473  0.467236  0.000000  1
