# generated using pymatgen
data_Pr8Er6Sc6Si15As
_symmetry_space_group_name_H-M   'P 1'
_cell_length_a   7.36826253
_cell_length_b   7.69557380
_cell_length_c   14.55624101
_cell_angle_alpha   90.01013788
_cell_angle_beta   90.18049770
_cell_angle_gamma   90.40355781
_symmetry_Int_Tables_number   1
_chemical_formula_structural   Pr8Er6Sc6Si15As
_chemical_formula_sum   'Pr8 Er6 Sc6 Si15 As1'
_cell_volume   825.35806610
_cell_formula_units_Z   1
loop_
 _symmetry_equiv_pos_site_id
 _symmetry_equiv_pos_as_xyz
  1  'x, y, z'
loop_
 _atom_site_type_symbol
 _atom_site_label
 _atom_site_symmetry_multiplicity
 _atom_site_fract_x
 _atom_site_fract_y
 _atom_site_fract_z
 _atom_site_occupancy
  Pr  Pr0  1  0.019279  0.177901  0.398618  1
  Pr  Pr1  1  0.518426  0.322744  0.398150  1
  Pr  Pr2  1  0.487901  0.672676  0.907116  1
  Pr  Pr3  1  0.485821  0.672340  0.595629  1
  Pr  Pr4  1  0.982504  0.824299  0.600942  1
  Pr  Pr5  1  0.984453  0.824147  0.901837  1
  Pr  Pr6  1  0.517215  0.324612  0.097635  1
  Pr  Pr7  1  0.017712  0.175543  0.097171  1
  Er  Er8  1  0.318351  0.173818  0.626358  1
  Er  Er9  1  0.678250  0.824235  0.372900  1
  Er  Er10  1  0.177522  0.677707  0.373279  1
  Er  Er11  1  0.818100  0.326947  0.879488  1
  Er  Er12  1  0.817190  0.325897  0.623749  1
  Er  Er13  1  0.320194  0.172996  0.877068  1
  Sc  Sc14  1  0.657112  0.992399  0.751440  1
  Sc  Sc15  1  0.846974  0.496859  0.245976  1
  Sc  Sc16  1  0.346575  0.003434  0.245865  1
  Sc  Sc17  1  0.176299  0.676193  0.125684  1
  Sc  Sc18  1  0.677068  0.825214  0.126704  1
  Sc  Sc19  1  0.149894  0.501742  0.751396  1
  Si  Si20  1  0.474025  0.617153  0.244804  1
  Si  Si21  1  0.010419  0.129922  0.751767  1
  Si  Si22  1  0.519624  0.385003  0.751497  1
  Si  Si23  1  0.146689  0.467770  0.540040  1
  Si  Si24  1  0.975420  0.883594  0.244904  1
  Si  Si25  1  0.720573  0.121545  0.246580  1
  Si  Si26  1  0.854517  0.541234  0.044912  1
  Si  Si27  1  0.354528  0.961102  0.044105  1
  Si  Si28  1  0.150001  0.471104  0.963775  1
  Si  Si29  1  0.645518  0.031457  0.540137  1
  Si  Si30  1  0.353158  0.967825  0.459009  1
  Si  Si31  1  0.852572  0.534346  0.458183  1
  Si  Si32  1  0.781487  0.628114  0.751317  1
  Si  Si33  1  0.220256  0.380010  0.246548  1
  Si  Si34  1  0.649129  0.028349  0.964042  1
  As  As35  1  0.295244  0.859770  0.751377  1
