# generated using pymatgen
data_Nd5TaMnO12
_symmetry_space_group_name_H-M   'P 1'
_cell_length_a   7.06888511
_cell_length_b   7.06888593
_cell_length_c   7.61065900
_cell_angle_alpha   74.43121407
_cell_angle_beta   74.43120876
_cell_angle_gamma   50.50359327
_symmetry_Int_Tables_number   1
_chemical_formula_structural   Nd5TaMnO12
_chemical_formula_sum   'Nd5 Ta1 Mn1 O12'
_cell_volume   280.24337290
_cell_formula_units_Z   1
loop_
 _symmetry_equiv_pos_site_id
 _symmetry_equiv_pos_as_xyz
  1  'x, y, z'
loop_
 _atom_site_type_symbol
 _atom_site_label
 _atom_site_symmetry_multiplicity
 _atom_site_fract_x
 _atom_site_fract_y
 _atom_site_fract_z
 _atom_site_occupancy
  Nd  Nd0  1  0.294646  0.314338  0.357981  1
  Nd  Nd1  1  0.685662  0.705354  0.642019  1
  Nd  Nd2  1  0.689495  0.699805  0.164609  1
  Nd  Nd3  1  0.300195  0.310505  0.835391  1
  Nd  Nd4  1  0.002921  0.997079  0.500000  1
  Ta  Ta5  1  0.777932  0.222068  0.000000  1
  Mn  Mn6  1  0.260583  0.739417  0.000000  1
  O  O7  1  0.090184  0.599350  0.577700  1
  O  O8  1  0.007910  0.990528  0.178121  1
  O  O9  1  0.400650  0.909816  0.422300  1
  O  O10  1  0.498974  0.502229  0.172179  1
  O  O11  1  0.102730  0.583845  0.078023  1
  O  O12  1  0.898578  0.405941  0.423354  1
  O  O13  1  0.009472  0.992090  0.821879  1
  O  O14  1  0.594059  0.101421  0.576646  1
  O  O15  1  0.497771  0.501026  0.827821  1
  O  O16  1  0.575900  0.103816  0.079197  1
  O  O17  1  0.416155  0.897270  0.921977  1
  O  O18  1  0.896184  0.424100  0.920803  1
