# generated using pymatgen
data_Rb2Tm(LuSe2)5
_symmetry_space_group_name_H-M   'P 1'
_cell_length_a   4.07053300
_cell_length_b   12.20098544
_cell_length_c   21.76129035
_cell_angle_alpha   90.07251199
_cell_angle_beta   90.00000000
_cell_angle_gamma   90.00000000
_symmetry_Int_Tables_number   1
_chemical_formula_structural   Rb2Tm(LuSe2)5
_chemical_formula_sum   'Rb4 Tm2 Lu10 Se20'
_cell_volume   1080.76304140
_cell_formula_units_Z   2
loop_
 _symmetry_equiv_pos_site_id
 _symmetry_equiv_pos_as_xyz
  1  'x, y, z'
loop_
 _atom_site_type_symbol
 _atom_site_label
 _atom_site_symmetry_multiplicity
 _atom_site_fract_x
 _atom_site_fract_y
 _atom_site_fract_z
 _atom_site_occupancy
  Rb  Rb0  1  0.250000  0.852163  0.093129  1
  Rb  Rb1  1  0.750000  0.147837  0.906871  1
  Rb  Rb2  1  0.750000  0.352270  0.406899  1
  Rb  Rb3  1  0.250000  0.647730  0.593101  1
  Tm  Tm4  1  0.750000  0.797780  0.825607  1
  Tm  Tm5  1  0.250000  0.202220  0.174393  1
  Lu  Lu6  1  0.250000  0.297952  0.674471  1
  Lu  Lu7  1  0.750000  0.702048  0.325529  1
  Lu  Lu8  1  0.250000  0.956263  0.697947  1
  Lu  Lu9  1  0.750000  0.043737  0.302053  1
  Lu  Lu10  1  0.750000  0.456056  0.801978  1
  Lu  Lu11  1  0.250000  0.543944  0.198022  1
  Lu  Lu12  1  0.750000  0.391556  0.053899  1
  Lu  Lu13  1  0.250000  0.608444  0.946101  1
  Lu  Lu14  1  0.250000  0.891512  0.446026  1
  Lu  Lu15  1  0.750000  0.108488  0.553974  1
  Se  Se16  1  0.250000  0.947552  0.569146  1
  Se  Se17  1  0.750000  0.052448  0.430854  1
  Se  Se18  1  0.750000  0.447570  0.930848  1
  Se  Se19  1  0.250000  0.552430  0.069152  1
  Se  Se20  1  0.750000  0.765458  0.953834  1
  Se  Se21  1  0.250000  0.234542  0.046166  1
  Se  Se22  1  0.250000  0.265603  0.546694  1
  Se  Se23  1  0.750000  0.734397  0.453306  1
  Se  Se24  1  0.250000  0.952784  0.826285  1
  Se  Se25  1  0.750000  0.047216  0.173715  1
  Se  Se26  1  0.750000  0.451586  0.673648  1
  Se  Se27  1  0.250000  0.548414  0.326352  1
  Se  Se28  1  0.750000  0.126108  0.684849  1
  Se  Se29  1  0.250000  0.873892  0.315151  1
  Se  Se30  1  0.250000  0.625396  0.815110  1
  Se  Se31  1  0.750000  0.374604  0.184890  1
  Se  Se32  1  0.750000  0.695627  0.197305  1
  Se  Se33  1  0.250000  0.304373  0.802695  1
  Se  Se34  1  0.250000  0.195516  0.303194  1
  Se  Se35  1  0.750000  0.804484  0.696806  1
