# generated using pymatgen
data_La7ThZnPd24
_symmetry_space_group_name_H-M   'P 1'
_cell_length_a   8.55819506
_cell_length_b   8.55819506
_cell_length_c   8.55819506
_cell_angle_alpha   89.87571659
_cell_angle_beta   89.87571659
_cell_angle_gamma   89.87571659
_symmetry_Int_Tables_number   1
_chemical_formula_structural   La7ThZnPd24
_chemical_formula_sum   'La7 Th1 Zn1 Pd24'
_cell_volume   626.82091781
_cell_formula_units_Z   1
loop_
 _symmetry_equiv_pos_site_id
 _symmetry_equiv_pos_as_xyz
  1  'x, y, z'
loop_
 _atom_site_type_symbol
 _atom_site_label
 _atom_site_symmetry_multiplicity
 _atom_site_fract_x
 _atom_site_fract_y
 _atom_site_fract_z
 _atom_site_occupancy
  La  La0  1  0.749051  0.749051  0.749051  1
  La  La1  1  0.748934  0.748934  0.250926  1
  La  La2  1  0.748934  0.250926  0.748934  1
  La  La3  1  0.251430  0.251430  0.749761  1
  La  La4  1  0.251430  0.749761  0.251430  1
  La  La5  1  0.250926  0.748934  0.748934  1
  La  La6  1  0.749761  0.251430  0.251430  1
  Th  Th7  1  0.251230  0.251230  0.251230  1
  Zn  Zn8  1  0.998395  0.998395  0.998395  1
  Pd  Pd9  1  0.260909  0.498387  0.003809  1
  Pd  Pd10  1  0.739150  0.499418  0.999846  1
  Pd  Pd11  1  0.003809  0.260909  0.498387  1
  Pd  Pd12  1  0.498387  0.260909  0.003809  1
  Pd  Pd13  1  0.999846  0.739150  0.499418  1
  Pd  Pd14  1  0.499418  0.739150  0.999846  1
  Pd  Pd15  1  0.498387  0.003809  0.260909  1
  Pd  Pd16  1  0.260909  0.003809  0.498387  1
  Pd  Pd17  1  0.499418  0.999846  0.739150  1
  Pd  Pd18  1  0.739150  0.999846  0.499418  1
  Pd  Pd19  1  0.003809  0.498387  0.260909  1
  Pd  Pd20  1  0.999846  0.499418  0.739150  1
  Pd  Pd21  1  0.253596  0.497807  0.497807  1
  Pd  Pd22  1  0.746709  0.499736  0.499736  1
  Pd  Pd23  1  0.497807  0.253596  0.497807  1
  Pd  Pd24  1  0.499736  0.746709  0.499736  1
  Pd  Pd25  1  0.497807  0.497807  0.253596  1
  Pd  Pd26  1  0.499736  0.499736  0.746709  1
  Pd  Pd27  1  0.294098  0.002273  0.002273  1
  Pd  Pd28  1  0.703353  0.999740  0.999740  1
  Pd  Pd29  1  0.002273  0.294098  0.002273  1
  Pd  Pd30  1  0.999740  0.703353  0.999740  1
  Pd  Pd31  1  0.002273  0.002273  0.294098  1
  Pd  Pd32  1  0.999740  0.999740  0.703353  1
