# generated using pymatgen
data_Nd3Mn4P6Rh5
_symmetry_space_group_name_H-M   'P 1'
_cell_length_a   3.89212700
_cell_length_b   11.12840700
_cell_length_c   12.93128100
_cell_angle_alpha   90.00000000
_cell_angle_beta   90.00000000
_cell_angle_gamma   90.00000000
_symmetry_Int_Tables_number   1
_chemical_formula_structural   Nd3Mn4P6Rh5
_chemical_formula_sum   'Nd6 Mn8 P12 Rh10'
_cell_volume   560.09481561
_cell_formula_units_Z   2
loop_
 _symmetry_equiv_pos_site_id
 _symmetry_equiv_pos_as_xyz
  1  'x, y, z'
loop_
 _atom_site_type_symbol
 _atom_site_label
 _atom_site_symmetry_multiplicity
 _atom_site_fract_x
 _atom_site_fract_y
 _atom_site_fract_z
 _atom_site_occupancy
  Nd  Nd0  1  0.000000  0.500000  0.523885  1
  Nd  Nd1  1  0.500000  0.000000  0.478846  1
  Nd  Nd2  1  0.500000  0.823728  0.197567  1
  Nd  Nd3  1  0.500000  0.176272  0.197567  1
  Nd  Nd4  1  0.000000  0.677306  0.799902  1
  Nd  Nd5  1  0.000000  0.322694  0.799902  1
  Mn  Mn6  1  0.000000  0.500000  0.996215  1
  Mn  Mn7  1  0.500000  0.000000  0.003578  1
  Mn  Mn8  1  0.000000  0.617433  0.290549  1
  Mn  Mn9  1  0.000000  0.382567  0.290549  1
  Mn  Mn10  1  0.500000  0.332371  0.998734  1
  Mn  Mn11  1  0.500000  0.667629  0.998734  1
  Mn  Mn12  1  0.000000  0.170027  0.001301  1
  Mn  Mn13  1  0.000000  0.829973  0.001301  1
  P  P14  1  0.500000  0.310869  0.618084  1
  P  P15  1  0.500000  0.689131  0.618084  1
  P  P16  1  0.000000  0.191310  0.378184  1
  P  P17  1  0.000000  0.808690  0.378184  1
  P  P18  1  0.500000  0.500000  0.893715  1
  P  P19  1  0.000000  0.000000  0.103214  1
  P  P20  1  0.500000  0.842400  0.899904  1
  P  P21  1  0.500000  0.157600  0.899904  1
  P  P22  1  0.000000  0.657047  0.103100  1
  P  P23  1  0.000000  0.342953  0.103100  1
  P  P24  1  0.500000  0.500000  0.344581  1
  P  P25  1  0.000000  0.000000  0.658247  1
  Rh  Rh26  1  0.500000  0.297523  0.427464  1
  Rh  Rh27  1  0.500000  0.702477  0.427464  1
  Rh  Rh28  1  0.000000  0.205778  0.570022  1
  Rh  Rh29  1  0.000000  0.794222  0.570022  1
  Rh  Rh30  1  0.500000  0.875199  0.713777  1
  Rh  Rh31  1  0.500000  0.124801  0.713777  1
  Rh  Rh32  1  0.500000  0.500000  0.159387  1
  Rh  Rh33  1  0.000000  0.000000  0.842917  1
  Rh  Rh34  1  0.500000  0.500000  0.702392  1
  Rh  Rh35  1  0.000000  0.000000  0.295844  1
