# generated using pymatgen
data_Tb5Re2BC6
_symmetry_space_group_name_H-M   'P 1'
_cell_length_a   8.37961280
_cell_length_b   8.37961250
_cell_length_c   3.44273900
_cell_angle_alpha   90.00000000
_cell_angle_beta   90.00000000
_cell_angle_gamma   122.77768151
_symmetry_Int_Tables_number   1
_chemical_formula_structural   Tb5Re2BC6
_chemical_formula_sum   'Tb5 Re2 B1 C6'
_cell_volume   203.25118885
_cell_formula_units_Z   1
loop_
 _symmetry_equiv_pos_site_id
 _symmetry_equiv_pos_as_xyz
  1  'x, y, z'
loop_
 _atom_site_type_symbol
 _atom_site_label
 _atom_site_symmetry_multiplicity
 _atom_site_fract_x
 _atom_site_fract_y
 _atom_site_fract_z
 _atom_site_occupancy
  Tb  Tb0  1  0.500000  0.500000  0.000000  1
  Tb  Tb1  1  0.076143  0.328746  0.500000  1
  Tb  Tb2  1  0.923857  0.671254  0.500000  1
  Tb  Tb3  1  0.671254  0.923857  0.500000  1
  Tb  Tb4  1  0.328746  0.076143  0.500000  1
  Re  Re5  1  0.714024  0.285976  0.000000  1
  Re  Re6  1  0.285976  0.714024  0.000000  1
  B  B7  1  0.000000  0.000000  0.000000  1
  C  C8  1  0.629372  0.370628  0.500000  1
  C  C9  1  0.370628  0.629372  0.500000  1
  C  C10  1  0.182473  0.182473  0.000000  1
  C  C11  1  0.817527  0.817527  0.000000  1
  C  C12  1  0.000000  0.500000  0.000000  1
  C  C13  1  0.500000  0.000000  0.000000  1
