# generated using pymatgen
data_HoPa(BeGe)2
_symmetry_space_group_name_H-M   'P 1'
_cell_length_a   3.89637100
_cell_length_b   3.89637052
_cell_length_c   8.07992800
_cell_angle_alpha   90.00000000
_cell_angle_beta   90.00000000
_cell_angle_gamma   119.99999561
_symmetry_Int_Tables_number   1
_chemical_formula_structural   HoPa(BeGe)2
_chemical_formula_sum   'Ho1 Pa1 Be2 Ge2'
_cell_volume   106.23281569
_cell_formula_units_Z   1
loop_
 _symmetry_equiv_pos_site_id
 _symmetry_equiv_pos_as_xyz
  1  'x, y, z'
loop_
 _atom_site_type_symbol
 _atom_site_label
 _atom_site_symmetry_multiplicity
 _atom_site_fract_x
 _atom_site_fract_y
 _atom_site_fract_z
 _atom_site_occupancy
  Ho  Ho0  1  0.000000  0.000000  0.500000  1
  Pa  Pa1  1  0.000000  0.000000  0.000000  1
  Be  Be2  1  0.666666  0.333332  0.242329  1
  Be  Be3  1  0.333334  0.666667  0.757671  1
  Ge  Ge4  1  0.333334  0.666667  0.255134  1
  Ge  Ge5  1  0.666666  0.333332  0.744866  1
