# generated using pymatgen
data_AcAl9FeCo
_symmetry_space_group_name_H-M   'P 1'
_cell_length_a   7.89551100
_cell_length_b   7.89551066
_cell_length_c   3.94171600
_cell_angle_alpha   90.00000000
_cell_angle_beta   90.00000000
_cell_angle_gamma   119.99999723
_symmetry_Int_Tables_number   1
_chemical_formula_structural   AcAl9FeCo
_chemical_formula_sum   'Ac1 Al9 Fe1 Co1'
_cell_volume   212.80236063
_cell_formula_units_Z   1
loop_
 _symmetry_equiv_pos_site_id
 _symmetry_equiv_pos_as_xyz
  1  'x, y, z'
loop_
 _atom_site_type_symbol
 _atom_site_label
 _atom_site_symmetry_multiplicity
 _atom_site_fract_x
 _atom_site_fract_y
 _atom_site_fract_z
 _atom_site_occupancy
  Ac  Ac0  1  0.000000  0.000000  0.000000  1
  Al  Al1  1  0.784966  0.569931  0.500000  1
  Al  Al2  1  0.213574  0.786426  0.500000  1
  Al  Al3  1  0.572851  0.786426  0.500000  1
  Al  Al4  1  0.500100  0.000199  0.000000  1
  Al  Al5  1  0.500100  0.499900  0.000000  1
  Al  Al6  1  0.999801  0.499900  0.000000  1
  Al  Al7  1  0.213574  0.427149  0.500000  1
  Al  Al8  1  0.784966  0.215034  0.500000  1
  Al  Al9  1  0.430069  0.215034  0.500000  1
  Fe  Fe10  1  0.666667  0.333333  0.000000  1
  Co  Co11  1  0.333333  0.666667  0.000000  1
