# generated using pymatgen
data_Nd3U2PbS10
_symmetry_space_group_name_H-M   'P 1'
_cell_length_a   7.59007000
_cell_length_b   8.15062336
_cell_length_c   12.02040800
_cell_angle_alpha   90.00000000
_cell_angle_beta   90.00000000
_cell_angle_gamma   90.49595990
_symmetry_Int_Tables_number   1
_chemical_formula_structural   Nd3U2PbS10
_chemical_formula_sum   'Nd6 U4 Pb2 S20'
_cell_volume   743.60027888
_cell_formula_units_Z   2
loop_
 _symmetry_equiv_pos_site_id
 _symmetry_equiv_pos_as_xyz
  1  'x, y, z'
loop_
 _atom_site_type_symbol
 _atom_site_label
 _atom_site_symmetry_multiplicity
 _atom_site_fract_x
 _atom_site_fract_y
 _atom_site_fract_z
 _atom_site_occupancy
  Nd  Nd0  1  0.474221  0.999365  0.679506  1
  Nd  Nd1  1  0.025779  0.500635  0.179506  1
  Nd  Nd2  1  0.468637  0.500348  0.673999  1
  Nd  Nd3  1  0.031363  0.999652  0.173999  1
  Nd  Nd4  1  0.527688  0.998728  0.324418  1
  Nd  Nd5  1  0.972312  0.501272  0.824418  1
  U  U6  1  0.064141  0.754482  0.491412  1
  U  U7  1  0.435859  0.745518  0.991412  1
  U  U8  1  0.931149  0.250782  0.506945  1
  U  U9  1  0.568851  0.249218  0.006945  1
  Pb  Pb10  1  0.522307  0.499761  0.324571  1
  Pb  Pb11  1  0.977693  0.000239  0.824571  1
  S  S12  1  0.834731  0.958403  0.587427  1
  S  S13  1  0.665269  0.541597  0.087427  1
  S  S14  1  0.155137  0.465326  0.408262  1
  S  S15  1  0.344863  0.034674  0.908262  1
  S  S16  1  0.164453  0.041870  0.406992  1
  S  S17  1  0.335547  0.458130  0.906992  1
  S  S18  1  0.837493  0.541570  0.593154  1
  S  S19  1  0.662507  0.958430  0.093154  1
  S  S20  1  0.844962  0.758218  0.311825  1
  S  S21  1  0.655038  0.741782  0.811825  1
  S  S22  1  0.165723  0.257378  0.683317  1
  S  S23  1  0.334277  0.242622  0.183317  1
  S  S24  1  0.445727  0.759222  0.502492  1
  S  S25  1  0.054273  0.740778  0.002492  1
  S  S26  1  0.553587  0.242163  0.506533  1
  S  S27  1  0.946413  0.257837  0.006533  1
  S  S28  1  0.189943  0.745875  0.709929  1
  S  S29  1  0.310057  0.754125  0.209929  1
  S  S30  1  0.817185  0.239410  0.289219  1
  S  S31  1  0.682815  0.260590  0.789219  1
