# generated using pymatgen
data_La8IrPdRh4
_symmetry_space_group_name_H-M   'P 1'
_cell_length_a   7.85251602
_cell_length_b   7.84872313
_cell_length_c   7.85111161
_cell_angle_alpha   109.19036311
_cell_angle_beta   109.96476961
_cell_angle_gamma   109.25859679
_symmetry_Int_Tables_number   1
_chemical_formula_structural   La8IrPdRh4
_chemical_formula_sum   'La8 Ir1 Pd1 Rh4'
_cell_volume   372.47614266
_cell_formula_units_Z   1
loop_
 _symmetry_equiv_pos_site_id
 _symmetry_equiv_pos_as_xyz
  1  'x, y, z'
loop_
 _atom_site_type_symbol
 _atom_site_label
 _atom_site_symmetry_multiplicity
 _atom_site_fract_x
 _atom_site_fract_y
 _atom_site_fract_z
 _atom_site_occupancy
  La  La0  1  0.114508  0.504731  0.996374  1
  La  La1  1  0.497352  0.998222  0.606624  1
  La  La2  1  0.392552  0.389871  0.391111  1
  La  La3  1  0.000791  0.108899  0.501555  1
  La  La4  1  0.889889  0.881541  0.885950  1
  La  La5  1  0.004226  0.618860  0.507659  1
  La  La6  1  0.609665  0.502267  0.000172  1
  La  La7  1  0.491107  0.995841  0.110533  1
  Ir  Ir8  1  0.123681  0.873124  0.248200  1
  Pd  Pd9  1  0.874861  0.249952  0.125144  1
  Rh  Rh10  1  0.374834  0.626761  0.750560  1
  Rh  Rh11  1  0.249813  0.124635  0.876448  1
  Rh  Rh12  1  0.752014  0.375724  0.624829  1
  Rh  Rh13  1  0.624707  0.749572  0.374839  1
