# generated using pymatgen
data_Ta4ReSiB2
_symmetry_space_group_name_H-M   'P 1'
_cell_length_a   7.25192363
_cell_length_b   7.25192418
_cell_length_c   7.25192404
_cell_angle_alpha   129.86321628
_cell_angle_beta   129.86321873
_cell_angle_gamma   73.62552133
_symmetry_Int_Tables_number   1
_chemical_formula_structural   Ta4ReSiB2
_chemical_formula_sum   'Ta8 Re2 Si2 B4'
_cell_volume   219.25557922
_cell_formula_units_Z   2
loop_
 _symmetry_equiv_pos_site_id
 _symmetry_equiv_pos_as_xyz
  1  'x, y, z'
loop_
 _atom_site_type_symbol
 _atom_site_label
 _atom_site_symmetry_multiplicity
 _atom_site_fract_x
 _atom_site_fract_y
 _atom_site_fract_z
 _atom_site_occupancy
  Ta  Ta0  1  0.527077  0.692622  0.500000  1
  Ta  Ta1  1  0.027077  0.527077  0.834455  1
  Ta  Ta2  1  0.692622  0.192622  0.165545  1
  Ta  Ta3  1  0.972923  0.472923  0.165545  1
  Ta  Ta4  1  0.192622  0.027077  0.500000  1
  Ta  Ta5  1  0.472923  0.307378  0.500000  1
  Ta  Ta6  1  0.807378  0.972923  0.500000  1
  Ta  Ta7  1  0.307378  0.807378  0.834455  1
  Re  Re8  1  0.000000  0.000000  0.000000  1
  Re  Re9  1  0.500000  0.500000  0.000000  1
  Si  Si10  1  0.250000  0.250000  0.000000  1
  Si  Si11  1  0.750000  0.750000  0.000000  1
  B  B12  1  0.620795  0.120795  0.741589  1
  B  B13  1  0.120795  0.379205  0.500000  1
  B  B14  1  0.879205  0.620795  0.500000  1
  B  B15  1  0.379205  0.879205  0.258411  1
