# generated using pymatgen
data_Nd2Y4ZrCo17P12
_symmetry_space_group_name_H-M   'P 1'
_cell_length_a   3.72946800
_cell_length_b   10.63542500
_cell_length_c   12.36185400
_cell_angle_alpha   90.00000000
_cell_angle_beta   90.00000000
_cell_angle_gamma   90.00000000
_symmetry_Int_Tables_number   1
_chemical_formula_structural   Nd2Y4ZrCo17P12
_chemical_formula_sum   'Nd2 Y4 Zr1 Co17 P12'
_cell_volume   490.32647618
_cell_formula_units_Z   1
loop_
 _symmetry_equiv_pos_site_id
 _symmetry_equiv_pos_as_xyz
  1  'x, y, z'
loop_
 _atom_site_type_symbol
 _atom_site_label
 _atom_site_symmetry_multiplicity
 _atom_site_fract_x
 _atom_site_fract_y
 _atom_site_fract_z
 _atom_site_occupancy
  Nd  Nd0  1  0.000000  0.500000  0.530033  1
  Nd  Nd1  1  0.500000  0.000000  0.477222  1
  Y  Y2  1  0.500000  0.820739  0.206196  1
  Y  Y3  1  0.500000  0.179261  0.206196  1
  Y  Y4  1  0.000000  0.683681  0.796716  1
  Y  Y5  1  0.000000  0.316319  0.796716  1
  Zr  Zr6  1  0.500000  0.500000  0.152022  1
  Co  Co7  1  0.000000  0.000000  0.839022  1
  Co  Co8  1  0.500000  0.500000  0.705878  1
  Co  Co9  1  0.000000  0.000000  0.293030  1
  Co  Co10  1  0.000000  0.500000  0.983092  1
  Co  Co11  1  0.500000  0.000000  0.013009  1
  Co  Co12  1  0.500000  0.326703  0.988226  1
  Co  Co13  1  0.500000  0.673297  0.988226  1
  Co  Co14  1  0.000000  0.161536  0.001558  1
  Co  Co15  1  0.000000  0.838464  0.001558  1
  Co  Co16  1  0.500000  0.294222  0.433458  1
  Co  Co17  1  0.500000  0.705778  0.433458  1
  Co  Co18  1  0.000000  0.202484  0.571664  1
  Co  Co19  1  0.000000  0.797516  0.571664  1
  Co  Co20  1  0.500000  0.881070  0.710193  1
  Co  Co21  1  0.500000  0.118930  0.710193  1
  Co  Co22  1  0.000000  0.622107  0.295496  1
  Co  Co23  1  0.000000  0.377893  0.295496  1
  P  P24  1  0.500000  0.500000  0.882391  1
  P  P25  1  0.000000  0.000000  0.115347  1
  P  P26  1  0.500000  0.500000  0.358126  1
  P  P27  1  0.000000  0.000000  0.658834  1
  P  P28  1  0.500000  0.305483  0.619085  1
  P  P29  1  0.500000  0.694517  0.619085  1
  P  P30  1  0.000000  0.191657  0.385466  1
  P  P31  1  0.000000  0.808343  0.385466  1
  P  P32  1  0.500000  0.852378  0.889550  1
  P  P33  1  0.500000  0.147622  0.889550  1
  P  P34  1  0.000000  0.664721  0.098389  1
  P  P35  1  0.000000  0.335279  0.098389  1
