# generated using pymatgen
data_Tm3ZnCd3HgAu
_symmetry_space_group_name_H-M   'P 1'
_cell_length_a   3.65852500
_cell_length_b   7.98341061
_cell_length_c   7.98341100
_cell_angle_alpha   120.00000574
_cell_angle_beta   90.00000000
_cell_angle_gamma   90.00000000
_symmetry_Int_Tables_number   1
_chemical_formula_structural   Tm3ZnCd3HgAu
_chemical_formula_sum   'Tm3 Zn1 Cd3 Hg1 Au1'
_cell_volume   201.93592532
_cell_formula_units_Z   1
loop_
 _symmetry_equiv_pos_site_id
 _symmetry_equiv_pos_as_xyz
  1  'x, y, z'
loop_
 _atom_site_type_symbol
 _atom_site_label
 _atom_site_symmetry_multiplicity
 _atom_site_fract_x
 _atom_site_fract_y
 _atom_site_fract_z
 _atom_site_occupancy
  Tm  Tm0  1  0.000000  0.388830  0.404870  1
  Tm  Tm1  1  0.000000  0.016041  0.611170  1
  Tm  Tm2  1  0.000000  0.595130  0.983959  1
  Zn  Zn3  1  0.000000  0.000000  0.000000  1
  Cd  Cd4  1  0.500000  0.739377  0.735779  1
  Cd  Cd5  1  0.500000  0.996402  0.260623  1
  Cd  Cd6  1  0.500000  0.264221  0.003598  1
  Hg  Hg7  1  0.500000  0.666667  0.333333  1
  Au  Au8  1  0.500000  0.333333  0.666667  1
