# generated using pymatgen
data_Be4CrRe
_symmetry_space_group_name_H-M   'P 1'
_cell_length_a   4.28474400
_cell_length_b   4.28474300
_cell_length_c   7.03061900
_cell_angle_alpha   90.00000000
_cell_angle_beta   90.00000000
_cell_angle_gamma   120.00000771
_symmetry_Int_Tables_number   1
_chemical_formula_structural   Be4CrRe
_chemical_formula_sum   'Be8 Cr2 Re2'
_cell_volume   111.78250014
_cell_formula_units_Z   2
loop_
 _symmetry_equiv_pos_site_id
 _symmetry_equiv_pos_as_xyz
  1  'x, y, z'
loop_
 _atom_site_type_symbol
 _atom_site_label
 _atom_site_symmetry_multiplicity
 _atom_site_fract_x
 _atom_site_fract_y
 _atom_site_fract_z
 _atom_site_occupancy
  Be  Be0  1  0.000000  0.000000  0.999240  1
  Be  Be1  1  0.000000  0.000000  0.499240  1
  Be  Be2  1  0.830173  0.660345  0.250107  1
  Be  Be3  1  0.169827  0.830173  0.750107  1
  Be  Be4  1  0.660345  0.830173  0.750107  1
  Be  Be5  1  0.339655  0.169827  0.250107  1
  Be  Be6  1  0.830173  0.169827  0.250107  1
  Be  Be7  1  0.169827  0.339655  0.750107  1
  Cr  Cr8  1  0.333333  0.666667  0.062010  1
  Cr  Cr9  1  0.666667  0.333333  0.562010  1
  Re  Re10  1  0.666667  0.333333  0.938429  1
  Re  Re11  1  0.333333  0.666667  0.438429  1
