# generated using pymatgen
data_HfGaIr3S8
_symmetry_space_group_name_H-M   'P 1'
_cell_length_a   6.95341921
_cell_length_b   6.95341840
_cell_length_c   6.95341866
_cell_angle_alpha   62.61343008
_cell_angle_beta   62.61343439
_cell_angle_gamma   62.61342626
_symmetry_Int_Tables_number   1
_chemical_formula_structural   HfGaIr3S8
_chemical_formula_sum   'Hf1 Ga1 Ir3 S8'
_cell_volume   251.56159837
_cell_formula_units_Z   1
loop_
 _symmetry_equiv_pos_site_id
 _symmetry_equiv_pos_as_xyz
  1  'x, y, z'
loop_
 _atom_site_type_symbol
 _atom_site_label
 _atom_site_symmetry_multiplicity
 _atom_site_fract_x
 _atom_site_fract_y
 _atom_site_fract_z
 _atom_site_occupancy
  Hf  Hf0  1  0.596750  0.596750  0.596750  1
  Ga  Ga1  1  0.011646  0.011646  0.011646  1
  Ir  Ir2  1  0.625871  0.625871  0.137824  1
  Ir  Ir3  1  0.625871  0.137824  0.625871  1
  Ir  Ir4  1  0.137824  0.625871  0.625871  1
  S  S5  1  0.359468  0.359468  0.876926  1
  S  S6  1  0.359468  0.876926  0.359468  1
  S  S7  1  0.876926  0.359468  0.359468  1
  S  S8  1  0.390674  0.390674  0.390674  1
  S  S9  1  0.865554  0.865554  0.416650  1
  S  S10  1  0.865554  0.416650  0.865554  1
  S  S11  1  0.416650  0.865554  0.865554  1
  S  S12  1  0.867740  0.867740  0.867740  1
