# generated using pymatgen
data_Er9Tm3(ReSi2)8
_symmetry_space_group_name_H-M   'P 1'
_cell_length_a   10.52496012
_cell_length_b   10.52438686
_cell_length_c   14.24948340
_cell_angle_alpha   55.13087255
_cell_angle_beta   55.13626967
_cell_angle_gamma   30.56416360
_symmetry_Int_Tables_number   1
_chemical_formula_structural   Er9Tm3(ReSi2)8
_chemical_formula_sum   'Er9 Tm3 Re8 Si16'
_cell_volume   646.49571826
_cell_formula_units_Z   1
loop_
 _symmetry_equiv_pos_site_id
 _symmetry_equiv_pos_as_xyz
  1  'x, y, z'
loop_
 _atom_site_type_symbol
 _atom_site_label
 _atom_site_symmetry_multiplicity
 _atom_site_fract_x
 _atom_site_fract_y
 _atom_site_fract_z
 _atom_site_occupancy
  Er  Er0  1  0.753065  0.484074  0.048745  1
  Er  Er1  1  0.537081  0.306447  0.154070  1
  Er  Er2  1  0.516038  0.247068  0.451255  1
  Er  Er3  1  0.462866  0.693532  0.845939  1
  Er  Er4  1  0.292942  0.039760  0.138507  1
  Er  Er5  1  0.960098  0.707059  0.361650  1
  Er  Er6  1  0.707074  0.960268  0.861519  1
  Er  Er7  1  0.039888  0.292844  0.638333  1
  Er  Er8  1  0.246944  0.515930  0.951238  1
  Tm  Tm9  1  0.484097  0.753041  0.548569  1
  Tm  Tm10  1  0.306386  0.537116  0.653878  1
  Tm  Tm11  1  0.693759  0.462891  0.346156  1
  Re  Re12  1  0.641818  0.829749  0.281565  1
  Re  Re13  1  0.830008  0.641904  0.781329  1
  Re  Re14  1  0.358043  0.170213  0.718548  1
  Re  Re15  1  0.169993  0.357963  0.218763  1
  Re  Re16  1  0.137911  0.911649  0.077775  1
  Re  Re17  1  0.088486  0.862141  0.422261  1
  Re  Re18  1  0.862118  0.088367  0.922131  1
  Re  Re19  1  0.911695  0.137775  0.577700  1
  Si  Si20  1  0.903373  0.096644  0.250088  1
  Si  Si21  1  0.097219  0.903055  0.749674  1
  Si  Si22  1  0.344348  0.655733  0.250097  1
  Si  Si23  1  0.655453  0.344640  0.749724  1
  Si  Si24  1  0.000103  0.228841  0.877459  1
  Si  Si25  1  0.771127  0.999896  0.622627  1
  Si  Si26  1  0.999897  0.771119  0.122545  1
  Si  Si27  1  0.229046  0.999899  0.377606  1
  Si  Si28  1  0.607251  0.046227  0.075217  1
  Si  Si29  1  0.952834  0.393400  0.424949  1
  Si  Si30  1  0.392774  0.953764  0.924813  1
  Si  Si31  1  0.046472  0.607237  0.575174  1
  Si  Si32  1  0.383616  0.160231  0.380764  1
  Si  Si33  1  0.839176  0.616201  0.119800  1
  Si  Si34  1  0.616180  0.839496  0.619321  1
  Si  Si35  1  0.160820  0.383825  0.880211  1
