# generated using pymatgen
data_YTm2Ag(Ir2O7)2
_symmetry_space_group_name_H-M   'P 1'
_cell_length_a   7.29793595
_cell_length_b   7.29793749
_cell_length_c   7.13086209
_cell_angle_alpha   59.48464941
_cell_angle_beta   59.48465156
_cell_angle_gamma   60.14152218
_symmetry_Int_Tables_number   1
_chemical_formula_structural   YTm2Ag(Ir2O7)2
_chemical_formula_sum   'Y1 Tm2 Ag1 Ir4 O14'
_cell_volume   266.71960324
_cell_formula_units_Z   1
loop_
 _symmetry_equiv_pos_site_id
 _symmetry_equiv_pos_as_xyz
  1  'x, y, z'
loop_
 _atom_site_type_symbol
 _atom_site_label
 _atom_site_symmetry_multiplicity
 _atom_site_fract_x
 _atom_site_fract_y
 _atom_site_fract_z
 _atom_site_occupancy
  Y  Y0  1  0.125000  0.125000  0.125000  1
  Tm  Tm1  1  0.625000  0.125000  0.125000  1
  Tm  Tm2  1  0.125000  0.625000  0.125000  1
  Ag  Ag3  1  0.125000  0.125000  0.625000  1
  Ir  Ir4  1  0.125000  0.625000  0.625000  1
  Ir  Ir5  1  0.625000  0.125000  0.625000  1
  Ir  Ir6  1  0.625000  0.625000  0.125000  1
  Ir  Ir7  1  0.625000  0.625000  0.625000  1
  O  O8  1  0.712186  0.712186  0.285519  1
  O  O9  1  0.298164  0.298164  0.709163  1
  O  O10  1  0.690237  0.298265  0.714947  1
  O  O11  1  0.290350  0.708633  0.283981  1
  O  O12  1  0.298265  0.690237  0.714947  1
  O  O13  1  0.708633  0.290350  0.283981  1
  O  O14  1  0.537814  0.537814  0.964481  1
  O  O15  1  0.951836  0.951836  0.540837  1
  O  O16  1  0.559763  0.951735  0.535053  1
  O  O17  1  0.959650  0.541367  0.966019  1
  O  O18  1  0.951735  0.559763  0.535053  1
  O  O19  1  0.541367  0.959650  0.966019  1
  O  O20  1  0.255433  0.255433  0.241038  1
  O  O21  1  0.994567  0.994567  0.008962  1
