# generated using pymatgen
data_Tm2(PaFe)3
_symmetry_space_group_name_H-M   'P 1'
_cell_length_a   6.54857500
_cell_length_b   7.64286590
_cell_length_c   7.64286700
_cell_angle_alpha   120.00000043
_cell_angle_beta   90.00000000
_cell_angle_gamma   90.00000000
_symmetry_Int_Tables_number   1
_chemical_formula_structural   Tm2(PaFe)3
_chemical_formula_sum   'Tm4 Pa6 Fe6'
_cell_volume   331.27600292
_cell_formula_units_Z   2
loop_
 _symmetry_equiv_pos_site_id
 _symmetry_equiv_pos_as_xyz
  1  'x, y, z'
loop_
 _atom_site_type_symbol
 _atom_site_label
 _atom_site_symmetry_multiplicity
 _atom_site_fract_x
 _atom_site_fract_y
 _atom_site_fract_z
 _atom_site_occupancy
  Tm  Tm0  1  0.000000  0.666667  0.333333  1
  Tm  Tm1  1  0.000000  0.333333  0.666667  1
  Tm  Tm2  1  0.500000  0.333333  0.666667  1
  Tm  Tm3  1  0.500000  0.666667  0.333333  1
  Pa  Pa4  1  0.750000  0.760257  0.760257  1
  Pa  Pa5  1  0.250000  0.239743  0.239743  1
  Pa  Pa6  1  0.750000  0.000000  0.239743  1
  Pa  Pa7  1  0.250000  0.000000  0.760257  1
  Pa  Pa8  1  0.750000  0.239743  0.000000  1
  Pa  Pa9  1  0.250000  0.760257  0.000000  1
  Fe  Fe10  1  0.750000  0.348319  0.348319  1
  Fe  Fe11  1  0.250000  0.651681  0.651681  1
  Fe  Fe12  1  0.750000  0.000000  0.651681  1
  Fe  Fe13  1  0.250000  0.000000  0.348319  1
  Fe  Fe14  1  0.750000  0.651681  0.000000  1
  Fe  Fe15  1  0.250000  0.348319  0.000000  1
