# generated using pymatgen
data_Tb9DySe10
_symmetry_space_group_name_H-M   'P 1'
_cell_length_a   7.06534953
_cell_length_b   8.12327000
_cell_length_c   9.22758769
_cell_angle_alpha   103.24625228
_cell_angle_beta   96.86193632
_cell_angle_gamma   106.67753320
_symmetry_Int_Tables_number   1
_chemical_formula_structural   Tb9DySe10
_chemical_formula_sum   'Tb9 Dy1 Se10'
_cell_volume   483.98778561
_cell_formula_units_Z   1
loop_
 _symmetry_equiv_pos_site_id
 _symmetry_equiv_pos_as_xyz
  1  'x, y, z'
loop_
 _atom_site_type_symbol
 _atom_site_label
 _atom_site_symmetry_multiplicity
 _atom_site_fract_x
 _atom_site_fract_y
 _atom_site_fract_z
 _atom_site_occupancy
  Tb  Tb0  1  0.799510  0.599840  0.599006  1
  Tb  Tb1  1  0.597987  0.198698  0.199834  1
  Tb  Tb2  1  0.402013  0.801302  0.800166  1
  Tb  Tb3  1  0.600193  0.701477  0.201020  1
  Tb  Tb4  1  0.200490  0.400160  0.400994  1
  Tb  Tb5  1  0.399807  0.298523  0.798980  1
  Tb  Tb6  1  0.000000  0.000000  0.000000  1
  Tb  Tb7  1  0.201658  0.900982  0.400826  1
  Tb  Tb8  1  0.798342  0.099018  0.599174  1
  Dy  Dy9  1  0.000000  0.500000  0.000000  1
  Se  Se10  1  0.700617  0.648931  0.900193  1
  Se  Se11  1  0.500427  0.250537  0.499877  1
  Se  Se12  1  0.701691  0.151614  0.900630  1
  Se  Se13  1  0.298309  0.848386  0.099370  1
  Se  Se14  1  0.499573  0.749463  0.500123  1
  Se  Se15  1  0.099605  0.450538  0.701235  1
  Se  Se16  1  0.299383  0.351069  0.099807  1
  Se  Se17  1  0.900722  0.050449  0.299989  1
  Se  Se18  1  0.099278  0.949551  0.700011  1
  Se  Se19  1  0.900395  0.549462  0.298765  1
