# generated using pymatgen
data_TlZnAg2(NO3)8
_symmetry_space_group_name_H-M   'P 1'
_cell_length_a   7.99084322
_cell_length_b   7.69077145
_cell_length_c   8.17385906
_cell_angle_alpha   89.19682958
_cell_angle_beta   87.77550047
_cell_angle_gamma   88.15658005
_symmetry_Int_Tables_number   1
_chemical_formula_structural   TlZnAg2(NO3)8
_chemical_formula_sum   'Tl1 Zn1 Ag2 N8 O24'
_cell_volume   501.65129859
_cell_formula_units_Z   1
loop_
 _symmetry_equiv_pos_site_id
 _symmetry_equiv_pos_as_xyz
  1  'x, y, z'
loop_
 _atom_site_type_symbol
 _atom_site_label
 _atom_site_symmetry_multiplicity
 _atom_site_fract_x
 _atom_site_fract_y
 _atom_site_fract_z
 _atom_site_occupancy
  Tl  Tl0  1  0.500000  0.500000  0.500000  1
  Zn  Zn1  1  0.000000  0.000000  0.500000  1
  Ag  Ag2  1  0.500000  0.000000  0.000000  1
  Ag  Ag3  1  0.000000  0.500000  0.000000  1
  N  N4  1  0.694691  0.159391  0.337571  1
  N  N5  1  0.654788  0.325420  0.826919  1
  N  N6  1  0.845860  0.831470  0.819477  1
  N  N7  1  0.824681  0.682301  0.351943  1
  N  N8  1  0.154140  0.168530  0.180523  1
  N  N9  1  0.175319  0.317699  0.648057  1
  N  N10  1  0.345212  0.674580  0.173081  1
  N  N11  1  0.305309  0.840609  0.662429  1
  O  O12  1  0.537512  0.222036  0.806181  1
  O  O13  1  0.572541  0.271863  0.320451  1
  O  O14  1  0.677133  0.450917  0.722052  1
  O  O15  1  0.712740  0.040976  0.237066  1
  O  O16  1  0.715520  0.702929  0.471856  1
  O  O17  1  0.737128  0.818385  0.934836  1
  O  O18  1  0.749169  0.310956  0.944225  1
  O  O19  1  0.790922  0.175870  0.456405  1
  O  O20  1  0.834497  0.952987  0.713921  1
  O  O21  1  0.805788  0.569596  0.247201  1
  O  O22  1  0.967248  0.721499  0.809889  1
  O  O23  1  0.948873  0.780216  0.346085  1
  O  O24  1  0.051127  0.219784  0.653915  1
  O  O25  1  0.032752  0.278501  0.190111  1
  O  O26  1  0.194212  0.430404  0.752799  1
  O  O27  1  0.165503  0.047013  0.286079  1
  O  O28  1  0.250831  0.689044  0.055775  1
  O  O29  1  0.209078  0.824130  0.543595  1
  O  O30  1  0.262872  0.181615  0.065164  1
  O  O31  1  0.284480  0.297071  0.528144  1
  O  O32  1  0.322867  0.549083  0.277948  1
  O  O33  1  0.287260  0.959024  0.762934  1
  O  O34  1  0.427459  0.728137  0.679549  1
  O  O35  1  0.462488  0.777964  0.193819  1
