# generated using pymatgen
data_Tb3Ag(Rh2O7)2
_symmetry_space_group_name_H-M   'P 1'
_cell_length_a   7.14092359
_cell_length_b   7.14092378
_cell_length_c   7.14092283
_cell_angle_alpha   61.72349463
_cell_angle_beta   61.72349378
_cell_angle_gamma   61.72349990
_symmetry_Int_Tables_number   1
_chemical_formula_structural   Tb3Ag(Rh2O7)2
_chemical_formula_sum   'Tb3 Ag1 Rh4 O14'
_cell_volume   267.42854203
_cell_formula_units_Z   1
loop_
 _symmetry_equiv_pos_site_id
 _symmetry_equiv_pos_as_xyz
  1  'x, y, z'
loop_
 _atom_site_type_symbol
 _atom_site_label
 _atom_site_symmetry_multiplicity
 _atom_site_fract_x
 _atom_site_fract_y
 _atom_site_fract_z
 _atom_site_occupancy
  Tb  Tb0  1  0.625000  0.625000  0.125000  1
  Tb  Tb1  1  0.625000  0.125000  0.625000  1
  Tb  Tb2  1  0.125000  0.625000  0.625000  1
  Ag  Ag3  1  0.625000  0.625000  0.625000  1
  Rh  Rh4  1  0.125000  0.125000  0.125000  1
  Rh  Rh5  1  0.625000  0.125000  0.125000  1
  Rh  Rh6  1  0.125000  0.625000  0.125000  1
  Rh  Rh7  1  0.125000  0.125000  0.625000  1
  O  O8  1  0.053969  0.451902  0.451902  1
  O  O9  1  0.798098  0.798098  0.196031  1
  O  O10  1  0.789636  0.213061  0.213061  1
  O  O11  1  0.451902  0.053969  0.451902  1
  O  O12  1  0.036939  0.460364  0.036939  1
  O  O13  1  0.746701  0.746701  0.746701  1
  O  O14  1  0.036939  0.036939  0.460364  1
  O  O15  1  0.213061  0.789636  0.213061  1
  O  O16  1  0.213061  0.213061  0.789636  1
  O  O17  1  0.503299  0.503299  0.503299  1
  O  O18  1  0.798098  0.196031  0.798098  1
  O  O19  1  0.460364  0.036939  0.036939  1
  O  O20  1  0.451902  0.451902  0.053969  1
  O  O21  1  0.196031  0.798098  0.798098  1
