# generated using pymatgen
data_ScBe8VOs2
_symmetry_space_group_name_H-M   'P 1'
_cell_length_a   4.38472800
_cell_length_b   4.38472814
_cell_length_c   7.23468200
_cell_angle_alpha   90.00000000
_cell_angle_beta   90.00000000
_cell_angle_gamma   119.99999893
_symmetry_Int_Tables_number   1
_chemical_formula_structural   ScBe8VOs2
_chemical_formula_sum   'Sc1 Be8 V1 Os2'
_cell_volume   120.45793458
_cell_formula_units_Z   1
loop_
 _symmetry_equiv_pos_site_id
 _symmetry_equiv_pos_as_xyz
  1  'x, y, z'
loop_
 _atom_site_type_symbol
 _atom_site_label
 _atom_site_symmetry_multiplicity
 _atom_site_fract_x
 _atom_site_fract_y
 _atom_site_fract_z
 _atom_site_occupancy
  Sc  Sc0  1  0.666667  0.333333  0.937230  1
  Be  Be1  1  0.000000  0.000000  0.003776  1
  Be  Be2  1  0.000000  0.000000  0.498783  1
  Be  Be3  1  0.832533  0.665064  0.255388  1
  Be  Be4  1  0.168883  0.831117  0.740773  1
  Be  Be5  1  0.662231  0.831117  0.740773  1
  Be  Be6  1  0.334936  0.167467  0.255388  1
  Be  Be7  1  0.832533  0.167467  0.255388  1
  Be  Be8  1  0.168883  0.337769  0.740773  1
  V  V9  1  0.333333  0.666667  0.433680  1
  Os  Os10  1  0.333333  0.666667  0.082258  1
  Os  Os11  1  0.666667  0.333333  0.555788  1
