# generated using pymatgen
data_Hf2Nb(ReSi)3
_symmetry_space_group_name_H-M   'P 1'
_cell_length_a   6.90928949
_cell_length_b   6.90928870
_cell_length_c   3.38455000
_cell_angle_alpha   90.00000000
_cell_angle_beta   90.00000000
_cell_angle_gamma   119.41352460
_symmetry_Int_Tables_number   1
_chemical_formula_structural   Hf2Nb(ReSi)3
_chemical_formula_sum   'Hf2 Nb1 Re3 Si3'
_cell_volume   140.74553775
_cell_formula_units_Z   1
loop_
 _symmetry_equiv_pos_site_id
 _symmetry_equiv_pos_as_xyz
  1  'x, y, z'
loop_
 _atom_site_type_symbol
 _atom_site_label
 _atom_site_symmetry_multiplicity
 _atom_site_fract_x
 _atom_site_fract_y
 _atom_site_fract_z
 _atom_site_occupancy
  Hf  Hf0  1  0.403569  0.002281  0.500000  1
  Hf  Hf1  1  0.002281  0.403569  0.500000  1
  Nb  Nb2  1  0.596097  0.596097  0.500000  1
  Re  Re3  1  0.743743  0.997661  0.000000  1
  Re  Re4  1  0.997661  0.743743  0.000000  1
  Re  Re5  1  0.254914  0.254914  0.000000  1
  Si  Si6  1  0.337812  0.666332  0.000000  1
  Si  Si7  1  0.666332  0.337812  0.000000  1
  Si  Si8  1  0.997591  0.997591  0.500000  1
