# generated using pymatgen
data_NdGd(PN3)2
_symmetry_space_group_name_H-M   'P 1'
_cell_length_a   7.31437504
_cell_length_b   7.31437487
_cell_length_c   4.87981686
_cell_angle_alpha   88.91843547
_cell_angle_beta   88.91843771
_cell_angle_gamma   102.75833464
_symmetry_Int_Tables_number   1
_chemical_formula_structural   NdGd(PN3)2
_chemical_formula_sum   'Nd2 Gd2 P4 N12'
_cell_volume   254.50835659
_cell_formula_units_Z   2
loop_
 _symmetry_equiv_pos_site_id
 _symmetry_equiv_pos_as_xyz
  1  'x, y, z'
loop_
 _atom_site_type_symbol
 _atom_site_label
 _atom_site_symmetry_multiplicity
 _atom_site_fract_x
 _atom_site_fract_y
 _atom_site_fract_z
 _atom_site_occupancy
  Nd  Nd0  1  0.097455  0.902545  0.250000  1
  Nd  Nd1  1  0.902545  0.097455  0.750000  1
  Gd  Gd2  1  0.295182  0.704818  0.750000  1
  Gd  Gd3  1  0.704818  0.295182  0.250000  1
  P  P4  1  0.376265  0.230847  0.809265  1
  P  P5  1  0.623735  0.769153  0.190735  1
  P  P6  1  0.769153  0.623735  0.690735  1
  P  P7  1  0.230847  0.376265  0.309265  1
  N  N8  1  0.972206  0.754430  0.738360  1
  N  N9  1  0.767486  0.396262  0.773675  1
  N  N10  1  0.754430  0.972206  0.238360  1
  N  N11  1  0.232514  0.603738  0.226325  1
  N  N12  1  0.027794  0.245570  0.261640  1
  N  N13  1  0.245570  0.027794  0.761640  1
  N  N14  1  0.603738  0.232514  0.726325  1
  N  N15  1  0.611173  0.709621  0.863956  1
  N  N16  1  0.388827  0.290379  0.136044  1
  N  N17  1  0.396262  0.767486  0.273675  1
  N  N18  1  0.709621  0.611173  0.363956  1
  N  N19  1  0.290379  0.388827  0.636044  1
