# generated using pymatgen
data_LaSm6MnBr12
_symmetry_space_group_name_H-M   'P 1'
_cell_length_a   9.51658748
_cell_length_b   9.54408468
_cell_length_c   9.23316983
_cell_angle_alpha   106.24829450
_cell_angle_beta   107.21425748
_cell_angle_gamma   106.78765954
_symmetry_Int_Tables_number   1
_chemical_formula_structural   LaSm6MnBr12
_chemical_formula_sum   'La1 Sm6 Mn1 Br12'
_cell_volume   703.08094124
_cell_formula_units_Z   1
loop_
 _symmetry_equiv_pos_site_id
 _symmetry_equiv_pos_as_xyz
  1  'x, y, z'
loop_
 _atom_site_type_symbol
 _atom_site_label
 _atom_site_symmetry_multiplicity
 _atom_site_fract_x
 _atom_site_fract_y
 _atom_site_fract_z
 _atom_site_occupancy
  La  La0  1  0.593163  0.520472  0.788004  1
  Sm  Sm1  1  0.000441  0.003235  0.996541  1
  Sm  Sm2  1  0.520354  0.807463  0.601026  1
  Sm  Sm3  1  0.811463  0.601093  0.524263  1
  Sm  Sm4  1  0.403263  0.477403  0.208702  1
  Sm  Sm5  1  0.479422  0.189852  0.399151  1
  Sm  Sm6  1  0.188670  0.397981  0.481850  1
  Mn  Mn7  1  0.508370  0.500060  0.526611  1
  Br  Br8  1  0.568107  0.168383  0.715375  1
  Br  Br9  1  0.179336  0.717255  0.564423  1
  Br  Br10  1  0.714093  0.566276  0.179912  1
  Br  Br11  1  0.426203  0.809267  0.272638  1
  Br  Br12  1  0.817059  0.280152  0.424976  1
  Br  Br13  1  0.264406  0.424768  0.818370  1
  Br  Br14  1  0.673817  0.898076  0.965925  1
  Br  Br15  1  0.880250  0.958637  0.656353  1
  Br  Br16  1  0.975426  0.680076  0.887323  1
  Br  Br17  1  0.333493  0.124119  0.037611  1
  Br  Br18  1  0.119018  0.040419  0.334716  1
  Br  Br19  1  0.043644  0.335011  0.116229  1
