# generated using pymatgen
data_Tb4Er2Lu6TlCo5
_symmetry_space_group_name_H-M   'P 1'
_cell_length_a   8.21054545
_cell_length_b   8.21054513
_cell_length_c   8.19886981
_cell_angle_alpha   111.07419580
_cell_angle_beta   110.33851989
_cell_angle_gamma   107.08935737
_symmetry_Int_Tables_number   1
_chemical_formula_structural   Tb4Er2Lu6TlCo5
_chemical_formula_sum   'Tb4 Er2 Lu6 Tl1 Co5'
_cell_volume   424.57949839
_cell_formula_units_Z   1
loop_
 _symmetry_equiv_pos_site_id
 _symmetry_equiv_pos_as_xyz
  1  'x, y, z'
loop_
 _atom_site_type_symbol
 _atom_site_label
 _atom_site_symmetry_multiplicity
 _atom_site_fract_x
 _atom_site_fract_y
 _atom_site_fract_z
 _atom_site_occupancy
  Tb  Tb0  1  0.594627  0.789050  0.807398  1
  Tb  Tb1  1  0.405373  0.210950  0.192602  1
  Tb  Tb2  1  0.981654  0.787230  0.192602  1
  Tb  Tb3  1  0.018346  0.212770  0.807398  1
  Er  Er4  1  0.816976  0.709118  0.526095  1
  Er  Er5  1  0.183024  0.290882  0.473905  1
  Lu  Lu6  1  0.183754  0.709196  0.892951  1
  Lu  Lu7  1  0.816246  0.290804  0.107049  1
  Lu  Lu8  1  0.684614  0.377128  0.693966  1
  Lu  Lu9  1  0.315386  0.622872  0.306034  1
  Lu  Lu10  1  0.683162  0.990648  0.306034  1
  Lu  Lu11  1  0.316838  0.009352  0.693966  1
  Tl  Tl12  1  0.500000  0.500000  0.000000  1
  Co  Co13  1  0.621032  0.001136  0.622168  1
  Co  Co14  1  0.378968  0.998864  0.377832  1
  Co  Co15  1  0.113485  0.613485  0.500000  1
  Co  Co16  1  0.886515  0.386515  0.500000  1
  Co  Co17  1  0.000000  0.000000  0.000000  1
