# generated using pymatgen
data_Pr6(GaSn)5
_symmetry_space_group_name_H-M   'P 1'
_cell_length_a   6.49732681
_cell_length_b   6.49732675
_cell_length_c   10.16795500
_cell_angle_alpha   90.00000000
_cell_angle_beta   90.00000000
_cell_angle_gamma   102.54155814
_symmetry_Int_Tables_number   1
_chemical_formula_structural   Pr6(GaSn)5
_chemical_formula_sum   'Pr6 Ga5 Sn5'
_cell_volume   419.00055108
_cell_formula_units_Z   1
loop_
 _symmetry_equiv_pos_site_id
 _symmetry_equiv_pos_as_xyz
  1  'x, y, z'
loop_
 _atom_site_type_symbol
 _atom_site_label
 _atom_site_symmetry_multiplicity
 _atom_site_fract_x
 _atom_site_fract_y
 _atom_site_fract_z
 _atom_site_occupancy
  Pr  Pr0  1  0.648869  0.648869  0.250000  1
  Pr  Pr1  1  0.362332  0.362332  0.750000  1
  Pr  Pr2  1  0.200460  0.799956  0.494907  1
  Pr  Pr3  1  0.200460  0.799956  0.005093  1
  Pr  Pr4  1  0.799956  0.200460  0.494907  1
  Pr  Pr5  1  0.799956  0.200460  0.005093  1
  Ga  Ga6  1  0.031326  0.031326  0.250000  1
  Ga  Ga7  1  0.310552  0.310552  0.048917  1
  Ga  Ga8  1  0.686707  0.686707  0.956002  1
  Ga  Ga9  1  0.310552  0.310552  0.451083  1
  Ga  Ga10  1  0.686707  0.686707  0.543998  1
  Sn  Sn11  1  0.974816  0.974816  0.750000  1
  Sn  Sn12  1  0.483557  0.089398  0.250000  1
  Sn  Sn13  1  0.908682  0.505669  0.750000  1
  Sn  Sn14  1  0.505669  0.908682  0.750000  1
  Sn  Sn15  1  0.089398  0.483557  0.250000  1
