# generated using pymatgen
data_Ac4BeCuGe6
_symmetry_space_group_name_H-M   'P 1'
_cell_length_a   8.42637000
_cell_length_b   8.42637045
_cell_length_c   4.76165800
_cell_angle_alpha   90.00000000
_cell_angle_beta   90.00000000
_cell_angle_gamma   119.99999824
_symmetry_Int_Tables_number   1
_chemical_formula_structural   Ac4BeCuGe6
_chemical_formula_sum   'Ac4 Be1 Cu1 Ge6'
_cell_volume   292.79921771
_cell_formula_units_Z   1
loop_
 _symmetry_equiv_pos_site_id
 _symmetry_equiv_pos_as_xyz
  1  'x, y, z'
loop_
 _atom_site_type_symbol
 _atom_site_label
 _atom_site_symmetry_multiplicity
 _atom_site_fract_x
 _atom_site_fract_y
 _atom_site_fract_z
 _atom_site_occupancy
  Ac  Ac0  1  0.499136  0.500864  0.000000  1
  Ac  Ac1  1  0.001726  0.500864  0.000000  1
  Ac  Ac2  1  0.499136  0.998274  0.000000  1
  Ac  Ac3  1  0.000000  0.000000  0.000000  1
  Be  Be4  1  0.333333  0.666667  0.500000  1
  Cu  Cu5  1  0.666667  0.333333  0.500000  1
  Ge  Ge6  1  0.828434  0.656869  0.500000  1
  Ge  Ge7  1  0.175562  0.824438  0.500000  1
  Ge  Ge8  1  0.648877  0.824438  0.500000  1
  Ge  Ge9  1  0.175562  0.351123  0.500000  1
  Ge  Ge10  1  0.828434  0.171566  0.500000  1
  Ge  Ge11  1  0.343131  0.171566  0.500000  1
