# generated using pymatgen
data_Lu(NbS2)5
_symmetry_space_group_name_H-M   'P 1'
_cell_length_a   5.84328194
_cell_length_b   7.70119019
_cell_length_c   8.44047140
_cell_angle_alpha   112.98816188
_cell_angle_beta   96.74549629
_cell_angle_gamma   104.51684633
_symmetry_Int_Tables_number   1
_chemical_formula_structural   Lu(NbS2)5
_chemical_formula_sum   'Lu1 Nb5 S10'
_cell_volume   328.46487348
_cell_formula_units_Z   1
loop_
 _symmetry_equiv_pos_site_id
 _symmetry_equiv_pos_as_xyz
  1  'x, y, z'
loop_
 _atom_site_type_symbol
 _atom_site_label
 _atom_site_symmetry_multiplicity
 _atom_site_fract_x
 _atom_site_fract_y
 _atom_site_fract_z
 _atom_site_occupancy
  Lu  Lu0  1  0.668041  0.508553  0.993398  1
  Nb  Nb1  1  0.003634  0.998160  0.000737  1
  Nb  Nb2  1  0.598814  0.201585  0.203240  1
  Nb  Nb3  1  0.198405  0.399493  0.398986  1
  Nb  Nb4  1  0.799289  0.600283  0.601601  1
  Nb  Nb5  1  0.400558  0.797063  0.798733  1
  S  S6  1  0.234757  0.060765  0.293612  1
  S  S7  1  0.044447  0.655096  0.895442  1
  S  S8  1  0.834832  0.260294  0.492265  1
  S  S9  1  0.635447  0.864001  0.101201  1
  S  S10  1  0.427346  0.447951  0.687631  1
  S  S11  1  0.898354  0.546091  0.307823  1
  S  S12  1  0.698795  0.139114  0.905445  1
  S  S13  1  0.496568  0.739159  0.508520  1
  S  S14  1  0.295112  0.342235  0.104321  1
  S  S15  1  0.098402  0.937755  0.708645  1
