# generated using pymatgen
data_Cs2FeTcS4
_symmetry_space_group_name_H-M   'P 1'
_cell_length_a   7.69176737
_cell_length_b   7.69176850
_cell_length_c   7.69176830
_cell_angle_alpha   139.14327813
_cell_angle_beta   123.85349640
_cell_angle_gamma   71.73460091
_symmetry_Int_Tables_number   1
_chemical_formula_structural   Cs2FeTcS4
_chemical_formula_sum   'Cs2 Fe1 Tc1 S4'
_cell_volume   242.29658027
_cell_formula_units_Z   1
loop_
 _symmetry_equiv_pos_site_id
 _symmetry_equiv_pos_as_xyz
  1  'x, y, z'
loop_
 _atom_site_type_symbol
 _atom_site_label
 _atom_site_symmetry_multiplicity
 _atom_site_fract_x
 _atom_site_fract_y
 _atom_site_fract_z
 _atom_site_occupancy
  Cs  Cs0  1  0.328175  0.827698  0.499523  1
  Cs  Cs1  1  0.671825  0.171348  0.499523  1
  Fe  Fe2  1  0.000000  0.250248  0.250248  1
  Tc  Tc3  1  0.000000  0.750762  0.750762  1
  S  S4  1  0.246322  0.494492  0.740814  1
  S  S5  1  0.753678  0.494492  0.248169  1
  S  S6  1  0.145218  0.150697  0.005480  1
  S  S7  1  0.854782  0.860262  0.005480  1
