# generated using pymatgen
data_Yb4Si3GePd8
_symmetry_space_group_name_H-M   'P 1'
_cell_length_a   5.57238103
_cell_length_b   6.99390100
_cell_length_c   7.35710308
_cell_angle_alpha   90.00000000
_cell_angle_beta   90.40080969
_cell_angle_gamma   90.00000000
_symmetry_Int_Tables_number   1
_chemical_formula_structural   Yb4Si3GePd8
_chemical_formula_sum   'Yb4 Si3 Ge1 Pd8'
_cell_volume   286.71901762
_cell_formula_units_Z   1
loop_
 _symmetry_equiv_pos_site_id
 _symmetry_equiv_pos_as_xyz
  1  'x, y, z'
loop_
 _atom_site_type_symbol
 _atom_site_label
 _atom_site_symmetry_multiplicity
 _atom_site_fract_x
 _atom_site_fract_y
 _atom_site_fract_z
 _atom_site_occupancy
  Yb  Yb0  1  0.368222  0.750000  0.021978  1
  Yb  Yb1  1  0.134682  0.750000  0.521849  1
  Yb  Yb2  1  0.632385  0.250000  0.978521  1
  Yb  Yb3  1  0.865507  0.250000  0.477212  1
  Si  Si4  1  0.870490  0.750000  0.876020  1
  Si  Si5  1  0.369244  0.250000  0.623678  1
  Si  Si6  1  0.130352  0.250000  0.121312  1
  Ge  Ge7  1  0.632072  0.750000  0.376304  1
  Pd  Pd8  1  0.902397  0.550620  0.165830  1
  Pd  Pd9  1  0.601426  0.950269  0.678945  1
  Pd  Pd10  1  0.106015  0.052139  0.826832  1
  Pd  Pd11  1  0.388684  0.444120  0.329956  1
  Pd  Pd12  1  0.106015  0.447861  0.826832  1
  Pd  Pd13  1  0.388684  0.055880  0.329956  1
  Pd  Pd14  1  0.902397  0.949380  0.165830  1
  Pd  Pd15  1  0.601426  0.549731  0.678945  1
