# generated using pymatgen
data_Nd4CoNi3(SnH)4
_symmetry_space_group_name_H-M   'P 1'
_cell_length_a   4.38152100
_cell_length_b   7.23763864
_cell_length_c   8.46643703
_cell_angle_alpha   89.66110422
_cell_angle_beta   90.00000000
_cell_angle_gamma   90.00000000
_symmetry_Int_Tables_number   1
_chemical_formula_structural   Nd4CoNi3(SnH)4
_chemical_formula_sum   'Nd4 Co1 Ni3 Sn4 H4'
_cell_volume   268.48181771
_cell_formula_units_Z   1
loop_
 _symmetry_equiv_pos_site_id
 _symmetry_equiv_pos_as_xyz
  1  'x, y, z'
loop_
 _atom_site_type_symbol
 _atom_site_label
 _atom_site_symmetry_multiplicity
 _atom_site_fract_x
 _atom_site_fract_y
 _atom_site_fract_z
 _atom_site_occupancy
  Nd  Nd0  1  0.750000  0.011989  0.690331  1
  Nd  Nd1  1  0.250000  0.986002  0.309605  1
  Nd  Nd2  1  0.250000  0.489908  0.186658  1
  Nd  Nd3  1  0.750000  0.515809  0.813850  1
  Co  Co4  1  0.750000  0.775285  0.101091  1
  Ni  Ni5  1  0.250000  0.221149  0.898465  1
  Ni  Ni6  1  0.250000  0.721410  0.599864  1
  Ni  Ni7  1  0.750000  0.279327  0.400331  1
  Sn  Sn8  1  0.750000  0.657274  0.428415  1
  Sn  Sn9  1  0.250000  0.346496  0.568007  1
  Sn  Sn10  1  0.250000  0.843092  0.933282  1
  Sn  Sn11  1  0.750000  0.153170  0.068810  1
  H  H12  1  0.250000  0.440555  0.918980  1
  H  H13  1  0.750000  0.557943  0.081787  1
  H  H14  1  0.750000  0.060660  0.420307  1
  H  H15  1  0.250000  0.939930  0.580218  1
