# generated using pymatgen
data_La2Se3O10
_symmetry_space_group_name_H-M   'P 1'
_cell_length_a   9.06648012
_cell_length_b   9.06648026
_cell_length_c   8.32166744
_cell_angle_alpha   68.25365454
_cell_angle_beta   68.25365741
_cell_angle_gamma   47.36318502
_symmetry_Int_Tables_number   1
_chemical_formula_structural   La2Se3O10
_chemical_formula_sum   'La4 Se6 O20'
_cell_volume   460.20784046
_cell_formula_units_Z   2
loop_
 _symmetry_equiv_pos_site_id
 _symmetry_equiv_pos_as_xyz
  1  'x, y, z'
loop_
 _atom_site_type_symbol
 _atom_site_label
 _atom_site_symmetry_multiplicity
 _atom_site_fract_x
 _atom_site_fract_y
 _atom_site_fract_z
 _atom_site_occupancy
  La  La0  1  0.790251  0.584935  0.853019  1
  La  La1  1  0.415065  0.209749  0.646981  1
  La  La2  1  0.209749  0.415065  0.146981  1
  La  La3  1  0.584935  0.790251  0.353019  1
  Se  Se4  1  0.950321  0.791175  0.464461  1
  Se  Se5  1  0.208825  0.049679  0.035539  1
  Se  Se6  1  0.049679  0.208825  0.535539  1
  Se  Se7  1  0.791175  0.950321  0.964461  1
  Se  Se8  1  0.624619  0.375381  0.250000  1
  Se  Se9  1  0.375381  0.624619  0.750000  1
  O  O10  1  0.764810  0.283087  0.063965  1
  O  O11  1  0.716913  0.235190  0.436035  1
  O  O12  1  0.235190  0.716913  0.936035  1
  O  O13  1  0.283087  0.764810  0.563965  1
  O  O14  1  0.404687  0.411667  0.302022  1
  O  O15  1  0.588333  0.595313  0.197978  1
  O  O16  1  0.595313  0.588333  0.697978  1
  O  O17  1  0.411667  0.404687  0.802022  1
  O  O18  1  0.069204  0.563409  0.614923  1
  O  O19  1  0.436591  0.930796  0.885077  1
  O  O20  1  0.930796  0.436591  0.385077  1
  O  O21  1  0.563409  0.069204  0.114923  1
  O  O22  1  0.994022  0.727784  0.274587  1
  O  O23  1  0.272216  0.005978  0.225413  1
  O  O24  1  0.005978  0.272216  0.725413  1
  O  O25  1  0.727784  0.994022  0.774587  1
  O  O26  1  0.700194  0.863069  0.543678  1
  O  O27  1  0.136931  0.299806  0.956322  1
  O  O28  1  0.299806  0.136931  0.456322  1
  O  O29  1  0.863069  0.700194  0.043678  1
