# generated using pymatgen
data_Th4In2Pd3Au
_symmetry_space_group_name_H-M   'P 1'
_cell_length_a   3.86570700
_cell_length_b   7.99853071
_cell_length_c   7.99853060
_cell_angle_alpha   89.72517780
_cell_angle_beta   90.00000000
_cell_angle_gamma   90.00000000
_symmetry_Int_Tables_number   1
_chemical_formula_structural   Th4In2Pd3Au
_chemical_formula_sum   'Th4 In2 Pd3 Au1'
_cell_volume   247.31153059
_cell_formula_units_Z   1
loop_
 _symmetry_equiv_pos_site_id
 _symmetry_equiv_pos_as_xyz
  1  'x, y, z'
loop_
 _atom_site_type_symbol
 _atom_site_label
 _atom_site_symmetry_multiplicity
 _atom_site_fract_x
 _atom_site_fract_y
 _atom_site_fract_z
 _atom_site_occupancy
  Th  Th0  1  0.500000  0.176763  0.676763  1
  Th  Th1  1  0.500000  0.831302  0.331302  1
  Th  Th2  1  0.500000  0.317919  0.174665  1
  Th  Th3  1  0.500000  0.674665  0.817919  1
  In  In4  1  0.000000  0.498054  0.502473  1
  In  In5  1  0.000000  0.002473  0.998054  1
  Pd  Pd6  1  0.000000  0.371461  0.871461  1
  Pd  Pd7  1  0.000000  0.873463  0.628505  1
  Pd  Pd8  1  0.000000  0.128505  0.373463  1
  Au  Au9  1  0.000000  0.625396  0.125396  1
