# generated using pymatgen
data_Dy2MgCdSn2
_symmetry_space_group_name_H-M   'P 1'
_cell_length_a   8.52338264
_cell_length_b   8.52338318
_cell_length_c   8.52338316
_cell_angle_alpha   149.82512444
_cell_angle_beta   150.29474076
_cell_angle_gamma   42.85466262
_symmetry_Int_Tables_number   1
_chemical_formula_structural   Dy2MgCdSn2
_chemical_formula_sum   'Dy2 Mg1 Cd1 Sn2'
_cell_volume   153.83615988
_cell_formula_units_Z   1
loop_
 _symmetry_equiv_pos_site_id
 _symmetry_equiv_pos_as_xyz
  1  'x, y, z'
loop_
 _atom_site_type_symbol
 _atom_site_label
 _atom_site_symmetry_multiplicity
 _atom_site_fract_x
 _atom_site_fract_y
 _atom_site_fract_z
 _atom_site_occupancy
  Dy  Dy0  1  0.664064  0.664064  0.000000  1
  Dy  Dy1  1  0.335936  0.335936  0.000000  1
  Mg  Mg2  1  0.500000  0.000000  0.500000  1
  Cd  Cd3  1  0.000000  0.500000  0.500000  1
  Sn  Sn4  1  0.139201  0.139201  0.000000  1
  Sn  Sn5  1  0.860799  0.860799  0.000000  1
