# generated using pymatgen
data_Ho8Ga(Pd11Au)2
_symmetry_space_group_name_H-M   'P 1'
_cell_length_a   8.38510000
_cell_length_b   8.35782522
_cell_length_c   8.35646922
_cell_angle_alpha   89.97359792
_cell_angle_beta   90.00000000
_cell_angle_gamma   90.00000000
_symmetry_Int_Tables_number   1
_chemical_formula_structural   Ho8Ga(Pd11Au)2
_chemical_formula_sum   'Ho8 Ga1 Pd22 Au2'
_cell_volume   585.63133089
_cell_formula_units_Z   1
loop_
 _symmetry_equiv_pos_site_id
 _symmetry_equiv_pos_as_xyz
  1  'x, y, z'
loop_
 _atom_site_type_symbol
 _atom_site_label
 _atom_site_symmetry_multiplicity
 _atom_site_fract_x
 _atom_site_fract_y
 _atom_site_fract_z
 _atom_site_occupancy
  Ho  Ho0  1  0.253003  0.248223  0.743075  1
  Ho  Ho1  1  0.252937  0.747546  0.253135  1
  Ho  Ho2  1  0.750915  0.252233  0.257008  1
  Ho  Ho3  1  0.743115  0.751299  0.747202  1
  Ho  Ho4  1  0.747063  0.747546  0.253135  1
  Ho  Ho5  1  0.746997  0.248223  0.743075  1
  Ho  Ho6  1  0.256885  0.751299  0.747202  1
  Ho  Ho7  1  0.249085  0.252233  0.257008  1
  Ga  Ga8  1  0.000000  0.999793  0.000066  1
  Pd  Pd9  1  0.500000  0.499843  0.745830  1
  Pd  Pd10  1  0.500000  0.252883  0.499739  1
  Pd  Pd11  1  0.254739  0.500184  0.500178  1
  Pd  Pd12  1  0.500000  0.499862  0.254235  1
  Pd  Pd13  1  0.500000  0.747016  0.499729  1
  Pd  Pd14  1  0.745261  0.500184  0.500178  1
  Pd  Pd15  1  0.000000  0.999563  0.709231  1
  Pd  Pd16  1  0.000000  0.290003  0.999884  1
  Pd  Pd17  1  0.289418  0.000124  0.000430  1
  Pd  Pd18  1  0.000000  0.999551  0.290926  1
  Pd  Pd19  1  0.000000  0.709802  0.999868  1
  Pd  Pd20  1  0.710582  0.000124  0.000430  1
  Pd  Pd21  1  0.260179  0.999819  0.499705  1
  Pd  Pd22  1  0.000000  0.258688  0.500228  1
  Pd  Pd23  1  0.500000  0.000261  0.739542  1
  Pd  Pd24  1  0.259664  0.499951  0.999863  1
  Pd  Pd25  1  0.000000  0.500214  0.259825  1
  Pd  Pd26  1  0.500000  0.740366  0.000165  1
  Pd  Pd27  1  0.000000  0.741237  0.500142  1
  Pd  Pd28  1  0.500000  0.000205  0.260523  1
  Pd  Pd29  1  0.739821  0.999819  0.499705  1
  Pd  Pd30  1  0.740336  0.499951  0.999863  1
  Au  Au31  1  0.000000  0.500536  0.738384  1
  Au  Au32  1  0.500000  0.261421  0.000492  1
