# generated using pymatgen
data_Ho5Tm11In3AgRh4
_symmetry_space_group_name_H-M   'P 1'
_cell_length_a   9.53338624
_cell_length_b   9.53409517
_cell_length_c   9.53409486
_cell_angle_alpha   59.93767600
_cell_angle_beta   59.83447569
_cell_angle_gamma   59.83448357
_symmetry_Int_Tables_number   1
_chemical_formula_structural   Ho5Tm11In3AgRh4
_chemical_formula_sum   'Ho5 Tm11 In3 Ag1 Rh4'
_cell_volume   610.93656262
_cell_formula_units_Z   1
loop_
 _symmetry_equiv_pos_site_id
 _symmetry_equiv_pos_as_xyz
  1  'x, y, z'
loop_
 _atom_site_type_symbol
 _atom_site_label
 _atom_site_symmetry_multiplicity
 _atom_site_fract_x
 _atom_site_fract_y
 _atom_site_fract_z
 _atom_site_occupancy
  Ho  Ho0  1  0.062739  0.062518  0.437890  1
  Ho  Ho1  1  0.437486  0.066888  0.436886  1
  Ho  Ho2  1  0.062739  0.437890  0.062518  1
  Ho  Ho3  1  0.052766  0.648463  0.648463  1
  Ho  Ho4  1  0.437486  0.436886  0.066888  1
  Tm  Tm5  1  0.648863  0.051798  0.648054  1
  Tm  Tm6  1  0.188448  0.813167  0.188255  1
  Tm  Tm7  1  0.188448  0.188255  0.813167  1
  Tm  Tm8  1  0.809276  0.809354  0.191148  1
  Tm  Tm9  1  0.439874  0.060571  0.060571  1
  Tm  Tm10  1  0.813177  0.188565  0.188565  1
  Tm  Tm11  1  0.065637  0.438395  0.438395  1
  Tm  Tm12  1  0.809276  0.191148  0.809354  1
  Tm  Tm13  1  0.190820  0.809718  0.809718  1
  Tm  Tm14  1  0.648863  0.648054  0.051798  1
  Tm  Tm15  1  0.649871  0.650634  0.650634  1
  In  In16  1  0.746477  0.417604  0.417604  1
  In  In17  1  0.417835  0.746891  0.416423  1
  In  In18  1  0.417835  0.416423  0.746891  1
  Ag  Ag19  1  0.416094  0.416383  0.416383  1
  Rh  Rh20  1  0.856708  0.857461  0.426774  1
  Rh  Rh21  1  0.855179  0.858149  0.858149  1
  Rh  Rh22  1  0.427392  0.858007  0.858007  1
  Rh  Rh23  1  0.856708  0.426774  0.857461  1
