# generated using pymatgen
data_AcMn8O16
_symmetry_space_group_name_H-M   'P 1'
_cell_length_a   6.05186711
_cell_length_b   7.08496801
_cell_length_c   7.10007952
_cell_angle_alpha   87.67265761
_cell_angle_beta   77.34852191
_cell_angle_gamma   78.13758641
_symmetry_Int_Tables_number   1
_chemical_formula_structural   AcMn8O16
_chemical_formula_sum   'Ac1 Mn8 O16'
_cell_volume   290.69394232
_cell_formula_units_Z   1
loop_
 _symmetry_equiv_pos_site_id
 _symmetry_equiv_pos_as_xyz
  1  'x, y, z'
loop_
 _atom_site_type_symbol
 _atom_site_label
 _atom_site_symmetry_multiplicity
 _atom_site_fract_x
 _atom_site_fract_y
 _atom_site_fract_z
 _atom_site_occupancy
  Ac  Ac0  1  0.015222  0.985184  0.999021  1
  Mn  Mn1  1  0.579076  0.527054  0.185001  1
  Mn  Mn2  1  0.085784  0.509139  0.182633  1
  Mn  Mn3  1  0.169393  0.816889  0.510715  1
  Mn  Mn4  1  0.667726  0.820449  0.528168  1
  Mn  Mn5  1  0.335942  0.184134  0.477165  1
  Mn  Mn6  1  0.840444  0.181958  0.486235  1
  Mn  Mn7  1  0.430962  0.481306  0.816975  1
  Mn  Mn8  1  0.927546  0.489020  0.816906  1
  O  O9  1  0.848070  0.656063  0.047571  1
  O  O10  1  0.303333  0.659231  0.039748  1
  O  O11  1  0.991929  0.698219  0.377700  1
  O  O12  1  0.478431  0.711990  0.384257  1
  O  O13  1  0.865171  0.951636  0.658543  1
  O  O14  1  0.318077  0.965170  0.655800  1
  O  O15  1  0.339681  0.373914  0.281592  1
  O  O16  1  0.854775  0.361980  0.283651  1
  O  O17  1  0.172671  0.624661  0.710779  1
  O  O18  1  0.665342  0.628535  0.722911  1
  O  O19  1  0.137054  0.035548  0.339165  1
  O  O20  1  0.671943  0.040502  0.353833  1
  O  O21  1  0.017183  0.295819  0.623877  1
  O  O22  1  0.536820  0.297732  0.619519  1
  O  O23  1  0.172343  0.345406  0.944625  1
  O  O24  1  0.682182  0.358463  0.953606  1
