# generated using pymatgen
data_Co2Ni3TeO8
_symmetry_space_group_name_H-M   'P 1'
_cell_length_a   6.16682384
_cell_length_b   6.16675732
_cell_length_c   6.16677600
_cell_angle_alpha   58.16783785
_cell_angle_beta   58.16846216
_cell_angle_gamma   58.16788247
_symmetry_Int_Tables_number   1
_chemical_formula_structural   Co2Ni3TeO8
_chemical_formula_sum   'Co2 Ni3 Te1 O8'
_cell_volume   158.86718807
_cell_formula_units_Z   1
loop_
 _symmetry_equiv_pos_site_id
 _symmetry_equiv_pos_as_xyz
  1  'x, y, z'
loop_
 _atom_site_type_symbol
 _atom_site_label
 _atom_site_symmetry_multiplicity
 _atom_site_fract_x
 _atom_site_fract_y
 _atom_site_fract_z
 _atom_site_occupancy
  Co  Co0  1  0.141028  0.141011  0.141097  1
  Co  Co1  1  0.858768  0.858793  0.858802  1
  Ni  Ni2  1  0.000070  0.500266  0.499604  1
  Ni  Ni3  1  0.499864  0.000202  0.500075  1
  Ni  Ni4  1  0.500255  0.499643  0.000220  1
  Te  Te5  1  0.499957  0.500075  0.500192  1
  O  O6  1  0.266823  0.266766  0.266684  1
  O  O7  1  0.270855  0.271346  0.725774  1
  O  O8  1  0.271369  0.725777  0.270871  1
  O  O9  1  0.725825  0.270869  0.271416  1
  O  O10  1  0.274053  0.729084  0.729010  1
  O  O11  1  0.728963  0.274093  0.729079  1
  O  O12  1  0.728990  0.728963  0.274130  1
  O  O13  1  0.733180  0.733108  0.733045  1
