# generated using pymatgen
data_Sr4ZrFe(SbO6)2
_symmetry_space_group_name_H-M   'P 1'
_cell_length_a   5.77551660
_cell_length_b   5.78008203
_cell_length_c   8.18036189
_cell_angle_alpha   89.97948008
_cell_angle_beta   89.88008028
_cell_angle_gamma   90.06518811
_symmetry_Int_Tables_number   1
_chemical_formula_structural   Sr4ZrFe(SbO6)2
_chemical_formula_sum   'Sr4 Zr1 Fe1 Sb2 O12'
_cell_volume   273.08389889
_cell_formula_units_Z   1
loop_
 _symmetry_equiv_pos_site_id
 _symmetry_equiv_pos_as_xyz
  1  'x, y, z'
loop_
 _atom_site_type_symbol
 _atom_site_label
 _atom_site_symmetry_multiplicity
 _atom_site_fract_x
 _atom_site_fract_y
 _atom_site_fract_z
 _atom_site_occupancy
  Sr  Sr0  1  0.493223  0.503889  0.266753  1
  Sr  Sr1  1  0.006777  0.005905  0.264691  1
  Sr  Sr2  1  0.993224  0.994095  0.735309  1
  Sr  Sr3  1  0.506776  0.496112  0.733247  1
  Zr  Zr4  1  0.500000  0.000000  0.000000  1
  Fe  Fe5  1  0.000000  0.499999  0.499999  1
  Sb  Sb6  1  0.000000  0.499999  0.000000  1
  Sb  Sb7  1  0.499999  0.000000  0.500000  1
  O  O8  1  0.250775  0.259186  0.040848  1
  O  O9  1  0.238982  0.752418  0.041021  1
  O  O10  1  0.926613  0.496764  0.235428  1
  O  O11  1  0.566222  0.997990  0.253459  1
  O  O12  1  0.264104  0.245857  0.467579  1
  O  O13  1  0.253164  0.763066  0.467849  1
  O  O14  1  0.746837  0.236935  0.532151  1
  O  O15  1  0.735896  0.754143  0.532421  1
  O  O16  1  0.433778  0.002010  0.746541  1
  O  O17  1  0.073386  0.503235  0.764572  1
  O  O18  1  0.761019  0.247581  0.958980  1
  O  O19  1  0.749226  0.740813  0.959152  1
