# generated using pymatgen
data_Tb7Y3(InSb2)2
_symmetry_space_group_name_H-M   'P 1'
_cell_length_a   6.52349800
_cell_length_b   9.00436081
_cell_length_c   9.01500200
_cell_angle_alpha   120.03814026
_cell_angle_beta   89.99991346
_cell_angle_gamma   90.00003496
_symmetry_Int_Tables_number   1
_chemical_formula_structural   Tb7Y3(InSb2)2
_chemical_formula_sum   'Tb7 Y3 In2 Sb4'
_cell_volume   458.41924619
_cell_formula_units_Z   1
loop_
 _symmetry_equiv_pos_site_id
 _symmetry_equiv_pos_as_xyz
  1  'x, y, z'
loop_
 _atom_site_type_symbol
 _atom_site_label
 _atom_site_symmetry_multiplicity
 _atom_site_fract_x
 _atom_site_fract_y
 _atom_site_fract_z
 _atom_site_occupancy
  Tb  Tb0  1  0.498797  0.336077  0.667565  1
  Tb  Tb1  1  0.498796  0.663919  0.331492  1
  Tb  Tb2  1  0.001198  0.663917  0.331481  1
  Tb  Tb3  1  0.001200  0.336083  0.667574  1
  Tb  Tb4  1  0.249999  0.759109  0.997878  1
  Tb  Tb5  1  0.250001  0.240871  0.238750  1
  Tb  Tb6  1  0.250002  0.999990  0.756926  1
  Y  Y7  1  0.750000  0.242004  0.004539  1
  Y  Y8  1  0.750001  0.758005  0.762538  1
  Y  Y9  1  0.750003  0.000007  0.240254  1
  In  In10  1  0.749996  0.606004  0.001114  1
  In  In11  1  0.750000  0.394058  0.395064  1
  Sb  Sb12  1  0.750003  0.999986  0.609729  1
  Sb  Sb13  1  0.250004  0.392002  0.998387  1
  Sb  Sb14  1  0.249998  0.607993  0.606355  1
  Sb  Sb15  1  0.250001  0.999976  0.390353  1
