# generated using pymatgen
data_K4(CuCl4)3
_symmetry_space_group_name_H-M   'P 1'
_cell_length_a   12.09853035
_cell_length_b   12.09853063
_cell_length_c   12.09853103
_cell_angle_alpha   131.41440936
_cell_angle_beta   131.41441408
_cell_angle_gamma   71.15549099
_symmetry_Int_Tables_number   1
_chemical_formula_structural   K4(CuCl4)3
_chemical_formula_sum   'K8 Cu6 Cl24'
_cell_volume   975.10408289
_cell_formula_units_Z   2
loop_
 _symmetry_equiv_pos_site_id
 _symmetry_equiv_pos_as_xyz
  1  'x, y, z'
loop_
 _atom_site_type_symbol
 _atom_site_label
 _atom_site_symmetry_multiplicity
 _atom_site_fract_x
 _atom_site_fract_y
 _atom_site_fract_z
 _atom_site_occupancy
  K  K0  1  0.875000  0.382328  0.007328  1
  K  K1  1  0.132328  0.625000  0.007328  1
  K  K2  1  0.617672  0.125000  0.992672  1
  K  K3  1  0.375000  0.867672  0.992672  1
  K  K4  1  0.875000  0.867672  0.492672  1
  K  K5  1  0.617672  0.625000  0.492672  1
  K  K6  1  0.375000  0.382328  0.507328  1
  K  K7  1  0.132328  0.125000  0.507328  1
  Cu  Cu8  1  0.750000  0.250000  0.500000  1
  Cu  Cu9  1  0.000000  0.000000  0.000000  1
  Cu  Cu10  1  0.254593  0.254593  0.000000  1
  Cu  Cu11  1  0.004593  0.504593  0.500000  1
  Cu  Cu12  1  0.495407  0.995407  0.500000  1
  Cu  Cu13  1  0.745407  0.745407  0.000000  1
  Cl  Cl14  1  0.631587  0.631587  0.000000  1
  Cl  Cl15  1  0.381587  0.881587  0.500000  1
  Cl  Cl16  1  0.118413  0.618413  0.500000  1
  Cl  Cl17  1  0.368413  0.368413  0.000000  1
  Cl  Cl18  1  0.859139  0.859139  0.000000  1
  Cl  Cl19  1  0.609139  0.109139  0.500000  1
  Cl  Cl20  1  0.890861  0.390861  0.500000  1
  Cl  Cl21  1  0.140861  0.140861  0.000000  1
  Cl  Cl22  1  0.521125  0.746467  0.774657  1
  Cl  Cl23  1  0.253532  0.028190  0.774657  1
  Cl  Cl24  1  0.253532  0.478875  0.225343  1
  Cl  Cl25  1  0.228875  0.503533  0.725343  1
  Cl  Cl26  1  0.778190  0.503533  0.274657  1
  Cl  Cl27  1  0.496468  0.221810  0.725343  1
  Cl  Cl28  1  0.974141  0.249608  0.724533  1
  Cl  Cl29  1  0.999608  0.775075  0.775467  1
  Cl  Cl30  1  0.999608  0.224141  0.224533  1
  Cl  Cl31  1  0.775859  0.000392  0.775467  1
  Cl  Cl32  1  0.224925  0.000392  0.224533  1
  Cl  Cl33  1  0.750392  0.474925  0.724533  1
  Cl  Cl34  1  0.750392  0.025859  0.275467  1
  Cl  Cl35  1  0.525075  0.249608  0.275467  1
  Cl  Cl36  1  0.971810  0.746467  0.225343  1
  Cl  Cl37  1  0.496468  0.771125  0.274657  1
