# generated using pymatgen
data_Hf2ZrSc(Al3Ir)6
_symmetry_space_group_name_H-M   'P 1'
_cell_length_a   7.46741972
_cell_length_b   7.47190099
_cell_length_c   9.25315700
_cell_angle_alpha   90.00000000
_cell_angle_beta   90.00000000
_cell_angle_gamma   119.83608683
_symmetry_Int_Tables_number   1
_chemical_formula_structural   Hf2ZrSc(Al3Ir)6
_chemical_formula_sum   'Hf2 Zr1 Sc1 Al18 Ir6'
_cell_volume   447.85475472
_cell_formula_units_Z   1
loop_
 _symmetry_equiv_pos_site_id
 _symmetry_equiv_pos_as_xyz
  1  'x, y, z'
loop_
 _atom_site_type_symbol
 _atom_site_label
 _atom_site_symmetry_multiplicity
 _atom_site_fract_x
 _atom_site_fract_y
 _atom_site_fract_z
 _atom_site_occupancy
  Hf  Hf0  1  0.005704  0.328378  0.750000  1
  Hf  Hf1  1  0.671636  0.994811  0.250000  1
  Zr  Zr2  1  0.328161  0.005381  0.750000  1
  Sc  Sc3  1  0.994702  0.672154  0.250000  1
  Al  Al4  1  0.123547  0.125407  0.250000  1
  Al  Al5  1  0.875521  0.875474  0.750000  1
  Al  Al6  1  0.997730  0.335198  0.078342  1
  Al  Al7  1  0.001755  0.665809  0.924216  1
  Al  Al8  1  0.001755  0.665809  0.575784  1
  Al  Al9  1  0.334466  0.997357  0.421751  1
  Al  Al10  1  0.997730  0.335198  0.421658  1
  Al  Al11  1  0.664767  0.001419  0.576549  1
  Al  Al12  1  0.664767  0.001419  0.923451  1
  Al  Al13  1  0.334466  0.997357  0.078249  1
  Al  Al14  1  0.332053  0.331556  0.557655  1
  Al  Al15  1  0.668929  0.668739  0.439160  1
  Al  Al16  1  0.668929  0.668739  0.060840  1
  Al  Al17  1  0.332053  0.331556  0.942345  1
  Al  Al18  1  0.341045  0.553848  0.250000  1
  Al  Al19  1  0.661299  0.446875  0.750000  1
  Al  Al20  1  0.552533  0.337451  0.250000  1
  Al  Al21  1  0.447369  0.660419  0.750000  1
  Ir  Ir22  1  0.672438  0.326737  0.999643  1
  Ir  Ir23  1  0.327267  0.672036  0.999451  1
  Ir  Ir24  1  0.327267  0.672036  0.500549  1
  Ir  Ir25  1  0.672438  0.326737  0.500357  1
  Ir  Ir26  1  0.999836  0.001047  0.999643  1
  Ir  Ir27  1  0.999836  0.001047  0.500357  1
