# generated using pymatgen
data_Ti2F7
_symmetry_space_group_name_H-M   'P 1'
_cell_length_a   3.93588938
_cell_length_b   3.93710908
_cell_length_c   8.95625115
_cell_angle_alpha   76.82591659
_cell_angle_beta   102.83119402
_cell_angle_gamma   90.04085121
_symmetry_Int_Tables_number   1
_chemical_formula_structural   Ti2F7
_chemical_formula_sum   'Ti2 F7'
_cell_volume   131.57711451
_cell_formula_units_Z   1
loop_
 _symmetry_equiv_pos_site_id
 _symmetry_equiv_pos_as_xyz
  1  'x, y, z'
loop_
 _atom_site_type_symbol
 _atom_site_label
 _atom_site_symmetry_multiplicity
 _atom_site_fract_x
 _atom_site_fract_y
 _atom_site_fract_z
 _atom_site_occupancy
  Ti  Ti0  1  0.824586  0.759298  0.540407  1
  Ti  Ti1  1  0.588170  0.010418  0.068517  1
  F  F2  1  0.482456  0.115360  0.860491  1
  F  F3  1  0.097365  0.002982  0.085591  1
  F  F4  1  0.815328  0.268752  0.523216  1
  F  F5  1  0.315503  0.764172  0.523325  1
  F  F6  1  0.927169  0.660534  0.748386  1
  F  F7  1  0.705998  0.886449  0.304303  1
  F  F8  1  0.598691  0.501426  0.085722  1
