# generated using pymatgen
data_Pr6Nb2Fe3Co13P12
_symmetry_space_group_name_H-M   'P 1'
_cell_length_a   3.79020700
_cell_length_b   10.85950408
_cell_length_c   12.55579024
_cell_angle_alpha   89.94902931
_cell_angle_beta   90.00000000
_cell_angle_gamma   90.00000000
_symmetry_Int_Tables_number   1
_chemical_formula_structural   Pr6Nb2Fe3Co13P12
_chemical_formula_sum   'Pr6 Nb2 Fe3 Co13 P12'
_cell_volume   516.79321343
_cell_formula_units_Z   1
loop_
 _symmetry_equiv_pos_site_id
 _symmetry_equiv_pos_as_xyz
  1  'x, y, z'
loop_
 _atom_site_type_symbol
 _atom_site_label
 _atom_site_symmetry_multiplicity
 _atom_site_fract_x
 _atom_site_fract_y
 _atom_site_fract_z
 _atom_site_occupancy
  Pr  Pr0  1  0.000000  0.500092  0.526512  1
  Pr  Pr1  1  0.500000  0.000270  0.473351  1
  Pr  Pr2  1  0.500000  0.820741  0.204977  1
  Pr  Pr3  1  0.500000  0.179797  0.204650  1
  Pr  Pr4  1  0.000000  0.678589  0.795634  1
  Pr  Pr5  1  0.000000  0.320239  0.795776  1
  Nb  Nb6  1  0.500000  0.499782  0.152093  1
  Nb  Nb7  1  0.000000  0.999842  0.846870  1
  Fe  Fe8  1  0.000000  0.502659  0.988311  1
  Fe  Fe9  1  0.500000  0.998872  0.011294  1
  Fe  Fe10  1  0.500000  0.331147  0.996281  1
  Co  Co11  1  0.500000  0.500383  0.702671  1
  Co  Co12  1  0.000000  0.000250  0.297020  1
  Co  Co13  1  0.500000  0.669854  0.994553  1
  Co  Co14  1  0.000000  0.166319  0.005306  1
  Co  Co15  1  0.000000  0.831143  0.005896  1
  Co  Co16  1  0.500000  0.296097  0.432262  1
  Co  Co17  1  0.500000  0.704311  0.432437  1
  Co  Co18  1  0.000000  0.204129  0.567807  1
  Co  Co19  1  0.000000  0.796029  0.568057  1
  Co  Co20  1  0.500000  0.880413  0.704401  1
  Co  Co21  1  0.500000  0.118936  0.703644  1
  Co  Co22  1  0.000000  0.619644  0.295505  1
  Co  Co23  1  0.000000  0.381093  0.295901  1
  P  P24  1  0.500000  0.498505  0.891118  1
  P  P25  1  0.000000  0.999646  0.110304  1
  P  P26  1  0.500000  0.499946  0.350384  1
  P  P27  1  0.000000  0.000330  0.649102  1
  P  P28  1  0.500000  0.304176  0.614044  1
  P  P29  1  0.500000  0.695927  0.614058  1
  P  P30  1  0.000000  0.196498  0.386262  1
  P  P31  1  0.000000  0.803942  0.386418  1
  P  P32  1  0.500000  0.843967  0.898070  1
  P  P33  1  0.500000  0.156923  0.899771  1
  P  P34  1  0.000000  0.656090  0.101990  1
  P  P35  1  0.000000  0.343422  0.097270  1
