# generated using pymatgen
data_Dy4Y7Ho5(InRh)4
_symmetry_space_group_name_H-M   'P 1'
_cell_length_a   9.67072844
_cell_length_b   9.67072879
_cell_length_c   9.67717801
_cell_angle_alpha   60.07076390
_cell_angle_beta   60.07076445
_cell_angle_gamma   60.13887433
_symmetry_Int_Tables_number   1
_chemical_formula_structural   Dy4Y7Ho5(InRh)4
_chemical_formula_sum   'Dy4 Y7 Ho5 In4 Rh4'
_cell_volume   641.31372126
_cell_formula_units_Z   1
loop_
 _symmetry_equiv_pos_site_id
 _symmetry_equiv_pos_as_xyz
  1  'x, y, z'
loop_
 _atom_site_type_symbol
 _atom_site_label
 _atom_site_symmetry_multiplicity
 _atom_site_fract_x
 _atom_site_fract_y
 _atom_site_fract_z
 _atom_site_occupancy
  Dy  Dy0  1  0.148569  0.549908  0.148865  1
  Dy  Dy1  1  0.311311  0.689648  0.688788  1
  Dy  Dy2  1  0.689648  0.311311  0.688788  1
  Dy  Dy3  1  0.549908  0.148569  0.148865  1
  Y  Y4  1  0.560756  0.938151  0.560384  1
  Y  Y5  1  0.151453  0.151453  0.151642  1
  Y  Y6  1  0.310562  0.310562  0.689415  1
  Y  Y7  1  0.938151  0.560756  0.560384  1
  Y  Y8  1  0.560025  0.560025  0.938745  1
  Y  Y9  1  0.562382  0.937199  0.937329  1
  Y  Y10  1  0.937199  0.562382  0.937329  1
  Ho  Ho11  1  0.689615  0.310667  0.310568  1
  Ho  Ho12  1  0.689664  0.689664  0.310671  1
  Ho  Ho13  1  0.310667  0.689615  0.310568  1
  Ho  Ho14  1  0.937373  0.937373  0.562031  1
  Ho  Ho15  1  0.148071  0.148071  0.551674  1
  In  In16  1  0.917701  0.917701  0.249423  1
  In  In17  1  0.249539  0.917781  0.917967  1
  In  In18  1  0.917781  0.249539  0.917967  1
  In  In19  1  0.916500  0.916500  0.916737  1
  Rh  Rh20  1  0.357399  0.357399  0.355012  1
  Rh  Rh21  1  0.926123  0.359000  0.360280  1
  Rh  Rh22  1  0.360602  0.360602  0.926288  1
  Rh  Rh23  1  0.359000  0.926123  0.360280  1
