# generated using pymatgen
data_CaNd6OsBr12
_symmetry_space_group_name_H-M   'P 1'
_cell_length_a   9.57617921
_cell_length_b   9.58401496
_cell_length_c   9.58761906
_cell_angle_alpha   107.14475228
_cell_angle_beta   107.04473717
_cell_angle_gamma   107.09563278
_symmetry_Int_Tables_number   1
_chemical_formula_structural   CaNd6OsBr12
_chemical_formula_sum   'Ca1 Nd6 Os1 Br12'
_cell_volume   730.90950473
_cell_formula_units_Z   1
loop_
 _symmetry_equiv_pos_site_id
 _symmetry_equiv_pos_as_xyz
  1  'x, y, z'
loop_
 _atom_site_type_symbol
 _atom_site_label
 _atom_site_symmetry_multiplicity
 _atom_site_fract_x
 _atom_site_fract_y
 _atom_site_fract_z
 _atom_site_occupancy
  Ca  Ca0  1  0.500000  0.500000  0.500000  1
  Nd  Nd1  1  0.315716  0.104057  0.027385  1
  Nd  Nd2  1  0.027226  0.316193  0.104167  1
  Nd  Nd3  1  0.104225  0.027159  0.315799  1
  Nd  Nd4  1  0.895775  0.972841  0.684202  1
  Nd  Nd5  1  0.972774  0.683808  0.895834  1
  Nd  Nd6  1  0.684285  0.895943  0.972616  1
  Os  Os7  1  0.000000  0.000000  0.000000  1
  Br  Br8  1  0.683204  0.220840  0.068765  1
  Br  Br9  1  0.381444  0.456304  0.166108  1
  Br  Br10  1  0.068813  0.683157  0.220692  1
  Br  Br11  1  0.779192  0.931180  0.316721  1
  Br  Br12  1  0.456331  0.166094  0.381402  1
  Br  Br13  1  0.166102  0.381414  0.456321  1
  Br  Br14  1  0.833898  0.618587  0.543679  1
  Br  Br15  1  0.543669  0.833907  0.618598  1
  Br  Br16  1  0.220809  0.068821  0.683279  1
  Br  Br17  1  0.931187  0.316843  0.779309  1
  Br  Br18  1  0.618557  0.543696  0.833892  1
  Br  Br19  1  0.316797  0.779160  0.931235  1
