# generated using pymatgen
data_KMnCuSe2
_symmetry_space_group_name_H-M   'P 1'
_cell_length_a   7.56925435
_cell_length_b   7.56925417
_cell_length_c   7.56925402
_cell_angle_alpha   148.65544026
_cell_angle_beta   148.65543846
_cell_angle_gamma   44.91872736
_symmetry_Int_Tables_number   1
_chemical_formula_structural   KMnCuSe2
_chemical_formula_sum   'K1 Mn1 Cu1 Se2'
_cell_volume   116.98298464
_cell_formula_units_Z   1
loop_
 _symmetry_equiv_pos_site_id
 _symmetry_equiv_pos_as_xyz
  1  'x, y, z'
loop_
 _atom_site_type_symbol
 _atom_site_label
 _atom_site_symmetry_multiplicity
 _atom_site_fract_x
 _atom_site_fract_y
 _atom_site_fract_z
 _atom_site_occupancy
  K  K0  1  0.000000  0.000000  0.000000  1
  Mn  Mn1  1  0.750000  0.250000  0.500000  1
  Cu  Cu2  1  0.250000  0.750000  0.500000  1
  Se  Se3  1  0.641107  0.641107  0.000000  1
  Se  Se4  1  0.358893  0.358893  0.000000  1
