# generated using pymatgen
data_HfZr6(Cu4Au)2
_symmetry_space_group_name_H-M   'P 1'
_cell_length_a   7.93204408
_cell_length_b   7.93204497
_cell_length_c   9.56641000
_cell_angle_alpha   90.00000000
_cell_angle_beta   90.00000000
_cell_angle_gamma   106.11940375
_symmetry_Int_Tables_number   1
_chemical_formula_structural   HfZr6(Cu4Au)2
_chemical_formula_sum   'Hf2 Zr12 Cu16 Au4'
_cell_volume   578.22966672
_cell_formula_units_Z   2
loop_
 _symmetry_equiv_pos_site_id
 _symmetry_equiv_pos_as_xyz
  1  'x, y, z'
loop_
 _atom_site_type_symbol
 _atom_site_label
 _atom_site_symmetry_multiplicity
 _atom_site_fract_x
 _atom_site_fract_y
 _atom_site_fract_z
 _atom_site_occupancy
  Hf  Hf0  1  0.000000  0.000000  0.000000  1
  Hf  Hf1  1  0.500000  0.500000  0.500000  1
  Zr  Zr2  1  0.695708  0.304292  0.000000  1
  Zr  Zr3  1  0.304292  0.695708  0.000000  1
  Zr  Zr4  1  0.804292  0.195708  0.500000  1
  Zr  Zr5  1  0.195708  0.804292  0.500000  1
  Zr  Zr6  1  0.009179  0.509179  0.250000  1
  Zr  Zr7  1  0.990821  0.490821  0.750000  1
  Zr  Zr8  1  0.490821  0.990821  0.750000  1
  Zr  Zr9  1  0.509179  0.009179  0.250000  1
  Zr  Zr10  1  0.313843  0.313843  0.188538  1
  Zr  Zr11  1  0.686157  0.686157  0.811462  1
  Zr  Zr12  1  0.186157  0.186157  0.688538  1
  Zr  Zr13  1  0.813843  0.813843  0.311462  1
  Cu  Cu14  1  0.864673  0.160381  0.199838  1
  Cu  Cu15  1  0.135327  0.839619  0.800162  1
  Cu  Cu16  1  0.635327  0.339619  0.699838  1
  Cu  Cu17  1  0.660381  0.364673  0.300162  1
  Cu  Cu18  1  0.364673  0.660381  0.300162  1
  Cu  Cu19  1  0.339619  0.635327  0.699838  1
  Cu  Cu20  1  0.839619  0.135327  0.800162  1
  Cu  Cu21  1  0.160381  0.864673  0.199838  1
  Cu  Cu22  1  0.948999  0.652647  0.005871  1
  Cu  Cu23  1  0.051001  0.347353  0.994129  1
  Cu  Cu24  1  0.551001  0.847353  0.505871  1
  Cu  Cu25  1  0.152647  0.448999  0.494129  1
  Cu  Cu26  1  0.448999  0.152647  0.494129  1
  Cu  Cu27  1  0.847353  0.551001  0.505871  1
  Cu  Cu28  1  0.347353  0.051001  0.994129  1
  Cu  Cu29  1  0.652647  0.948999  0.005871  1
  Au  Au30  1  0.110783  0.110783  0.390803  1
  Au  Au31  1  0.889217  0.889217  0.609197  1
  Au  Au32  1  0.389217  0.389217  0.890803  1
  Au  Au33  1  0.610783  0.610783  0.109197  1
