# generated using pymatgen
data_Tb5Nd(CoSn6)2
_symmetry_space_group_name_H-M   'P 1'
_cell_length_a   8.52003431
_cell_length_b   8.52003519
_cell_length_c   13.20503134
_cell_angle_alpha   89.99372455
_cell_angle_beta   90.00627594
_cell_angle_gamma   148.82873586
_symmetry_Int_Tables_number   1
_chemical_formula_structural   Tb5Nd(CoSn6)2
_chemical_formula_sum   'Tb5 Nd1 Co2 Sn12'
_cell_volume   496.15196090
_cell_formula_units_Z   1
loop_
 _symmetry_equiv_pos_site_id
 _symmetry_equiv_pos_as_xyz
  1  'x, y, z'
loop_
 _atom_site_type_symbol
 _atom_site_label
 _atom_site_symmetry_multiplicity
 _atom_site_fract_x
 _atom_site_fract_y
 _atom_site_fract_z
 _atom_site_occupancy
  Tb  Tb0  1  0.898847  0.101153  0.092135  1
  Tb  Tb1  1  0.101210  0.898790  0.593898  1
  Tb  Tb2  1  0.899749  0.100251  0.751144  1
  Tb  Tb3  1  0.100629  0.899371  0.907070  1
  Tb  Tb4  1  0.100422  0.899578  0.249132  1
  Nd  Nd5  1  0.900420  0.099580  0.406992  1
  Co  Co6  1  0.299038  0.700962  0.249195  1
  Co  Co7  1  0.700229  0.299771  0.750641  1
  Sn  Sn8  1  0.754625  0.245375  0.572549  1
  Sn  Sn9  1  0.429336  0.570664  0.579148  1
  Sn  Sn10  1  0.572730  0.427270  0.423345  1
  Sn  Sn11  1  0.734108  0.265892  0.249031  1
  Sn  Sn12  1  0.265209  0.734791  0.750408  1
  Sn  Sn13  1  0.244333  0.755667  0.071094  1
  Sn  Sn14  1  0.243654  0.756346  0.428061  1
  Sn  Sn15  1  0.571974  0.428026  0.075620  1
  Sn  Sn16  1  0.453911  0.546089  0.247165  1
  Sn  Sn17  1  0.546444  0.453556  0.750971  1
  Sn  Sn18  1  0.755306  0.244694  0.928436  1
  Sn  Sn19  1  0.427826  0.572174  0.923971  1
