# generated using pymatgen
data_Yb4MnFe3O10
_symmetry_space_group_name_H-M   'P 1'
_cell_length_a   5.37468700
_cell_length_b   5.55721880
_cell_length_c   15.93834496
_cell_angle_alpha   69.73267267
_cell_angle_beta   90.00000000
_cell_angle_gamma   90.00000000
_symmetry_Int_Tables_number   1
_chemical_formula_structural   Yb4MnFe3O10
_chemical_formula_sum   'Yb8 Mn2 Fe6 O20'
_cell_volume   446.57749985
_cell_formula_units_Z   2
loop_
 _symmetry_equiv_pos_site_id
 _symmetry_equiv_pos_as_xyz
  1  'x, y, z'
loop_
 _atom_site_type_symbol
 _atom_site_label
 _atom_site_symmetry_multiplicity
 _atom_site_fract_x
 _atom_site_fract_y
 _atom_site_fract_z
 _atom_site_occupancy
  Yb  Yb0  1  0.523480  0.131430  0.892278  1
  Yb  Yb1  1  0.023480  0.868570  0.607722  1
  Yb  Yb2  1  0.471364  0.583021  0.391799  1
  Yb  Yb3  1  0.971364  0.416979  0.108201  1
  Yb  Yb4  1  0.476520  0.868570  0.107722  1
  Yb  Yb5  1  0.976520  0.131430  0.392278  1
  Yb  Yb6  1  0.528636  0.416979  0.608201  1
  Yb  Yb7  1  0.028636  0.583021  0.891799  1
  Mn  Mn8  1  0.500000  0.500000  0.000000  1
  Mn  Mn9  1  0.000000  0.500000  0.500000  1
  Fe  Fe10  1  0.552277  0.815054  0.747769  1
  Fe  Fe11  1  0.052277  0.184946  0.752231  1
  Fe  Fe12  1  0.447723  0.184946  0.252231  1
  Fe  Fe13  1  0.947723  0.815054  0.247769  1
  Fe  Fe14  1  0.500000  0.000000  0.500000  1
  Fe  Fe15  1  0.000000  0.000000  0.000000  1
  O  O16  1  0.452107  0.559884  0.851496  1
  O  O17  1  0.952107  0.440116  0.648504  1
  O  O18  1  0.534037  0.208553  0.363698  1
  O  O19  1  0.034037  0.791447  0.136302  1
  O  O20  1  0.547893  0.440116  0.148504  1
  O  O21  1  0.047893  0.559884  0.351496  1
  O  O22  1  0.465963  0.791447  0.636302  1
  O  O23  1  0.965963  0.208553  0.863698  1
  O  O24  1  0.233201  0.255312  0.016761  1
  O  O25  1  0.733201  0.744688  0.483239  1
  O  O26  1  0.771358  0.216864  0.517333  1
  O  O27  1  0.271358  0.783136  0.982667  1
  O  O28  1  0.766799  0.744688  0.983239  1
  O  O29  1  0.266799  0.255312  0.516761  1
  O  O30  1  0.228642  0.783136  0.482667  1
  O  O31  1  0.728642  0.216864  0.017333  1
  O  O32  1  0.413333  0.136091  0.749746  1
  O  O33  1  0.913333  0.863909  0.750254  1
  O  O34  1  0.586667  0.863909  0.250254  1
  O  O35  1  0.086667  0.136091  0.249746  1
