# generated using pymatgen
data_Zr5Ga6FeRu12
_symmetry_space_group_name_H-M   'P 1'
_cell_length_a   4.40796100
_cell_length_b   6.30770600
_cell_length_c   13.23914200
_cell_angle_alpha   90.00000000
_cell_angle_beta   90.00103929
_cell_angle_gamma   90.00000000
_symmetry_Int_Tables_number   1
_chemical_formula_structural   Zr5Ga6FeRu12
_chemical_formula_sum   'Zr5 Ga6 Fe1 Ru12'
_cell_volume   368.10271994
_cell_formula_units_Z   1
loop_
 _symmetry_equiv_pos_site_id
 _symmetry_equiv_pos_as_xyz
  1  'x, y, z'
loop_
 _atom_site_type_symbol
 _atom_site_label
 _atom_site_symmetry_multiplicity
 _atom_site_fract_x
 _atom_site_fract_y
 _atom_site_fract_z
 _atom_site_occupancy
  Zr  Zr0  1  0.499973  0.500001  0.162259  1
  Zr  Zr1  1  0.999932  0.000000  0.331365  1
  Zr  Zr2  1  0.499998  0.500001  0.500000  1
  Zr  Zr3  1  0.000068  0.000000  0.668634  1
  Zr  Zr4  1  0.500028  0.500001  0.837741  1
  Ga  Ga5  1  0.000000  0.500001  0.000000  1
  Ga  Ga6  1  0.499936  0.000000  0.168768  1
  Ga  Ga7  1  0.999922  0.500001  0.329119  1
  Ga  Ga8  1  0.499998  0.000000  0.500000  1
  Ga  Ga9  1  0.000079  0.500001  0.670882  1
  Ga  Ga10  1  0.500065  0.000000  0.831232  1
  Fe  Fe11  1  0.000000  0.000000  0.000000  1
  Ru  Ru12  1  0.499998  0.223751  0.000000  1
  Ru  Ru13  1  0.499998  0.776249  0.000000  1
  Ru  Ru14  1  0.999965  0.240296  0.156634  1
  Ru  Ru15  1  0.999965  0.759703  0.156634  1
  Ru  Ru16  1  0.499918  0.251272  0.330564  1
  Ru  Ru17  1  0.499918  0.748730  0.330564  1
  Ru  Ru18  1  0.000000  0.250594  0.500000  1
  Ru  Ru19  1  0.000000  0.749405  0.500000  1
  Ru  Ru20  1  0.500080  0.251272  0.669436  1
  Ru  Ru21  1  0.500080  0.748730  0.669436  1
  Ru  Ru22  1  0.000036  0.240296  0.843367  1
  Ru  Ru23  1  0.000036  0.759703  0.843367  1
