# generated using pymatgen
data_Tb9Tm11Si15Os
_symmetry_space_group_name_H-M   'P 1'
_cell_length_a   7.34154990
_cell_length_b   7.70756793
_cell_length_c   14.44345213
_cell_angle_alpha   90.05079219
_cell_angle_beta   89.96388551
_cell_angle_gamma   90.14978492
_symmetry_Int_Tables_number   1
_chemical_formula_structural   Tb9Tm11Si15Os
_chemical_formula_sum   'Tb9 Tm11 Si15 Os1'
_cell_volume   817.28660778
_cell_formula_units_Z   1
loop_
 _symmetry_equiv_pos_site_id
 _symmetry_equiv_pos_as_xyz
  1  'x, y, z'
loop_
 _atom_site_type_symbol
 _atom_site_label
 _atom_site_symmetry_multiplicity
 _atom_site_fract_x
 _atom_site_fract_y
 _atom_site_fract_z
 _atom_site_occupancy
  Tb  Tb0  1  0.190900  0.324935  0.625886  1
  Tb  Tb1  1  0.521979  0.673367  0.596912  1
  Tb  Tb2  1  0.024048  0.819418  0.903971  1
  Tb  Tb3  1  0.475686  0.316895  0.097257  1
  Tb  Tb4  1  0.975647  0.181502  0.402129  1
  Tb  Tb5  1  0.475986  0.316896  0.402355  1
  Tb  Tb6  1  0.975863  0.181141  0.097132  1
  Tb  Tb7  1  0.520592  0.671719  0.903305  1
  Tb  Tb8  1  0.024527  0.818652  0.596723  1
  Tm  Tm9  1  0.671896  0.185179  0.626119  1
  Tm  Tm10  1  0.192152  0.325804  0.874137  1
  Tm  Tm11  1  0.319193  0.820019  0.124456  1
  Tm  Tm12  1  0.817751  0.676664  0.375042  1
  Tm  Tm13  1  0.318794  0.820774  0.375172  1
  Tm  Tm14  1  0.817701  0.676487  0.124198  1
  Tm  Tm15  1  0.669677  0.185716  0.874190  1
  Tm  Tm16  1  0.840659  0.510190  0.750418  1
  Tm  Tm17  1  0.354456  0.990534  0.750353  1
  Tm  Tm18  1  0.151157  0.486493  0.249770  1
  Tm  Tm19  1  0.650742  0.012007  0.249833  1
  Si  Si20  1  0.648374  0.969428  0.460387  1
  Si  Si21  1  0.149820  0.530055  0.040135  1
  Si  Si22  1  0.347092  0.025676  0.961890  1
  Si  Si23  1  0.852223  0.471513  0.538097  1
  Si  Si24  1  0.350046  0.023938  0.538513  1
  Si  Si25  1  0.854714  0.470124  0.961045  1
  Si  Si26  1  0.647861  0.969619  0.039361  1
  Si  Si27  1  0.148196  0.531121  0.458821  1
  Si  Si28  1  0.979426  0.102031  0.751049  1
  Si  Si29  1  0.521938  0.608447  0.249859  1
  Si  Si30  1  0.019739  0.891556  0.249830  1
  Si  Si31  1  0.738089  0.875694  0.750269  1
  Si  Si32  1  0.229514  0.634025  0.751086  1
  Si  Si33  1  0.270507  0.128990  0.249758  1
  Si  Si34  1  0.772590  0.370585  0.249857  1
  Os  Os35  1  0.480466  0.402802  0.750684  1
