# generated using pymatgen
data_CsRb3(Tm3Se5)4
_symmetry_space_group_name_H-M   'P 1'
_cell_length_a   4.10010100
_cell_length_b   12.25801716
_cell_length_c   21.92768100
_cell_angle_alpha   90.18236365
_cell_angle_beta   90.00000000
_cell_angle_gamma   90.00000000
_symmetry_Int_Tables_number   1
_chemical_formula_structural   CsRb3(Tm3Se5)4
_chemical_formula_sum   'Cs1 Rb3 Tm12 Se20'
_cell_volume   1102.06011407
_cell_formula_units_Z   1
loop_
 _symmetry_equiv_pos_site_id
 _symmetry_equiv_pos_as_xyz
  1  'x, y, z'
loop_
 _atom_site_type_symbol
 _atom_site_label
 _atom_site_symmetry_multiplicity
 _atom_site_fract_x
 _atom_site_fract_y
 _atom_site_fract_z
 _atom_site_occupancy
  Cs  Cs0  1  0.250000  0.644989  0.590924  1
  Rb  Rb1  1  0.250000  0.850039  0.094342  1
  Rb  Rb2  1  0.750000  0.149752  0.905746  1
  Rb  Rb3  1  0.750000  0.349832  0.405483  1
  Tm  Tm4  1  0.750000  0.799741  0.826907  1
  Tm  Tm5  1  0.250000  0.200782  0.173543  1
  Tm  Tm6  1  0.250000  0.297572  0.674428  1
  Tm  Tm7  1  0.750000  0.700929  0.325838  1
  Tm  Tm8  1  0.250000  0.957330  0.698752  1
  Tm  Tm9  1  0.750000  0.043620  0.301639  1
  Tm  Tm10  1  0.750000  0.455799  0.802476  1
  Tm  Tm11  1  0.250000  0.543510  0.198025  1
  Tm  Tm12  1  0.750000  0.390694  0.053727  1
  Tm  Tm13  1  0.250000  0.609415  0.946413  1
  Tm  Tm14  1  0.250000  0.892186  0.445799  1
  Tm  Tm15  1  0.750000  0.109842  0.553659  1
  Se  Se16  1  0.250000  0.948669  0.569217  1
  Se  Se17  1  0.750000  0.053354  0.430593  1
  Se  Se18  1  0.750000  0.447588  0.931007  1
  Se  Se19  1  0.250000  0.552536  0.069316  1
  Se  Se20  1  0.750000  0.766708  0.954348  1
  Se  Se21  1  0.250000  0.233350  0.046044  1
  Se  Se22  1  0.250000  0.267258  0.546309  1
  Se  Se23  1  0.750000  0.735213  0.452606  1
  Se  Se24  1  0.250000  0.953793  0.827270  1
  Se  Se25  1  0.750000  0.046815  0.173235  1
  Se  Se26  1  0.750000  0.450289  0.674702  1
  Se  Se27  1  0.250000  0.546855  0.326495  1
  Se  Se28  1  0.750000  0.126690  0.684553  1
  Se  Se29  1  0.250000  0.873568  0.315163  1
  Se  Se30  1  0.250000  0.626950  0.815694  1
  Se  Se31  1  0.750000  0.373143  0.184448  1
  Se  Se32  1  0.750000  0.695793  0.197703  1
  Se  Se33  1  0.250000  0.303574  0.802741  1
  Se  Se34  1  0.250000  0.195944  0.302054  1
  Se  Se35  1  0.750000  0.805879  0.698800  1
