# generated using pymatgen
data_Dy3TmCo16(Si3Ni)4
_symmetry_space_group_name_H-M   'P 1'
_cell_length_a   3.73258300
_cell_length_b   6.68767101
_cell_length_c   18.45417112
_cell_angle_alpha   90.00358041
_cell_angle_beta   90.00060815
_cell_angle_gamma   90.00020171
_symmetry_Int_Tables_number   1
_chemical_formula_structural   Dy3TmCo16(Si3Ni)4
_chemical_formula_sum   'Dy3 Tm1 Co16 Si12 Ni4'
_cell_volume   460.65831716
_cell_formula_units_Z   1
loop_
 _symmetry_equiv_pos_site_id
 _symmetry_equiv_pos_as_xyz
  1  'x, y, z'
loop_
 _atom_site_type_symbol
 _atom_site_label
 _atom_site_symmetry_multiplicity
 _atom_site_fract_x
 _atom_site_fract_y
 _atom_site_fract_z
 _atom_site_occupancy
  Dy  Dy0  1  0.749872  0.128959  0.642944  1
  Dy  Dy1  1  0.750138  0.371789  0.144180  1
  Dy  Dy2  1  0.250141  0.627582  0.856396  1
  Tm  Tm3  1  0.249920  0.872878  0.355983  1
  Co  Co4  1  0.250023  0.057410  0.204998  1
  Co  Co5  1  0.750039  0.941725  0.795711  1
  Co  Co6  1  0.750022  0.558311  0.296107  1
  Co  Co7  1  0.249993  0.441813  0.703706  1
  Co  Co8  1  0.249664  0.628948  0.486616  1
  Co  Co9  1  0.749689  0.375514  0.510376  1
  Co  Co10  1  0.750261  0.126324  0.012519  1
  Co  Co11  1  0.250282  0.873739  0.988468  1
  Co  Co12  1  0.250029  0.678441  0.203019  1
  Co  Co13  1  0.750054  0.321043  0.797485  1
  Co  Co14  1  0.750029  0.177482  0.298183  1
  Co  Co15  1  0.249966  0.821302  0.702181  1
  Co  Co16  1  0.249976  0.357550  0.386781  1
  Co  Co17  1  0.749827  0.640894  0.614045  1
  Co  Co18  1  0.750121  0.857906  0.114570  1
  Co  Co19  1  0.250181  0.141097  0.885846  1
  Si  Si20  1  0.250217  0.083422  0.082494  1
  Si  Si21  1  0.750222  0.916575  0.918290  1
  Si  Si22  1  0.749718  0.587520  0.417251  1
  Si  Si23  1  0.249810  0.418323  0.580851  1
  Si  Si24  1  0.250191  0.655511  0.078352  1
  Si  Si25  1  0.750218  0.343295  0.922063  1
  Si  Si26  1  0.749855  0.153848  0.421877  1
  Si  Si27  1  0.249680  0.843276  0.577855  1
  Si  Si28  1  0.250039  0.368175  0.263926  1
  Si  Si29  1  0.750014  0.631259  0.736579  1
  Si  Si30  1  0.750005  0.867986  0.237629  1
  Si  Si31  1  0.250015  0.131428  0.763011  1
  Ni  Ni32  1  0.250170  0.374326  0.005276  1
  Ni  Ni33  1  0.750163  0.624966  0.994976  1
  Ni  Ni34  1  0.749791  0.874475  0.494411  1
  Ni  Ni35  1  0.249667  0.124909  0.505046  1
