# generated using pymatgen
data_La2CdHgPt
_symmetry_space_group_name_H-M   'P 1'
_cell_length_a   8.28742404
_cell_length_b   8.28742476
_cell_length_c   4.00378400
_cell_angle_alpha   90.00000000
_cell_angle_beta   90.00000000
_cell_angle_gamma   92.52879949
_symmetry_Int_Tables_number   1
_chemical_formula_structural   La2CdHgPt
_chemical_formula_sum   'La4 Cd2 Hg2 Pt2'
_cell_volume   274.71771395
_cell_formula_units_Z   2
loop_
 _symmetry_equiv_pos_site_id
 _symmetry_equiv_pos_as_xyz
  1  'x, y, z'
loop_
 _atom_site_type_symbol
 _atom_site_label
 _atom_site_symmetry_multiplicity
 _atom_site_fract_x
 _atom_site_fract_y
 _atom_site_fract_z
 _atom_site_occupancy
  La  La0  1  0.689830  0.189830  0.500000  1
  La  La1  1  0.310170  0.810170  0.500000  1
  La  La2  1  0.157446  0.342554  0.500000  1
  La  La3  1  0.842554  0.657446  0.500000  1
  Cd  Cd4  1  0.000000  0.000000  0.000000  1
  Cd  Cd5  1  0.500000  0.500000  0.000000  1
  Hg  Hg6  1  0.628619  0.871381  0.000000  1
  Hg  Hg7  1  0.371381  0.128619  0.000000  1
  Pt  Pt8  1  0.125599  0.625599  0.000000  1
  Pt  Pt9  1  0.874401  0.374401  0.000000  1
