# generated using pymatgen
data_SmHo3(CI)2
_symmetry_space_group_name_H-M   'P 1'
_cell_length_a   3.75926400
_cell_length_b   3.75926513
_cell_length_c   14.85136700
_cell_angle_alpha   90.00000000
_cell_angle_beta   90.00000000
_cell_angle_gamma   119.99997250
_symmetry_Int_Tables_number   1
_chemical_formula_structural   SmHo3(CI)2
_chemical_formula_sum   'Sm1 Ho3 C2 I2'
_cell_volume   181.76194605
_cell_formula_units_Z   1
loop_
 _symmetry_equiv_pos_site_id
 _symmetry_equiv_pos_as_xyz
  1  'x, y, z'
loop_
 _atom_site_type_symbol
 _atom_site_label
 _atom_site_symmetry_multiplicity
 _atom_site_fract_x
 _atom_site_fract_y
 _atom_site_fract_z
 _atom_site_occupancy
  Sm  Sm0  1  0.333333  0.666667  0.914030  1
  Ho  Ho1  1  0.333333  0.666667  0.582923  1
  Ho  Ho2  1  0.666667  0.333333  0.414593  1
  Ho  Ho3  1  0.666667  0.333333  0.087537  1
  C  C4  1  0.000000  0.000000  0.007265  1
  C  C5  1  0.000000  0.000000  0.498182  1
  I  I6  1  0.333333  0.666667  0.252322  1
  I  I7  1  0.666667  0.333333  0.743148  1
