# generated using pymatgen
data_Er3Ga3Pd2Au
_symmetry_space_group_name_H-M   'P 1'
_cell_length_a   7.50579900
_cell_length_b   7.50579909
_cell_length_c   7.32655300
_cell_angle_alpha   90.00000000
_cell_angle_beta   90.00000000
_cell_angle_gamma   119.99999520
_symmetry_Int_Tables_number   1
_chemical_formula_structural   Er3Ga3Pd2Au
_chemical_formula_sum   'Er6 Ga6 Pd4 Au2'
_cell_volume   357.45733539
_cell_formula_units_Z   2
loop_
 _symmetry_equiv_pos_site_id
 _symmetry_equiv_pos_as_xyz
  1  'x, y, z'
loop_
 _atom_site_type_symbol
 _atom_site_label
 _atom_site_symmetry_multiplicity
 _atom_site_fract_x
 _atom_site_fract_y
 _atom_site_fract_z
 _atom_site_occupancy
  Er  Er0  1  0.733996  0.071501  0.000000  1
  Er  Er1  1  0.337504  0.266004  0.000000  1
  Er  Er2  1  0.928499  0.662496  0.000000  1
  Er  Er3  1  0.342905  0.268380  0.500000  1
  Er  Er4  1  0.731620  0.074525  0.500000  1
  Er  Er5  1  0.925475  0.657095  0.500000  1
  Ga  Ga6  1  0.591697  0.660441  0.750053  1
  Ga  Ga7  1  0.068745  0.408303  0.750053  1
  Ga  Ga8  1  0.339559  0.931255  0.750053  1
  Ga  Ga9  1  0.591697  0.660441  0.249947  1
  Ga  Ga10  1  0.068745  0.408303  0.249947  1
  Ga  Ga11  1  0.339559  0.931255  0.249947  1
  Pd  Pd12  1  0.333333  0.666667  0.000000  1
  Pd  Pd13  1  0.333333  0.666667  0.500000  1
  Pd  Pd14  1  0.666667  0.333333  0.754411  1
  Pd  Pd15  1  0.666667  0.333333  0.245589  1
  Au  Au16  1  0.000000  0.000000  0.253900  1
  Au  Au17  1  0.000000  0.000000  0.746100  1
