# generated using pymatgen
data_Tb2DyY(Al8Pt3)3
_symmetry_space_group_name_H-M   'P 1'
_cell_length_a   7.53644177
_cell_length_b   7.55765394
_cell_length_c   13.18836604
_cell_angle_alpha   84.56751763
_cell_angle_beta   79.11401789
_cell_angle_gamma   59.97269569
_symmetry_Int_Tables_number   1
_chemical_formula_structural   Tb2DyY(Al8Pt3)3
_chemical_formula_sum   'Tb2 Dy1 Y1 Al24 Pt9'
_cell_volume   638.65907154
_cell_formula_units_Z   1
loop_
 _symmetry_equiv_pos_site_id
 _symmetry_equiv_pos_as_xyz
  1  'x, y, z'
loop_
 _atom_site_type_symbol
 _atom_site_label
 _atom_site_symmetry_multiplicity
 _atom_site_fract_x
 _atom_site_fract_y
 _atom_site_fract_z
 _atom_site_occupancy
  Tb  Tb0  1  0.606615  0.831589  0.192065  1
  Tb  Tb1  1  0.734059  0.498471  0.807640  1
  Dy  Dy2  1  0.265912  0.501496  0.192442  1
  Y  Y3  1  0.393361  0.168446  0.807998  1
  Al  Al4  1  0.684553  0.833678  0.944566  1
  Al  Al5  1  0.315433  0.166396  0.055558  1
  Al  Al6  1  0.146849  0.832378  0.561252  1
  Al  Al7  1  0.853155  0.167618  0.438727  1
  Al  Al8  1  0.479726  0.166850  0.558608  1
  Al  Al9  1  0.520283  0.833160  0.441360  1
  Al  Al10  1  0.217024  0.165335  0.330061  1
  Al  Al11  1  0.782946  0.834798  0.669862  1
  Al  Al12  1  0.437826  0.506198  0.669890  1
  Al  Al13  1  0.562094  0.493743  0.330050  1
  Al  Al14  1  0.109827  0.159922  0.669095  1
  Al  Al15  1  0.890352  0.839990  0.330850  1
  Al  Al16  1  0.353068  0.499176  0.944734  1
  Al  Al17  1  0.646793  0.500842  0.055395  1
  Al  Al18  1  0.014921  0.167750  0.953220  1
  Al  Al19  1  0.985111  0.832158  0.046870  1
  Al  Al20  1  0.186771  0.498934  0.441273  1
  Al  Al21  1  0.813254  0.501067  0.558669  1
  Al  Al22  1  0.734398  0.163997  0.183367  1
  Al  Al23  1  0.265551  0.836033  0.816622  1
  Al  Al24  1  0.061769  0.631667  0.815402  1
  Al  Al25  1  0.938275  0.368349  0.184589  1
  Al  Al26  1  0.855109  0.041549  0.815962  1
  Al  Al27  1  0.144933  0.958397  0.184029  1
  Pt  Pt28  1  0.120112  0.492212  0.638666  1
  Pt  Pt29  1  0.879980  0.507803  0.361275  1
  Pt  Pt30  1  0.657242  0.171216  0.999960  1
  Pt  Pt31  1  0.342695  0.828806  0.000057  1
  Pt  Pt32  1  0.538010  0.166776  0.361268  1
  Pt  Pt33  1  0.461927  0.833311  0.638666  1
  Pt  Pt34  1  0.779070  0.174878  0.637157  1
  Pt  Pt35  1  0.220959  0.825027  0.362778  1
  Pt  Pt36  1  0.000039  0.499985  0.000016  1
