# generated using pymatgen
data_Zr6Ta2Ti2Al12Co7
_symmetry_space_group_name_H-M   'P 1'
_cell_length_a   8.59887816
_cell_length_b   8.59862126
_cell_length_c   8.60445800
_cell_angle_alpha   59.97854544
_cell_angle_beta   59.97766846
_cell_angle_gamma   59.96826156
_symmetry_Int_Tables_number   1
_chemical_formula_structural   Zr6Ta2Ti2Al12Co7
_chemical_formula_sum   'Zr6 Ta2 Ti2 Al12 Co7'
_cell_volume   449.60500088
_cell_formula_units_Z   1
loop_
 _symmetry_equiv_pos_site_id
 _symmetry_equiv_pos_as_xyz
  1  'x, y, z'
loop_
 _atom_site_type_symbol
 _atom_site_label
 _atom_site_symmetry_multiplicity
 _atom_site_fract_x
 _atom_site_fract_y
 _atom_site_fract_z
 _atom_site_occupancy
  Zr  Zr0  1  0.691685  0.307869  0.307780  1
  Zr  Zr1  1  0.691712  0.307864  0.692671  1
  Zr  Zr2  1  0.692518  0.692536  0.307485  1
  Zr  Zr3  1  0.307887  0.691707  0.692651  1
  Zr  Zr4  1  0.307861  0.691710  0.307753  1
  Zr  Zr5  1  0.307977  0.307956  0.692022  1
  Ta  Ta6  1  0.119096  0.119081  0.643029  1
  Ta  Ta7  1  0.119089  0.119058  0.118812  1
  Ti  Ti8  1  0.644853  0.118716  0.118202  1
  Ti  Ti9  1  0.118710  0.644844  0.118229  1
  Al  Al10  1  0.360466  0.877500  0.881028  1
  Al  Al11  1  0.877501  0.360468  0.880998  1
  Al  Al12  1  0.878843  0.878815  0.360030  1
  Al  Al13  1  0.878822  0.878845  0.882309  1
  Al  Al14  1  0.993048  0.338899  0.334064  1
  Al  Al15  1  0.338892  0.993047  0.334007  1
  Al  Al16  1  0.336433  0.336388  0.995351  1
  Al  Al17  1  0.336372  0.336441  0.331838  1
  Al  Al18  1  0.002835  0.665873  0.665613  1
  Al  Al19  1  0.665872  0.002833  0.665666  1
  Al  Al20  1  0.665660  0.665711  0.003305  1
  Al  Al21  1  0.665715  0.665666  0.665315  1
  Co  Co22  1  0.999959  0.999943  0.000050  1
  Co  Co23  1  0.493683  0.004253  0.002989  1
  Co  Co24  1  0.493658  0.004275  0.499056  1
  Co  Co25  1  0.497445  0.497457  0.002549  1
  Co  Co26  1  0.004250  0.493694  0.499072  1
  Co  Co27  1  0.004272  0.493663  0.003012  1
  Co  Co28  1  0.004885  0.004885  0.495115  1
