# generated using pymatgen
data_TbDy(In2Rh)2
_symmetry_space_group_name_H-M   'P 1'
_cell_length_a   5.49721204
_cell_length_b   5.49721108
_cell_length_c   8.29393700
_cell_angle_alpha   90.00000000
_cell_angle_beta   90.00000000
_cell_angle_gamma   134.83590364
_symmetry_Int_Tables_number   1
_chemical_formula_structural   TbDy(In2Rh)2
_chemical_formula_sum   'Tb1 Dy1 In4 Rh2'
_cell_volume   177.73416135
_cell_formula_units_Z   1
loop_
 _symmetry_equiv_pos_site_id
 _symmetry_equiv_pos_as_xyz
  1  'x, y, z'
loop_
 _atom_site_type_symbol
 _atom_site_label
 _atom_site_symmetry_multiplicity
 _atom_site_fract_x
 _atom_site_fract_y
 _atom_site_fract_z
 _atom_site_occupancy
  Tb  Tb0  1  0.932606  0.067394  0.750000  1
  Dy  Dy1  1  0.068044  0.931956  0.250000  1
  In  In2  1  0.643982  0.356018  0.548957  1
  In  In3  1  0.356197  0.643803  0.450621  1
  In  In4  1  0.643982  0.356018  0.951043  1
  In  In5  1  0.356197  0.643803  0.049379  1
  Rh  Rh6  1  0.222594  0.777406  0.750000  1
  Rh  Rh7  1  0.776397  0.223603  0.250000  1
