# generated using pymatgen
data_Lu5Nb3(ReB6)4
_symmetry_space_group_name_H-M   'P 1'
_cell_length_a   3.55756500
_cell_length_b   8.94038928
_cell_length_c   11.28774494
_cell_angle_alpha   89.91732769
_cell_angle_beta   90.00000000
_cell_angle_gamma   90.00000000
_symmetry_Int_Tables_number   1
_chemical_formula_structural   Lu5Nb3(ReB6)4
_chemical_formula_sum   'Lu5 Nb3 Re4 B24'
_cell_volume   359.01782229
_cell_formula_units_Z   1
loop_
 _symmetry_equiv_pos_site_id
 _symmetry_equiv_pos_as_xyz
  1  'x, y, z'
loop_
 _atom_site_type_symbol
 _atom_site_label
 _atom_site_symmetry_multiplicity
 _atom_site_fract_x
 _atom_site_fract_y
 _atom_site_fract_z
 _atom_site_occupancy
  Lu  Lu0  1  0.000000  0.321985  0.413684  1
  Lu  Lu1  1  0.000000  0.677336  0.587853  1
  Lu  Lu2  1  0.000000  0.822109  0.086366  1
  Lu  Lu3  1  0.000000  0.177358  0.911886  1
  Lu  Lu4  1  0.000000  0.945214  0.373706  1
  Nb  Nb5  1  0.000000  0.055387  0.627416  1
  Nb  Nb6  1  0.000000  0.445389  0.123947  1
  Nb  Nb7  1  0.000000  0.555675  0.875796  1
  Re  Re8  1  0.000000  0.635445  0.315526  1
  Re  Re9  1  0.000000  0.358540  0.683451  1
  Re  Re10  1  0.000000  0.146615  0.177783  1
  Re  Re11  1  0.000000  0.857289  0.820445  1
  B  B12  1  0.500000  0.551425  0.434302  1
  B  B13  1  0.500000  0.445543  0.566175  1
  B  B14  1  0.500000  0.054406  0.064996  1
  B  B15  1  0.500000  0.946452  0.934414  1
  B  B16  1  0.500000  0.749637  0.418700  1
  B  B17  1  0.500000  0.246262  0.582204  1
  B  B18  1  0.500000  0.254602  0.079244  1
  B  B19  1  0.500000  0.746370  0.919538  1
  B  B20  1  0.500000  0.794128  0.262828  1
  B  B21  1  0.500000  0.204087  0.738331  1
  B  B22  1  0.500000  0.296592  0.235264  1
  B  B23  1  0.500000  0.703729  0.762778  1
  B  B24  1  0.500000  0.628856  0.181705  1
  B  B25  1  0.500000  0.370938  0.818682  1
  B  B26  1  0.500000  0.132490  0.316310  1
  B  B27  1  0.500000  0.870856  0.682348  1
  B  B28  1  0.500000  0.982832  0.211389  1
  B  B29  1  0.500000  0.019470  0.788234  1
  B  B30  1  0.500000  0.479085  0.286783  1
  B  B31  1  0.500000  0.520246  0.712563  1
  B  B32  1  0.500000  0.600033  0.026178  1
  B  B33  1  0.500000  0.401085  0.972593  1
  B  B34  1  0.500000  0.102244  0.476222  1
  B  B35  1  0.500000  0.900290  0.530358  1
