# generated using pymatgen
data_Ho8Tc3B24Rh
_symmetry_space_group_name_H-M   'P 1'
_cell_length_a   3.66856100
_cell_length_b   9.13811388
_cell_length_c   11.51240459
_cell_angle_alpha   90.14030523
_cell_angle_beta   90.00000000
_cell_angle_gamma   90.00000000
_symmetry_Int_Tables_number   1
_chemical_formula_structural   Ho8Tc3B24Rh
_chemical_formula_sum   'Ho8 Tc3 B24 Rh1'
_cell_volume   385.93756522
_cell_formula_units_Z   1
loop_
 _symmetry_equiv_pos_site_id
 _symmetry_equiv_pos_as_xyz
  1  'x, y, z'
loop_
 _atom_site_type_symbol
 _atom_site_label
 _atom_site_symmetry_multiplicity
 _atom_site_fract_x
 _atom_site_fract_y
 _atom_site_fract_z
 _atom_site_occupancy
  Ho  Ho0  1  0.500000  0.319099  0.415866  1
  Ho  Ho1  1  0.500000  0.677588  0.591149  1
  Ho  Ho2  1  0.500000  0.176858  0.912749  1
  Ho  Ho3  1  0.500000  0.827433  0.081359  1
  Ho  Ho4  1  0.500000  0.440758  0.129093  1
  Ho  Ho5  1  0.500000  0.556930  0.871093  1
  Ho  Ho6  1  0.500000  0.056119  0.629555  1
  Ho  Ho7  1  0.500000  0.943918  0.369722  1
  Tc  Tc8  1  0.500000  0.138671  0.180169  1
  Tc  Tc9  1  0.500000  0.861366  0.820697  1
  Tc  Tc10  1  0.500000  0.362536  0.677820  1
  B  B11  1  0.000000  0.102821  0.470966  1
  B  B12  1  0.000000  0.894238  0.528467  1
  B  B13  1  0.000000  0.396210  0.971704  1
  B  B14  1  0.000000  0.604728  0.029599  1
  B  B15  1  0.000000  0.131155  0.314944  1
  B  B16  1  0.000000  0.868058  0.685373  1
  B  B17  1  0.000000  0.368883  0.814262  1
  B  B18  1  0.000000  0.632067  0.184054  1
  B  B19  1  0.000000  0.053719  0.066526  1
  B  B20  1  0.000000  0.947040  0.932592  1
  B  B21  1  0.000000  0.446441  0.566527  1
  B  B22  1  0.000000  0.553892  0.433841  1
  B  B23  1  0.000000  0.483293  0.287991  1
  B  B24  1  0.000000  0.517751  0.712261  1
  B  B25  1  0.000000  0.017110  0.787173  1
  B  B26  1  0.000000  0.983282  0.211824  1
  B  B27  1  0.000000  0.249049  0.080969  1
  B  B28  1  0.000000  0.751837  0.919120  1
  B  B29  1  0.000000  0.250705  0.580710  1
  B  B30  1  0.000000  0.748951  0.420423  1
  B  B31  1  0.000000  0.291942  0.235205  1
  B  B32  1  0.000000  0.707937  0.765792  1
  B  B33  1  0.000000  0.208260  0.734184  1
  B  B34  1  0.000000  0.791410  0.264948  1
  Rh  Rh35  1  0.500000  0.637949  0.321275  1
