# generated using pymatgen
data_Er8Ga3Os
_symmetry_space_group_name_H-M   'P 1'
_cell_length_a   9.93450000
_cell_length_b   9.93450104
_cell_length_c   6.99075700
_cell_angle_alpha   90.00000000
_cell_angle_beta   90.00000000
_cell_angle_gamma   120.00000319
_symmetry_Int_Tables_number   1
_chemical_formula_structural   Er8Ga3Os
_chemical_formula_sum   'Er16 Ga6 Os2'
_cell_volume   597.51236594
_cell_formula_units_Z   2
loop_
 _symmetry_equiv_pos_site_id
 _symmetry_equiv_pos_as_xyz
  1  'x, y, z'
loop_
 _atom_site_type_symbol
 _atom_site_label
 _atom_site_symmetry_multiplicity
 _atom_site_fract_x
 _atom_site_fract_y
 _atom_site_fract_z
 _atom_site_occupancy
  Er  Er0  1  0.000000  0.000000  0.266663  1
  Er  Er1  1  0.000000  0.000000  0.766663  1
  Er  Er2  1  0.171701  0.828299  0.991028  1
  Er  Er3  1  0.828299  0.171701  0.491028  1
  Er  Er4  1  0.171701  0.343402  0.991028  1
  Er  Er5  1  0.656598  0.828299  0.991028  1
  Er  Er6  1  0.343402  0.171701  0.491028  1
  Er  Er7  1  0.828299  0.656598  0.491028  1
  Er  Er8  1  0.333333  0.666667  0.660760  1
  Er  Er9  1  0.666667  0.333333  0.160760  1
  Er  Er10  1  0.465863  0.534137  0.295693  1
  Er  Er11  1  0.534137  0.465863  0.795693  1
  Er  Er12  1  0.465863  0.931726  0.295693  1
  Er  Er13  1  0.068274  0.534137  0.295693  1
  Er  Er14  1  0.931726  0.465863  0.795693  1
  Er  Er15  1  0.534137  0.068274  0.795693  1
  Ga  Ga16  1  0.163858  0.836142  0.542980  1
  Ga  Ga17  1  0.836142  0.163858  0.042980  1
  Ga  Ga18  1  0.163858  0.327716  0.542980  1
  Ga  Ga19  1  0.672284  0.836142  0.542980  1
  Ga  Ga20  1  0.327716  0.163858  0.042980  1
  Ga  Ga21  1  0.836142  0.672284  0.042980  1
  Os  Os22  1  0.333333  0.666667  0.056536  1
  Os  Os23  1  0.666667  0.333333  0.556536  1
