# generated using pymatgen
data_Tb19YCo3Bi8Os
_symmetry_space_group_name_H-M   'P 1'
_cell_length_a   8.04857684
_cell_length_b   8.92975400
_cell_length_c   12.48854175
_cell_angle_alpha   90.00000000
_cell_angle_beta   90.21239861
_cell_angle_gamma   90.00000000
_symmetry_Int_Tables_number   1
_chemical_formula_structural   Tb19YCo3Bi8Os
_chemical_formula_sum   'Tb19 Y1 Co3 Bi8 Os1'
_cell_volume   897.56794763
_cell_formula_units_Z   1
loop_
 _symmetry_equiv_pos_site_id
 _symmetry_equiv_pos_as_xyz
  1  'x, y, z'
loop_
 _atom_site_type_symbol
 _atom_site_label
 _atom_site_symmetry_multiplicity
 _atom_site_fract_x
 _atom_site_fract_y
 _atom_site_fract_z
 _atom_site_occupancy
  Tb  Tb0  1  0.847207  0.750000  0.800179  1
  Tb  Tb1  1  0.348206  0.250000  0.698989  1
  Tb  Tb2  1  0.653836  0.750000  0.294964  1
  Tb  Tb3  1  0.379339  0.750000  0.695084  1
  Tb  Tb4  1  0.618119  0.250000  0.309398  1
  Tb  Tb5  1  0.881313  0.250000  0.810218  1
  Tb  Tb6  1  0.117924  0.750000  0.187764  1
  Tb  Tb7  1  0.945922  0.750000  0.503993  1
  Tb  Tb8  1  0.050708  0.250000  0.496341  1
  Tb  Tb9  1  0.452516  0.250000  0.997451  1
  Tb  Tb10  1  0.546206  0.750000  0.002163  1
  Tb  Tb11  1  0.677684  0.041274  0.564594  1
  Tb  Tb12  1  0.323634  0.964450  0.437046  1
  Tb  Tb13  1  0.176037  0.966601  0.937162  1
  Tb  Tb14  1  0.323634  0.535550  0.437046  1
  Tb  Tb15  1  0.822854  0.035669  0.062803  1
  Tb  Tb16  1  0.677684  0.458726  0.564594  1
  Tb  Tb17  1  0.822854  0.464331  0.062803  1
  Tb  Tb18  1  0.176037  0.533399  0.937162  1
  Y  Y19  1  0.152265  0.250000  0.199390  1
  Co  Co20  1  0.433745  0.250000  0.490447  1
  Co  Co21  1  0.059277  0.250000  0.991053  1
  Co  Co22  1  0.938502  0.750000  0.007390  1
  Bi  Bi23  1  0.572620  0.491235  0.827341  1
  Bi  Bi24  1  0.426601  0.507400  0.173337  1
  Bi  Bi25  1  0.072371  0.507731  0.674381  1
  Bi  Bi26  1  0.426601  0.992600  0.173337  1
  Bi  Bi27  1  0.930041  0.491799  0.325613  1
  Bi  Bi28  1  0.572620  0.008765  0.827341  1
  Bi  Bi29  1  0.930041  0.008201  0.325613  1
  Bi  Bi30  1  0.072371  0.992269  0.674381  1
  Os  Os31  1  0.571230  0.750000  0.510620  1
