# generated using pymatgen
data_Tm20AlBi11
_symmetry_space_group_name_H-M   'P 1'
_cell_length_a   8.14268568
_cell_length_b   9.42374200
_cell_length_c   11.88129811
_cell_angle_alpha   90.00000000
_cell_angle_beta   89.72637561
_cell_angle_gamma   90.00000000
_symmetry_Int_Tables_number   1
_chemical_formula_structural   Tm20AlBi11
_chemical_formula_sum   'Tm20 Al1 Bi11'
_cell_volume   911.69589364
_cell_formula_units_Z   1
loop_
 _symmetry_equiv_pos_site_id
 _symmetry_equiv_pos_as_xyz
  1  'x, y, z'
loop_
 _atom_site_type_symbol
 _atom_site_label
 _atom_site_symmetry_multiplicity
 _atom_site_fract_x
 _atom_site_fract_y
 _atom_site_fract_z
 _atom_site_occupancy
  Tm  Tm0  1  0.035657  0.250000  0.509532  1
  Tm  Tm1  1  0.978217  0.750000  0.489533  1
  Tm  Tm2  1  0.475472  0.750000  0.010854  1
  Tm  Tm3  1  0.525319  0.250000  0.989570  1
  Tm  Tm4  1  0.355620  0.250000  0.291945  1
  Tm  Tm5  1  0.647343  0.750000  0.716857  1
  Tm  Tm6  1  0.149148  0.750000  0.783093  1
  Tm  Tm7  1  0.853170  0.250000  0.215554  1
  Tm  Tm8  1  0.191959  0.250000  0.777899  1
  Tm  Tm9  1  0.809780  0.750000  0.217328  1
  Tm  Tm10  1  0.312480  0.750000  0.281608  1
  Tm  Tm11  1  0.678220  0.250000  0.712200  1
  Tm  Tm12  1  0.193065  0.065898  0.060402  1
  Tm  Tm13  1  0.807020  0.934411  0.940785  1
  Tm  Tm14  1  0.307603  0.946499  0.559299  1
  Tm  Tm15  1  0.807020  0.565589  0.940785  1
  Tm  Tm16  1  0.686148  0.071050  0.444262  1
  Tm  Tm17  1  0.193065  0.434102  0.060402  1
  Tm  Tm18  1  0.686148  0.428950  0.444262  1
  Tm  Tm19  1  0.307603  0.553501  0.559299  1
  Al  Al20  1  0.407196  0.250000  0.541138  1
  Bi  Bi21  1  0.594255  0.750000  0.457461  1
  Bi  Bi22  1  0.094701  0.750000  0.042842  1
  Bi  Bi23  1  0.906479  0.250000  0.954884  1
  Bi  Bi24  1  0.062923  0.002300  0.323723  1
  Bi  Bi25  1  0.935511  0.997085  0.675512  1
  Bi  Bi26  1  0.435772  0.996655  0.825311  1
  Bi  Bi27  1  0.935511  0.502915  0.675512  1
  Bi  Bi28  1  0.564450  0.003883  0.174558  1
  Bi  Bi29  1  0.062923  0.497700  0.323723  1
  Bi  Bi30  1  0.564450  0.496117  0.174558  1
  Bi  Bi31  1  0.435772  0.503345  0.825311  1
