# generated using pymatgen
data_Tb2Zn14Rh3
_symmetry_space_group_name_H-M   'P 1'
_cell_length_a   6.81702465
_cell_length_b   6.81702514
_cell_length_c   6.81702491
_cell_angle_alpha   97.81312706
_cell_angle_beta   82.18686854
_cell_angle_gamma   97.81313877
_symmetry_Int_Tables_number   1
_chemical_formula_structural   Tb2Zn14Rh3
_chemical_formula_sum   'Tb2 Zn14 Rh3'
_cell_volume   308.71034515
_cell_formula_units_Z   1
loop_
 _symmetry_equiv_pos_site_id
 _symmetry_equiv_pos_as_xyz
  1  'x, y, z'
loop_
 _atom_site_type_symbol
 _atom_site_label
 _atom_site_symmetry_multiplicity
 _atom_site_fract_x
 _atom_site_fract_y
 _atom_site_fract_z
 _atom_site_occupancy
  Tb  Tb0  1  0.327487  0.672513  0.327487  1
  Tb  Tb1  1  0.672513  0.327487  0.672513  1
  Zn  Zn2  1  0.295739  0.295739  0.000000  1
  Zn  Zn3  1  0.704261  0.704261  0.000000  1
  Zn  Zn4  1  0.100091  0.899909  0.100091  1
  Zn  Zn5  1  0.648456  0.351544  0.159293  1
  Zn  Zn6  1  0.704261  0.000000  0.295739  1
  Zn  Zn7  1  0.000000  0.295740  0.295740  1
  Zn  Zn8  1  0.840707  0.648456  0.351544  1
  Zn  Zn9  1  0.351544  0.159293  0.351544  1
  Zn  Zn10  1  0.159294  0.351545  0.648455  1
  Zn  Zn11  1  0.648456  0.840707  0.648456  1
  Zn  Zn12  1  0.000000  0.704260  0.704260  1
  Zn  Zn13  1  0.295739  0.000000  0.704261  1
  Zn  Zn14  1  0.351544  0.648456  0.840707  1
  Zn  Zn15  1  0.899909  0.100091  0.899909  1
  Rh  Rh16  1  0.500000  0.000000  0.000000  1
  Rh  Rh17  1  0.000000  0.500000  0.000000  1
  Rh  Rh18  1  0.000000  0.000000  0.500000  1
