# generated using pymatgen
data_Dy5Lu7ZnCo4Sn
_symmetry_space_group_name_H-M   'P 1'
_cell_length_a   8.22194179
_cell_length_b   8.22191682
_cell_length_c   8.21642358
_cell_angle_alpha   112.36545801
_cell_angle_beta   109.23892897
_cell_angle_gamma   106.88571873
_symmetry_Int_Tables_number   1
_chemical_formula_structural   Dy5Lu7ZnCo4Sn
_chemical_formula_sum   'Dy5 Lu7 Zn1 Co4 Sn1'
_cell_volume   426.42766749
_cell_formula_units_Z   1
loop_
 _symmetry_equiv_pos_site_id
 _symmetry_equiv_pos_as_xyz
  1  'x, y, z'
loop_
 _atom_site_type_symbol
 _atom_site_label
 _atom_site_symmetry_multiplicity
 _atom_site_fract_x
 _atom_site_fract_y
 _atom_site_fract_z
 _atom_site_occupancy
  Dy  Dy0  1  0.434890  0.231936  0.201468  1
  Dy  Dy1  1  0.569716  0.770984  0.800870  1
  Dy  Dy2  1  0.029725  0.231176  0.800796  1
  Dy  Dy3  1  0.969378  0.766480  0.201296  1
  Dy  Dy4  1  0.179508  0.283303  0.462897  1
  Lu  Lu5  1  0.820442  0.718182  0.538501  1
  Lu  Lu6  1  0.179580  0.717846  0.897349  1
  Lu  Lu7  1  0.819353  0.282136  0.101456  1
  Lu  Lu8  1  0.326005  0.638987  0.312855  1
  Lu  Lu9  1  0.676270  0.362350  0.688235  1
  Lu  Lu10  1  0.326049  0.012103  0.688274  1
  Lu  Lu11  1  0.673958  0.986977  0.312826  1
  Zn  Zn12  1  0.001558  0.997835  0.999099  1
  Co  Co13  1  0.345423  0.997572  0.342926  1
  Co  Co14  1  0.654209  0.999693  0.653813  1
  Co  Co15  1  0.113026  0.617032  0.499089  1
  Co  Co16  1  0.882274  0.386217  0.499128  1
  Sn  Sn17  1  0.498636  0.499192  0.999122  1
