# generated using pymatgen
data_CaEu3Ta2Mn2O14
_symmetry_space_group_name_H-M   'P 1'
_cell_length_a   7.34510505
_cell_length_b   7.32614270
_cell_length_c   7.40844700
_cell_angle_alpha   59.62767483
_cell_angle_beta   59.71432260
_cell_angle_gamma   59.63185595
_symmetry_Int_Tables_number   1
_chemical_formula_structural   CaEu3Ta2Mn2O14
_chemical_formula_sum   'Ca1 Eu3 Ta2 Mn2 O14'
_cell_volume   279.70264586
_cell_formula_units_Z   1
loop_
 _symmetry_equiv_pos_site_id
 _symmetry_equiv_pos_as_xyz
  1  'x, y, z'
loop_
 _atom_site_type_symbol
 _atom_site_label
 _atom_site_symmetry_multiplicity
 _atom_site_fract_x
 _atom_site_fract_y
 _atom_site_fract_z
 _atom_site_occupancy
  Ca  Ca0  1  0.125000  0.625000  0.125000  1
  Eu  Eu1  1  0.125000  0.125000  0.625000  1
  Eu  Eu2  1  0.625000  0.125000  0.125000  1
  Eu  Eu3  1  0.125000  0.125000  0.125000  1
  Ta  Ta4  1  0.625000  0.625000  0.625000  1
  Ta  Ta5  1  0.625000  0.625000  0.125000  1
  Mn  Mn6  1  0.125000  0.625000  0.625000  1
  Mn  Mn7  1  0.625000  0.125000  0.625000  1
  O  O8  1  0.301934  0.698791  0.690954  1
  O  O9  1  0.550062  0.950979  0.943622  1
  O  O10  1  0.699967  0.700052  0.299990  1
  O  O11  1  0.299763  0.299352  0.700443  1
  O  O12  1  0.999460  0.001133  0.999703  1
  O  O13  1  0.301934  0.698791  0.308320  1
  O  O14  1  0.699938  0.299021  0.694663  1
  O  O15  1  0.948066  0.551209  0.941680  1
  O  O16  1  0.550033  0.549948  0.950010  1
  O  O17  1  0.950237  0.950648  0.549557  1
  O  O18  1  0.250540  0.248867  0.250297  1
  O  O19  1  0.550062  0.950979  0.555337  1
  O  O20  1  0.699938  0.299021  0.306378  1
  O  O21  1  0.948066  0.551209  0.559046  1
