# generated using pymatgen
data_Th10Tl3Si2Bi3
_symmetry_space_group_name_H-M   'P 1'
_cell_length_a   9.66597700
_cell_length_b   9.66597757
_cell_length_c   6.63875700
_cell_angle_alpha   90.00000000
_cell_angle_beta   90.00000000
_cell_angle_gamma   120.00000148
_symmetry_Int_Tables_number   1
_chemical_formula_structural   Th10Tl3Si2Bi3
_chemical_formula_sum   'Th10 Tl3 Si2 Bi3'
_cell_volume   537.16652159
_cell_formula_units_Z   1
loop_
 _symmetry_equiv_pos_site_id
 _symmetry_equiv_pos_as_xyz
  1  'x, y, z'
loop_
 _atom_site_type_symbol
 _atom_site_label
 _atom_site_symmetry_multiplicity
 _atom_site_fract_x
 _atom_site_fract_y
 _atom_site_fract_z
 _atom_site_occupancy
  Th  Th0  1  0.666667  0.333333  0.501844  1
  Th  Th1  1  0.333333  0.666667  0.501844  1
  Th  Th2  1  0.333333  0.666667  0.998156  1
  Th  Th3  1  0.666667  0.333333  0.998156  1
  Th  Th4  1  0.745447  0.745447  0.250000  1
  Th  Th5  1  0.254553  0.000000  0.250000  1
  Th  Th6  1  0.000000  0.254553  0.250000  1
  Th  Th7  1  0.254338  0.254338  0.750000  1
  Th  Th8  1  0.745662  0.000000  0.750000  1
  Th  Th9  1  0.000000  0.745662  0.750000  1
  Tl  Tl10  1  0.611436  0.611436  0.750000  1
  Tl  Tl11  1  0.388564  0.000000  0.750000  1
  Tl  Tl12  1  0.000000  0.388564  0.750000  1
  Si  Si13  1  0.000000  0.000000  0.498267  1
  Si  Si14  1  0.000000  0.000000  0.001733  1
  Bi  Bi15  1  0.391769  0.391769  0.250000  1
  Bi  Bi16  1  0.608231  0.000000  0.250000  1
  Bi  Bi17  1  0.000000  0.608231  0.250000  1
