# generated using pymatgen
data_NiMo2Os4Ru
_symmetry_space_group_name_H-M   'P 1'
_cell_length_a   5.51117238
_cell_length_b   5.51447019
_cell_length_c   4.33429700
_cell_angle_alpha   90.00000000
_cell_angle_beta   90.00000000
_cell_angle_gamma   119.85326937
_symmetry_Int_Tables_number   1
_chemical_formula_structural   NiMo2Os4Ru
_chemical_formula_sum   'Ni1 Mo2 Os4 Ru1'
_cell_volume   114.24503090
_cell_formula_units_Z   1
loop_
 _symmetry_equiv_pos_site_id
 _symmetry_equiv_pos_as_xyz
  1  'x, y, z'
loop_
 _atom_site_type_symbol
 _atom_site_label
 _atom_site_symmetry_multiplicity
 _atom_site_fract_x
 _atom_site_fract_y
 _atom_site_fract_z
 _atom_site_occupancy
  Ni  Ni0  1  0.836083  0.164073  0.750000  1
  Mo  Mo1  1  0.669746  0.328096  0.250000  1
  Mo  Mo2  1  0.335520  0.663686  0.750000  1
  Os  Os3  1  0.336162  0.173474  0.750000  1
  Os  Os4  1  0.825992  0.664842  0.750000  1
  Os  Os5  1  0.168667  0.834910  0.250000  1
  Os  Os6  1  0.673901  0.846047  0.250000  1
  Ru  Ru7  1  0.153927  0.324872  0.250000  1
