# generated using pymatgen
data_Eu3(TaN3)2
_symmetry_space_group_name_H-M   'P 1'
_cell_length_a   4.03208894
_cell_length_b   4.03208794
_cell_length_c   10.47050367
_cell_angle_alpha   101.10135266
_cell_angle_beta   101.10135382
_cell_angle_gamma   90.00000412
_symmetry_Int_Tables_number   1
_chemical_formula_structural   Eu3(TaN3)2
_chemical_formula_sum   'Eu3 Ta2 N6'
_cell_volume   163.79424084
_cell_formula_units_Z   1
loop_
 _symmetry_equiv_pos_site_id
 _symmetry_equiv_pos_as_xyz
  1  'x, y, z'
loop_
 _atom_site_type_symbol
 _atom_site_label
 _atom_site_symmetry_multiplicity
 _atom_site_fract_x
 _atom_site_fract_y
 _atom_site_fract_z
 _atom_site_occupancy
  Eu  Eu0  1  0.000000  0.000000  0.000000  1
  Eu  Eu1  1  0.183181  0.183181  0.366362  1
  Eu  Eu2  1  0.816819  0.816819  0.633638  1
  Ta  Ta3  1  0.602017  0.602017  0.204033  1
  Ta  Ta4  1  0.397983  0.397983  0.795967  1
  N  N5  1  0.581238  0.081238  0.162476  1
  N  N6  1  0.081238  0.581238  0.162476  1
  N  N7  1  0.697007  0.697007  0.394014  1
  N  N8  1  0.302993  0.302993  0.605986  1
  N  N9  1  0.918763  0.418763  0.837525  1
  N  N10  1  0.418763  0.918763  0.837525  1
