# generated using pymatgen
data_PrEr(LuBi)3
_symmetry_space_group_name_H-M   'P 1'
_cell_length_a   8.18703500
_cell_length_b   9.41064000
_cell_length_c   11.90737100
_cell_angle_alpha   90.00000000
_cell_angle_beta   90.00000000
_cell_angle_gamma   90.00000000
_symmetry_Int_Tables_number   1
_chemical_formula_structural   PrEr(LuBi)3
_chemical_formula_sum   'Pr4 Er4 Lu12 Bi12'
_cell_volume   917.40624518
_cell_formula_units_Z   4
loop_
 _symmetry_equiv_pos_site_id
 _symmetry_equiv_pos_as_xyz
  1  'x, y, z'
loop_
 _atom_site_type_symbol
 _atom_site_label
 _atom_site_symmetry_multiplicity
 _atom_site_fract_x
 _atom_site_fract_y
 _atom_site_fract_z
 _atom_site_occupancy
  Pr  Pr0  1  0.314568  0.250000  0.219448  1
  Pr  Pr1  1  0.814568  0.250000  0.280552  1
  Pr  Pr2  1  0.685432  0.750000  0.780552  1
  Pr  Pr3  1  0.185432  0.750000  0.719448  1
  Er  Er4  1  0.351698  0.750000  0.218222  1
  Er  Er5  1  0.851698  0.750000  0.281778  1
  Er  Er6  1  0.648302  0.250000  0.781778  1
  Er  Er7  1  0.148302  0.250000  0.718222  1
  Lu  Lu8  1  0.691770  0.567075  0.059999  1
  Lu  Lu9  1  0.191770  0.932925  0.440001  1
  Lu  Lu10  1  0.308230  0.067075  0.940001  1
  Lu  Lu11  1  0.808230  0.432925  0.559999  1
  Lu  Lu12  1  0.308230  0.432925  0.940001  1
  Lu  Lu13  1  0.808230  0.067075  0.559999  1
  Lu  Lu14  1  0.691770  0.932925  0.059999  1
  Lu  Lu15  1  0.191770  0.567075  0.440001  1
  Lu  Lu16  1  0.477341  0.250000  0.489162  1
  Lu  Lu17  1  0.977341  0.250000  0.010838  1
  Lu  Lu18  1  0.522659  0.750000  0.510838  1
  Lu  Lu19  1  0.022659  0.750000  0.989162  1
  Bi  Bi20  1  0.401640  0.750000  0.962509  1
  Bi  Bi21  1  0.901640  0.750000  0.537491  1
  Bi  Bi22  1  0.598360  0.250000  0.037491  1
  Bi  Bi23  1  0.098360  0.250000  0.462509  1
  Bi  Bi24  1  0.564043  0.990457  0.328125  1
  Bi  Bi25  1  0.064043  0.509543  0.171875  1
  Bi  Bi26  1  0.435957  0.490457  0.671875  1
  Bi  Bi27  1  0.935957  0.009543  0.828125  1
  Bi  Bi28  1  0.435957  0.009543  0.671875  1
  Bi  Bi29  1  0.935957  0.490457  0.828125  1
  Bi  Bi30  1  0.564043  0.509543  0.328125  1
  Bi  Bi31  1  0.064043  0.990457  0.171875  1
