# generated using pymatgen
data_Tb2Er2Al17GaIr6
_symmetry_space_group_name_H-M   'P 1'
_cell_length_a   7.53479010
_cell_length_b   7.53478946
_cell_length_c   9.47889700
_cell_angle_alpha   90.00000000
_cell_angle_beta   90.00000000
_cell_angle_gamma   119.35973889
_symmetry_Int_Tables_number   1
_chemical_formula_structural   Tb2Er2Al17GaIr6
_chemical_formula_sum   'Tb2 Er2 Al17 Ga1 Ir6'
_cell_volume   469.02571174
_cell_formula_units_Z   1
loop_
 _symmetry_equiv_pos_site_id
 _symmetry_equiv_pos_as_xyz
  1  'x, y, z'
loop_
 _atom_site_type_symbol
 _atom_site_label
 _atom_site_symmetry_multiplicity
 _atom_site_fract_x
 _atom_site_fract_y
 _atom_site_fract_z
 _atom_site_occupancy
  Tb  Tb0  1  0.993867  0.674910  0.250000  1
  Tb  Tb1  1  0.674910  0.993867  0.250000  1
  Er  Er2  1  0.004707  0.326590  0.750000  1
  Er  Er3  1  0.326590  0.004707  0.750000  1
  Al  Al4  1  0.870275  0.870275  0.750000  1
  Al  Al5  1  0.001789  0.336334  0.073055  1
  Al  Al6  1  0.998883  0.663825  0.924286  1
  Al  Al7  1  0.998883  0.663825  0.575714  1
  Al  Al8  1  0.336334  0.001789  0.426945  1
  Al  Al9  1  0.001789  0.336334  0.426945  1
  Al  Al10  1  0.663825  0.998883  0.575714  1
  Al  Al11  1  0.663825  0.998883  0.924286  1
  Al  Al12  1  0.336334  0.001789  0.073055  1
  Al  Al13  1  0.332698  0.332698  0.554745  1
  Al  Al14  1  0.665741  0.665741  0.450630  1
  Al  Al15  1  0.665741  0.665741  0.049370  1
  Al  Al16  1  0.332698  0.332698  0.945255  1
  Al  Al17  1  0.338628  0.549543  0.250000  1
  Al  Al18  1  0.660525  0.450173  0.750000  1
  Al  Al19  1  0.549543  0.338628  0.250000  1
  Al  Al20  1  0.450173  0.660525  0.750000  1
  Ga  Ga21  1  0.135192  0.135192  0.250000  1
  Ir  Ir22  1  0.671181  0.327419  0.999526  1
  Ir  Ir23  1  0.327419  0.671181  0.999526  1
  Ir  Ir24  1  0.327419  0.671181  0.500474  1
  Ir  Ir25  1  0.671181  0.327419  0.500474  1
  Ir  Ir26  1  0.999925  0.999925  0.996853  1
  Ir  Ir27  1  0.999925  0.999925  0.503147  1
