# generated using pymatgen
data_Tb4TmOs2
_symmetry_space_group_name_H-M   'P 1'
_cell_length_a   6.39235570
_cell_length_b   7.34319174
_cell_length_c   8.46496810
_cell_angle_alpha   96.80234374
_cell_angle_beta   112.18369025
_cell_angle_gamma   90.00000057
_symmetry_Int_Tables_number   1
_chemical_formula_structural   Tb4TmOs2
_chemical_formula_sum   'Tb8 Tm2 Os4'
_cell_volume   364.91318478
_cell_formula_units_Z   2
loop_
 _symmetry_equiv_pos_site_id
 _symmetry_equiv_pos_as_xyz
  1  'x, y, z'
loop_
 _atom_site_type_symbol
 _atom_site_label
 _atom_site_symmetry_multiplicity
 _atom_site_fract_x
 _atom_site_fract_y
 _atom_site_fract_z
 _atom_site_occupancy
  Tb  Tb0  1  0.792538  0.083391  0.816450  1
  Tb  Tb1  1  0.976088  0.416609  0.183550  1
  Tb  Tb2  1  0.207462  0.916609  0.183550  1
  Tb  Tb3  1  0.023912  0.583391  0.816450  1
  Tb  Tb4  1  0.205513  0.184980  0.566552  1
  Tb  Tb5  1  0.638961  0.315020  0.433448  1
  Tb  Tb6  1  0.794487  0.815020  0.433448  1
  Tb  Tb7  1  0.361039  0.684980  0.566552  1
  Tm  Tm8  1  0.424265  0.250000  0.000000  1
  Tm  Tm9  1  0.575735  0.750000  0.000000  1
  Os  Os10  1  0.603111  0.424776  0.783523  1
  Os  Os11  1  0.819588  0.075224  0.216477  1
  Os  Os12  1  0.396889  0.575224  0.216477  1
  Os  Os13  1  0.180412  0.924776  0.783523  1
