# generated using pymatgen
data_Ho4LuIn4IrPt
_symmetry_space_group_name_H-M   'P 1'
_cell_length_a   3.60953200
_cell_length_b   8.09375284
_cell_length_c   18.15066261
_cell_angle_alpha   89.98881001
_cell_angle_beta   90.00000000
_cell_angle_gamma   90.00000000
_symmetry_Int_Tables_number   1
_chemical_formula_structural   Ho4LuIn4IrPt
_chemical_formula_sum   'Ho8 Lu2 In8 Ir2 Pt2'
_cell_volume   530.26542422
_cell_formula_units_Z   2
loop_
 _symmetry_equiv_pos_site_id
 _symmetry_equiv_pos_as_xyz
  1  'x, y, z'
loop_
 _atom_site_type_symbol
 _atom_site_label
 _atom_site_symmetry_multiplicity
 _atom_site_fract_x
 _atom_site_fract_y
 _atom_site_fract_z
 _atom_site_occupancy
  Ho  Ho0  1  0.000000  0.383061  0.914077  1
  Ho  Ho1  1  0.000000  0.616939  0.085923  1
  Ho  Ho2  1  0.000000  0.236087  0.222014  1
  Ho  Ho3  1  0.000000  0.763913  0.777986  1
  Ho  Ho4  1  0.000000  0.248791  0.720045  1
  Ho  Ho5  1  0.000000  0.751209  0.279955  1
  Ho  Ho6  1  0.000000  0.000000  0.000000  1
  Ho  Ho7  1  0.000000  0.500000  0.500000  1
  Lu  Lu8  1  0.000000  0.114740  0.411497  1
  Lu  Lu9  1  0.000000  0.885260  0.588503  1
  In  In10  1  0.500000  0.422725  0.351263  1
  In  In11  1  0.500000  0.577275  0.648737  1
  In  In12  1  0.500000  0.074340  0.850599  1
  In  In13  1  0.500000  0.925660  0.149401  1
  In  In14  1  0.500000  0.292176  0.066603  1
  In  In15  1  0.500000  0.707824  0.933397  1
  In  In16  1  0.500000  0.205477  0.566975  1
  In  In17  1  0.500000  0.794523  0.433025  1
  Ir  Ir18  1  0.500000  0.022435  0.304655  1
  Ir  Ir19  1  0.500000  0.977565  0.695345  1
  Pt  Pt20  1  0.500000  0.477149  0.803358  1
  Pt  Pt21  1  0.500000  0.522851  0.196642  1
