# generated using pymatgen
data_Pu2AsN2
_symmetry_space_group_name_H-M   'P 1'
_cell_length_a   3.79749900
_cell_length_b   3.79750367
_cell_length_c   6.72792200
_cell_angle_alpha   89.99999917
_cell_angle_beta   89.99991216
_cell_angle_gamma   120.00004986
_symmetry_Int_Tables_number   1
_chemical_formula_structural   Pu2AsN2
_chemical_formula_sum   'Pu2 As1 N2'
_cell_volume   84.02475063
_cell_formula_units_Z   1
loop_
 _symmetry_equiv_pos_site_id
 _symmetry_equiv_pos_as_xyz
  1  'x, y, z'
loop_
 _atom_site_type_symbol
 _atom_site_label
 _atom_site_symmetry_multiplicity
 _atom_site_fract_x
 _atom_site_fract_y
 _atom_site_fract_z
 _atom_site_occupancy
  Pu  Pu0  1  0.333329  0.666665  0.292884  1
  Pu  Pu1  1  0.666671  0.333337  0.707116  1
  As  As2  1  0.000000  0.000000  0.000000  1
  N  N3  1  0.666665  0.333333  0.375670  1
  N  N4  1  0.333337  0.666669  0.624330  1
