# generated using pymatgen
data_Ce6Co17P12W
_symmetry_space_group_name_H-M   'P 1'
_cell_length_a   3.76818900
_cell_length_b   10.56364200
_cell_length_c   12.35128900
_cell_angle_alpha   90.00000000
_cell_angle_beta   90.00000000
_cell_angle_gamma   90.00000000
_symmetry_Int_Tables_number   1
_chemical_formula_structural   Ce6Co17P12W
_chemical_formula_sum   'Ce6 Co17 P12 W1'
_cell_volume   491.65293454
_cell_formula_units_Z   1
loop_
 _symmetry_equiv_pos_site_id
 _symmetry_equiv_pos_as_xyz
  1  'x, y, z'
loop_
 _atom_site_type_symbol
 _atom_site_label
 _atom_site_symmetry_multiplicity
 _atom_site_fract_x
 _atom_site_fract_y
 _atom_site_fract_z
 _atom_site_occupancy
  Ce  Ce0  1  0.000000  0.500000  0.525533  1
  Ce  Ce1  1  0.500000  0.000000  0.477108  1
  Ce  Ce2  1  0.500000  0.819927  0.208803  1
  Ce  Ce3  1  0.500000  0.180073  0.208803  1
  Ce  Ce4  1  0.000000  0.683084  0.793509  1
  Ce  Ce5  1  0.000000  0.316916  0.793509  1
  Co  Co6  1  0.000000  0.000000  0.840483  1
  Co  Co7  1  0.500000  0.500000  0.702081  1
  Co  Co8  1  0.000000  0.000000  0.297040  1
  Co  Co9  1  0.000000  0.500000  0.986548  1
  Co  Co10  1  0.500000  0.000000  0.015791  1
  Co  Co11  1  0.500000  0.332173  0.991821  1
  Co  Co12  1  0.500000  0.667827  0.991821  1
  Co  Co13  1  0.000000  0.165876  0.004477  1
  Co  Co14  1  0.000000  0.834124  0.004477  1
  Co  Co15  1  0.500000  0.299398  0.429119  1
  Co  Co16  1  0.500000  0.700602  0.429119  1
  Co  Co17  1  0.000000  0.198978  0.571566  1
  Co  Co18  1  0.000000  0.801022  0.571566  1
  Co  Co19  1  0.500000  0.880377  0.712627  1
  Co  Co20  1  0.500000  0.119623  0.712627  1
  Co  Co21  1  0.000000  0.620658  0.287602  1
  Co  Co22  1  0.000000  0.379342  0.287602  1
  P  P23  1  0.500000  0.500000  0.883875  1
  P  P24  1  0.000000  0.000000  0.114128  1
  P  P25  1  0.500000  0.500000  0.346755  1
  P  P26  1  0.000000  0.000000  0.658581  1
  P  P27  1  0.500000  0.305852  0.613342  1
  P  P28  1  0.500000  0.694148  0.613342  1
  P  P29  1  0.000000  0.193343  0.387807  1
  P  P30  1  0.000000  0.806657  0.387807  1
  P  P31  1  0.500000  0.850602  0.894330  1
  P  P32  1  0.500000  0.149398  0.894330  1
  P  P33  1  0.000000  0.656832  0.103720  1
  P  P34  1  0.000000  0.343168  0.103720  1
  W  W35  1  0.500000  0.500000  0.154633  1
