# generated using pymatgen
data_Pr3Sn2Pd
_symmetry_space_group_name_H-M   'P 1'
_cell_length_a   4.59393700
_cell_length_b   12.11480400
_cell_length_c   12.75863300
_cell_angle_alpha   90.00000000
_cell_angle_beta   90.00000000
_cell_angle_gamma   90.00000000
_symmetry_Int_Tables_number   1
_chemical_formula_structural   Pr3Sn2Pd
_chemical_formula_sum   'Pr12 Sn8 Pd4'
_cell_volume   710.07720744
_cell_formula_units_Z   4
loop_
 _symmetry_equiv_pos_site_id
 _symmetry_equiv_pos_as_xyz
  1  'x, y, z'
loop_
 _atom_site_type_symbol
 _atom_site_label
 _atom_site_symmetry_multiplicity
 _atom_site_fract_x
 _atom_site_fract_y
 _atom_site_fract_z
 _atom_site_occupancy
  Pr  Pr0  1  0.250000  0.053457  0.876471  1
  Pr  Pr1  1  0.250000  0.446543  0.376471  1
  Pr  Pr2  1  0.750000  0.946543  0.123529  1
  Pr  Pr3  1  0.750000  0.553457  0.623529  1
  Pr  Pr4  1  0.250000  0.128218  0.552904  1
  Pr  Pr5  1  0.250000  0.371782  0.052904  1
  Pr  Pr6  1  0.750000  0.871782  0.447096  1
  Pr  Pr7  1  0.750000  0.628218  0.947096  1
  Pr  Pr8  1  0.250000  0.798230  0.726656  1
  Pr  Pr9  1  0.250000  0.701770  0.226656  1
  Pr  Pr10  1  0.750000  0.201770  0.273344  1
  Pr  Pr11  1  0.750000  0.298230  0.773344  1
  Sn  Sn12  1  0.250000  0.810281  0.993599  1
  Sn  Sn13  1  0.250000  0.689719  0.493599  1
  Sn  Sn14  1  0.750000  0.189719  0.006401  1
  Sn  Sn15  1  0.750000  0.310281  0.506401  1
  Sn  Sn16  1  0.250000  0.500529  0.811591  1
  Sn  Sn17  1  0.250000  0.999471  0.311591  1
  Sn  Sn18  1  0.750000  0.499471  0.188409  1
  Sn  Sn19  1  0.750000  0.000529  0.688409  1
  Pd  Pd20  1  0.250000  0.369071  0.626067  1
  Pd  Pd21  1  0.250000  0.130929  0.126067  1
  Pd  Pd22  1  0.750000  0.630929  0.373933  1
  Pd  Pd23  1  0.750000  0.869071  0.873933  1
