# generated using pymatgen
data_Er8Cu(Si4Pt)3
_symmetry_space_group_name_H-M   'P 1'
_cell_length_a   8.08387600
_cell_length_b   8.08387689
_cell_length_c   8.03666800
_cell_angle_alpha   90.00000000
_cell_angle_beta   90.00000000
_cell_angle_gamma   119.99999637
_symmetry_Int_Tables_number   1
_chemical_formula_structural   Er8Cu(Si4Pt)3
_chemical_formula_sum   'Er8 Cu1 Si12 Pt3'
_cell_volume   454.82676050
_cell_formula_units_Z   1
loop_
 _symmetry_equiv_pos_site_id
 _symmetry_equiv_pos_as_xyz
  1  'x, y, z'
loop_
 _atom_site_type_symbol
 _atom_site_label
 _atom_site_symmetry_multiplicity
 _atom_site_fract_x
 _atom_site_fract_y
 _atom_site_fract_z
 _atom_site_occupancy
  Er  Er0  1  0.500639  0.001280  0.249681  1
  Er  Er1  1  0.499780  0.999558  0.750153  1
  Er  Er2  1  0.998720  0.499361  0.249681  1
  Er  Er3  1  0.000442  0.500220  0.750153  1
  Er  Er4  1  0.500639  0.499361  0.249681  1
  Er  Er5  1  0.499780  0.500220  0.750153  1
  Er  Er6  1  0.000000  0.000000  0.248227  1
  Er  Er7  1  0.000000  0.000000  0.751229  1
  Cu  Cu8  1  0.333333  0.666667  0.005009  1
  Si  Si9  1  0.169353  0.338707  0.999919  1
  Si  Si10  1  0.835101  0.670201  0.999545  1
  Si  Si11  1  0.661293  0.830647  0.999919  1
  Si  Si12  1  0.834472  0.668945  0.500142  1
  Si  Si13  1  0.329799  0.164899  0.999545  1
  Si  Si14  1  0.165205  0.330411  0.499556  1
  Si  Si15  1  0.169353  0.830647  0.999919  1
  Si  Si16  1  0.331055  0.165528  0.500142  1
  Si  Si17  1  0.835101  0.164899  0.999545  1
  Si  Si18  1  0.669589  0.834795  0.499556  1
  Si  Si19  1  0.834472  0.165528  0.500142  1
  Si  Si20  1  0.165205  0.834795  0.499556  1
  Pt  Pt21  1  0.666667  0.333333  0.998912  1
  Pt  Pt22  1  0.666667  0.333333  0.500559  1
  Pt  Pt23  1  0.333333  0.666667  0.499075  1
