# generated using pymatgen
data_CaU5(MnSb5)2
_symmetry_space_group_name_H-M   'P 1'
_cell_length_a   9.18055600
_cell_length_b   9.13202827
_cell_length_c   6.12867100
_cell_angle_alpha   90.00000000
_cell_angle_beta   90.00000000
_cell_angle_gamma   120.17594244
_symmetry_Int_Tables_number   1
_chemical_formula_structural   CaU5(MnSb5)2
_chemical_formula_sum   'Ca1 U5 Mn2 Sb10'
_cell_volume   444.18150514
_cell_formula_units_Z   1
loop_
 _symmetry_equiv_pos_site_id
 _symmetry_equiv_pos_as_xyz
  1  'x, y, z'
loop_
 _atom_site_type_symbol
 _atom_site_label
 _atom_site_symmetry_multiplicity
 _atom_site_fract_x
 _atom_site_fract_y
 _atom_site_fract_z
 _atom_site_occupancy
  Ca  Ca0  1  0.380958  0.000000  0.750000  1
  U  U1  1  0.388254  0.384203  0.250000  1
  U  U2  1  0.004052  0.615797  0.250000  1
  U  U3  1  0.998041  0.388201  0.750000  1
  U  U4  1  0.609840  0.611799  0.750000  1
  U  U5  1  0.614067  0.000000  0.250000  1
  Mn  Mn6  1  0.001906  0.000000  0.995844  1
  Mn  Mn7  1  0.001906  0.000000  0.504156  1
  Sb  Sb8  1  0.670131  0.336827  0.498343  1
  Sb  Sb9  1  0.333303  0.663173  0.001657  1
  Sb  Sb10  1  0.743825  0.000000  0.750000  1
  Sb  Sb11  1  0.742905  0.741263  0.250000  1
  Sb  Sb12  1  0.333303  0.663173  0.498343  1
  Sb  Sb13  1  0.670131  0.336827  0.001657  1
  Sb  Sb14  1  0.254537  0.000000  0.250000  1
  Sb  Sb15  1  0.257843  0.264487  0.750000  1
  Sb  Sb16  1  0.993356  0.735513  0.750000  1
  Sb  Sb17  1  0.001642  0.258737  0.250000  1
