# generated using pymatgen
data_Pr5Ho2ThSe12
_symmetry_space_group_name_H-M   'P 1'
_cell_length_a   4.19752900
_cell_length_b   11.19361758
_cell_length_c   11.49183000
_cell_angle_alpha   90.43834169
_cell_angle_beta   90.00000000
_cell_angle_gamma   90.00000000
_symmetry_Int_Tables_number   1
_chemical_formula_structural   Pr5Ho2ThSe12
_chemical_formula_sum   'Pr5 Ho2 Th1 Se12'
_cell_volume   539.93397229
_cell_formula_units_Z   1
loop_
 _symmetry_equiv_pos_site_id
 _symmetry_equiv_pos_as_xyz
  1  'x, y, z'
loop_
 _atom_site_type_symbol
 _atom_site_label
 _atom_site_symmetry_multiplicity
 _atom_site_fract_x
 _atom_site_fract_y
 _atom_site_fract_z
 _atom_site_occupancy
  Pr  Pr0  1  0.250000  0.002746  0.698563  1
  Pr  Pr1  1  0.750000  0.001584  0.299679  1
  Pr  Pr2  1  0.750000  0.494996  0.811812  1
  Pr  Pr3  1  0.250000  0.501522  0.191375  1
  Pr  Pr4  1  0.250000  0.310060  0.511121  1
  Ho  Ho5  1  0.750000  0.813534  0.988876  1
  Ho  Ho6  1  0.250000  0.186366  0.011293  1
  Th  Th7  1  0.750000  0.688705  0.489934  1
  Se  Se8  1  0.750000  0.052708  0.888948  1
  Se  Se9  1  0.250000  0.945328  0.110277  1
  Se  Se10  1  0.250000  0.556476  0.621647  1
  Se  Se11  1  0.750000  0.448209  0.379239  1
  Se  Se12  1  0.250000  0.871966  0.453234  1
  Se  Se13  1  0.750000  0.123020  0.544156  1
  Se  Se14  1  0.750000  0.365400  0.044154  1
  Se  Se15  1  0.250000  0.635312  0.956889  1
  Se  Se16  1  0.250000  0.296468  0.775578  1
  Se  Se17  1  0.750000  0.705242  0.228802  1
  Se  Se18  1  0.750000  0.799892  0.729434  1
  Se  Se19  1  0.250000  0.200467  0.264990  1
