# generated using pymatgen
data_Nb3Al2RhC
_symmetry_space_group_name_H-M   'P 1'
_cell_length_a   8.34303316
_cell_length_b   8.34303277
_cell_length_c   8.34303300
_cell_angle_alpha   60.00000304
_cell_angle_beta   60.00000461
_cell_angle_gamma   60.00000379
_symmetry_Int_Tables_number   1
_chemical_formula_structural   Nb3Al2RhC
_chemical_formula_sum   'Nb12 Al8 Rh4 C4'
_cell_volume   410.63590487
_cell_formula_units_Z   4
loop_
 _symmetry_equiv_pos_site_id
 _symmetry_equiv_pos_as_xyz
  1  'x, y, z'
loop_
 _atom_site_type_symbol
 _atom_site_label
 _atom_site_symmetry_multiplicity
 _atom_site_fract_x
 _atom_site_fract_y
 _atom_site_fract_z
 _atom_site_occupancy
  Nb  Nb0  1  0.813934  0.813934  0.186066  1
  Nb  Nb1  1  0.186066  0.186066  0.813934  1
  Nb  Nb2  1  0.813934  0.186066  0.813934  1
  Nb  Nb3  1  0.186066  0.813934  0.186066  1
  Nb  Nb4  1  0.186066  0.813934  0.813934  1
  Nb  Nb5  1  0.813934  0.186066  0.186066  1
  Nb  Nb6  1  0.436066  0.436066  0.063934  1
  Nb  Nb7  1  0.063934  0.063934  0.436066  1
  Nb  Nb8  1  0.436066  0.063934  0.436066  1
  Nb  Nb9  1  0.063934  0.436066  0.063934  1
  Nb  Nb10  1  0.063934  0.436066  0.436066  1
  Nb  Nb11  1  0.436066  0.063934  0.063934  1
  Al  Al12  1  0.749301  0.416900  0.416900  1
  Al  Al13  1  0.416900  0.749301  0.416900  1
  Al  Al14  1  0.416900  0.416900  0.749301  1
  Al  Al15  1  0.416900  0.416900  0.416900  1
  Al  Al16  1  0.500699  0.833100  0.833100  1
  Al  Al17  1  0.833100  0.500699  0.833100  1
  Al  Al18  1  0.833100  0.833100  0.500699  1
  Al  Al19  1  0.833100  0.833100  0.833100  1
  Rh  Rh20  1  0.125000  0.625000  0.625000  1
  Rh  Rh21  1  0.625000  0.125000  0.625000  1
  Rh  Rh22  1  0.625000  0.625000  0.125000  1
  Rh  Rh23  1  0.625000  0.625000  0.625000  1
  C  C24  1  0.625000  0.125000  0.125000  1
  C  C25  1  0.125000  0.625000  0.125000  1
  C  C26  1  0.125000  0.125000  0.625000  1
  C  C27  1  0.125000  0.125000  0.125000  1
