# generated using pymatgen
data_Li11Pt2
_symmetry_space_group_name_H-M   'P 1'
_cell_length_a   8.14552126
_cell_length_b   8.14552216
_cell_length_c   8.14552200
_cell_angle_alpha   109.47122023
_cell_angle_beta   109.47122249
_cell_angle_gamma   109.47122005
_symmetry_Int_Tables_number   1
_chemical_formula_structural   Li11Pt2
_chemical_formula_sum   'Li22 Pt4'
_cell_volume   416.03975935
_cell_formula_units_Z   2
loop_
 _symmetry_equiv_pos_site_id
 _symmetry_equiv_pos_as_xyz
  1  'x, y, z'
loop_
 _atom_site_type_symbol
 _atom_site_label
 _atom_site_symmetry_multiplicity
 _atom_site_fract_x
 _atom_site_fract_y
 _atom_site_fract_z
 _atom_site_occupancy
  Li  Li0  1  0.000000  0.800482  0.000000  1
  Li  Li1  1  0.800482  0.000000  0.000000  1
  Li  Li2  1  0.000000  0.000000  0.800482  1
  Li  Li3  1  0.199518  0.199518  0.199518  1
  Li  Li4  1  0.351525  0.603900  0.351525  1
  Li  Li5  1  0.252375  0.000000  0.648475  1
  Li  Li6  1  0.648475  0.000000  0.252375  1
  Li  Li7  1  0.252375  0.648475  0.000000  1
  Li  Li8  1  0.747625  0.747625  0.396100  1
  Li  Li9  1  0.396100  0.747625  0.747625  1
  Li  Li10  1  0.000000  0.648475  0.252375  1
  Li  Li11  1  0.000000  0.252375  0.648475  1
  Li  Li12  1  0.648475  0.252375  0.000000  1
  Li  Li13  1  0.351525  0.351525  0.603900  1
  Li  Li14  1  0.603900  0.351525  0.351525  1
  Li  Li15  1  0.747625  0.396100  0.747625  1
  Li  Li16  1  0.341189  0.341189  0.000000  1
  Li  Li17  1  0.000000  0.658811  0.658811  1
  Li  Li18  1  0.000000  0.341189  0.341189  1
  Li  Li19  1  0.341189  0.000000  0.341189  1
  Li  Li20  1  0.658811  0.000000  0.658811  1
  Li  Li21  1  0.658811  0.658811  0.000000  1
  Pt  Pt22  1  0.000000  0.338752  0.000000  1
  Pt  Pt23  1  0.338752  0.000000  0.000000  1
  Pt  Pt24  1  0.000000  0.000000  0.338752  1
  Pt  Pt25  1  0.661248  0.661248  0.661248  1
