# generated using pymatgen
data_Dy4Ta2CoOs5
_symmetry_space_group_name_H-M   'P 1'
_cell_length_a   5.57018342
_cell_length_b   5.57018433
_cell_length_c   8.35159600
_cell_angle_alpha   90.00000000
_cell_angle_beta   90.00000000
_cell_angle_gamma   120.28660441
_symmetry_Int_Tables_number   1
_chemical_formula_structural   Dy4Ta2CoOs5
_chemical_formula_sum   'Dy4 Ta2 Co1 Os5'
_cell_volume   223.75753288
_cell_formula_units_Z   1
loop_
 _symmetry_equiv_pos_site_id
 _symmetry_equiv_pos_as_xyz
  1  'x, y, z'
loop_
 _atom_site_type_symbol
 _atom_site_label
 _atom_site_symmetry_multiplicity
 _atom_site_fract_x
 _atom_site_fract_y
 _atom_site_fract_z
 _atom_site_occupancy
  Dy  Dy0  1  0.332309  0.667691  0.433699  1
  Dy  Dy1  1  0.666949  0.333051  0.562116  1
  Dy  Dy2  1  0.666949  0.333051  0.937884  1
  Dy  Dy3  1  0.332309  0.667691  0.066301  1
  Ta  Ta4  1  0.999476  0.000524  0.496470  1
  Ta  Ta5  1  0.999476  0.000524  0.003530  1
  Co  Co6  1  0.833247  0.166753  0.250000  1
  Os  Os7  1  0.820640  0.647805  0.250000  1
  Os  Os8  1  0.352195  0.179360  0.250000  1
  Os  Os9  1  0.172282  0.827718  0.750000  1
  Os  Os10  1  0.172092  0.347925  0.750000  1
  Os  Os11  1  0.652075  0.827908  0.750000  1
