# generated using pymatgen
data_LaPr3Cd4(BO2)20
_symmetry_space_group_name_H-M   'P 1'
_cell_length_a   8.86839157
_cell_length_b   7.98650072
_cell_length_c   9.67714382
_cell_angle_alpha   89.92504437
_cell_angle_beta   91.20567231
_cell_angle_gamma   90.00977735
_symmetry_Int_Tables_number   1
_chemical_formula_structural   LaPr3Cd4(BO2)20
_chemical_formula_sum   'La1 Pr3 Cd4 B20 O40'
_cell_volume   685.25474888
_cell_formula_units_Z   1
loop_
 _symmetry_equiv_pos_site_id
 _symmetry_equiv_pos_as_xyz
  1  'x, y, z'
loop_
 _atom_site_type_symbol
 _atom_site_label
 _atom_site_symmetry_multiplicity
 _atom_site_fract_x
 _atom_site_fract_y
 _atom_site_fract_z
 _atom_site_occupancy
  La  La0  1  0.808040  0.820234  0.764463  1
  Pr  Pr1  1  0.192557  0.182190  0.235856  1
  Pr  Pr2  1  0.307251  0.682111  0.264314  1
  Pr  Pr3  1  0.692675  0.319380  0.735380  1
  Cd  Cd4  1  0.609202  0.409226  0.123889  1
  Cd  Cd5  1  0.890340  0.909513  0.375265  1
  Cd  Cd6  1  0.109358  0.090731  0.624307  1
  Cd  Cd7  1  0.390406  0.590944  0.875878  1
  B  B8  1  0.148567  0.396224  0.003598  1
  B  B9  1  0.781374  0.029303  0.057652  1
  B  B10  1  0.566961  0.825129  0.093268  1
  B  B11  1  0.016337  0.827027  0.100668  1
  B  B12  1  0.582272  0.078204  0.244908  1
  B  B13  1  0.917216  0.578274  0.255840  1
  B  B14  1  0.483645  0.327195  0.399552  1
  B  B15  1  0.932842  0.324842  0.407388  1
  B  B16  1  0.718114  0.528329  0.442780  1
  B  B17  1  0.351633  0.895968  0.496071  1
  B  B18  1  0.648184  0.105488  0.503129  1
  B  B19  1  0.281390  0.470404  0.556521  1
  B  B20  1  0.067831  0.674410  0.591576  1
  B  B21  1  0.515060  0.671983  0.599555  1
  B  B22  1  0.083210  0.421495  0.744578  1
  B  B23  1  0.416378  0.921590  0.754884  1
  B  B24  1  0.983953  0.173522  0.900718  1
  B  B25  1  0.433120  0.174647  0.906950  1
  B  B26  1  0.218523  0.971439  0.943386  1
  B  B27  1  0.852921  0.603316  0.997269  1
  O  O28  1  0.685737  0.879014  0.015257  1
  O  O29  1  0.044318  0.267590  0.020954  1
  O  O30  1  0.497769  0.670224  0.079941  1
  O  O31  1  0.172093  0.891584  0.077931  1
  O  O32  1  0.235121  0.446798  0.113742  1
  O  O33  1  0.833934  0.534668  0.126102  1
  O  O34  1  0.916177  0.968503  0.138738  1
  O  O35  1  0.689906  0.139638  0.142643  1
  O  O36  1  0.506602  0.924157  0.195646  1
  O  O37  1  0.029834  0.713164  0.226223  1
  O  O38  1  0.469786  0.212912  0.274377  1
  O  O39  1  0.993201  0.424397  0.305157  1
  O  O40  1  0.809843  0.639525  0.358388  1
  O  O41  1  0.583808  0.468322  0.360720  1
  O  O42  1  0.665549  0.035034  0.374972  1
  O  O43  1  0.265259  0.946507  0.385772  1
  O  O44  1  0.327893  0.390930  0.422117  1
  O  O45  1  0.002005  0.169873  0.420149  1
  O  O46  1  0.455647  0.766890  0.479198  1
  O  O47  1  0.814082  0.378277  0.485650  1
  O  O48  1  0.186008  0.620227  0.513112  1
  O  O49  1  0.543475  0.233319  0.520274  1
  O  O50  1  0.999551  0.829724  0.577920  1
  O  O51  1  0.670676  0.607079  0.576963  1
  O  O52  1  0.735544  0.055803  0.613318  1
  O  O53  1  0.333746  0.965308  0.624740  1
  O  O54  1  0.415550  0.530472  0.638222  1
  O  O55  1  0.190275  0.359603  0.642025  1
  O  O56  1  0.007945  0.575335  0.694389  1
  O  O57  1  0.528036  0.785997  0.725009  1
  O  O58  1  0.970307  0.287175  0.774888  1
  O  O59  1  0.492842  0.075254  0.804362  1
  O  O60  1  0.308976  0.860639  0.857729  1
  O  O61  1  0.083564  0.031843  0.862224  1
  O  O62  1  0.166274  0.465137  0.874589  1
  O  O63  1  0.766795  0.552827  0.886795  1
  O  O64  1  0.827921  0.110610  0.923987  1
  O  O65  1  0.502371  0.329696  0.919607  1
  O  O66  1  0.957460  0.731703  0.980708  1
  O  O67  1  0.314760  0.121122  0.985828  1
