# generated using pymatgen
data_LuTh5PtCl15
_symmetry_space_group_name_H-M   'P 1'
_cell_length_a   9.82712408
_cell_length_b   9.82712450
_cell_length_c   9.82712465
_cell_angle_alpha   110.90696127
_cell_angle_beta   108.75815062
_cell_angle_gamma   108.75816214
_symmetry_Int_Tables_number   1
_chemical_formula_structural   LuTh5PtCl15
_chemical_formula_sum   'Lu1 Th5 Pt1 Cl15'
_cell_volume   730.21761611
_cell_formula_units_Z   1
loop_
 _symmetry_equiv_pos_site_id
 _symmetry_equiv_pos_as_xyz
  1  'x, y, z'
loop_
 _atom_site_type_symbol
 _atom_site_label
 _atom_site_symmetry_multiplicity
 _atom_site_fract_x
 _atom_site_fract_y
 _atom_site_fract_z
 _atom_site_occupancy
  Lu  Lu0  1  0.000000  0.246017  0.246017  1
  Th  Th1  1  0.000000  0.741740  0.741740  1
  Th  Th2  1  0.247581  0.005633  0.253215  1
  Th  Th3  1  0.752419  0.005633  0.758052  1
  Th  Th4  1  0.247581  0.253215  0.005633  1
  Th  Th5  1  0.752419  0.758052  0.005633  1
  Pt  Pt6  1  0.000000  0.994850  0.994850  1
  Cl  Cl7  1  0.487616  0.246016  0.246016  1
  Cl  Cl8  1  0.512384  0.758398  0.758398  1
  Cl  Cl9  1  0.000000  0.246016  0.758398  1
  Cl  Cl10  1  0.000000  0.758398  0.246016  1
  Cl  Cl11  1  0.233289  0.484664  0.251375  1
  Cl  Cl12  1  0.766711  0.018086  0.251375  1
  Cl  Cl13  1  0.755857  0.508752  0.752894  1
  Cl  Cl14  1  0.244143  0.997037  0.752894  1
  Cl  Cl15  1  0.233289  0.251375  0.484664  1
  Cl  Cl16  1  0.755857  0.752894  0.508752  1
  Cl  Cl17  1  0.766711  0.251375  0.018086  1
  Cl  Cl18  1  0.244143  0.752894  0.997037  1
  Cl  Cl19  1  0.000000  0.487115  0.487115  1
  Cl  Cl20  1  0.500000  0.990921  0.490921  1
  Cl  Cl21  1  0.500000  0.490921  0.990921  1
