# generated using pymatgen
data_CeDy2Ho5(B6Os)4
_symmetry_space_group_name_H-M   'P 1'
_cell_length_a   3.65989900
_cell_length_b   9.16002741
_cell_length_c   11.52680101
_cell_angle_alpha   90.04657498
_cell_angle_beta   90.00000000
_cell_angle_gamma   90.00000000
_symmetry_Int_Tables_number   1
_chemical_formula_structural   CeDy2Ho5(B6Os)4
_chemical_formula_sum   'Ce1 Dy2 Ho5 B24 Os4'
_cell_volume   386.43328459
_cell_formula_units_Z   1
loop_
 _symmetry_equiv_pos_site_id
 _symmetry_equiv_pos_as_xyz
  1  'x, y, z'
loop_
 _atom_site_type_symbol
 _atom_site_label
 _atom_site_symmetry_multiplicity
 _atom_site_fract_x
 _atom_site_fract_y
 _atom_site_fract_z
 _atom_site_occupancy
  Ce  Ce0  1  0.000000  0.322908  0.413317  1
  Dy  Dy1  1  0.000000  0.679078  0.587097  1
  Dy  Dy2  1  0.000000  0.821695  0.085679  1
  Ho  Ho3  1  0.000000  0.177866  0.913581  1
  Ho  Ho4  1  0.000000  0.943664  0.373567  1
  Ho  Ho5  1  0.000000  0.054875  0.627015  1
  Ho  Ho6  1  0.000000  0.444358  0.125706  1
  Ho  Ho7  1  0.000000  0.556266  0.874181  1
  B  B8  1  0.500000  0.554786  0.432307  1
  B  B9  1  0.500000  0.446524  0.568178  1
  B  B10  1  0.500000  0.053490  0.066745  1
  B  B11  1  0.500000  0.946171  0.933111  1
  B  B12  1  0.500000  0.748846  0.419947  1
  B  B13  1  0.500000  0.251681  0.581230  1
  B  B14  1  0.500000  0.247844  0.079090  1
  B  B15  1  0.500000  0.752034  0.920155  1
  B  B16  1  0.500000  0.791473  0.266381  1
  B  B17  1  0.500000  0.208503  0.734466  1
  B  B18  1  0.500000  0.290685  0.232019  1
  B  B19  1  0.500000  0.708812  0.767235  1
  B  B20  1  0.500000  0.632624  0.184565  1
  B  B21  1  0.500000  0.367908  0.815148  1
  B  B22  1  0.500000  0.131149  0.313835  1
  B  B23  1  0.500000  0.867820  0.685636  1
  B  B24  1  0.500000  0.982609  0.212562  1
  B  B25  1  0.500000  0.016586  0.787139  1
  B  B26  1  0.500000  0.484849  0.285985  1
  B  B27  1  0.500000  0.516707  0.714025  1
  B  B28  1  0.500000  0.610156  0.030190  1
  B  B29  1  0.500000  0.389857  0.969377  1
  B  B30  1  0.500000  0.107336  0.470356  1
  B  B31  1  0.500000  0.890343  0.530321  1
  Os  Os32  1  0.000000  0.638398  0.321023  1
  Os  Os33  1  0.000000  0.361955  0.678521  1
  Os  Os34  1  0.000000  0.137690  0.178859  1
  Os  Os35  1  0.000000  0.862455  0.821454  1
