# generated using pymatgen
data_CeDy5Ho10(CdRu)4
_symmetry_space_group_name_H-M   'P 1'
_cell_length_a   9.64862102
_cell_length_b   9.63892500
_cell_length_c   9.63892191
_cell_angle_alpha   59.38813113
_cell_angle_beta   59.36351765
_cell_angle_gamma   59.36349342
_symmetry_Int_Tables_number   1
_chemical_formula_structural   CeDy5Ho10(CdRu)4
_chemical_formula_sum   'Ce1 Dy5 Ho10 Cd4 Ru4'
_cell_volume   624.81583089
_cell_formula_units_Z   1
loop_
 _symmetry_equiv_pos_site_id
 _symmetry_equiv_pos_as_xyz
  1  'x, y, z'
loop_
 _atom_site_type_symbol
 _atom_site_label
 _atom_site_symmetry_multiplicity
 _atom_site_fract_x
 _atom_site_fract_y
 _atom_site_fract_z
 _atom_site_occupancy
  Ce  Ce0  1  0.344122  0.341294  0.341297  1
  Dy  Dy1  1  0.563019  0.562021  0.937196  1
  Dy  Dy2  1  0.938615  0.561026  0.937737  1
  Dy  Dy3  1  0.559840  0.939951  0.939953  1
  Dy  Dy4  1  0.938616  0.937744  0.561025  1
  Dy  Dy5  1  0.563019  0.937191  0.562030  1
  Ho  Ho6  1  0.940350  0.559687  0.559684  1
  Ho  Ho7  1  0.188836  0.189328  0.812651  1
  Ho  Ho8  1  0.811468  0.188017  0.811430  1
  Ho  Ho9  1  0.186903  0.812451  0.812456  1
  Ho  Ho10  1  0.811467  0.811433  0.188017  1
  Ho  Ho11  1  0.188834  0.812652  0.189330  1
  Ho  Ho12  1  0.813233  0.188541  0.188543  1
  Ho  Ho13  1  0.345624  0.348061  0.957325  1
  Ho  Ho14  1  0.345626  0.957326  0.348060  1
  Ho  Ho15  1  0.956633  0.346356  0.346357  1
  Cd  Cd16  1  0.579846  0.579827  0.258224  1
  Cd  Cd17  1  0.579844  0.258227  0.579825  1
  Cd  Cd18  1  0.258184  0.579336  0.579329  1
  Cd  Cd19  1  0.579610  0.579390  0.579381  1
  Ru  Ru20  1  0.145266  0.148767  0.575588  1
  Ru  Ru21  1  0.145259  0.575586  0.148781  1
  Ru  Ru22  1  0.575311  0.146143  0.146136  1
  Ru  Ru23  1  0.140476  0.139644  0.139643  1
