# generated using pymatgen
data_MgSc(Ni7B2)3
_symmetry_space_group_name_H-M   'P 1'
_cell_length_a   7.45762708
_cell_length_b   7.45139235
_cell_length_c   7.45681482
_cell_angle_alpha   119.97863990
_cell_angle_beta   90.03609512
_cell_angle_gamma   119.97233561
_symmetry_Int_Tables_number   1
_chemical_formula_structural   MgSc(Ni7B2)3
_chemical_formula_sum   'Mg1 Sc1 Ni21 B6'
_cell_volume   293.13072444
_cell_formula_units_Z   1
loop_
 _symmetry_equiv_pos_site_id
 _symmetry_equiv_pos_as_xyz
  1  'x, y, z'
loop_
 _atom_site_type_symbol
 _atom_site_label
 _atom_site_symmetry_multiplicity
 _atom_site_fract_x
 _atom_site_fract_y
 _atom_site_fract_z
 _atom_site_occupancy
  Mg  Mg0  1  0.750093  0.500045  0.249927  1
  Sc  Sc1  1  0.249799  0.499855  0.749949  1
  Ni  Ni2  1  0.000028  0.000025  0.000066  1
  Ni  Ni3  1  0.337332  0.999261  0.999680  1
  Ni  Ni4  1  0.661939  0.999271  0.999556  1
  Ni  Ni5  1  0.000412  0.337832  0.999657  1
  Ni  Ni6  1  0.337363  0.337791  0.999706  1
  Ni  Ni7  1  0.000379  0.662165  0.999622  1
  Ni  Ni8  1  0.661898  0.662152  0.999552  1
  Ni  Ni9  1  0.385663  0.771763  0.157804  1
  Ni  Ni10  1  0.000451  0.000733  0.338203  1
  Ni  Ni11  1  0.000462  0.337918  0.338173  1
  Ni  Ni12  1  0.337333  0.337719  0.338048  1
  Ni  Ni13  1  0.615574  0.231109  0.384417  1
  Ni  Ni14  1  0.153137  0.768687  0.384156  1
  Ni  Ni15  1  0.615618  0.768965  0.384477  1
  Ni  Ni16  1  0.842220  0.228210  0.614244  1
  Ni  Ni17  1  0.385895  0.771865  0.614002  1
  Ni  Ni18  1  0.385837  0.227966  0.613943  1
  Ni  Ni19  1  0.000340  0.000764  0.662651  1
  Ni  Ni20  1  0.000322  0.662194  0.662633  1
  Ni  Ni21  1  0.661973  0.662328  0.662693  1
  Ni  Ni22  1  0.615880  0.231352  0.846868  1
  B  B23  1  0.728310  0.000038  0.271811  1
  B  B24  1  0.271591  0.999922  0.271668  1
  B  B25  1  0.271661  0.543422  0.271689  1
  B  B26  1  0.271758  0.999979  0.728165  1
  B  B27  1  0.728356  0.456576  0.728332  1
  B  B28  1  0.728376  0.000106  0.728310  1
