# generated using pymatgen
data_BaCu2(SeO4)4
_symmetry_space_group_name_H-M   'P 1'
_cell_length_a   7.09278634
_cell_length_b   7.09278569
_cell_length_c   9.36461854
_cell_angle_alpha   71.46519118
_cell_angle_beta   71.46518672
_cell_angle_gamma   85.17427675
_symmetry_Int_Tables_number   1
_chemical_formula_structural   BaCu2(SeO4)4
_chemical_formula_sum   'Ba1 Cu2 Se4 O16'
_cell_volume   423.43158748
_cell_formula_units_Z   1
loop_
 _symmetry_equiv_pos_site_id
 _symmetry_equiv_pos_as_xyz
  1  'x, y, z'
loop_
 _atom_site_type_symbol
 _atom_site_label
 _atom_site_symmetry_multiplicity
 _atom_site_fract_x
 _atom_site_fract_y
 _atom_site_fract_z
 _atom_site_occupancy
  Ba  Ba0  1  0.000000  0.000000  0.000000  1
  Cu  Cu1  1  0.000000  0.000000  0.500000  1
  Cu  Cu2  1  0.500000  0.500000  0.500000  1
  Se  Se3  1  0.094811  0.597864  0.720246  1
  Se  Se4  1  0.597864  0.094811  0.720246  1
  Se  Se5  1  0.905189  0.402136  0.279754  1
  Se  Se6  1  0.402136  0.905189  0.279754  1
  O  O7  1  0.351710  0.620558  0.649476  1
  O  O8  1  0.620558  0.351710  0.649476  1
  O  O9  1  0.648290  0.379442  0.350524  1
  O  O10  1  0.379442  0.648290  0.350524  1
  O  O11  1  0.031083  0.705592  0.859100  1
  O  O12  1  0.705592  0.031083  0.859100  1
  O  O13  1  0.968917  0.294408  0.140900  1
  O  O14  1  0.294408  0.968917  0.140900  1
  O  O15  1  0.991858  0.722753  0.571839  1
  O  O16  1  0.722753  0.991858  0.571839  1
  O  O17  1  0.008142  0.277247  0.428161  1
  O  O18  1  0.277247  0.008142  0.428161  1
  O  O19  1  0.026386  0.365695  0.766805  1
  O  O20  1  0.365695  0.026386  0.766805  1
  O  O21  1  0.973614  0.634305  0.233195  1
  O  O22  1  0.634305  0.973614  0.233195  1
