# generated using pymatgen
data_Sc12Hg(MoI8)2
_symmetry_space_group_name_H-M   'P 1'
_cell_length_a   9.26162356
_cell_length_b   12.14845065
_cell_length_c   12.94489692
_cell_angle_alpha   116.98553727
_cell_angle_beta   101.30743059
_cell_angle_gamma   100.49325003
_symmetry_Int_Tables_number   1
_chemical_formula_structural   Sc12Hg(MoI8)2
_chemical_formula_sum   'Sc12 Hg1 Mo2 I16'
_cell_volume   1209.91702099
_cell_formula_units_Z   1
loop_
 _symmetry_equiv_pos_site_id
 _symmetry_equiv_pos_as_xyz
  1  'x, y, z'
loop_
 _atom_site_type_symbol
 _atom_site_label
 _atom_site_symmetry_multiplicity
 _atom_site_fract_x
 _atom_site_fract_y
 _atom_site_fract_z
 _atom_site_occupancy
  Sc  Sc0  1  0.100093  0.263700  0.354888  1
  Sc  Sc1  1  0.899907  0.736300  0.645112  1
  Sc  Sc2  1  0.766485  0.538308  0.327433  1
  Sc  Sc3  1  0.233515  0.461692  0.672567  1
  Sc  Sc4  1  0.292187  0.736769  0.643503  1
  Sc  Sc5  1  0.707813  0.263231  0.356497  1
  Sc  Sc6  1  0.158970  0.538711  0.325895  1
  Sc  Sc7  1  0.841030  0.461289  0.674105  1
  Sc  Sc8  1  0.411882  0.369119  0.290033  1
  Sc  Sc9  1  0.588118  0.630881  0.709967  1
  Sc  Sc10  1  0.461159  0.318352  0.519136  1
  Sc  Sc11  1  0.538841  0.681648  0.480864  1
  Hg  Hg12  1  0.000000  0.500000  0.500000  1
  Mo  Mo13  1  0.326201  0.500197  0.499551  1
  Mo  Mo14  1  0.673800  0.499803  0.500449  1
  I  I15  1  0.393125  0.734426  0.875309  1
  I  I16  1  0.606875  0.265574  0.124691  1
  I  I17  1  0.185156  0.957082  0.777948  1
  I  I18  1  0.814844  0.042918  0.222052  1
  I  I19  1  0.337538  0.099973  0.255820  1
  I  I20  1  0.662462  0.900027  0.744180  1
  I  I21  1  0.564110  0.434890  0.793071  1
  I  I22  1  0.435890  0.565110  0.206929  1
  I  I23  1  0.305434  0.825911  0.464949  1
  I  I24  1  0.694566  0.174089  0.535051  1
  I  I25  1  0.166629  0.175148  0.533839  1
  I  I26  1  0.833371  0.824852  0.466161  1
  I  I27  1  0.925947  0.576394  0.166974  1
  I  I28  1  0.074053  0.423606  0.833026  1
  I  I29  1  0.923006  0.734091  0.876619  1
  I  I30  1  0.076994  0.265909  0.123381  1
