# generated using pymatgen
data_Bi3RuO7
_symmetry_space_group_name_H-M   'P 1'
_cell_length_a   6.54308155
_cell_length_b   6.96567224
_cell_length_c   7.57558649
_cell_angle_alpha   105.74717517
_cell_angle_beta   89.52006728
_cell_angle_gamma   102.71673493
_symmetry_Int_Tables_number   1
_chemical_formula_structural   Bi3RuO7
_chemical_formula_sum   'Bi6 Ru2 O14'
_cell_volume   323.67659667
_cell_formula_units_Z   2
loop_
 _symmetry_equiv_pos_site_id
 _symmetry_equiv_pos_as_xyz
  1  'x, y, z'
loop_
 _atom_site_type_symbol
 _atom_site_label
 _atom_site_symmetry_multiplicity
 _atom_site_fract_x
 _atom_site_fract_y
 _atom_site_fract_z
 _atom_site_occupancy
  Bi  Bi0  1  0.532392  0.009030  0.742610  1
  Bi  Bi1  1  0.467608  0.990970  0.257390  1
  Bi  Bi2  1  0.262741  0.508352  0.875331  1
  Bi  Bi3  1  0.737259  0.491648  0.124669  1
  Bi  Bi4  1  0.755641  0.551137  0.636628  1
  Bi  Bi5  1  0.244359  0.448863  0.363372  1
  Ru  Ru6  1  0.000000  0.000000  0.500000  1
  Ru  Ru7  1  0.000000  0.000000  0.000000  1
  O  O8  1  0.464461  0.634796  0.176308  1
  O  O9  1  0.535539  0.365204  0.823692  1
  O  O10  1  0.273671  0.945060  0.949921  1
  O  O11  1  0.726329  0.054940  0.050079  1
  O  O12  1  0.281906  0.947306  0.518864  1
  O  O13  1  0.718094  0.052694  0.481136  1
  O  O14  1  0.531978  0.340283  0.352918  1
  O  O15  1  0.468022  0.659717  0.647082  1
  O  O16  1  0.891020  0.697820  0.954528  1
  O  O17  1  0.108980  0.302180  0.045472  1
  O  O18  1  0.103063  0.301572  0.610160  1
  O  O19  1  0.896937  0.698428  0.389840  1
  O  O20  1  0.908283  0.933088  0.732519  1
  O  O21  1  0.091717  0.066912  0.267481  1
