# generated using pymatgen
data_Na5Ce2F13
_symmetry_space_group_name_H-M   'P 1'
_cell_length_a   6.72089329
_cell_length_b   6.72089288
_cell_length_c   8.89823982
_cell_angle_alpha   83.70292255
_cell_angle_beta   83.70292306
_cell_angle_gamma   50.22325270
_symmetry_Int_Tables_number   1
_chemical_formula_structural   Na5Ce2F13
_chemical_formula_sum   'Na5 Ce2 F13'
_cell_volume   306.63134408
_cell_formula_units_Z   1
loop_
 _symmetry_equiv_pos_site_id
 _symmetry_equiv_pos_as_xyz
  1  'x, y, z'
loop_
 _atom_site_type_symbol
 _atom_site_label
 _atom_site_symmetry_multiplicity
 _atom_site_fract_x
 _atom_site_fract_y
 _atom_site_fract_z
 _atom_site_occupancy
  Na  Na0  1  0.667862  0.667862  0.072899  1
  Na  Na1  1  0.222859  0.222859  0.348262  1
  Na  Na2  1  0.500000  0.500000  0.500000  1
  Na  Na3  1  0.777141  0.777141  0.651738  1
  Na  Na4  1  0.332138  0.332138  0.927101  1
  Ce  Ce5  1  0.073530  0.073530  0.752932  1
  Ce  Ce6  1  0.926470  0.926470  0.247068  1
  F  F7  1  0.056911  0.567218  0.144509  1
  F  F8  1  0.820539  0.311209  0.253634  1
  F  F9  1  0.567218  0.056911  0.144509  1
  F  F10  1  0.371313  0.898292  0.562882  1
  F  F11  1  0.179461  0.688791  0.746366  1
  F  F12  1  0.943089  0.432782  0.855491  1
  F  F13  1  0.432782  0.943089  0.855491  1
  F  F14  1  0.898292  0.371313  0.562882  1
  F  F15  1  0.101708  0.628687  0.437118  1
  F  F16  1  0.628687  0.101708  0.437118  1
  F  F17  1  0.311209  0.820539  0.253634  1
  F  F18  1  0.688791  0.179461  0.746366  1
  F  F19  1  0.000000  0.000000  0.000000  1
