# generated using pymatgen
data_TbNd3(B4W)4
_symmetry_space_group_name_H-M   'P 1'
_cell_length_a   6.11100113
_cell_length_b   11.82396710
_cell_length_c   3.68942400
_cell_angle_alpha   90.00000000
_cell_angle_beta   90.00000000
_cell_angle_gamma   89.90442914
_symmetry_Int_Tables_number   1
_chemical_formula_structural   TbNd3(B4W)4
_chemical_formula_sum   'Tb1 Nd3 B16 W4'
_cell_volume   266.58366918
_cell_formula_units_Z   1
loop_
 _symmetry_equiv_pos_site_id
 _symmetry_equiv_pos_as_xyz
  1  'x, y, z'
loop_
 _atom_site_type_symbol
 _atom_site_label
 _atom_site_symmetry_multiplicity
 _atom_site_fract_x
 _atom_site_fract_y
 _atom_site_fract_z
 _atom_site_occupancy
  Tb  Tb0  1  0.874184  0.850409  0.000000  1
  Nd  Nd1  1  0.625483  0.349679  0.000000  1
  Nd  Nd2  1  0.374545  0.650920  0.000000  1
  Nd  Nd3  1  0.125265  0.149852  0.000000  1
  B  B4  1  0.782347  0.183917  0.500000  1
  B  B5  1  0.213817  0.815419  0.500000  1
  B  B6  1  0.282441  0.315079  0.500000  1
  B  B7  1  0.717954  0.687081  0.500000  1
  B  B8  1  0.864090  0.030077  0.500000  1
  B  B9  1  0.135321  0.966437  0.500000  1
  B  B10  1  0.363200  0.468271  0.500000  1
  B  B11  1  0.637137  0.533034  0.500000  1
  B  B12  1  0.887845  0.454458  0.500000  1
  B  B13  1  0.111459  0.547148  0.500000  1
  B  B14  1  0.388750  0.044890  0.500000  1
  B  B15  1  0.614574  0.952089  0.500000  1
  B  B16  1  0.976049  0.309228  0.500000  1
  B  B17  1  0.022384  0.693353  0.500000  1
  B  B18  1  0.476199  0.190056  0.500000  1
  B  B19  1  0.526410  0.808804  0.500000  1
  W  W20  1  0.629585  0.082214  0.000000  1
  W  W21  1  0.371265  0.915653  0.000000  1
  W  W22  1  0.128609  0.417040  0.000000  1
  W  W23  1  0.871089  0.584892  0.000000  1
