# generated using pymatgen
data_TmU(ZnRu)2
_symmetry_space_group_name_H-M   'P 1'
_cell_length_a   3.62686900
_cell_length_b   7.12395442
_cell_length_c   8.51308260
_cell_angle_alpha   93.33692316
_cell_angle_beta   90.00000000
_cell_angle_gamma   90.00000000
_symmetry_Int_Tables_number   1
_chemical_formula_structural   TmU(ZnRu)2
_chemical_formula_sum   'Tm2 U2 Zn4 Ru4'
_cell_volume   219.58510786
_cell_formula_units_Z   2
loop_
 _symmetry_equiv_pos_site_id
 _symmetry_equiv_pos_as_xyz
  1  'x, y, z'
loop_
 _atom_site_type_symbol
 _atom_site_label
 _atom_site_symmetry_multiplicity
 _atom_site_fract_x
 _atom_site_fract_y
 _atom_site_fract_z
 _atom_site_occupancy
  Tm  Tm0  1  0.750000  0.943040  0.681205  1
  Tm  Tm1  1  0.250000  0.056960  0.318795  1
  U  U2  1  0.250000  0.545755  0.189296  1
  U  U3  1  0.750000  0.454245  0.810704  1
  Zn  Zn4  1  0.250000  0.628403  0.554865  1
  Zn  Zn5  1  0.750000  0.371597  0.445135  1
  Zn  Zn6  1  0.750000  0.885301  0.063361  1
  Zn  Zn7  1  0.250000  0.114699  0.936639  1
  Ru  Ru8  1  0.250000  0.707305  0.872880  1
  Ru  Ru9  1  0.750000  0.292695  0.127120  1
  Ru  Ru10  1  0.750000  0.740213  0.344946  1
  Ru  Ru11  1  0.250000  0.259787  0.655054  1
