# generated using pymatgen
data_Nd16Lu4Sn15Pb
_symmetry_space_group_name_H-M   'P 1'
_cell_length_a   8.21768173
_cell_length_b   8.37603380
_cell_length_c   15.87634100
_cell_angle_alpha   90.03513936
_cell_angle_beta   90.03721790
_cell_angle_gamma   89.96898313
_symmetry_Int_Tables_number   1
_chemical_formula_structural   Nd16Lu4Sn15Pb
_chemical_formula_sum   'Nd16 Lu4 Sn15 Pb1'
_cell_volume   1092.79303914
_cell_formula_units_Z   1
loop_
 _symmetry_equiv_pos_site_id
 _symmetry_equiv_pos_as_xyz
  1  'x, y, z'
loop_
 _atom_site_type_symbol
 _atom_site_label
 _atom_site_symmetry_multiplicity
 _atom_site_fract_x
 _atom_site_fract_y
 _atom_site_fract_z
 _atom_site_occupancy
  Nd  Nd0  1  0.366596  0.836527  0.876777  1
  Nd  Nd1  1  0.865997  0.662796  0.621863  1
  Nd  Nd2  1  0.634764  0.162287  0.377876  1
  Nd  Nd3  1  0.133052  0.340112  0.122642  1
  Nd  Nd4  1  0.635813  0.161914  0.122463  1
  Nd  Nd5  1  0.134365  0.338073  0.378038  1
  Nd  Nd6  1  0.365997  0.837660  0.622299  1
  Nd  Nd7  1  0.866435  0.662525  0.877757  1
  Nd  Nd8  1  0.520250  0.322112  0.902073  1
  Nd  Nd9  1  0.018846  0.179588  0.596978  1
  Nd  Nd10  1  0.481440  0.679397  0.403199  1
  Nd  Nd11  1  0.978013  0.818136  0.097705  1
  Nd  Nd12  1  0.481567  0.676909  0.097581  1
  Nd  Nd13  1  0.981269  0.820423  0.403233  1
  Nd  Nd14  1  0.518557  0.320363  0.596864  1
  Nd  Nd15  1  0.016950  0.181146  0.901691  1
  Lu  Lu16  1  0.198162  0.502054  0.749939  1
  Lu  Lu17  1  0.698236  0.998149  0.749842  1
  Lu  Lu18  1  0.801654  0.497910  0.250219  1
  Lu  Lu19  1  0.302361  0.001969  0.252119  1
  Sn  Sn20  1  0.794680  0.464096  0.456034  1
  Sn  Sn21  1  0.705307  0.964634  0.544130  1
  Sn  Sn22  1  0.206027  0.535808  0.955956  1
  Sn  Sn23  1  0.705484  0.964686  0.955573  1
  Sn  Sn24  1  0.205599  0.535869  0.544192  1
  Sn  Sn25  1  0.294779  0.035932  0.456302  1
  Sn  Sn26  1  0.794013  0.463573  0.043707  1
  Sn  Sn27  1  0.562287  0.614105  0.749586  1
  Sn  Sn28  1  0.061773  0.885785  0.749861  1
  Sn  Sn29  1  0.438242  0.384682  0.250060  1
  Sn  Sn30  1  0.939303  0.114207  0.249875  1
  Sn  Sn31  1  0.326380  0.150421  0.749953  1
  Sn  Sn32  1  0.826042  0.350361  0.749308  1
  Sn  Sn33  1  0.673105  0.849419  0.250343  1
  Sn  Sn34  1  0.173781  0.650836  0.250389  1
  Pb  Pb35  1  0.292874  0.035535  0.043575  1
