# generated using pymatgen
data_Yb4Pr16Si15Os
_symmetry_space_group_name_H-M   'P 1'
_cell_length_a   7.94841038
_cell_length_b   7.90528590
_cell_length_c   15.07791551
_cell_angle_alpha   90.00707587
_cell_angle_beta   89.87895360
_cell_angle_gamma   90.14395990
_symmetry_Int_Tables_number   1
_chemical_formula_structural   Yb4Pr16Si15Os
_chemical_formula_sum   'Yb4 Pr16 Si15 Os1'
_cell_volume   947.40751436
_cell_formula_units_Z   1
loop_
 _symmetry_equiv_pos_site_id
 _symmetry_equiv_pos_as_xyz
  1  'x, y, z'
loop_
 _atom_site_type_symbol
 _atom_site_label
 _atom_site_symmetry_multiplicity
 _atom_site_fract_x
 _atom_site_fract_y
 _atom_site_fract_z
 _atom_site_occupancy
  Yb  Yb0  1  0.309573  0.308451  0.999374  1
  Yb  Yb1  1  0.191203  0.809948  0.250866  1
  Yb  Yb2  1  0.819377  0.192303  0.747043  1
  Yb  Yb3  1  0.692319  0.691307  0.502127  1
  Pr  Pr4  1  0.374127  0.010457  0.451016  1
  Pr  Pr5  1  0.485150  0.883322  0.696733  1
  Pr  Pr6  1  0.508971  0.123662  0.199606  1
  Pr  Pr7  1  0.877260  0.491000  0.301918  1
  Pr  Pr8  1  0.126436  0.498156  0.796044  1
  Pr  Pr9  1  0.623565  0.990579  0.948112  1
  Pr  Pr10  1  0.004316  0.375545  0.551597  1
  Pr  Pr11  1  0.991366  0.623318  0.050203  1
  Pr  Pr12  1  0.128935  0.989798  0.871035  1
  Pr  Pr13  1  0.512960  0.627468  0.125713  1
  Pr  Pr14  1  0.474216  0.362585  0.628273  1
  Pr  Pr15  1  0.626103  0.511580  0.874824  1
  Pr  Pr16  1  0.374065  0.487225  0.375292  1
  Pr  Pr17  1  0.875510  0.014077  0.376293  1
  Pr  Pr18  1  0.988103  0.123364  0.123944  1
  Pr  Pr19  1  0.023202  0.886118  0.627890  1
  Si  Si20  1  0.332041  0.697629  0.948229  1
  Si  Si21  1  0.662580  0.296511  0.448411  1
  Si  Si22  1  0.703970  0.334741  0.053397  1
  Si  Si23  1  0.299546  0.668365  0.549691  1
  Si  Si24  1  0.800984  0.832321  0.200619  1
  Si  Si25  1  0.166292  0.201190  0.300059  1
  Si  Si26  1  0.832221  0.798628  0.801402  1
  Si  Si27  1  0.287382  0.917699  0.058078  1
  Si  Si28  1  0.580647  0.787593  0.309372  1
  Si  Si29  1  0.424422  0.207489  0.813472  1
  Si  Si30  1  0.781413  0.584545  0.691020  1
  Si  Si31  1  0.210910  0.421320  0.191248  1
  Si  Si32  1  0.707875  0.077806  0.557766  1
  Si  Si33  1  0.919799  0.287302  0.941611  1
  Si  Si34  1  0.080873  0.715031  0.441348  1
  Os  Os35  1  0.202287  0.171571  0.696372  1
