# generated using pymatgen
data_Ho4LuInSb2
_symmetry_space_group_name_H-M   'P 1'
_cell_length_a   8.90697194
_cell_length_b   8.90727941
_cell_length_c   6.38877865
_cell_angle_alpha   89.89572146
_cell_angle_beta   90.05213581
_cell_angle_gamma   120.00114323
_symmetry_Int_Tables_number   1
_chemical_formula_structural   Ho4LuInSb2
_chemical_formula_sum   'Ho8 Lu2 In2 Sb4'
_cell_volume   438.95288811
_cell_formula_units_Z   2
loop_
 _symmetry_equiv_pos_site_id
 _symmetry_equiv_pos_as_xyz
  1  'x, y, z'
loop_
 _atom_site_type_symbol
 _atom_site_label
 _atom_site_symmetry_multiplicity
 _atom_site_fract_x
 _atom_site_fract_y
 _atom_site_fract_z
 _atom_site_occupancy
  Ho  Ho0  1  0.663528  0.331764  0.000000  1
  Ho  Ho1  1  0.334665  0.667333  0.500000  1
  Ho  Ho2  1  0.758496  0.998591  0.749917  1
  Ho  Ho3  1  0.758496  0.759906  0.250083  1
  Ho  Ho4  1  0.002164  0.241987  0.249995  1
  Ho  Ho5  1  0.002164  0.760177  0.750005  1
  Ho  Ho6  1  0.240404  0.236855  0.750036  1
  Ho  Ho7  1  0.240404  0.003549  0.249964  1
  Lu  Lu8  1  0.334908  0.667454  0.000000  1
  Lu  Lu9  1  0.662945  0.331472  0.500000  1
  In  In10  1  0.395897  0.998241  0.749980  1
  In  In11  1  0.395897  0.397656  0.250020  1
  Sb  Sb12  1  0.999174  0.606807  0.249940  1
  Sb  Sb13  1  0.999174  0.392367  0.750060  1
  Sb  Sb14  1  0.605841  0.605523  0.749941  1
  Sb  Sb15  1  0.605841  0.000318  0.250059  1
