# generated using pymatgen
data_Dy7Ho5TcRu3
_symmetry_space_group_name_H-M   'P 1'
_cell_length_a   6.28683674
_cell_length_b   7.34618905
_cell_length_c   9.14253321
_cell_angle_alpha   90.01289543
_cell_angle_beta   90.02086552
_cell_angle_gamma   90.02650902
_symmetry_Int_Tables_number   1
_chemical_formula_structural   Dy7Ho5TcRu3
_chemical_formula_sum   'Dy7 Ho5 Tc1 Ru3'
_cell_volume   422.24133191
_cell_formula_units_Z   1
loop_
 _symmetry_equiv_pos_site_id
 _symmetry_equiv_pos_as_xyz
  1  'x, y, z'
loop_
 _atom_site_type_symbol
 _atom_site_label
 _atom_site_symmetry_multiplicity
 _atom_site_fract_x
 _atom_site_fract_y
 _atom_site_fract_z
 _atom_site_occupancy
  Dy  Dy0  1  0.333001  0.676207  0.064356  1
  Dy  Dy1  1  0.167559  0.175988  0.435853  1
  Dy  Dy2  1  0.668046  0.323687  0.564209  1
  Dy  Dy3  1  0.867750  0.539700  0.249926  1
  Dy  Dy4  1  0.628381  0.041280  0.249888  1
  Dy  Dy5  1  0.134247  0.458131  0.750092  1
  Dy  Dy6  1  0.366143  0.958347  0.750110  1
  Ho  Ho7  1  0.834340  0.824793  0.936958  1
  Ho  Ho8  1  0.668187  0.323636  0.935852  1
  Ho  Ho9  1  0.834291  0.824641  0.563075  1
  Ho  Ho10  1  0.332848  0.676192  0.435577  1
  Ho  Ho11  1  0.167477  0.175816  0.064011  1
  Tc  Tc12  1  0.037355  0.885050  0.250062  1
  Ru  Ru13  1  0.461265  0.384285  0.249816  1
  Ru  Ru14  1  0.960126  0.116834  0.750310  1
  Ru  Ru15  1  0.538985  0.615415  0.749906  1
