# generated using pymatgen
data_Dy9ScAl4(SnC4)2
_symmetry_space_group_name_H-M   'P 1'
_cell_length_a   10.90137412
_cell_length_b   10.93147147
_cell_length_c   3.52458200
_cell_angle_alpha   90.00000000
_cell_angle_beta   90.00000000
_cell_angle_gamma   90.31295963
_symmetry_Int_Tables_number   1
_chemical_formula_structural   Dy9ScAl4(SnC4)2
_chemical_formula_sum   'Dy9 Sc1 Al4 Sn2 C8'
_cell_volume   420.01133437
_cell_formula_units_Z   1
loop_
 _symmetry_equiv_pos_site_id
 _symmetry_equiv_pos_as_xyz
  1  'x, y, z'
loop_
 _atom_site_type_symbol
 _atom_site_label
 _atom_site_symmetry_multiplicity
 _atom_site_fract_x
 _atom_site_fract_y
 _atom_site_fract_z
 _atom_site_occupancy
  Dy  Dy0  1  0.554575  0.735660  0.500000  1
  Dy  Dy1  1  0.450707  0.266239  0.500000  1
  Dy  Dy2  1  0.049889  0.767472  0.500000  1
  Dy  Dy3  1  0.949282  0.232092  0.500000  1
  Dy  Dy4  1  0.267833  0.550954  0.500000  1
  Dy  Dy5  1  0.732444  0.449019  0.500000  1
  Dy  Dy6  1  0.230594  0.049132  0.500000  1
  Dy  Dy7  1  0.501204  0.000235  0.000000  1
  Dy  Dy8  1  0.999820  0.500391  0.000000  1
  Sc  Sc9  1  0.758730  0.951332  0.500000  1
  Al  Al10  1  0.706458  0.199814  0.000000  1
  Al  Al11  1  0.298308  0.794689  0.000000  1
  Al  Al12  1  0.205389  0.297414  0.000000  1
  Al  Al13  1  0.798609  0.707868  0.000000  1
  Sn  Sn14  1  0.500342  0.501038  0.000000  1
  Sn  Sn15  1  0.986558  0.996957  0.000000  1
  C  C16  1  0.636065  0.127987  0.500000  1
  C  C17  1  0.368128  0.867779  0.500000  1
  C  C18  1  0.133251  0.366484  0.500000  1
  C  C19  1  0.867389  0.632585  0.500000  1
  C  C20  1  0.162494  0.662855  0.000000  1
  C  C21  1  0.837607  0.336008  0.000000  1
  C  C22  1  0.667982  0.844382  0.000000  1
  C  C23  1  0.336340  0.161611  0.000000  1
