# generated using pymatgen
data_Y4Al11Si7(Os2Rh)2
_symmetry_space_group_name_H-M   'P 1'
_cell_length_a   7.45464092
_cell_length_b   7.44270455
_cell_length_c   9.41514835
_cell_angle_alpha   90.04421524
_cell_angle_beta   90.05267601
_cell_angle_gamma   119.83959411
_symmetry_Int_Tables_number   1
_chemical_formula_structural   Y4Al11Si7(Os2Rh)2
_chemical_formula_sum   'Y4 Al11 Si7 Os4 Rh2'
_cell_volume   453.12121407
_cell_formula_units_Z   1
loop_
 _symmetry_equiv_pos_site_id
 _symmetry_equiv_pos_as_xyz
  1  'x, y, z'
loop_
 _atom_site_type_symbol
 _atom_site_label
 _atom_site_symmetry_multiplicity
 _atom_site_fract_x
 _atom_site_fract_y
 _atom_site_fract_z
 _atom_site_occupancy
  Y  Y0  1  0.999102  0.664471  0.252413  1
  Y  Y1  1  0.995075  0.331060  0.750001  1
  Y  Y2  1  0.673162  0.005032  0.252027  1
  Y  Y3  1  0.331046  0.995097  0.746396  1
  Al  Al4  1  0.126774  0.128491  0.250784  1
  Al  Al5  1  0.871379  0.872550  0.750806  1
  Al  Al6  1  0.335017  0.005850  0.072578  1
  Al  Al7  1  0.337044  0.336246  0.559756  1
  Al  Al8  1  0.662678  0.662988  0.439630  1
  Al  Al9  1  0.663387  0.663444  0.058970  1
  Al  Al10  1  0.337124  0.334017  0.939521  1
  Al  Al11  1  0.340593  0.550125  0.249822  1
  Al  Al12  1  0.661690  0.453171  0.750101  1
  Al  Al13  1  0.548641  0.340497  0.249297  1
  Al  Al14  1  0.452471  0.658466  0.748945  1
  Si  Si15  1  0.009972  0.337301  0.069155  1
  Si  Si16  1  0.997221  0.668563  0.932783  1
  Si  Si17  1  0.990721  0.663243  0.570881  1
  Si  Si18  1  0.337242  0.008969  0.423798  1
  Si  Si19  1  0.010266  0.337581  0.429816  1
  Si  Si20  1  0.662604  0.990734  0.571213  1
  Si  Si21  1  0.655823  0.991245  0.932479  1
  Os  Os22  1  0.688805  0.326964  0.999743  1
  Os  Os23  1  0.319163  0.671762  0.997699  1
  Os  Os24  1  0.318983  0.681305  0.500148  1
  Os  Os25  1  0.681674  0.319042  0.500200  1
  Rh  Rh26  1  0.992668  0.001489  0.000072  1
  Rh  Rh27  1  0.999673  0.000298  0.500966  1
