# generated using pymatgen
data_Tb8Y11HoSn16
_symmetry_space_group_name_H-M   'P 1'
_cell_length_a   8.06306303
_cell_length_b   8.20543109
_cell_length_c   15.52141200
_cell_angle_alpha   89.99835907
_cell_angle_beta   90.00513761
_cell_angle_gamma   89.99174664
_symmetry_Int_Tables_number   1
_chemical_formula_structural   Tb8Y11HoSn16
_chemical_formula_sum   'Tb8 Y11 Ho1 Sn16'
_cell_volume   1026.91069732
_cell_formula_units_Z   1
loop_
 _symmetry_equiv_pos_site_id
 _symmetry_equiv_pos_as_xyz
  1  'x, y, z'
loop_
 _atom_site_type_symbol
 _atom_site_label
 _atom_site_symmetry_multiplicity
 _atom_site_fract_x
 _atom_site_fract_y
 _atom_site_fract_z
 _atom_site_occupancy
  Tb  Tb0  1  0.520323  0.320533  0.902278  1
  Tb  Tb1  1  0.020260  0.179595  0.597698  1
  Tb  Tb2  1  0.479783  0.679592  0.402356  1
  Tb  Tb3  1  0.979685  0.820357  0.097495  1
  Tb  Tb4  1  0.479685  0.679533  0.097634  1
  Tb  Tb5  1  0.979704  0.820515  0.402343  1
  Tb  Tb6  1  0.520324  0.320536  0.597708  1
  Tb  Tb7  1  0.020300  0.179437  0.902267  1
  Y  Y8  1  0.367260  0.836262  0.877914  1
  Y  Y9  1  0.867513  0.663881  0.622153  1
  Y  Y10  1  0.632677  0.163738  0.378069  1
  Y  Y11  1  0.132543  0.336228  0.121962  1
  Y  Y12  1  0.632719  0.163731  0.121902  1
  Y  Y13  1  0.132570  0.336213  0.378050  1
  Y  Y14  1  0.367381  0.836191  0.622085  1
  Y  Y15  1  0.198627  0.502355  0.750094  1
  Y  Y16  1  0.698758  0.997654  0.750015  1
  Y  Y17  1  0.801092  0.497789  0.250024  1
  Y  Y18  1  0.301191  0.002148  0.249990  1
  Ho  Ho19  1  0.867479  0.663801  0.877930  1
  Sn  Sn20  1  0.292964  0.035843  0.041755  1
  Sn  Sn21  1  0.792984  0.464195  0.458233  1
  Sn  Sn22  1  0.707047  0.964285  0.541655  1
  Sn  Sn23  1  0.206484  0.535861  0.958213  1
  Sn  Sn24  1  0.707311  0.963523  0.958215  1
  Sn  Sn25  1  0.207006  0.535749  0.541680  1
  Sn  Sn26  1  0.293013  0.035794  0.458224  1
  Sn  Sn27  1  0.793165  0.464490  0.041419  1
  Sn  Sn28  1  0.565592  0.618955  0.750223  1
  Sn  Sn29  1  0.064891  0.880879  0.750267  1
  Sn  Sn30  1  0.434749  0.381234  0.249996  1
  Sn  Sn31  1  0.934860  0.118679  0.250027  1
  Sn  Sn32  1  0.329027  0.146439  0.749940  1
  Sn  Sn33  1  0.829020  0.353884  0.750133  1
  Sn  Sn34  1  0.671010  0.853656  0.250031  1
  Sn  Sn35  1  0.170997  0.646444  0.250023  1
