# generated using pymatgen
data_SmDyFe2Cl
_symmetry_space_group_name_H-M   'P 1'
_cell_length_a   3.90398300
_cell_length_b   3.90398409
_cell_length_c   16.22559300
_cell_angle_alpha   90.00000000
_cell_angle_beta   90.00000000
_cell_angle_gamma   119.99998230
_symmetry_Int_Tables_number   1
_chemical_formula_structural   SmDyFe2Cl
_chemical_formula_sum   'Sm2 Dy2 Fe4 Cl2'
_cell_volume   214.16438184
_cell_formula_units_Z   2
loop_
 _symmetry_equiv_pos_site_id
 _symmetry_equiv_pos_as_xyz
  1  'x, y, z'
loop_
 _atom_site_type_symbol
 _atom_site_label
 _atom_site_symmetry_multiplicity
 _atom_site_fract_x
 _atom_site_fract_y
 _atom_site_fract_z
 _atom_site_occupancy
  Sm  Sm0  1  0.000000  0.000000  0.616675  1
  Sm  Sm1  1  0.000000  0.000000  0.383325  1
  Dy  Dy2  1  0.000000  0.000000  0.110869  1
  Dy  Dy3  1  0.000000  0.000000  0.889131  1
  Fe  Fe4  1  0.333333  0.666667  0.504748  1
  Fe  Fe5  1  0.666667  0.333333  0.495252  1
  Fe  Fe6  1  0.666667  0.333333  0.006961  1
  Fe  Fe7  1  0.333333  0.666667  0.993039  1
  Cl  Cl8  1  0.333333  0.666667  0.243956  1
  Cl  Cl9  1  0.666667  0.333333  0.756044  1
