# generated using pymatgen
data_LaZn9Ni2
_symmetry_space_group_name_H-M   'P 1'
_cell_length_a   8.17549419
_cell_length_b   8.17550320
_cell_length_c   8.17549448
_cell_angle_alpha   99.76985092
_cell_angle_beta   99.76540084
_cell_angle_gamma   131.35279180
_symmetry_Int_Tables_number   1
_chemical_formula_structural   LaZn9Ni2
_chemical_formula_sum   'La2 Zn18 Ni4'
_cell_volume   373.77766764
_cell_formula_units_Z   2
loop_
 _symmetry_equiv_pos_site_id
 _symmetry_equiv_pos_as_xyz
  1  'x, y, z'
loop_
 _atom_site_type_symbol
 _atom_site_label
 _atom_site_symmetry_multiplicity
 _atom_site_fract_x
 _atom_site_fract_y
 _atom_site_fract_z
 _atom_site_occupancy
  La  La0  1  0.249992  0.749986  0.499994  1
  La  La1  1  0.000008  0.000014  0.000006  1
  Zn  Zn2  1  0.889335  0.564003  0.080495  1
  Zn  Zn3  1  0.436002  0.516490  0.325341  1
  Zn  Zn4  1  0.483507  0.564003  0.674668  1
  Zn  Zn5  1  0.436007  0.110662  0.919509  1
  Zn  Zn6  1  0.766493  0.185997  0.825332  1
  Zn  Zn7  1  0.483503  0.808842  0.919497  1
  Zn  Zn8  1  0.500000  0.499995  0.999995  1
  Zn  Zn9  1  0.766497  0.941158  0.580503  1
  Zn  Zn10  1  0.750000  0.250005  0.500005  1
  Zn  Zn11  1  0.058846  0.639338  0.825344  1
  Zn  Zn12  1  0.360665  0.185997  0.419505  1
  Zn  Zn13  1  0.813993  0.639338  0.580491  1
  Zn  Zn14  1  0.889345  0.808842  0.325339  1
  Zn  Zn15  1  0.191154  0.110662  0.674656  1
  Zn  Zn16  1  0.058851  0.233510  0.419512  1
  Zn  Zn17  1  0.360655  0.941158  0.174661  1
  Zn  Zn18  1  0.813998  0.233510  0.174659  1
  Zn  Zn19  1  0.191149  0.516490  0.080488  1
  Ni  Ni20  1  0.625000  0.875000  0.250000  1
  Ni  Ni21  1  0.125000  0.375000  0.750000  1
  Ni  Ni22  1  0.625000  0.375000  0.250000  1
  Ni  Ni23  1  0.625000  0.375000  0.750000  1
