# generated using pymatgen
data_TbTh3(CoB10)2
_symmetry_space_group_name_H-M   'P 1'
_cell_length_a   4.16938300
_cell_length_b   5.59839305
_cell_length_c   11.19154703
_cell_angle_alpha   90.20584518
_cell_angle_beta   90.00000000
_cell_angle_gamma   90.00000000
_symmetry_Int_Tables_number   1
_chemical_formula_structural   TbTh3(CoB10)2
_chemical_formula_sum   'Tb1 Th3 Co2 B20'
_cell_volume   261.22966787
_cell_formula_units_Z   1
loop_
 _symmetry_equiv_pos_site_id
 _symmetry_equiv_pos_as_xyz
  1  'x, y, z'
loop_
 _atom_site_type_symbol
 _atom_site_label
 _atom_site_symmetry_multiplicity
 _atom_site_fract_x
 _atom_site_fract_y
 _atom_site_fract_z
 _atom_site_occupancy
  Tb  Tb0  1  0.500000  0.302316  0.865771  1
  Th  Th1  1  0.500000  0.698787  0.133226  1
  Th  Th2  1  0.500000  0.802986  0.635616  1
  Th  Th3  1  0.500000  0.198082  0.365424  1
  Co  Co4  1  0.000000  0.500673  0.500572  1
  Co  Co5  1  0.000000  0.999808  0.999537  1
  B  B6  1  0.000000  0.126723  0.540630  1
  B  B7  1  0.000000  0.872819  0.460066  1
  B  B8  1  0.000000  0.626691  0.959467  1
  B  B9  1  0.000000  0.371822  0.038871  1
  B  B10  1  0.000000  0.152879  0.697820  1
  B  B11  1  0.000000  0.847631  0.302689  1
  B  B12  1  0.300049  0.200178  0.112899  1
  B  B13  1  0.300296  0.797175  0.886751  1
  B  B14  1  0.699456  0.700732  0.386615  1
  B  B15  1  0.699792  0.298776  0.614469  1
  B  B16  1  0.699704  0.797175  0.886751  1
  B  B17  1  0.699951  0.200178  0.112899  1
  B  B18  1  0.300208  0.298776  0.614469  1
  B  B19  1  0.300544  0.700732  0.386615  1
  B  B20  1  0.000000  0.034668  0.186861  1
  B  B21  1  0.000000  0.967039  0.813564  1
  B  B22  1  0.000000  0.535273  0.312406  1
  B  B23  1  0.000000  0.465692  0.687235  1
  B  B24  1  0.000000  0.348160  0.196076  1
  B  B25  1  0.000000  0.654229  0.802704  1
