# generated using pymatgen
data_Li3Mn(B2Ru3)2
_symmetry_space_group_name_H-M   'P 1'
_cell_length_a   2.90104100
_cell_length_b   5.85520346
_cell_length_c   9.19708159
_cell_angle_alpha   89.83658672
_cell_angle_beta   90.00000000
_cell_angle_gamma   90.00000000
_symmetry_Int_Tables_number   1
_chemical_formula_structural   Li3Mn(B2Ru3)2
_chemical_formula_sum   'Li3 Mn1 B4 Ru6'
_cell_volume   156.22269670
_cell_formula_units_Z   1
loop_
 _symmetry_equiv_pos_site_id
 _symmetry_equiv_pos_as_xyz
  1  'x, y, z'
loop_
 _atom_site_type_symbol
 _atom_site_label
 _atom_site_symmetry_multiplicity
 _atom_site_fract_x
 _atom_site_fract_y
 _atom_site_fract_z
 _atom_site_occupancy
  Li  Li0  1  0.500000  0.676195  0.923324  1
  Li  Li1  1  0.500000  0.168945  0.572709  1
  Li  Li2  1  0.500000  0.834975  0.427832  1
  Mn  Mn3  1  0.500000  0.333026  0.066611  1
  B  B4  1  0.500000  0.065238  0.823594  1
  B  B5  1  0.500000  0.566859  0.677763  1
  B  B6  1  0.500000  0.429897  0.336042  1
  B  B7  1  0.500000  0.918970  0.171811  1
  Ru  Ru8  1  0.000000  0.346280  0.796818  1
  Ru  Ru9  1  0.000000  0.163647  0.275349  1
  Ru  Ru10  1  0.000000  0.502405  0.504845  1
  Ru  Ru11  1  0.000000  0.644043  0.210945  1
  Ru  Ru12  1  0.000000  0.845281  0.713191  1
  Ru  Ru13  1  0.000000  0.004239  0.999166  1
