# generated using pymatgen
data_CePr5(As5Pd6)2
_symmetry_space_group_name_H-M   'P 1'
_cell_length_a   4.22631800
_cell_length_b   10.03069666
_cell_length_c   13.02541933
_cell_angle_alpha   89.79265566
_cell_angle_beta   90.00000000
_cell_angle_gamma   90.00000000
_symmetry_Int_Tables_number   1
_chemical_formula_structural   CePr5(As5Pd6)2
_chemical_formula_sum   'Ce1 Pr5 As10 Pd12'
_cell_volume   552.18186390
_cell_formula_units_Z   1
loop_
 _symmetry_equiv_pos_site_id
 _symmetry_equiv_pos_as_xyz
  1  'x, y, z'
loop_
 _atom_site_type_symbol
 _atom_site_label
 _atom_site_symmetry_multiplicity
 _atom_site_fract_x
 _atom_site_fract_y
 _atom_site_fract_z
 _atom_site_occupancy
  Ce  Ce0  1  0.000000  0.251371  0.664103  1
  Pr  Pr1  1  0.000000  0.248496  0.333765  1
  Pr  Pr2  1  0.500000  0.750329  0.833821  1
  Pr  Pr3  1  0.500000  0.749963  0.166491  1
  Pr  Pr4  1  0.000000  0.255538  0.999193  1
  Pr  Pr5  1  0.500000  0.744918  0.500661  1
  As  As6  1  0.000000  0.525777  0.125096  1
  As  As7  1  0.000000  0.855592  0.336146  1
  As  As8  1  0.000000  0.857581  0.000219  1
  As  As9  1  0.500000  0.474583  0.374656  1
  As  As10  1  0.500000  0.148688  0.503403  1
  As  As11  1  0.000000  0.525606  0.873897  1
  As  As12  1  0.500000  0.472026  0.626143  1
  As  As13  1  0.000000  0.855988  0.664438  1
  As  As14  1  0.500000  0.144668  0.164912  1
  As  As15  1  0.500000  0.143688  0.833184  1
  Pd  Pd16  1  0.000000  0.999860  0.169781  1
  Pd  Pd17  1  0.500000  0.000486  0.332312  1
  Pd  Pd18  1  0.500000  0.393371  0.185767  1
  Pd  Pd19  1  0.500000  0.520433  0.999267  1
  Pd  Pd20  1  0.000000  0.474155  0.500255  1
  Pd  Pd21  1  0.000000  0.607125  0.315235  1
  Pd  Pd22  1  0.000000  0.607285  0.683632  1
  Pd  Pd23  1  0.500000  0.001944  0.999947  1
  Pd  Pd24  1  0.000000  0.001489  0.830093  1
  Pd  Pd25  1  0.500000  0.390000  0.814429  1
  Pd  Pd26  1  0.000000  0.000308  0.499868  1
  Pd  Pd27  1  0.500000  0.998730  0.669284  1
