# generated using pymatgen
data_YbTh(PO4)2
_symmetry_space_group_name_H-M   'P 1'
_cell_length_a   6.99195614
_cell_length_b   6.42823819
_cell_length_c   8.17847500
_cell_angle_alpha   53.44106226
_cell_angle_beta   89.95516773
_cell_angle_gamma   88.58202432
_symmetry_Int_Tables_number   1
_chemical_formula_structural   YbTh(PO4)2
_chemical_formula_sum   'Yb2 Th2 P4 O16'
_cell_volume   295.12918398
_cell_formula_units_Z   2
loop_
 _symmetry_equiv_pos_site_id
 _symmetry_equiv_pos_as_xyz
  1  'x, y, z'
loop_
 _atom_site_type_symbol
 _atom_site_label
 _atom_site_symmetry_multiplicity
 _atom_site_fract_x
 _atom_site_fract_y
 _atom_site_fract_z
 _atom_site_occupancy
  Yb  Yb0  1  0.851653  0.207302  0.208644  1
  Yb  Yb1  1  0.148347  0.792698  0.791356  1
  Th  Th2  1  0.329883  0.838370  0.276924  1
  Th  Th3  1  0.670117  0.161630  0.723076  1
  P  P4  1  0.832909  0.693482  0.197829  1
  P  P5  1  0.167091  0.306518  0.802171  1
  P  P6  1  0.339456  0.315346  0.301676  1
  P  P7  1  0.660544  0.684654  0.698324  1
  O  O8  1  0.798394  0.411648  0.381623  1
  O  O9  1  0.201606  0.588352  0.618377  1
  O  O10  1  0.274848  0.597304  0.128932  1
  O  O11  1  0.725152  0.402696  0.871068  1
  O  O12  1  0.985780  0.821448  0.246154  1
  O  O13  1  0.014220  0.178552  0.753846  1
  O  O14  1  0.498055  0.200498  0.241038  1
  O  O15  1  0.501945  0.799502  0.758962  1
  O  O16  1  0.649098  0.875520  0.124505  1
  O  O17  1  0.350902  0.124480  0.875495  1
  O  O18  1  0.177056  0.115869  0.385317  1
  O  O19  1  0.822944  0.884131  0.614683  1
  O  O20  1  0.881420  0.683619  0.017923  1
  O  O21  1  0.118580  0.316381  0.982077  1
  O  O22  1  0.410155  0.347500  0.466933  1
  O  O23  1  0.589845  0.652500  0.533067  1
