# generated using pymatgen
data_Zr4Tc7B8Ru3
_symmetry_space_group_name_H-M   'P 1'
_cell_length_a   3.10248700
_cell_length_b   8.63373587
_cell_length_c   10.06686831
_cell_angle_alpha   89.85359336
_cell_angle_beta   90.00000000
_cell_angle_gamma   90.00000000
_symmetry_Int_Tables_number   1
_chemical_formula_structural   Zr4Tc7B8Ru3
_chemical_formula_sum   'Zr4 Tc7 B8 Ru3'
_cell_volume   269.65079073
_cell_formula_units_Z   1
loop_
 _symmetry_equiv_pos_site_id
 _symmetry_equiv_pos_as_xyz
  1  'x, y, z'
loop_
 _atom_site_type_symbol
 _atom_site_label
 _atom_site_symmetry_multiplicity
 _atom_site_fract_x
 _atom_site_fract_y
 _atom_site_fract_z
 _atom_site_occupancy
  Zr  Zr0  1  0.500000  0.835332  0.181076  1
  Zr  Zr1  1  0.500000  0.162225  0.814921  1
  Zr  Zr2  1  0.500000  0.662969  0.684048  1
  Zr  Zr3  1  0.500000  0.339128  0.317671  1
  Tc  Tc4  1  0.000000  0.660575  0.955114  1
  Tc  Tc5  1  0.000000  0.338032  0.047540  1
  Tc  Tc6  1  0.000000  0.839687  0.453129  1
  Tc  Tc7  1  0.000000  0.161272  0.544085  1
  Tc  Tc8  1  0.000000  0.408846  0.760650  1
  Tc  Tc9  1  0.000000  0.590932  0.239838  1
  Tc  Tc10  1  0.000000  0.909247  0.740192  1
  B  B11  1  0.500000  0.968202  0.587271  1
  B  B12  1  0.500000  0.031845  0.412887  1
  B  B13  1  0.500000  0.849379  0.899442  1
  B  B14  1  0.500000  0.150100  0.098282  1
  B  B15  1  0.500000  0.650426  0.399900  1
  B  B16  1  0.500000  0.350099  0.600705  1
  B  B17  1  0.500000  0.467662  0.913028  1
  B  B18  1  0.500000  0.531875  0.087679  1
  Ru  Ru19  1  0.000000  0.000303  0.001501  1
  Ru  Ru20  1  0.000000  0.500053  0.500180  1
  Ru  Ru21  1  0.000000  0.091811  0.260862  1
