# generated using pymatgen
data_Sc10SiHgPb6
_symmetry_space_group_name_H-M   'P 1'
_cell_length_a   8.80034700
_cell_length_b   8.80034856
_cell_length_c   6.31917900
_cell_angle_alpha   90.00000000
_cell_angle_beta   90.00000000
_cell_angle_gamma   120.00000541
_symmetry_Int_Tables_number   1
_chemical_formula_structural   Sc10SiHgPb6
_chemical_formula_sum   'Sc10 Si1 Hg1 Pb6'
_cell_volume   423.82926035
_cell_formula_units_Z   1
loop_
 _symmetry_equiv_pos_site_id
 _symmetry_equiv_pos_as_xyz
  1  'x, y, z'
loop_
 _atom_site_type_symbol
 _atom_site_label
 _atom_site_symmetry_multiplicity
 _atom_site_fract_x
 _atom_site_fract_y
 _atom_site_fract_z
 _atom_site_occupancy
  Sc  Sc0  1  0.666667  0.333333  0.500000  1
  Sc  Sc1  1  0.333333  0.666667  0.500000  1
  Sc  Sc2  1  0.333333  0.666667  0.000000  1
  Sc  Sc3  1  0.666667  0.333333  0.000000  1
  Sc  Sc4  1  0.738973  0.738973  0.220505  1
  Sc  Sc5  1  0.261027  0.000000  0.220505  1
  Sc  Sc6  1  0.000000  0.261027  0.220505  1
  Sc  Sc7  1  0.261027  0.261027  0.779495  1
  Sc  Sc8  1  0.738973  0.000000  0.779495  1
  Sc  Sc9  1  0.000000  0.738973  0.779495  1
  Si  Si10  1  0.000000  0.000000  0.000000  1
  Hg  Hg11  1  0.000000  0.000000  0.500000  1
  Pb  Pb12  1  0.388363  0.388363  0.254556  1
  Pb  Pb13  1  0.611637  0.000000  0.254556  1
  Pb  Pb14  1  0.000000  0.611637  0.254556  1
  Pb  Pb15  1  0.611637  0.611637  0.745444  1
  Pb  Pb16  1  0.388363  0.000000  0.745444  1
  Pb  Pb17  1  0.000000  0.388363  0.745444  1
