# generated using pymatgen
data_Cs4Pr3Sm(GeSe4)4
_symmetry_space_group_name_H-M   'P 1'
_cell_length_a   6.91825532
_cell_length_b   7.23578547
_cell_length_c   18.88676121
_cell_angle_alpha   89.97671904
_cell_angle_beta   90.06238022
_cell_angle_gamma   90.03380555
_symmetry_Int_Tables_number   1
_chemical_formula_structural   Cs4Pr3Sm(GeSe4)4
_chemical_formula_sum   'Cs4 Pr3 Sm1 Ge4 Se16'
_cell_volume   945.45178943
_cell_formula_units_Z   1
loop_
 _symmetry_equiv_pos_site_id
 _symmetry_equiv_pos_as_xyz
  1  'x, y, z'
loop_
 _atom_site_type_symbol
 _atom_site_label
 _atom_site_symmetry_multiplicity
 _atom_site_fract_x
 _atom_site_fract_y
 _atom_site_fract_z
 _atom_site_occupancy
  Cs  Cs0  1  0.995826  0.007077  0.031601  1
  Cs  Cs1  1  0.503876  0.992975  0.531855  1
  Cs  Cs2  1  0.496227  0.493012  0.968188  1
  Cs  Cs3  1  0.003855  0.507034  0.468432  1
  Pr  Pr4  1  0.206318  0.514982  0.727508  1
  Pr  Pr5  1  0.294054  0.485138  0.227302  1
  Pr  Pr6  1  0.705887  0.985288  0.272733  1
  Sm  Sm7  1  0.792930  0.016758  0.772804  1
  Ge  Ge8  1  0.289003  0.980904  0.833750  1
  Ge  Ge9  1  0.211108  0.019290  0.334335  1
  Ge  Ge10  1  0.788905  0.519357  0.165667  1
  Ge  Ge11  1  0.711242  0.480949  0.666222  1
  Se  Se12  1  0.402151  0.912995  0.717650  1
  Se  Se13  1  0.104711  0.086856  0.217089  1
  Se  Se14  1  0.895211  0.586957  0.282893  1
  Se  Se15  1  0.605329  0.408774  0.783008  1
  Se  Se16  1  0.094377  0.251984  0.847443  1
  Se  Se17  1  0.401278  0.745591  0.348498  1
  Se  Se18  1  0.598532  0.245512  0.151492  1
  Se  Se19  1  0.900100  0.756713  0.653297  1
  Se  Se20  1  0.052753  0.744822  0.855134  1
  Se  Se21  1  0.443901  0.258199  0.356340  1
  Se  Se22  1  0.556233  0.758081  0.143621  1
  Se  Se23  1  0.942110  0.240049  0.644956  1
  Se  Se24  1  0.439933  0.484952  0.590068  1
  Se  Se25  1  0.060275  0.515198  0.090001  1
  Se  Se26  1  0.939732  0.015171  0.409981  1
  Se  Se27  1  0.564143  0.985381  0.908129  1
