# generated using pymatgen
data_SmLu3(B4W)4
_symmetry_space_group_name_H-M   'P 1'
_cell_length_a   3.61431000
_cell_length_b   6.01547879
_cell_length_c   11.62019427
_cell_angle_alpha   90.13530446
_cell_angle_beta   90.00000000
_cell_angle_gamma   90.00000000
_symmetry_Int_Tables_number   1
_chemical_formula_structural   SmLu3(B4W)4
_chemical_formula_sum   'Sm1 Lu3 B16 W4'
_cell_volume   252.64329495
_cell_formula_units_Z   1
loop_
 _symmetry_equiv_pos_site_id
 _symmetry_equiv_pos_as_xyz
  1  'x, y, z'
loop_
 _atom_site_type_symbol
 _atom_site_label
 _atom_site_symmetry_multiplicity
 _atom_site_fract_x
 _atom_site_fract_y
 _atom_site_fract_z
 _atom_site_occupancy
  Sm  Sm0  1  0.000000  0.872642  0.849811  1
  Lu  Lu1  1  0.000000  0.627098  0.350839  1
  Lu  Lu2  1  0.000000  0.372614  0.648469  1
  Lu  Lu3  1  0.000000  0.127173  0.149672  1
  B  B4  1  0.500000  0.788746  0.187957  1
  B  B5  1  0.500000  0.214941  0.812343  1
  B  B6  1  0.500000  0.288983  0.313210  1
  B  B7  1  0.500000  0.710069  0.684505  1
  B  B8  1  0.500000  0.866777  0.034408  1
  B  B9  1  0.500000  0.133596  0.970205  1
  B  B10  1  0.500000  0.367599  0.467412  1
  B  B11  1  0.500000  0.632031  0.530698  1
  B  B12  1  0.500000  0.885406  0.451186  1
  B  B13  1  0.500000  0.115660  0.546781  1
  B  B14  1  0.500000  0.384207  0.049704  1
  B  B15  1  0.500000  0.611268  0.954369  1
  B  B16  1  0.500000  0.977667  0.305568  1
  B  B17  1  0.500000  0.025809  0.691489  1
  B  B18  1  0.500000  0.477301  0.195362  1
  B  B19  1  0.500000  0.520898  0.805799  1
  W  W20  1  0.000000  0.630676  0.086928  1
  W  W21  1  0.000000  0.368166  0.916162  1
  W  W22  1  0.000000  0.132207  0.414146  1
  W  W23  1  0.000000  0.868465  0.582975  1
