# generated using pymatgen
data_DyY2Mn(Co4P3)2
_symmetry_space_group_name_H-M   'P 1'
_cell_length_a   3.68733000
_cell_length_b   10.52015600
_cell_length_c   12.18839000
_cell_angle_alpha   90.00000000
_cell_angle_beta   90.00000000
_cell_angle_gamma   90.00000000
_symmetry_Int_Tables_number   1
_chemical_formula_structural   DyY2Mn(Co4P3)2
_chemical_formula_sum   'Dy2 Y4 Mn2 Co16 P12'
_cell_volume   472.80333241
_cell_formula_units_Z   2
loop_
 _symmetry_equiv_pos_site_id
 _symmetry_equiv_pos_as_xyz
  1  'x, y, z'
loop_
 _atom_site_type_symbol
 _atom_site_label
 _atom_site_symmetry_multiplicity
 _atom_site_fract_x
 _atom_site_fract_y
 _atom_site_fract_z
 _atom_site_occupancy
  Dy  Dy0  1  0.000000  0.681995  0.794794  1
  Dy  Dy1  1  0.000000  0.318005  0.794794  1
  Y  Y2  1  0.000000  0.500000  0.522266  1
  Y  Y3  1  0.500000  0.000000  0.477895  1
  Y  Y4  1  0.500000  0.817926  0.205084  1
  Y  Y5  1  0.500000  0.182074  0.205084  1
  Mn  Mn6  1  0.500000  0.500000  0.158849  1
  Mn  Mn7  1  0.000000  0.000000  0.841025  1
  Co  Co8  1  0.500000  0.500000  0.703173  1
  Co  Co9  1  0.000000  0.000000  0.297044  1
  Co  Co10  1  0.000000  0.500000  0.986104  1
  Co  Co11  1  0.500000  0.000000  0.013475  1
  Co  Co12  1  0.500000  0.333066  0.993845  1
  Co  Co13  1  0.500000  0.666934  0.993845  1
  Co  Co14  1  0.000000  0.167042  0.005874  1
  Co  Co15  1  0.000000  0.832958  0.005874  1
  Co  Co16  1  0.500000  0.296718  0.430480  1
  Co  Co17  1  0.500000  0.703282  0.430480  1
  Co  Co18  1  0.000000  0.203426  0.569815  1
  Co  Co19  1  0.000000  0.796574  0.569815  1
  Co  Co20  1  0.500000  0.879618  0.709475  1
  Co  Co21  1  0.500000  0.120382  0.709475  1
  Co  Co22  1  0.000000  0.620248  0.290635  1
  Co  Co23  1  0.000000  0.379752  0.290635  1
  P  P24  1  0.500000  0.500000  0.882699  1
  P  P25  1  0.000000  0.000000  0.117143  1
  P  P26  1  0.500000  0.500000  0.344535  1
  P  P27  1  0.000000  0.000000  0.655501  1
  P  P28  1  0.500000  0.311049  0.616334  1
  P  P29  1  0.500000  0.688951  0.616334  1
  P  P30  1  0.000000  0.188924  0.383931  1
  P  P31  1  0.000000  0.811076  0.383931  1
  P  P32  1  0.500000  0.847382  0.892836  1
  P  P33  1  0.500000  0.152618  0.892836  1
  P  P34  1  0.000000  0.652308  0.107045  1
  P  P35  1  0.000000  0.347692  0.107045  1
