# generated using pymatgen
data_YErMn6Co6P7
_symmetry_space_group_name_H-M   'P 1'
_cell_length_a   9.07167800
_cell_length_b   9.07167834
_cell_length_c   3.63415400
_cell_angle_alpha   90.00000000
_cell_angle_beta   90.00000000
_cell_angle_gamma   120.00000506
_symmetry_Int_Tables_number   1
_chemical_formula_structural   YErMn6Co6P7
_chemical_formula_sum   'Y1 Er1 Mn6 Co6 P7'
_cell_volume   259.00563089
_cell_formula_units_Z   1
loop_
 _symmetry_equiv_pos_site_id
 _symmetry_equiv_pos_as_xyz
  1  'x, y, z'
loop_
 _atom_site_type_symbol
 _atom_site_label
 _atom_site_symmetry_multiplicity
 _atom_site_fract_x
 _atom_site_fract_y
 _atom_site_fract_z
 _atom_site_occupancy
  Y  Y0  1  0.000000  0.000000  0.500000  1
  Er  Er1  1  0.333333  0.666667  0.000000  1
  Mn  Mn2  1  0.546399  0.056128  0.000000  1
  Mn  Mn3  1  0.943872  0.490272  0.000000  1
  Mn  Mn4  1  0.509728  0.453601  0.000000  1
  Mn  Mn5  1  0.786165  0.229296  0.500000  1
  Mn  Mn6  1  0.770704  0.556870  0.500000  1
  Mn  Mn7  1  0.443130  0.213835  0.500000  1
  Co  Co8  1  0.036163  0.273775  0.000000  1
  Co  Co9  1  0.726225  0.762388  0.000000  1
  Co  Co10  1  0.237612  0.963837  0.000000  1
  Co  Co11  1  0.615035  0.893808  0.500000  1
  Co  Co12  1  0.106192  0.721227  0.500000  1
  Co  Co13  1  0.278773  0.384965  0.500000  1
  P  P14  1  0.777377  0.031974  0.000000  1
  P  P15  1  0.968026  0.745403  0.000000  1
  P  P16  1  0.254597  0.222623  0.000000  1
  P  P17  1  0.378730  0.926062  0.500000  1
  P  P18  1  0.073938  0.452670  0.500000  1
  P  P19  1  0.547330  0.621270  0.500000  1
  P  P20  1  0.666667  0.333333  0.000000  1
