# generated using pymatgen
data_Th8Sc12Si15As
_symmetry_space_group_name_H-M   'P 1'
_cell_length_a   7.34796062
_cell_length_b   7.46676725
_cell_length_c   14.13015783
_cell_angle_alpha   90.01689753
_cell_angle_beta   89.75006775
_cell_angle_gamma   89.97538233
_symmetry_Int_Tables_number   1
_chemical_formula_structural   Th8Sc12Si15As
_chemical_formula_sum   'Th8 Sc12 Si15 As1'
_cell_volume   775.25085798
_cell_formula_units_Z   1
loop_
 _symmetry_equiv_pos_site_id
 _symmetry_equiv_pos_as_xyz
  1  'x, y, z'
loop_
 _atom_site_type_symbol
 _atom_site_label
 _atom_site_symmetry_multiplicity
 _atom_site_fract_x
 _atom_site_fract_y
 _atom_site_fract_z
 _atom_site_occupancy
  Th  Th0  1  0.006678  0.676964  0.596103  1
  Th  Th1  1  0.992392  0.322095  0.403320  1
  Th  Th2  1  0.494098  0.179935  0.402494  1
  Th  Th3  1  0.994389  0.322559  0.096609  1
  Th  Th4  1  0.510327  0.820042  0.597169  1
  Th  Th5  1  0.005696  0.677580  0.903407  1
  Th  Th6  1  0.505738  0.822050  0.903497  1
  Th  Th7  1  0.494480  0.177531  0.096584  1
  Sc  Sc8  1  0.181242  0.998973  0.751624  1
  Sc  Sc9  1  0.819259  0.000085  0.250686  1
  Sc  Sc10  1  0.318419  0.499591  0.250065  1
  Sc  Sc11  1  0.681716  0.500573  0.749984  1
  Sc  Sc12  1  0.355253  0.333314  0.625549  1
  Sc  Sc13  1  0.645757  0.668733  0.374943  1
  Sc  Sc14  1  0.145895  0.830818  0.375474  1
  Sc  Sc15  1  0.647277  0.669553  0.124853  1
  Sc  Sc16  1  0.851673  0.168903  0.623956  1
  Sc  Sc17  1  0.352574  0.330340  0.874950  1
  Sc  Sc18  1  0.852694  0.169195  0.874907  1
  Sc  Sc19  1  0.147042  0.830418  0.124838  1
  Si  Si20  1  0.055844  0.377354  0.749166  1
  Si  Si21  1  0.944049  0.622259  0.250378  1
  Si  Si22  1  0.443491  0.877900  0.250228  1
  Si  Si23  1  0.555815  0.122197  0.749559  1
  Si  Si24  1  0.307434  0.623786  0.749915  1
  Si  Si25  1  0.692945  0.376955  0.249737  1
  Si  Si26  1  0.192594  0.122703  0.250038  1
  Si  Si27  1  0.808317  0.876801  0.749759  1
  Si  Si28  1  0.806736  0.956332  0.455767  1
  Si  Si29  1  0.314067  0.542700  0.457860  1
  Si  Si30  1  0.817277  0.958194  0.042174  1
  Si  Si31  1  0.685534  0.457561  0.542695  1
  Si  Si32  1  0.182780  0.041538  0.957656  1
  Si  Si33  1  0.682805  0.458112  0.957667  1
  Si  Si34  1  0.317310  0.541495  0.042297  1
  As  As35  1  0.190402  0.044857  0.544094  1
