# generated using pymatgen
data_HoTm3Sc2(B2Rh5)2
_symmetry_space_group_name_H-M   'P 1'
_cell_length_a   9.63653977
_cell_length_b   9.63664477
_cell_length_c   3.20640500
_cell_angle_alpha   90.00000000
_cell_angle_beta   90.00000000
_cell_angle_gamma   89.91314597
_symmetry_Int_Tables_number   1
_chemical_formula_structural   HoTm3Sc2(B2Rh5)2
_chemical_formula_sum   'Ho1 Tm3 Sc2 B4 Rh10'
_cell_volume   297.75896495
_cell_formula_units_Z   1
loop_
 _symmetry_equiv_pos_site_id
 _symmetry_equiv_pos_as_xyz
  1  'x, y, z'
loop_
 _atom_site_type_symbol
 _atom_site_label
 _atom_site_symmetry_multiplicity
 _atom_site_fract_x
 _atom_site_fract_y
 _atom_site_fract_z
 _atom_site_occupancy
  Ho  Ho0  1  0.175074  0.675078  0.000000  1
  Tm  Tm1  1  0.824691  0.324691  0.000000  1
  Tm  Tm2  1  0.324906  0.175181  0.000000  1
  Tm  Tm3  1  0.675182  0.824907  0.000000  1
  Sc  Sc4  1  0.999760  0.000403  0.000000  1
  Sc  Sc5  1  0.500404  0.499762  0.000000  1
  B  B6  1  0.620016  0.120018  0.000000  1
  B  B7  1  0.119962  0.379406  0.000000  1
  B  B8  1  0.879405  0.619959  0.000000  1
  B  B9  1  0.380453  0.880456  0.000000  1
  Rh  Rh10  1  0.071340  0.224613  0.500000  1
  Rh  Rh11  1  0.225461  0.929919  0.500000  1
  Rh  Rh12  1  0.775056  0.071419  0.500000  1
  Rh  Rh13  1  0.927474  0.775269  0.500000  1
  Rh  Rh14  1  0.429923  0.725463  0.500000  1
  Rh  Rh15  1  0.571419  0.275050  0.500000  1
  Rh  Rh16  1  0.724607  0.571340  0.500000  1
  Rh  Rh17  1  0.275270  0.427476  0.500000  1
  Rh  Rh18  1  0.500338  0.000339  0.500000  1
  Rh  Rh19  1  0.999259  0.499254  0.500000  1
