# generated using pymatgen
data_TbDy4Mg3(P3Ir4)4
_symmetry_space_group_name_H-M   'P 1'
_cell_length_a   12.80763500
_cell_length_b   12.80763451
_cell_length_c   3.98410800
_cell_angle_alpha   90.00000000
_cell_angle_beta   90.00000000
_cell_angle_gamma   119.99999867
_symmetry_Int_Tables_number   1
_chemical_formula_structural   TbDy4Mg3(P3Ir4)4
_chemical_formula_sum   'Tb1 Dy4 Mg3 P12 Ir16'
_cell_volume   565.97807571
_cell_formula_units_Z   1
loop_
 _symmetry_equiv_pos_site_id
 _symmetry_equiv_pos_as_xyz
  1  'x, y, z'
loop_
 _atom_site_type_symbol
 _atom_site_label
 _atom_site_symmetry_multiplicity
 _atom_site_fract_x
 _atom_site_fract_y
 _atom_site_fract_z
 _atom_site_occupancy
  Tb  Tb0  1  0.333333  0.666667  0.500000  1
  Dy  Dy1  1  0.666667  0.333333  0.500000  1
  Dy  Dy2  1  0.000044  0.809074  0.000000  1
  Dy  Dy3  1  0.190926  0.190970  0.000000  1
  Dy  Dy4  1  0.809030  0.999956  0.000000  1
  Mg  Mg5  1  0.999988  0.444528  0.500000  1
  Mg  Mg6  1  0.555472  0.555460  0.500000  1
  Mg  Mg7  1  0.444540  0.000012  0.500000  1
  P  P8  1  0.000100  0.641077  0.500000  1
  P  P9  1  0.358923  0.359022  0.500000  1
  P  P10  1  0.640978  0.999900  0.500000  1
  P  P11  1  0.516413  0.688620  0.000000  1
  P  P12  1  0.311380  0.827793  0.000000  1
  P  P13  1  0.172207  0.483587  0.000000  1
  P  P14  1  0.483804  0.172478  0.000000  1
  P  P15  1  0.688674  0.516196  0.000000  1
  P  P16  1  0.827522  0.311326  0.000000  1
  P  P17  1  0.999946  0.177314  0.500000  1
  P  P18  1  0.822686  0.822631  0.500000  1
  P  P19  1  0.177369  0.000054  0.500000  1
  Ir  Ir20  1  0.509044  0.868600  0.000000  1
  Ir  Ir21  1  0.131400  0.640445  0.000000  1
  Ir  Ir22  1  0.359555  0.490956  0.000000  1
  Ir  Ir23  1  0.491532  0.359545  0.000000  1
  Ir  Ir24  1  0.868013  0.508468  0.000000  1
  Ir  Ir25  1  0.640455  0.131987  0.000000  1
  Ir  Ir26  1  0.999913  0.278903  0.000000  1
  Ir  Ir27  1  0.721097  0.721010  0.000000  1
  Ir  Ir28  1  0.278990  0.000087  0.000000  1
  Ir  Ir29  1  0.627832  0.806165  0.500000  1
  Ir  Ir30  1  0.193835  0.821667  0.500000  1
  Ir  Ir31  1  0.178333  0.372168  0.500000  1
  Ir  Ir32  1  0.372235  0.178507  0.500000  1
  Ir  Ir33  1  0.806272  0.627765  0.500000  1
  Ir  Ir34  1  0.821493  0.193728  0.500000  1
  Ir  Ir35  1  0.000000  0.000000  0.500000  1
