# generated using pymatgen
data_Tb3Y5Tc(B8Ru)3
_symmetry_space_group_name_H-M   'P 1'
_cell_length_a   3.67861700
_cell_length_b   9.16627726
_cell_length_c   11.55433902
_cell_angle_alpha   89.90707944
_cell_angle_beta   90.00000000
_cell_angle_gamma   90.00000000
_symmetry_Int_Tables_number   1
_chemical_formula_structural   Tb3Y5Tc(B8Ru)3
_chemical_formula_sum   'Tb3 Y5 Tc1 B24 Ru3'
_cell_volume   389.60282553
_cell_formula_units_Z   1
loop_
 _symmetry_equiv_pos_site_id
 _symmetry_equiv_pos_as_xyz
  1  'x, y, z'
loop_
 _atom_site_type_symbol
 _atom_site_label
 _atom_site_symmetry_multiplicity
 _atom_site_fract_x
 _atom_site_fract_y
 _atom_site_fract_z
 _atom_site_occupancy
  Tb  Tb0  1  0.000000  0.324608  0.413128  1
  Tb  Tb1  1  0.000000  0.676336  0.583810  1
  Tb  Tb2  1  0.000000  0.821326  0.088050  1
  Y  Y3  1  0.000000  0.176634  0.914831  1
  Y  Y4  1  0.000000  0.943309  0.372573  1
  Y  Y5  1  0.000000  0.057186  0.628070  1
  Y  Y6  1  0.000000  0.444067  0.127906  1
  Y  Y7  1  0.000000  0.556794  0.871598  1
  Tc  Tc8  1  0.000000  0.637729  0.321179  1
  B  B9  1  0.500000  0.552984  0.432798  1
  B  B10  1  0.500000  0.446299  0.567768  1
  B  B11  1  0.500000  0.053710  0.067452  1
  B  B12  1  0.500000  0.946121  0.932817  1
  B  B13  1  0.500000  0.747648  0.419415  1
  B  B14  1  0.500000  0.252664  0.580616  1
  B  B15  1  0.500000  0.247402  0.080339  1
  B  B16  1  0.500000  0.752426  0.919459  1
  B  B17  1  0.500000  0.791071  0.266445  1
  B  B18  1  0.500000  0.209502  0.733606  1
  B  B19  1  0.500000  0.290500  0.232831  1
  B  B20  1  0.500000  0.709988  0.766424  1
  B  B21  1  0.500000  0.631831  0.185923  1
  B  B22  1  0.500000  0.367854  0.814425  1
  B  B23  1  0.500000  0.131908  0.313871  1
  B  B24  1  0.500000  0.868508  0.685740  1
  B  B25  1  0.500000  0.983684  0.212666  1
  B  B26  1  0.500000  0.016404  0.787828  1
  B  B27  1  0.500000  0.482832  0.287302  1
  B  B28  1  0.500000  0.516026  0.712619  1
  B  B29  1  0.500000  0.608659  0.029495  1
  B  B30  1  0.500000  0.390647  0.969398  1
  B  B31  1  0.500000  0.109352  0.470079  1
  B  B32  1  0.500000  0.892089  0.530569  1
  Ru  Ru33  1  0.000000  0.361808  0.679373  1
  Ru  Ru34  1  0.000000  0.137723  0.178333  1
  Ru  Ru35  1  0.000000  0.862370  0.821263  1
