# generated using pymatgen
data_SrU(CuAs2)2
_symmetry_space_group_name_H-M   'P 1'
_cell_length_a   3.98130200
_cell_length_b   3.98088700
_cell_length_c   10.16130400
_cell_angle_alpha   90.00000000
_cell_angle_beta   90.00000000
_cell_angle_gamma   90.00000000
_symmetry_Int_Tables_number   1
_chemical_formula_structural   SrU(CuAs2)2
_chemical_formula_sum   'Sr1 U1 Cu2 As4'
_cell_volume   161.04765913
_cell_formula_units_Z   1
loop_
 _symmetry_equiv_pos_site_id
 _symmetry_equiv_pos_as_xyz
  1  'x, y, z'
loop_
 _atom_site_type_symbol
 _atom_site_label
 _atom_site_symmetry_multiplicity
 _atom_site_fract_x
 _atom_site_fract_y
 _atom_site_fract_z
 _atom_site_occupancy
  Sr  Sr0  1  0.500000  0.000000  0.232854  1
  U  U1  1  0.000000  0.500000  0.752251  1
  Cu  Cu2  1  0.500000  0.500000  0.511251  1
  Cu  Cu3  1  0.000000  0.000000  0.511255  1
  As  As4  1  0.500000  0.000000  0.672926  1
  As  As5  1  0.000000  0.500000  0.373135  1
  As  As6  1  0.000000  0.000000  0.973164  1
  As  As7  1  0.500000  0.500000  0.973164  1
