# generated using pymatgen
data_Tm3Th5(ReC2)4
_symmetry_space_group_name_H-M   'P 1'
_cell_length_a   5.28085200
_cell_length_b   6.66088738
_cell_length_c   9.90267764
_cell_angle_alpha   90.28171455
_cell_angle_beta   90.00000000
_cell_angle_gamma   90.00000000
_symmetry_Int_Tables_number   1
_chemical_formula_structural   Tm3Th5(ReC2)4
_chemical_formula_sum   'Tm3 Th5 Re4 C8'
_cell_volume   348.32406435
_cell_formula_units_Z   1
loop_
 _symmetry_equiv_pos_site_id
 _symmetry_equiv_pos_as_xyz
  1  'x, y, z'
loop_
 _atom_site_type_symbol
 _atom_site_label
 _atom_site_symmetry_multiplicity
 _atom_site_fract_x
 _atom_site_fract_y
 _atom_site_fract_z
 _atom_site_occupancy
  Tm  Tm0  1  0.750000  0.673083  0.552752  1
  Tm  Tm1  1  0.250000  0.325748  0.447389  1
  Tm  Tm2  1  0.750000  0.177284  0.945496  1
  Th  Th3  1  0.250000  0.469132  0.781423  1
  Th  Th4  1  0.750000  0.029887  0.285127  1
  Th  Th5  1  0.250000  0.972909  0.711834  1
  Th  Th6  1  0.750000  0.525707  0.221407  1
  Th  Th7  1  0.250000  0.814619  0.047416  1
  Re  Re8  1  0.250000  0.273448  0.137013  1
  Re  Re9  1  0.750000  0.228853  0.635387  1
  Re  Re10  1  0.250000  0.772512  0.367441  1
  Re  Re11  1  0.750000  0.729457  0.860554  1
  C  C12  1  0.250000  0.170564  0.946809  1
  C  C13  1  0.750000  0.835216  0.052292  1
  C  C14  1  0.250000  0.667528  0.553565  1
  C  C15  1  0.750000  0.333630  0.448000  1
  C  C16  1  0.250000  0.041967  0.264031  1
  C  C17  1  0.750000  0.461473  0.759496  1
  C  C18  1  0.250000  0.535274  0.245175  1
  C  C19  1  0.750000  0.961708  0.737392  1
