# generated using pymatgen
data_Dy9Lu3(ThSn2)8
_symmetry_space_group_name_H-M   'P 1'
_cell_length_a   8.10517533
_cell_length_b   8.21331633
_cell_length_c   15.53374000
_cell_angle_alpha   90.00000000
_cell_angle_beta   90.00000000
_cell_angle_gamma   89.96726223
_symmetry_Int_Tables_number   1
_chemical_formula_structural   Dy9Lu3(ThSn2)8
_chemical_formula_sum   'Dy9 Lu3 Th8 Sn16'
_cell_volume   1034.08663407
_cell_formula_units_Z   1
loop_
 _symmetry_equiv_pos_site_id
 _symmetry_equiv_pos_as_xyz
  1  'x, y, z'
loop_
 _atom_site_type_symbol
 _atom_site_label
 _atom_site_symmetry_multiplicity
 _atom_site_fract_x
 _atom_site_fract_y
 _atom_site_fract_z
 _atom_site_occupancy
  Dy  Dy0  1  0.361445  0.837682  0.876241  1
  Dy  Dy1  1  0.860943  0.662501  0.623718  1
  Dy  Dy2  1  0.638957  0.162348  0.376073  1
  Dy  Dy3  1  0.138937  0.337611  0.124138  1
  Dy  Dy4  1  0.638957  0.162348  0.123927  1
  Dy  Dy5  1  0.138937  0.337611  0.375862  1
  Dy  Dy6  1  0.361445  0.837682  0.623759  1
  Dy  Dy7  1  0.860943  0.662501  0.876282  1
  Dy  Dy8  1  0.190858  0.497802  0.750000  1
  Lu  Lu9  1  0.691240  0.001785  0.750000  1
  Lu  Lu10  1  0.808709  0.501650  0.250000  1
  Lu  Lu11  1  0.308659  0.998292  0.250000  1
  Th  Th12  1  0.518601  0.321266  0.904191  1
  Th  Th13  1  0.018696  0.178589  0.595858  1
  Th  Th14  1  0.481198  0.678420  0.404004  1
  Th  Th15  1  0.981202  0.821785  0.096004  1
  Th  Th16  1  0.481198  0.678420  0.095996  1
  Th  Th17  1  0.981202  0.821785  0.403996  1
  Th  Th18  1  0.518601  0.321266  0.595809  1
  Th  Th19  1  0.018696  0.178589  0.904142  1
  Sn  Sn20  1  0.298723  0.039312  0.042954  1
  Sn  Sn21  1  0.798815  0.460734  0.457053  1
  Sn  Sn22  1  0.701359  0.960538  0.542748  1
  Sn  Sn23  1  0.201353  0.539713  0.958011  1
  Sn  Sn24  1  0.701359  0.960538  0.957252  1
  Sn  Sn25  1  0.201353  0.539713  0.541989  1
  Sn  Sn26  1  0.298723  0.039312  0.457046  1
  Sn  Sn27  1  0.798815  0.460734  0.042947  1
  Sn  Sn28  1  0.557559  0.622226  0.750000  1
  Sn  Sn29  1  0.055852  0.879153  0.750000  1
  Sn  Sn30  1  0.444041  0.378305  0.250000  1
  Sn  Sn31  1  0.943914  0.121647  0.250000  1
  Sn  Sn32  1  0.326760  0.143260  0.750000  1
  Sn  Sn33  1  0.824778  0.354753  0.750000  1
  Sn  Sn34  1  0.673641  0.854931  0.250000  1
  Sn  Sn35  1  0.173531  0.645198  0.250000  1
