# generated using pymatgen
data_Tb2Al9FeNi2
_symmetry_space_group_name_H-M   'P 1'
_cell_length_a   7.41580960
_cell_length_b   7.41580987
_cell_length_c   9.32521300
_cell_angle_alpha   90.00000000
_cell_angle_beta   90.00000000
_cell_angle_gamma   119.04026059
_symmetry_Int_Tables_number   1
_chemical_formula_structural   Tb2Al9FeNi2
_chemical_formula_sum   'Tb4 Al18 Fe2 Ni4'
_cell_volume   448.35898551
_cell_formula_units_Z   2
loop_
 _symmetry_equiv_pos_site_id
 _symmetry_equiv_pos_as_xyz
  1  'x, y, z'
loop_
 _atom_site_type_symbol
 _atom_site_label
 _atom_site_symmetry_multiplicity
 _atom_site_fract_x
 _atom_site_fract_y
 _atom_site_fract_z
 _atom_site_occupancy
  Tb  Tb0  1  0.993248  0.672561  0.250000  1
  Tb  Tb1  1  0.006752  0.327439  0.750000  1
  Tb  Tb2  1  0.672561  0.993248  0.250000  1
  Tb  Tb3  1  0.327439  0.006752  0.750000  1
  Al  Al4  1  0.124223  0.124223  0.250000  1
  Al  Al5  1  0.875777  0.875777  0.750000  1
  Al  Al6  1  0.997845  0.331585  0.071696  1
  Al  Al7  1  0.002155  0.668415  0.928304  1
  Al  Al8  1  0.002155  0.668415  0.571696  1
  Al  Al9  1  0.331585  0.997845  0.428304  1
  Al  Al10  1  0.997845  0.331585  0.428304  1
  Al  Al11  1  0.668415  0.002155  0.571696  1
  Al  Al12  1  0.668415  0.002155  0.928304  1
  Al  Al13  1  0.331585  0.997845  0.071696  1
  Al  Al14  1  0.329315  0.329315  0.543920  1
  Al  Al15  1  0.670685  0.670685  0.456080  1
  Al  Al16  1  0.670685  0.670685  0.043920  1
  Al  Al17  1  0.329315  0.329315  0.956080  1
  Al  Al18  1  0.341509  0.552802  0.250000  1
  Al  Al19  1  0.658491  0.447198  0.750000  1
  Al  Al20  1  0.552802  0.341509  0.250000  1
  Al  Al21  1  0.447198  0.658491  0.750000  1
  Fe  Fe22  1  0.000000  0.000000  0.000000  1
  Fe  Fe23  1  0.000000  0.000000  0.500000  1
  Ni  Ni24  1  0.670935  0.329065  0.000000  1
  Ni  Ni25  1  0.329065  0.670935  0.000000  1
  Ni  Ni26  1  0.329065  0.670935  0.500000  1
  Ni  Ni27  1  0.670935  0.329065  0.500000  1
