# generated using pymatgen
data_Ce3(ZnPt2)2
_symmetry_space_group_name_H-M   'P 1'
_cell_length_a   7.61712200
_cell_length_b   7.33878899
_cell_length_c   3.88652100
_cell_angle_alpha   90.00000000
_cell_angle_beta   90.00000000
_cell_angle_gamma   121.26272685
_symmetry_Int_Tables_number   1
_chemical_formula_structural   Ce3(ZnPt2)2
_chemical_formula_sum   'Ce3 Zn2 Pt4'
_cell_volume   185.71164014
_cell_formula_units_Z   1
loop_
 _symmetry_equiv_pos_site_id
 _symmetry_equiv_pos_as_xyz
  1  'x, y, z'
loop_
 _atom_site_type_symbol
 _atom_site_label
 _atom_site_symmetry_multiplicity
 _atom_site_fract_x
 _atom_site_fract_y
 _atom_site_fract_z
 _atom_site_occupancy
  Ce  Ce0  1  0.394327  0.377128  0.000000  1
  Ce  Ce1  1  0.585878  0.000000  0.000000  1
  Ce  Ce2  1  0.017199  0.622872  0.000000  1
  Zn  Zn3  1  0.000031  0.254463  0.500000  1
  Zn  Zn4  1  0.745567  0.745537  0.500000  1
  Pt  Pt5  1  0.252745  0.000000  0.500000  1
  Pt  Pt6  1  0.344416  0.651004  0.500000  1
  Pt  Pt7  1  0.966425  0.000000  0.000000  1
  Pt  Pt8  1  0.693412  0.348996  0.500000  1
