# generated using pymatgen
data_Rb6ErInBi4
_symmetry_space_group_name_H-M   'P 1'
_cell_length_a   10.31078099
_cell_length_b   10.31078076
_cell_length_c   10.31078258
_cell_angle_alpha   128.02156300
_cell_angle_beta   69.70722164
_cell_angle_gamma   136.95849093
_symmetry_Int_Tables_number   1
_chemical_formula_structural   Rb6ErInBi4
_chemical_formula_sum   'Rb6 Er1 In1 Bi4'
_cell_volume   578.39304270
_cell_formula_units_Z   1
loop_
 _symmetry_equiv_pos_site_id
 _symmetry_equiv_pos_as_xyz
  1  'x, y, z'
loop_
 _atom_site_type_symbol
 _atom_site_label
 _atom_site_symmetry_multiplicity
 _atom_site_fract_x
 _atom_site_fract_y
 _atom_site_fract_z
 _atom_site_occupancy
  Rb  Rb0  1  0.250000  0.250000  0.000000  1
  Rb  Rb1  1  0.750000  0.750000  0.000000  1
  Rb  Rb2  1  0.827924  0.313830  0.124819  1
  Rb  Rb3  1  0.672075  0.796896  0.485906  1
  Rb  Rb4  1  0.310989  0.186170  0.514094  1
  Rb  Rb5  1  0.189010  0.703105  0.875181  1
  Er  Er6  1  0.750000  0.250000  0.500000  1
  In  In7  1  0.250000  0.750000  0.500000  1
  Bi  Bi8  1  0.395432  0.802235  0.205453  1
  Bi  Bi9  1  0.104568  0.310021  0.406804  1
  Bi  Bi10  1  0.903218  0.697765  0.593197  1
  Bi  Bi11  1  0.596782  0.189979  0.794547  1
