# generated using pymatgen
data_Tb8Ho7Th(CdPt)4
_symmetry_space_group_name_H-M   'P 1'
_cell_length_a   9.68389070
_cell_length_b   9.68389092
_cell_length_c   9.68898722
_cell_angle_alpha   60.29859370
_cell_angle_beta   60.29858460
_cell_angle_gamma   60.39228018
_symmetry_Int_Tables_number   1
_chemical_formula_structural   Tb8Ho7Th(CdPt)4
_chemical_formula_sum   'Tb8 Ho7 Th1 Cd4 Pt4'
_cell_volume   647.27839861
_cell_formula_units_Z   1
loop_
 _symmetry_equiv_pos_site_id
 _symmetry_equiv_pos_as_xyz
  1  'x, y, z'
loop_
 _atom_site_type_symbol
 _atom_site_label
 _atom_site_symmetry_multiplicity
 _atom_site_fract_x
 _atom_site_fract_y
 _atom_site_fract_z
 _atom_site_occupancy
  Tb  Tb0  1  0.188805  0.188805  0.812831  1
  Tb  Tb1  1  0.810856  0.810856  0.190876  1
  Tb  Tb2  1  0.936269  0.566252  0.566254  1
  Tb  Tb3  1  0.564122  0.936882  0.936775  1
  Tb  Tb4  1  0.566252  0.936269  0.566254  1
  Tb  Tb5  1  0.936882  0.564122  0.936775  1
  Tb  Tb6  1  0.566188  0.566188  0.936240  1
  Tb  Tb7  1  0.936916  0.936916  0.564037  1
  Ho  Ho8  1  0.353396  0.353396  0.940445  1
  Ho  Ho9  1  0.352951  0.940327  0.353406  1
  Ho  Ho10  1  0.940327  0.352951  0.353406  1
  Ho  Ho11  1  0.812471  0.189150  0.189081  1
  Ho  Ho12  1  0.191328  0.810548  0.810465  1
  Ho  Ho13  1  0.189150  0.812471  0.189081  1
  Ho  Ho14  1  0.810548  0.191328  0.810465  1
  Th  Th15  1  0.348984  0.348984  0.348708  1
  Cd  Cd16  1  0.581273  0.581273  0.581586  1
  Cd  Cd17  1  0.581889  0.581889  0.254293  1
  Cd  Cd18  1  0.582124  0.254317  0.581883  1
  Cd  Cd19  1  0.254317  0.582124  0.581883  1
  Pt  Pt20  1  0.143431  0.143431  0.145360  1
  Pt  Pt21  1  0.139636  0.139636  0.570241  1
  Pt  Pt22  1  0.141566  0.570317  0.139825  1
  Pt  Pt23  1  0.570317  0.141566  0.139825  1
