# generated using pymatgen
data_Pr3Y(In2Pd3)4
_symmetry_space_group_name_H-M   'P 1'
_cell_length_a   4.66836300
_cell_length_b   10.01629809
_cell_length_c   10.40817414
_cell_angle_alpha   89.92623827
_cell_angle_beta   90.00000000
_cell_angle_gamma   90.00000000
_symmetry_Int_Tables_number   1
_chemical_formula_structural   Pr3Y(In2Pd3)4
_chemical_formula_sum   'Pr3 Y1 In8 Pd12'
_cell_volume   486.68285736
_cell_formula_units_Z   1
loop_
 _symmetry_equiv_pos_site_id
 _symmetry_equiv_pos_as_xyz
  1  'x, y, z'
loop_
 _atom_site_type_symbol
 _atom_site_label
 _atom_site_symmetry_multiplicity
 _atom_site_fract_x
 _atom_site_fract_y
 _atom_site_fract_z
 _atom_site_occupancy
  Pr  Pr0  1  0.250000  0.445436  0.731191  1
  Pr  Pr1  1  0.250000  0.055735  0.229570  1
  Pr  Pr2  1  0.750000  0.555426  0.269756  1
  Y  Y3  1  0.750000  0.942813  0.775542  1
  In  In4  1  0.250000  0.884779  0.514691  1
  In  In5  1  0.250000  0.616110  0.014600  1
  In  In6  1  0.750000  0.115369  0.489486  1
  In  In7  1  0.750000  0.383680  0.983196  1
  In  In8  1  0.250000  0.157747  0.893406  1
  In  In9  1  0.250000  0.339731  0.396737  1
  In  In10  1  0.750000  0.840228  0.102487  1
  In  In11  1  0.750000  0.663067  0.605863  1
  Pd  Pd12  1  0.250000  0.137685  0.624254  1
  Pd  Pd13  1  0.250000  0.357049  0.120962  1
  Pd  Pd14  1  0.750000  0.857247  0.377967  1
  Pd  Pd15  1  0.750000  0.647418  0.878184  1
  Pd  Pd16  1  0.250000  0.747965  0.739686  1
  Pd  Pd17  1  0.250000  0.758821  0.239934  1
  Pd  Pd18  1  0.750000  0.256804  0.259164  1
  Pd  Pd19  1  0.750000  0.235945  0.758893  1
  Pd  Pd20  1  0.250000  0.894710  0.969682  1
  Pd  Pd21  1  0.250000  0.606096  0.474320  1
  Pd  Pd22  1  0.750000  0.103659  0.022689  1
  Pd  Pd23  1  0.750000  0.396481  0.527740  1
