# generated using pymatgen
data_Pr2Y3Sn4
_symmetry_space_group_name_H-M   'P 1'
_cell_length_a   8.16418500
_cell_length_b   8.32531500
_cell_length_c   15.71754300
_cell_angle_alpha   90.00000000
_cell_angle_beta   90.00000000
_cell_angle_gamma   90.00000000
_symmetry_Int_Tables_number   1
_chemical_formula_structural   Pr2Y3Sn4
_chemical_formula_sum   'Pr8 Y12 Sn16'
_cell_volume   1068.31215333
_cell_formula_units_Z   4
loop_
 _symmetry_equiv_pos_site_id
 _symmetry_equiv_pos_as_xyz
  1  'x, y, z'
loop_
 _atom_site_type_symbol
 _atom_site_label
 _atom_site_symmetry_multiplicity
 _atom_site_fract_x
 _atom_site_fract_y
 _atom_site_fract_z
 _atom_site_occupancy
  Pr  Pr0  1  0.516747  0.321008  0.902644  1
  Pr  Pr1  1  0.016747  0.178992  0.597356  1
  Pr  Pr2  1  0.483253  0.678992  0.402644  1
  Pr  Pr3  1  0.983253  0.821008  0.097356  1
  Pr  Pr4  1  0.483253  0.678992  0.097356  1
  Pr  Pr5  1  0.983253  0.821008  0.402644  1
  Pr  Pr6  1  0.516747  0.321008  0.597356  1
  Pr  Pr7  1  0.016747  0.178992  0.902644  1
  Y  Y8  1  0.363775  0.836272  0.877700  1
  Y  Y9  1  0.863775  0.663728  0.622300  1
  Y  Y10  1  0.636225  0.163728  0.377700  1
  Y  Y11  1  0.136225  0.336272  0.122300  1
  Y  Y12  1  0.636225  0.163728  0.122300  1
  Y  Y13  1  0.136225  0.336272  0.377700  1
  Y  Y14  1  0.363775  0.836272  0.622300  1
  Y  Y15  1  0.863775  0.663728  0.877700  1
  Y  Y16  1  0.198170  0.502732  0.750000  1
  Y  Y17  1  0.698170  0.997268  0.750000  1
  Y  Y18  1  0.801830  0.497268  0.250000  1
  Y  Y19  1  0.301830  0.002732  0.250000  1
  Sn  Sn20  1  0.300323  0.040006  0.042179  1
  Sn  Sn21  1  0.800323  0.459994  0.457821  1
  Sn  Sn22  1  0.699677  0.959994  0.542179  1
  Sn  Sn23  1  0.199677  0.540006  0.957821  1
  Sn  Sn24  1  0.699677  0.959994  0.957821  1
  Sn  Sn25  1  0.199677  0.540006  0.542179  1
  Sn  Sn26  1  0.300323  0.040006  0.457821  1
  Sn  Sn27  1  0.800323  0.459994  0.042179  1
  Sn  Sn28  1  0.563862  0.624355  0.750000  1
  Sn  Sn29  1  0.063862  0.875645  0.750000  1
  Sn  Sn30  1  0.436138  0.375645  0.250000  1
  Sn  Sn31  1  0.936138  0.124355  0.250000  1
  Sn  Sn32  1  0.325815  0.140939  0.750000  1
  Sn  Sn33  1  0.825815  0.359061  0.750000  1
  Sn  Sn34  1  0.674185  0.859061  0.250000  1
  Sn  Sn35  1  0.174185  0.640939  0.250000  1
