# generated using pymatgen
data_Tb16HoTm3Pb16
_symmetry_space_group_name_H-M   'P 1'
_cell_length_a   8.21058101
_cell_length_b   8.29473926
_cell_length_c   15.70162600
_cell_angle_alpha   90.00000000
_cell_angle_beta   90.00000000
_cell_angle_gamma   90.01727025
_symmetry_Int_Tables_number   1
_chemical_formula_structural   Tb16HoTm3Pb16
_chemical_formula_sum   'Tb16 Ho1 Tm3 Pb16'
_cell_volume   1069.35335964
_cell_formula_units_Z   1
loop_
 _symmetry_equiv_pos_site_id
 _symmetry_equiv_pos_as_xyz
  1  'x, y, z'
loop_
 _atom_site_type_symbol
 _atom_site_label
 _atom_site_symmetry_multiplicity
 _atom_site_fract_x
 _atom_site_fract_y
 _atom_site_fract_z
 _atom_site_occupancy
  Tb  Tb0  1  0.377415  0.841168  0.879159  1
  Tb  Tb1  1  0.877056  0.659086  0.620824  1
  Tb  Tb2  1  0.622738  0.158933  0.379136  1
  Tb  Tb3  1  0.122718  0.341077  0.120918  1
  Tb  Tb4  1  0.622738  0.158933  0.120864  1
  Tb  Tb5  1  0.122718  0.341077  0.379082  1
  Tb  Tb6  1  0.377415  0.841168  0.620841  1
  Tb  Tb7  1  0.877056  0.659086  0.879176  1
  Tb  Tb8  1  0.536455  0.323276  0.900103  1
  Tb  Tb9  1  0.036259  0.176491  0.599909  1
  Tb  Tb10  1  0.463631  0.676639  0.400039  1
  Tb  Tb11  1  0.963656  0.823369  0.099911  1
  Tb  Tb12  1  0.463631  0.676639  0.099961  1
  Tb  Tb13  1  0.963656  0.823369  0.400089  1
  Tb  Tb14  1  0.536455  0.323276  0.599897  1
  Tb  Tb15  1  0.036259  0.176491  0.900091  1
  Ho  Ho16  1  0.208793  0.503966  0.750000  1
  Tm  Tm17  1  0.708919  0.995860  0.750000  1
  Tm  Tm18  1  0.791111  0.495890  0.250000  1
  Tm  Tm19  1  0.291110  0.004067  0.250000  1
  Pb  Pb20  1  0.280780  0.032529  0.042967  1
  Pb  Pb21  1  0.780797  0.467504  0.457031  1
  Pb  Pb22  1  0.719202  0.967486  0.542924  1
  Pb  Pb23  1  0.219230  0.532564  0.957290  1
  Pb  Pb24  1  0.719202  0.967486  0.957076  1
  Pb  Pb25  1  0.219230  0.532564  0.542710  1
  Pb  Pb26  1  0.280780  0.032529  0.457033  1
  Pb  Pb27  1  0.780797  0.467504  0.042969  1
  Pb  Pb28  1  0.572341  0.626365  0.750000  1
  Pb  Pb29  1  0.071675  0.874228  0.750000  1
  Pb  Pb30  1  0.428232  0.373886  0.250000  1
  Pb  Pb31  1  0.928254  0.126093  0.250000  1
  Pb  Pb32  1  0.348079  0.153586  0.750000  1
  Pb  Pb33  1  0.847768  0.345650  0.750000  1
  Pb  Pb34  1  0.651942  0.845812  0.250000  1
  Pb  Pb35  1  0.151905  0.654355  0.250000  1
