# generated using pymatgen
data_Sm5Tm3Sc12Si15Au
_symmetry_space_group_name_H-M   'P 1'
_cell_length_a   7.15180469
_cell_length_b   7.40519395
_cell_length_c   14.11796909
_cell_angle_alpha   89.88156537
_cell_angle_beta   89.75626131
_cell_angle_gamma   90.22275987
_symmetry_Int_Tables_number   1
_chemical_formula_structural   Sm5Tm3Sc12Si15Au
_chemical_formula_sum   'Sm5 Tm3 Sc12 Si15 Au1'
_cell_volume   747.68067486
_cell_formula_units_Z   1
loop_
 _symmetry_equiv_pos_site_id
 _symmetry_equiv_pos_as_xyz
  1  'x, y, z'
loop_
 _atom_site_type_symbol
 _atom_site_label
 _atom_site_symmetry_multiplicity
 _atom_site_fract_x
 _atom_site_fract_y
 _atom_site_fract_z
 _atom_site_occupancy
  Sm  Sm0  1  0.011859  0.174065  0.098161  1
  Sm  Sm1  1  0.988548  0.827016  0.902815  1
  Sm  Sm2  1  0.487943  0.674560  0.903972  1
  Sm  Sm3  1  0.988340  0.828735  0.595821  1
  Sm  Sm4  1  0.511466  0.325676  0.097037  1
  Tm  Tm5  1  0.010861  0.176321  0.399224  1
  Tm  Tm6  1  0.509083  0.323691  0.400652  1
  Tm  Tm7  1  0.490608  0.676340  0.598395  1
  Sc  Sc8  1  0.163269  0.501023  0.750192  1
  Sc  Sc9  1  0.837052  0.498355  0.252178  1
  Sc  Sc10  1  0.337810  0.000248  0.250774  1
  Sc  Sc11  1  0.664104  0.997642  0.750193  1
  Sc  Sc12  1  0.339208  0.177157  0.624950  1
  Sc  Sc13  1  0.666080  0.823076  0.374224  1
  Sc  Sc14  1  0.169550  0.672088  0.373970  1
  Sc  Sc15  1  0.670292  0.824756  0.126795  1
  Sc  Sc16  1  0.827934  0.325931  0.623946  1
  Sc  Sc17  1  0.329191  0.174778  0.875278  1
  Sc  Sc18  1  0.829927  0.323490  0.875246  1
  Sc  Sc19  1  0.169367  0.675828  0.126527  1
  Si  Si20  1  0.036127  0.122985  0.749563  1
  Si  Si21  1  0.966459  0.882325  0.251533  1
  Si  Si22  1  0.466426  0.616375  0.250161  1
  Si  Si23  1  0.535522  0.383794  0.750939  1
  Si  Si24  1  0.287982  0.876157  0.748745  1
  Si  Si25  1  0.712247  0.126770  0.252250  1
  Si  Si26  1  0.213769  0.371949  0.251003  1
  Si  Si27  1  0.785588  0.624466  0.750261  1
  Si  Si28  1  0.833417  0.532855  0.458154  1
  Si  Si29  1  0.341473  0.964851  0.459272  1
  Si  Si30  1  0.846034  0.537029  0.039291  1
  Si  Si31  1  0.654406  0.036948  0.536713  1
  Si  Si32  1  0.152913  0.463288  0.961772  1
  Si  Si33  1  0.654863  0.036059  0.961527  1
  Si  Si34  1  0.345367  0.962941  0.039682  1
  Au  Au35  1  0.164914  0.460434  0.538784  1
