# generated using pymatgen
data_Tb5Ho11(ErPb4)4
_symmetry_space_group_name_H-M   'P 1'
_cell_length_a   8.18916977
_cell_length_b   8.26973055
_cell_length_c   15.60640906
_cell_angle_alpha   90.00987760
_cell_angle_beta   89.94985464
_cell_angle_gamma   89.95713682
_symmetry_Int_Tables_number   1
_chemical_formula_structural   Tb5Ho11(ErPb4)4
_chemical_formula_sum   'Tb5 Ho11 Er4 Pb16'
_cell_volume   1056.90006707
_cell_formula_units_Z   1
loop_
 _symmetry_equiv_pos_site_id
 _symmetry_equiv_pos_as_xyz
  1  'x, y, z'
loop_
 _atom_site_type_symbol
 _atom_site_label
 _atom_site_symmetry_multiplicity
 _atom_site_fract_x
 _atom_site_fract_y
 _atom_site_fract_z
 _atom_site_occupancy
  Tb  Tb0  1  0.965458  0.823020  0.100000  1
  Tb  Tb1  1  0.465629  0.676756  0.099632  1
  Tb  Tb2  1  0.965417  0.823050  0.400260  1
  Tb  Tb3  1  0.534459  0.323140  0.599635  1
  Tb  Tb4  1  0.034309  0.177028  0.900286  1
  Ho  Ho5  1  0.376350  0.841207  0.879027  1
  Ho  Ho6  1  0.876717  0.658945  0.620940  1
  Ho  Ho7  1  0.623200  0.159014  0.379108  1
  Ho  Ho8  1  0.123417  0.340995  0.120895  1
  Ho  Ho9  1  0.623365  0.159031  0.120868  1
  Ho  Ho10  1  0.123346  0.340958  0.379289  1
  Ho  Ho11  1  0.376706  0.841127  0.620857  1
  Ho  Ho12  1  0.876361  0.658746  0.878948  1
  Ho  Ho13  1  0.534954  0.323248  0.899799  1
  Ho  Ho14  1  0.035177  0.176553  0.600229  1
  Ho  Ho15  1  0.464860  0.676482  0.399919  1
  Er  Er16  1  0.208299  0.504182  0.749956  1
  Er  Er17  1  0.708252  0.995801  0.749867  1
  Er  Er18  1  0.791589  0.495707  0.250234  1
  Er  Er19  1  0.291932  0.004442  0.250200  1
  Pb  Pb20  1  0.282342  0.034073  0.042859  1
  Pb  Pb21  1  0.781186  0.466881  0.456993  1
  Pb  Pb22  1  0.718775  0.966845  0.543054  1
  Pb  Pb23  1  0.218589  0.533363  0.956987  1
  Pb  Pb24  1  0.717030  0.966185  0.957142  1
  Pb  Pb25  1  0.217645  0.534416  0.542395  1
  Pb  Pb26  1  0.282322  0.034264  0.457682  1
  Pb  Pb27  1  0.781973  0.465024  0.042190  1
  Pb  Pb28  1  0.571366  0.626979  0.749929  1
  Pb  Pb29  1  0.071389  0.872895  0.750065  1
  Pb  Pb30  1  0.428600  0.372954  0.249931  1
  Pb  Pb31  1  0.928540  0.127367  0.250119  1
  Pb  Pb32  1  0.346120  0.152988  0.750390  1
  Pb  Pb33  1  0.846135  0.347013  0.749569  1
  Pb  Pb34  1  0.653582  0.847059  0.250552  1
  Pb  Pb35  1  0.154609  0.652262  0.250195  1
