# generated using pymatgen
data_Ba3SmScSe6
_symmetry_space_group_name_H-M   'P 1'
_cell_length_a   8.77710006
_cell_length_b   8.77709832
_cell_length_c   8.77709992
_cell_angle_alpha   92.45146057
_cell_angle_beta   92.45146105
_cell_angle_gamma   92.45145760
_symmetry_Int_Tables_number   1
_chemical_formula_structural   Ba3SmScSe6
_chemical_formula_sum   'Ba6 Sm2 Sc2 Se12'
_cell_volume   674.25436337
_cell_formula_units_Z   2
loop_
 _symmetry_equiv_pos_site_id
 _symmetry_equiv_pos_as_xyz
  1  'x, y, z'
loop_
 _atom_site_type_symbol
 _atom_site_label
 _atom_site_symmetry_multiplicity
 _atom_site_fract_x
 _atom_site_fract_y
 _atom_site_fract_z
 _atom_site_occupancy
  Ba  Ba0  1  0.367836  0.750000  0.132164  1
  Ba  Ba1  1  0.132164  0.367836  0.750000  1
  Ba  Ba2  1  0.750000  0.132164  0.367836  1
  Ba  Ba3  1  0.632164  0.250000  0.867836  1
  Ba  Ba4  1  0.867836  0.632164  0.250000  1
  Ba  Ba5  1  0.250000  0.867836  0.632164  1
  Sm  Sm6  1  0.250000  0.250000  0.250000  1
  Sm  Sm7  1  0.750000  0.750000  0.750000  1
  Sc  Sc8  1  0.500000  0.500000  0.500000  1
  Sc  Sc9  1  0.000000  0.000000  0.000000  1
  Se  Se10  1  0.541754  0.413705  0.201623  1
  Se  Se11  1  0.201623  0.541754  0.413705  1
  Se  Se12  1  0.413705  0.201623  0.541754  1
  Se  Se13  1  0.958246  0.298377  0.086295  1
  Se  Se14  1  0.086295  0.958246  0.298377  1
  Se  Se15  1  0.298377  0.086295  0.958246  1
  Se  Se16  1  0.458246  0.586295  0.798377  1
  Se  Se17  1  0.798377  0.458246  0.586295  1
  Se  Se18  1  0.586295  0.798377  0.458246  1
  Se  Se19  1  0.041754  0.701623  0.913705  1
  Se  Se20  1  0.701623  0.913705  0.041754  1
  Se  Se21  1  0.913705  0.041754  0.701623  1
