# generated using pymatgen
data_CsSrTa6Cl18
_symmetry_space_group_name_H-M   'P 1'
_cell_length_a   9.53660100
_cell_length_b   9.53660062
_cell_length_c   17.62460400
_cell_angle_alpha   90.00000000
_cell_angle_beta   90.00000000
_cell_angle_gamma   120.00000480
_symmetry_Int_Tables_number   1
_chemical_formula_structural   CsSrTa6Cl18
_chemical_formula_sum   'Cs2 Sr2 Ta12 Cl36'
_cell_volume   1388.15252154
_cell_formula_units_Z   2
loop_
 _symmetry_equiv_pos_site_id
 _symmetry_equiv_pos_as_xyz
  1  'x, y, z'
loop_
 _atom_site_type_symbol
 _atom_site_label
 _atom_site_symmetry_multiplicity
 _atom_site_fract_x
 _atom_site_fract_y
 _atom_site_fract_z
 _atom_site_occupancy
  Cs  Cs0  1  0.666667  0.333333  0.750000  1
  Cs  Cs1  1  0.333333  0.666667  0.250000  1
  Sr  Sr2  1  0.666667  0.333333  0.250000  1
  Sr  Sr3  1  0.333333  0.666667  0.750000  1
  Ta  Ta4  1  0.809844  0.836976  0.932084  1
  Ta  Ta5  1  0.836976  0.027132  0.067916  1
  Ta  Ta6  1  0.190156  0.027132  0.432084  1
  Ta  Ta7  1  0.190156  0.163024  0.067916  1
  Ta  Ta8  1  0.163024  0.972868  0.932084  1
  Ta  Ta9  1  0.972868  0.163024  0.432084  1
  Ta  Ta10  1  0.809844  0.972868  0.567916  1
  Ta  Ta11  1  0.027132  0.836976  0.567916  1
  Ta  Ta12  1  0.163024  0.190156  0.567916  1
  Ta  Ta13  1  0.836976  0.809844  0.432084  1
  Ta  Ta14  1  0.972868  0.809844  0.067916  1
  Ta  Ta15  1  0.027132  0.190156  0.932084  1
  Cl  Cl16  1  0.839996  0.587033  0.500387  1
  Cl  Cl17  1  0.059076  0.632702  0.655177  1
  Cl  Cl18  1  0.412967  0.160004  0.999613  1
  Cl  Cl19  1  0.747036  0.160004  0.500387  1
  Cl  Cl20  1  0.160004  0.747036  0.000387  1
  Cl  Cl21  1  0.160004  0.412967  0.499613  1
  Cl  Cl22  1  0.221275  0.031207  0.659036  1
  Cl  Cl23  1  0.968793  0.190067  0.659036  1
  Cl  Cl24  1  0.632702  0.059076  0.155177  1
  Cl  Cl25  1  0.190067  0.968793  0.159036  1
  Cl  Cl26  1  0.031207  0.221275  0.159036  1
  Cl  Cl27  1  0.573627  0.632702  0.844823  1
  Cl  Cl28  1  0.587033  0.839996  0.000387  1
  Cl  Cl29  1  0.367298  0.426373  0.655177  1
  Cl  Cl30  1  0.412967  0.252964  0.500387  1
  Cl  Cl31  1  0.839996  0.252964  0.999613  1
  Cl  Cl32  1  0.426373  0.059076  0.344823  1
  Cl  Cl33  1  0.778725  0.968793  0.340964  1
  Cl  Cl34  1  0.587033  0.747036  0.499613  1
  Cl  Cl35  1  0.809933  0.031207  0.840964  1
  Cl  Cl36  1  0.252964  0.839996  0.499613  1
  Cl  Cl37  1  0.632702  0.573627  0.344823  1
  Cl  Cl38  1  0.940924  0.573627  0.155177  1
  Cl  Cl39  1  0.940924  0.367298  0.344823  1
  Cl  Cl40  1  0.778725  0.809933  0.159036  1
  Cl  Cl41  1  0.968793  0.778725  0.840964  1
  Cl  Cl42  1  0.573627  0.940924  0.655177  1
  Cl  Cl43  1  0.221275  0.190067  0.840964  1
  Cl  Cl44  1  0.252964  0.412967  0.000387  1
  Cl  Cl45  1  0.190067  0.221275  0.340964  1
  Cl  Cl46  1  0.367298  0.940924  0.844823  1
  Cl  Cl47  1  0.059076  0.426373  0.844823  1
  Cl  Cl48  1  0.809933  0.778725  0.659036  1
  Cl  Cl49  1  0.426373  0.367298  0.155177  1
  Cl  Cl50  1  0.031207  0.809933  0.340964  1
  Cl  Cl51  1  0.747036  0.587033  0.999613  1
