# generated using pymatgen
data_Ac3Cd2In3Ir
_symmetry_space_group_name_H-M   'P 1'
_cell_length_a   8.43971100
_cell_length_b   8.43971164
_cell_length_c   4.23438700
_cell_angle_alpha   90.00000000
_cell_angle_beta   90.00000000
_cell_angle_gamma   120.00000246
_symmetry_Int_Tables_number   1
_chemical_formula_structural   Ac3Cd2In3Ir
_chemical_formula_sum   'Ac3 Cd2 In3 Ir1'
_cell_volume   261.20191240
_cell_formula_units_Z   1
loop_
 _symmetry_equiv_pos_site_id
 _symmetry_equiv_pos_as_xyz
  1  'x, y, z'
loop_
 _atom_site_type_symbol
 _atom_site_label
 _atom_site_symmetry_multiplicity
 _atom_site_fract_x
 _atom_site_fract_y
 _atom_site_fract_z
 _atom_site_occupancy
  Ac  Ac0  1  0.575644  0.609264  0.000000  1
  Ac  Ac1  1  0.390736  0.966381  0.000000  1
  Ac  Ac2  1  0.033619  0.424356  0.000000  1
  Cd  Cd3  1  0.000000  0.000000  0.000000  1
  Cd  Cd4  1  0.666667  0.333333  0.500000  1
  In  In5  1  0.998683  0.736611  0.500000  1
  In  In6  1  0.263389  0.262072  0.500000  1
  In  In7  1  0.737928  0.001317  0.500000  1
  Ir  Ir8  1  0.333333  0.666667  0.500000  1
