# generated using pymatgen
data_Ho4AlReRu6
_symmetry_space_group_name_H-M   'P 1'
_cell_length_a   5.16984607
_cell_length_b   5.42518959
_cell_length_c   8.88162000
_cell_angle_alpha   90.00000000
_cell_angle_beta   90.00000000
_cell_angle_gamma   119.60532174
_symmetry_Int_Tables_number   1
_chemical_formula_structural   Ho4AlReRu6
_chemical_formula_sum   'Ho4 Al1 Re1 Ru6'
_cell_volume   216.58523977
_cell_formula_units_Z   1
loop_
 _symmetry_equiv_pos_site_id
 _symmetry_equiv_pos_as_xyz
  1  'x, y, z'
loop_
 _atom_site_type_symbol
 _atom_site_label
 _atom_site_symmetry_multiplicity
 _atom_site_fract_x
 _atom_site_fract_y
 _atom_site_fract_z
 _atom_site_occupancy
  Ho  Ho0  1  0.334026  0.671262  0.438497  1
  Ho  Ho1  1  0.659290  0.327766  0.566046  1
  Ho  Ho2  1  0.659290  0.327766  0.933954  1
  Ho  Ho3  1  0.334026  0.671262  0.061503  1
  Al  Al4  1  0.836514  0.166669  0.250000  1
  Re  Re5  1  0.664645  0.834014  0.750000  1
  Ru  Ru6  1  0.990450  0.988867  0.499456  1
  Ru  Ru7  1  0.990450  0.988867  0.000544  1
  Ru  Ru8  1  0.825792  0.656531  0.250000  1
  Ru  Ru9  1  0.351436  0.182888  0.250000  1
  Ru  Ru10  1  0.174151  0.834868  0.750000  1
  Ru  Ru11  1  0.179929  0.349238  0.750000  1
