# generated using pymatgen
data_Er5Th5(Si5Ir2)4
_symmetry_space_group_name_H-M   'P 1'
_cell_length_a   12.71739600
_cell_length_b   12.71739600
_cell_length_c   4.31419500
_cell_angle_alpha   90.00000000
_cell_angle_beta   90.00000000
_cell_angle_gamma   90.00000000
_symmetry_Int_Tables_number   1
_chemical_formula_structural   Er5Th5(Si5Ir2)4
_chemical_formula_sum   'Er5 Th5 Si20 Ir8'
_cell_volume   697.74408042
_cell_formula_units_Z   1
loop_
 _symmetry_equiv_pos_site_id
 _symmetry_equiv_pos_as_xyz
  1  'x, y, z'
loop_
 _atom_site_type_symbol
 _atom_site_label
 _atom_site_symmetry_multiplicity
 _atom_site_fract_x
 _atom_site_fract_y
 _atom_site_fract_z
 _atom_site_occupancy
  Er  Er0  1  0.500000  0.500000  0.000000  1
  Er  Er1  1  0.675001  0.176697  0.500000  1
  Er  Er2  1  0.324999  0.823303  0.500000  1
  Er  Er3  1  0.176697  0.324999  0.500000  1
  Er  Er4  1  0.823303  0.675001  0.500000  1
  Th  Th5  1  0.000000  0.000000  0.000000  1
  Th  Th6  1  0.885225  0.387019  0.500000  1
  Th  Th7  1  0.114775  0.612981  0.500000  1
  Th  Th8  1  0.387019  0.114775  0.500000  1
  Th  Th9  1  0.612981  0.885225  0.500000  1
  Si  Si10  1  0.566522  0.067262  0.000000  1
  Si  Si11  1  0.433478  0.932738  0.000000  1
  Si  Si12  1  0.067262  0.433478  0.000000  1
  Si  Si13  1  0.932738  0.566522  0.000000  1
  Si  Si14  1  0.662758  0.697926  0.000000  1
  Si  Si15  1  0.337242  0.302074  0.000000  1
  Si  Si16  1  0.164732  0.799109  0.000000  1
  Si  Si17  1  0.835268  0.200891  0.000000  1
  Si  Si18  1  0.302074  0.662758  0.000000  1
  Si  Si19  1  0.697926  0.337242  0.000000  1
  Si  Si20  1  0.200891  0.164732  0.000000  1
  Si  Si21  1  0.799109  0.835268  0.000000  1
  Si  Si22  1  0.655611  0.503583  0.500000  1
  Si  Si23  1  0.344389  0.496417  0.500000  1
  Si  Si24  1  0.161247  0.996795  0.500000  1
  Si  Si25  1  0.838753  0.003205  0.500000  1
  Si  Si26  1  0.496417  0.655611  0.500000  1
  Si  Si27  1  0.503583  0.344389  0.500000  1
  Si  Si28  1  0.003205  0.161247  0.500000  1
  Si  Si29  1  0.996795  0.838753  0.500000  1
  Ir  Ir30  1  0.742303  0.521372  0.000000  1
  Ir  Ir31  1  0.257697  0.478628  0.000000  1
  Ir  Ir32  1  0.244090  0.978017  0.000000  1
  Ir  Ir33  1  0.755910  0.021983  0.000000  1
  Ir  Ir34  1  0.478628  0.742303  0.000000  1
  Ir  Ir35  1  0.521372  0.257697  0.000000  1
  Ir  Ir36  1  0.021983  0.244090  0.000000  1
  Ir  Ir37  1  0.978017  0.755910  0.000000  1
