# generated using pymatgen
data_CaLaNd7Rh6
_symmetry_space_group_name_H-M   'P 1'
_cell_length_a   7.64685201
_cell_length_b   7.64685218
_cell_length_c   7.64685306
_cell_angle_alpha   70.86084926
_cell_angle_beta   70.86084199
_cell_angle_gamma   70.86084950
_symmetry_Int_Tables_number   1
_chemical_formula_structural   CaLaNd7Rh6
_chemical_formula_sum   'Ca1 La1 Nd7 Rh6'
_cell_volume   386.72295408
_cell_formula_units_Z   1
loop_
 _symmetry_equiv_pos_site_id
 _symmetry_equiv_pos_as_xyz
  1  'x, y, z'
loop_
 _atom_site_type_symbol
 _atom_site_label
 _atom_site_symmetry_multiplicity
 _atom_site_fract_x
 _atom_site_fract_y
 _atom_site_fract_z
 _atom_site_occupancy
  Ca  Ca0  1  0.000390  0.000390  0.000390  1
  La  La1  1  0.800192  0.800192  0.800192  1
  Nd  Nd2  1  0.199435  0.199435  0.199435  1
  Nd  Nd3  1  0.157445  0.387671  0.668878  1
  Nd  Nd4  1  0.668878  0.157445  0.387671  1
  Nd  Nd5  1  0.387671  0.668878  0.157445  1
  Nd  Nd6  1  0.843522  0.610617  0.331168  1
  Nd  Nd7  1  0.331168  0.843522  0.610617  1
  Nd  Nd8  1  0.610617  0.331168  0.843522  1
  Rh  Rh9  1  0.952142  0.173321  0.580787  1
  Rh  Rh10  1  0.580787  0.952142  0.173321  1
  Rh  Rh11  1  0.173321  0.580787  0.952142  1
  Rh  Rh12  1  0.046909  0.826826  0.420698  1
  Rh  Rh13  1  0.420698  0.046909  0.826826  1
  Rh  Rh14  1  0.826826  0.420698  0.046909  1
