# generated using pymatgen
data_Np2SNO
_symmetry_space_group_name_H-M   'P 1'
_cell_length_a   3.83341200
_cell_length_b   3.83341185
_cell_length_c   6.53920200
_cell_angle_alpha   90.00000000
_cell_angle_beta   90.00000000
_cell_angle_gamma   120.00000131
_symmetry_Int_Tables_number   1
_chemical_formula_structural   Np2SNO
_chemical_formula_sum   'Np2 S1 N1 O1'
_cell_volume   83.21974065
_cell_formula_units_Z   1
loop_
 _symmetry_equiv_pos_site_id
 _symmetry_equiv_pos_as_xyz
  1  'x, y, z'
loop_
 _atom_site_type_symbol
 _atom_site_label
 _atom_site_symmetry_multiplicity
 _atom_site_fract_x
 _atom_site_fract_y
 _atom_site_fract_z
 _atom_site_occupancy
  Np  Np0  1  0.333333  0.666667  0.283033  1
  Np  Np1  1  0.666667  0.333333  0.720648  1
  S  S2  1  0.000000  0.000000  0.002064  1
  N  N3  1  0.333333  0.666667  0.626864  1
  O  O4  1  0.666667  0.333333  0.367391  1
