# generated using pymatgen
data_PrNdMg4(PaRh2)2
_symmetry_space_group_name_H-M   'P 1'
_cell_length_a   3.86895500
_cell_length_b   7.50033926
_cell_length_c   9.09751000
_cell_angle_alpha   88.69499183
_cell_angle_beta   90.00000000
_cell_angle_gamma   90.00000000
_symmetry_Int_Tables_number   1
_chemical_formula_structural   PrNdMg4(PaRh2)2
_chemical_formula_sum   'Pr1 Nd1 Mg4 Pa2 Rh4'
_cell_volume   263.92739277
_cell_formula_units_Z   1
loop_
 _symmetry_equiv_pos_site_id
 _symmetry_equiv_pos_as_xyz
  1  'x, y, z'
loop_
 _atom_site_type_symbol
 _atom_site_label
 _atom_site_symmetry_multiplicity
 _atom_site_fract_x
 _atom_site_fract_y
 _atom_site_fract_z
 _atom_site_occupancy
  Pr  Pr0  1  0.750000  0.470164  0.818009  1
  Nd  Nd1  1  0.250000  0.530560  0.185520  1
  Mg  Mg2  1  0.250000  0.141744  0.950853  1
  Mg  Mg3  1  0.750000  0.857295  0.049369  1
  Mg  Mg4  1  0.250000  0.642032  0.552132  1
  Mg  Mg5  1  0.750000  0.358066  0.448251  1
  Pa  Pa6  1  0.250000  0.030898  0.314197  1
  Pa  Pa7  1  0.750000  0.969087  0.684460  1
  Rh  Rh8  1  0.750000  0.220975  0.169544  1
  Rh  Rh9  1  0.250000  0.780907  0.829951  1
  Rh  Rh10  1  0.750000  0.787849  0.367521  1
  Rh  Rh11  1  0.250000  0.210424  0.630193  1
