# generated using pymatgen
data_Dy4Si4RuRh
_symmetry_space_group_name_H-M   'P 1'
_cell_length_a   5.70411018
_cell_length_b   5.70411013
_cell_length_c   10.12011271
_cell_angle_alpha   116.89089128
_cell_angle_beta   116.89088904
_cell_angle_gamma   43.38400268
_symmetry_Int_Tables_number   1
_chemical_formula_structural   Dy4Si4RuRh
_chemical_formula_sum   'Dy4 Si4 Ru1 Rh1'
_cell_volume   197.57167015
_cell_formula_units_Z   1
loop_
 _symmetry_equiv_pos_site_id
 _symmetry_equiv_pos_as_xyz
  1  'x, y, z'
loop_
 _atom_site_type_symbol
 _atom_site_label
 _atom_site_symmetry_multiplicity
 _atom_site_fract_x
 _atom_site_fract_y
 _atom_site_fract_z
 _atom_site_occupancy
  Dy  Dy0  1  0.002293  0.002293  0.175752  1
  Dy  Dy1  1  0.815196  0.815196  0.391817  1
  Dy  Dy2  1  0.185948  0.185948  0.609725  1
  Dy  Dy3  1  0.996341  0.996341  0.823769  1
  Si  Si4  1  0.645592  0.645592  0.065616  1
  Si  Si5  1  0.507543  0.507543  0.377370  1
  Si  Si6  1  0.489913  0.489913  0.621022  1
  Si  Si7  1  0.357985  0.357985  0.937074  1
  Ru  Ru8  1  0.272518  0.272518  0.123327  1
  Rh  Rh9  1  0.726672  0.726672  0.874523  1
