# generated using pymatgen
data_Tb8Dy11HoPb16
_symmetry_space_group_name_H-M   'P 1'
_cell_length_a   8.22195401
_cell_length_b   8.30746901
_cell_length_c   15.67762600
_cell_angle_alpha   90.00000000
_cell_angle_beta   90.00000000
_cell_angle_gamma   90.00644036
_symmetry_Int_Tables_number   1
_chemical_formula_structural   Tb8Dy11HoPb16
_chemical_formula_sum   'Tb8 Dy11 Ho1 Pb16'
_cell_volume   1070.83873044
_cell_formula_units_Z   1
loop_
 _symmetry_equiv_pos_site_id
 _symmetry_equiv_pos_as_xyz
  1  'x, y, z'
loop_
 _atom_site_type_symbol
 _atom_site_label
 _atom_site_symmetry_multiplicity
 _atom_site_fract_x
 _atom_site_fract_y
 _atom_site_fract_z
 _atom_site_occupancy
  Tb  Tb0  1  0.534047  0.322942  0.899883  1
  Tb  Tb1  1  0.034038  0.177059  0.600106  1
  Tb  Tb2  1  0.465935  0.677099  0.399883  1
  Tb  Tb3  1  0.965998  0.822969  0.100124  1
  Tb  Tb4  1  0.465935  0.677099  0.100117  1
  Tb  Tb5  1  0.965998  0.822969  0.399876  1
  Tb  Tb6  1  0.534047  0.322942  0.600117  1
  Tb  Tb7  1  0.034038  0.177059  0.899894  1
  Dy  Dy8  1  0.376686  0.840742  0.879517  1
  Dy  Dy9  1  0.876689  0.659252  0.620494  1
  Dy  Dy10  1  0.623245  0.159213  0.379500  1
  Dy  Dy11  1  0.123358  0.340711  0.120494  1
  Dy  Dy12  1  0.623245  0.159213  0.120500  1
  Dy  Dy13  1  0.123358  0.340711  0.379506  1
  Dy  Dy14  1  0.376686  0.840742  0.620483  1
  Dy  Dy15  1  0.876689  0.659252  0.879506  1
  Dy  Dy16  1  0.208351  0.504010  0.750000  1
  Dy  Dy17  1  0.708352  0.996013  0.750000  1
  Dy  Dy18  1  0.791657  0.496020  0.250000  1
  Ho  Ho19  1  0.291561  0.004026  0.250000  1
  Pb  Pb20  1  0.281787  0.033510  0.042810  1
  Pb  Pb21  1  0.781791  0.466482  0.457264  1
  Pb  Pb22  1  0.718218  0.966472  0.542723  1
  Pb  Pb23  1  0.218211  0.533516  0.957276  1
  Pb  Pb24  1  0.718218  0.966472  0.957277  1
  Pb  Pb25  1  0.218211  0.533516  0.542724  1
  Pb  Pb26  1  0.281787  0.033510  0.457190  1
  Pb  Pb27  1  0.781791  0.466482  0.042736  1
  Pb  Pb28  1  0.572060  0.626848  0.750000  1
  Pb  Pb29  1  0.072054  0.873155  0.750000  1
  Pb  Pb30  1  0.427913  0.373037  0.250000  1
  Pb  Pb31  1  0.928127  0.126772  0.250000  1
  Pb  Pb32  1  0.344780  0.151600  0.750000  1
  Pb  Pb33  1  0.844791  0.348354  0.750000  1
  Pb  Pb34  1  0.655133  0.848404  0.250000  1
  Pb  Pb35  1  0.155214  0.651826  0.250000  1
