# generated using pymatgen
data_Pr12CoIrI17
_symmetry_space_group_name_H-M   'P 1'
_cell_length_a   10.10699308
_cell_length_b   12.09985186
_cell_length_c   12.10352154
_cell_angle_alpha   93.14144366
_cell_angle_beta   104.69275507
_cell_angle_gamma   114.87442063
_symmetry_Int_Tables_number   1
_chemical_formula_structural   Pr12CoIrI17
_chemical_formula_sum   'Pr12 Co1 Ir1 I17'
_cell_volume   1276.76982631
_cell_formula_units_Z   1
loop_
 _symmetry_equiv_pos_site_id
 _symmetry_equiv_pos_as_xyz
  1  'x, y, z'
loop_
 _atom_site_type_symbol
 _atom_site_label
 _atom_site_symmetry_multiplicity
 _atom_site_fract_x
 _atom_site_fract_y
 _atom_site_fract_z
 _atom_site_occupancy
  Pr  Pr0  1  0.060214  0.514426  0.324437  1
  Pr  Pr1  1  0.990002  0.809705  0.583599  1
  Pr  Pr2  1  0.640673  0.239200  0.284649  1
  Pr  Pr3  1  0.011232  0.187762  0.421295  1
  Pr  Pr4  1  0.216811  0.668059  0.985748  1
  Pr  Pr5  1  0.259611  0.981564  0.892153  1
  Pr  Pr6  1  0.353217  0.759751  0.718095  1
  Pr  Pr7  1  0.945261  0.492453  0.679138  1
  Pr  Pr8  1  0.734622  0.009772  0.105279  1
  Pr  Pr9  1  0.155671  0.288458  0.149198  1
  Pr  Pr10  1  0.780554  0.335289  0.007077  1
  Pr  Pr11  1  0.851438  0.712075  0.849770  1
  Co  Co12  1  0.102502  0.738392  0.783451  1
  Ir  Ir13  1  0.896586  0.261826  0.215108  1
  I  I14  1  0.782960  0.528872  0.418058  1
  I  I15  1  0.638415  0.418090  0.756990  1
  I  I16  1  0.843305  0.893825  0.325697  1
  I  I17  1  0.326611  0.212259  0.370328  1
  I  I18  1  0.157610  0.104981  0.675954  1
  I  I19  1  0.588751  0.054053  0.840999  1
  I  I20  1  0.755708  0.185076  0.540114  1
  I  I21  1  0.549803  0.705852  0.953187  1
  I  I22  1  0.360281  0.583151  0.239465  1
  I  I23  1  0.217559  0.471861  0.582892  1
  I  I24  1  0.056309  0.363423  0.893178  1
  I  I25  1  0.449806  0.291097  0.044893  1
  I  I26  1  0.000023  0.000175  0.999703  1
  I  I27  1  0.246166  0.818018  0.462327  1
  I  I28  1  0.410026  0.945698  0.159290  1
  I  I29  1  0.674309  0.787727  0.631545  1
  I  I30  1  0.943963  0.637114  0.106384  1
