# generated using pymatgen
data_Rb2Y5LuF20
_symmetry_space_group_name_H-M   'P 1'
_cell_length_a   8.26530217
_cell_length_b   8.26537939
_cell_length_c   8.28363300
_cell_angle_alpha   59.92645192
_cell_angle_beta   59.92690941
_cell_angle_gamma   60.14640138
_symmetry_Int_Tables_number   1
_chemical_formula_structural   Rb2Y5LuF20
_chemical_formula_sum   'Rb2 Y5 Lu1 F20'
_cell_volume   400.14955398
_cell_formula_units_Z   1
loop_
 _symmetry_equiv_pos_site_id
 _symmetry_equiv_pos_as_xyz
  1  'x, y, z'
loop_
 _atom_site_type_symbol
 _atom_site_label
 _atom_site_symmetry_multiplicity
 _atom_site_fract_x
 _atom_site_fract_y
 _atom_site_fract_z
 _atom_site_occupancy
  Rb  Rb0  1  0.250083  0.250079  0.249924  1
  Rb  Rb1  1  0.750081  0.750074  0.749931  1
  Y  Y2  1  0.759855  0.240544  0.240145  1
  Y  Y3  1  0.240533  0.759855  0.759470  1
  Y  Y4  1  0.240536  0.759868  0.240129  1
  Y  Y5  1  0.759862  0.240520  0.759478  1
  Y  Y6  1  0.240421  0.240433  0.759570  1
  Lu  Lu7  1  0.759330  0.759277  0.240688  1
  F  F8  1  0.828244  0.505345  0.494655  1
  F  F9  1  0.169462  0.499915  0.500086  1
  F  F10  1  0.505368  0.828236  0.171762  1
  F  F11  1  0.499911  0.169474  0.830528  1
  F  F12  1  0.505367  0.828263  0.494634  1
  F  F13  1  0.169443  0.499899  0.830551  1
  F  F14  1  0.499895  0.169445  0.500101  1
  F  F15  1  0.828263  0.505368  0.171740  1
  F  F16  1  0.500142  0.500131  0.830523  1
  F  F17  1  0.500127  0.500145  0.169193  1
  F  F18  1  0.169469  0.830805  0.499858  1
  F  F19  1  0.830792  0.169484  0.499868  1
  F  F20  1  0.110794  0.110788  0.111107  1
  F  F21  1  0.887426  0.887421  0.893944  1
  F  F22  1  0.110787  0.110803  0.667293  1
  F  F23  1  0.106051  0.668783  0.112591  1
  F  F24  1  0.887419  0.887406  0.331221  1
  F  F25  1  0.888873  0.332696  0.889210  1
  F  F26  1  0.668784  0.106055  0.112584  1
  F  F27  1  0.332681  0.888889  0.889216  1
