# generated using pymatgen
data_Sc3Nb(SnRu2)4
_symmetry_space_group_name_H-M   'P 1'
_cell_length_a   4.53482900
_cell_length_b   6.42162900
_cell_length_c   9.07571000
_cell_angle_alpha   90.00000000
_cell_angle_beta   90.00000000
_cell_angle_gamma   90.00000000
_symmetry_Int_Tables_number   1
_chemical_formula_structural   Sc3Nb(SnRu2)4
_chemical_formula_sum   'Sc3 Nb1 Sn4 Ru8'
_cell_volume   264.29365486
_cell_formula_units_Z   1
loop_
 _symmetry_equiv_pos_site_id
 _symmetry_equiv_pos_as_xyz
  1  'x, y, z'
loop_
 _atom_site_type_symbol
 _atom_site_label
 _atom_site_symmetry_multiplicity
 _atom_site_fract_x
 _atom_site_fract_y
 _atom_site_fract_z
 _atom_site_occupancy
  Sc  Sc0  1  0.000006  0.000000  0.001369  1
  Sc  Sc1  1  0.000006  0.000000  0.498631  1
  Sc  Sc2  1  0.502327  0.500000  0.750000  1
  Nb  Nb3  1  0.497478  0.500000  0.250000  1
  Sn  Sn4  1  0.502162  0.000000  0.750000  1
  Sn  Sn5  1  0.497615  0.000000  0.250000  1
  Sn  Sn6  1  0.000194  0.500000  0.995285  1
  Sn  Sn7  1  0.000194  0.500000  0.504715  1
  Ru  Ru8  1  0.500056  0.746140  0.004946  1
  Ru  Ru9  1  0.500056  0.746140  0.495054  1
  Ru  Ru10  1  0.500056  0.253860  0.004946  1
  Ru  Ru11  1  0.500056  0.253860  0.495054  1
  Ru  Ru12  1  0.002500  0.246367  0.750000  1
  Ru  Ru13  1  0.997399  0.258915  0.250000  1
  Ru  Ru14  1  0.997399  0.741085  0.250000  1
  Ru  Ru15  1  0.002500  0.753633  0.750000  1
