# generated using pymatgen
data_Dy4BeSi7Au16
_symmetry_space_group_name_H-M   'P 1'
_cell_length_a   4.38216600
_cell_length_b   4.38821000
_cell_length_c   27.04464400
_cell_angle_alpha   90.00000000
_cell_angle_beta   90.00000000
_cell_angle_gamma   90.00000000
_symmetry_Int_Tables_number   1
_chemical_formula_structural   Dy4BeSi7Au16
_chemical_formula_sum   'Dy4 Be1 Si7 Au16'
_cell_volume   520.06484398
_cell_formula_units_Z   1
loop_
 _symmetry_equiv_pos_site_id
 _symmetry_equiv_pos_as_xyz
  1  'x, y, z'
loop_
 _atom_site_type_symbol
 _atom_site_label
 _atom_site_symmetry_multiplicity
 _atom_site_fract_x
 _atom_site_fract_y
 _atom_site_fract_z
 _atom_site_occupancy
  Dy  Dy0  1  0.000000  0.500000  0.749244  1
  Dy  Dy1  1  0.500000  0.000000  0.250651  1
  Dy  Dy2  1  0.500000  0.500000  0.999136  1
  Dy  Dy3  1  0.500000  0.500000  0.500037  1
  Be  Be4  1  0.000000  0.000000  0.954820  1
  Si  Si5  1  0.000000  0.000000  0.457211  1
  Si  Si6  1  0.500000  0.000000  0.793870  1
  Si  Si7  1  0.500000  0.000000  0.708120  1
  Si  Si8  1  0.000000  0.500000  0.206705  1
  Si  Si9  1  0.000000  0.500000  0.292786  1
  Si  Si10  1  0.000000  0.000000  0.037697  1
  Si  Si11  1  0.000000  0.000000  0.542702  1
  Au  Au12  1  0.500000  0.000000  0.085808  1
  Au  Au13  1  0.500000  0.500000  0.663971  1
  Au  Au14  1  0.500000  0.500000  0.835473  1
  Au  Au15  1  0.000000  0.500000  0.085134  1
  Au  Au16  1  0.500000  0.000000  0.916584  1
  Au  Au17  1  0.000000  0.000000  0.664910  1
  Au  Au18  1  0.000000  0.500000  0.415172  1
  Au  Au19  1  0.500000  0.500000  0.336558  1
  Au  Au20  1  0.500000  0.000000  0.413529  1
  Au  Au21  1  0.000000  0.000000  0.335231  1
  Au  Au22  1  0.000000  0.000000  0.163918  1
  Au  Au23  1  0.500000  0.000000  0.585094  1
  Au  Au24  1  0.000000  0.000000  0.837929  1
  Au  Au25  1  0.500000  0.500000  0.164184  1
  Au  Au26  1  0.000000  0.500000  0.586167  1
  Au  Au27  1  0.000000  0.500000  0.917357  1
