# generated using pymatgen
data_Sc4Ge2B4Ir3Ru7
_symmetry_space_group_name_H-M   'P 1'
_cell_length_a   9.44452669
_cell_length_b   9.44776869
_cell_length_c   3.01227000
_cell_angle_alpha   90.00000000
_cell_angle_beta   90.00000000
_cell_angle_gamma   89.95620696
_symmetry_Int_Tables_number   1
_chemical_formula_structural   Sc4Ge2B4Ir3Ru7
_chemical_formula_sum   'Sc4 Ge2 B4 Ir3 Ru7'
_cell_volume   268.78388060
_cell_formula_units_Z   1
loop_
 _symmetry_equiv_pos_site_id
 _symmetry_equiv_pos_as_xyz
  1  'x, y, z'
loop_
 _atom_site_type_symbol
 _atom_site_label
 _atom_site_symmetry_multiplicity
 _atom_site_fract_x
 _atom_site_fract_y
 _atom_site_fract_z
 _atom_site_occupancy
  Sc  Sc0  1  0.678094  0.177839  0.000000  1
  Sc  Sc1  1  0.323796  0.819405  0.000000  1
  Sc  Sc2  1  0.176904  0.326709  0.000000  1
  Sc  Sc3  1  0.822607  0.677038  0.000000  1
  Ge  Ge4  1  0.995900  0.998577  0.000000  1
  Ge  Ge5  1  0.500237  0.500345  0.000000  1
  B  B6  1  0.126115  0.626111  0.000000  1
  B  B7  1  0.874276  0.374192  0.000000  1
  B  B8  1  0.625539  0.872174  0.000000  1
  B  B9  1  0.377678  0.127307  0.000000  1
  Ir  Ir10  1  0.214411  0.069730  0.500000  1
  Ir  Ir11  1  0.499481  0.999641  0.500000  1
  Ir  Ir12  1  0.999541  0.501068  0.500000  1
  Ru  Ru13  1  0.783712  0.930666  0.500000  1
  Ru  Ru14  1  0.069659  0.786350  0.500000  1
  Ru  Ru15  1  0.714721  0.429883  0.500000  1
  Ru  Ru16  1  0.932554  0.214391  0.500000  1
  Ru  Ru17  1  0.285441  0.568877  0.500000  1
  Ru  Ru18  1  0.568780  0.714098  0.500000  1
  Ru  Ru19  1  0.430551  0.285598  0.500000  1
