# generated using pymatgen
data_Er4GeBi3As2Rh7
_symmetry_space_group_name_H-M   'P 1'
_cell_length_a   7.49509256
_cell_length_b   7.48043821
_cell_length_c   7.63723194
_cell_angle_alpha   109.76643714
_cell_angle_beta   109.92071445
_cell_angle_gamma   109.06995537
_symmetry_Int_Tables_number   1
_chemical_formula_structural   Er4GeBi3As2Rh7
_chemical_formula_sum   'Er4 Ge1 Bi3 As2 Rh7'
_cell_volume   328.20355041
_cell_formula_units_Z   1
loop_
 _symmetry_equiv_pos_site_id
 _symmetry_equiv_pos_as_xyz
  1  'x, y, z'
loop_
 _atom_site_type_symbol
 _atom_site_label
 _atom_site_symmetry_multiplicity
 _atom_site_fract_x
 _atom_site_fract_y
 _atom_site_fract_z
 _atom_site_occupancy
  Er  Er0  1  0.000000  0.998420  0.555687  1
  Er  Er1  1  0.000000  0.468408  0.983453  1
  Er  Er2  1  0.468187  0.999595  0.983777  1
  Er  Er3  1  0.531813  0.531408  0.515591  1
  Ge  Ge4  1  0.000000  0.658086  0.669101  1
  Bi  Bi5  1  0.709516  0.708844  0.014396  1
  Bi  Bi6  1  0.290484  0.999328  0.304879  1
  Bi  Bi7  1  0.000000  0.294171  0.310345  1
  As  As8  1  0.341009  0.340912  0.008515  1
  As  As9  1  0.658991  0.999903  0.667506  1
  Rh  Rh10  1  0.748591  0.250421  0.510239  1
  Rh  Rh11  1  0.748329  0.499759  0.259450  1
  Rh  Rh12  1  0.500752  0.248930  0.759947  1
  Rh  Rh13  1  0.251409  0.501830  0.761649  1
  Rh  Rh14  1  0.251671  0.751430  0.511120  1
  Rh  Rh15  1  0.499248  0.748177  0.259195  1
  Rh  Rh16  1  0.000000  0.000376  0.925156  1
