# generated using pymatgen
data_Ca8Sb5I
_symmetry_space_group_name_H-M   'P 1'
_cell_length_a   8.30055656
_cell_length_b   8.30055694
_cell_length_c   8.30055744
_cell_angle_alpha   109.50762015
_cell_angle_beta   109.50761631
_cell_angle_gamma   109.39845010
_symmetry_Int_Tables_number   1
_chemical_formula_structural   Ca8Sb5I
_chemical_formula_sum   'Ca8 Sb5 I1'
_cell_volume   440.24992277
_cell_formula_units_Z   1
loop_
 _symmetry_equiv_pos_site_id
 _symmetry_equiv_pos_as_xyz
  1  'x, y, z'
loop_
 _atom_site_type_symbol
 _atom_site_label
 _atom_site_symmetry_multiplicity
 _atom_site_fract_x
 _atom_site_fract_y
 _atom_site_fract_z
 _atom_site_occupancy
  Ca  Ca0  1  0.745145  0.358850  0.240536  1
  Ca  Ca1  1  0.969025  0.727343  0.089604  1
  Ca  Ca2  1  0.637739  0.879420  0.910396  1
  Ca  Ca3  1  0.118313  0.504609  0.759464  1
  Ca  Ca4  1  0.641150  0.881687  0.386296  1
  Ca  Ca5  1  0.495391  0.254855  0.613704  1
  Ca  Ca6  1  0.272657  0.362261  0.241681  1
  Ca  Ca7  1  0.120580  0.030975  0.758319  1
  Sb  Sb8  1  0.749139  0.633425  0.619359  1
  Sb  Sb9  1  0.366575  0.985933  0.115714  1
  Sb  Sb10  1  0.014067  0.129781  0.380641  1
  Sb  Sb11  1  0.500000  0.500000  0.000000  1
  Sb  Sb12  1  0.870219  0.250861  0.884286  1
  I  I13  1  0.250000  0.750000  0.500000  1
