# generated using pymatgen
data_Sr3TbSiPN6
_symmetry_space_group_name_H-M   'P 1'
_cell_length_a   6.05925542
_cell_length_b   6.05925605
_cell_length_c   11.90627100
_cell_angle_alpha   89.20626444
_cell_angle_beta   90.79373564
_cell_angle_gamma   126.75839072
_symmetry_Int_Tables_number   1
_chemical_formula_structural   Sr3TbSiPN6
_chemical_formula_sum   'Sr6 Tb2 Si2 P2 N12'
_cell_volume   350.17472162
_cell_formula_units_Z   2
loop_
 _symmetry_equiv_pos_site_id
 _symmetry_equiv_pos_as_xyz
  1  'x, y, z'
loop_
 _atom_site_type_symbol
 _atom_site_label
 _atom_site_symmetry_multiplicity
 _atom_site_fract_x
 _atom_site_fract_y
 _atom_site_fract_z
 _atom_site_occupancy
  Sr  Sr0  1  0.052992  0.947008  0.854229  1
  Sr  Sr1  1  0.947008  0.052992  0.145771  1
  Sr  Sr2  1  0.450759  0.549241  0.358911  1
  Sr  Sr3  1  0.549241  0.450759  0.641089  1
  Sr  Sr4  1  0.641810  0.358190  0.077020  1
  Sr  Sr5  1  0.358190  0.641810  0.922980  1
  Tb  Tb6  1  0.856363  0.143637  0.574455  1
  Tb  Tb7  1  0.143637  0.856363  0.425545  1
  Si  Si8  1  0.766620  0.233380  0.339480  1
  Si  Si9  1  0.233380  0.766620  0.660520  1
  P  P10  1  0.740950  0.259050  0.828452  1
  P  P11  1  0.259050  0.740950  0.171548  1
  N  N12  1  0.592770  0.407230  0.859815  1
  N  N13  1  0.407230  0.592770  0.140185  1
  N  N14  1  0.926078  0.073922  0.375934  1
  N  N15  1  0.073922  0.926078  0.624066  1
  N  N16  1  0.536763  0.986834  0.741584  1
  N  N17  1  0.986834  0.536763  0.258416  1
  N  N18  1  0.463237  0.013166  0.258416  1
  N  N19  1  0.013166  0.463237  0.741584  1
  N  N20  1  0.836156  0.163844  0.937158  1
  N  N21  1  0.163844  0.836156  0.062842  1
  N  N22  1  0.671175  0.328825  0.455528  1
  N  N23  1  0.328825  0.671175  0.544472  1
