# generated using pymatgen
data_ErTm7Sc12Si15Ni
_symmetry_space_group_name_H-M   'P 1'
_cell_length_a   7.01507502
_cell_length_b   7.39357107
_cell_length_c   13.86906102
_cell_angle_alpha   90.00582585
_cell_angle_beta   89.99887439
_cell_angle_gamma   89.96135733
_symmetry_Int_Tables_number   1
_chemical_formula_structural   ErTm7Sc12Si15Ni
_chemical_formula_sum   'Er1 Tm7 Sc12 Si15 Ni1'
_cell_volume   719.33887187
_cell_formula_units_Z   1
loop_
 _symmetry_equiv_pos_site_id
 _symmetry_equiv_pos_as_xyz
  1  'x, y, z'
loop_
 _atom_site_type_symbol
 _atom_site_label
 _atom_site_symmetry_multiplicity
 _atom_site_fract_x
 _atom_site_fract_y
 _atom_site_fract_z
 _atom_site_occupancy
  Er  Er0  1  0.489741  0.678186  0.595501  1
  Tm  Tm1  1  0.010899  0.178945  0.095776  1
  Tm  Tm2  1  0.989752  0.823690  0.904977  1
  Tm  Tm3  1  0.489733  0.678254  0.904421  1
  Tm  Tm4  1  0.989755  0.823709  0.595031  1
  Tm  Tm5  1  0.511056  0.322315  0.095588  1
  Tm  Tm6  1  0.010897  0.178947  0.404220  1
  Tm  Tm7  1  0.511059  0.322311  0.404396  1
  Sc  Sc8  1  0.163469  0.509267  0.750021  1
  Sc  Sc9  1  0.838760  0.497116  0.250003  1
  Sc  Sc10  1  0.338780  0.005873  0.249999  1
  Sc  Sc11  1  0.671038  0.998344  0.750021  1
  Sc  Sc12  1  0.316061  0.172102  0.627780  1
  Sc  Sc13  1  0.671349  0.826179  0.374331  1
  Sc  Sc14  1  0.170415  0.677107  0.374157  1
  Sc  Sc15  1  0.671322  0.826157  0.125655  1
  Sc  Sc16  1  0.837072  0.319127  0.627883  1
  Sc  Sc17  1  0.316065  0.172115  0.872230  1
  Sc  Sc18  1  0.837074  0.319134  0.872128  1
  Sc  Sc19  1  0.170423  0.677113  0.125835  1
  Si  Si20  1  0.969240  0.887061  0.250002  1
  Si  Si21  1  0.469656  0.614015  0.249996  1
  Si  Si22  1  0.532580  0.386007  0.750025  1
  Si  Si23  1  0.282712  0.872794  0.750046  1
  Si  Si24  1  0.713248  0.132469  0.249999  1
  Si  Si25  1  0.213179  0.370319  0.249999  1
  Si  Si26  1  0.782398  0.626384  0.750048  1
  Si  Si27  1  0.160302  0.466570  0.538547  1
  Si  Si28  1  0.840555  0.535186  0.462468  1
  Si  Si29  1  0.342580  0.965909  0.461335  1
  Si  Si30  1  0.840502  0.535197  0.037519  1
  Si  Si31  1  0.658167  0.034696  0.539995  1
  Si  Si32  1  0.160437  0.466636  0.961430  1
  Si  Si33  1  0.658131  0.034595  0.959986  1
  Si  Si34  1  0.342601  0.965830  0.038641  1
  Ni  Ni35  1  0.028995  0.100344  0.750009  1
