# generated using pymatgen
data_Tb5Pr2Dy(WO6)4
_symmetry_space_group_name_H-M   'P 1'
_cell_length_a   5.47536508
_cell_length_b   7.80903555
_cell_length_c   11.60591120
_cell_angle_alpha   75.63652184
_cell_angle_beta   89.99968941
_cell_angle_gamma   89.98137575
_symmetry_Int_Tables_number   1
_chemical_formula_structural   Tb5Pr2Dy(WO6)4
_chemical_formula_sum   'Tb5 Pr2 Dy1 W4 O24'
_cell_volume   480.72598591
_cell_formula_units_Z   1
loop_
 _symmetry_equiv_pos_site_id
 _symmetry_equiv_pos_as_xyz
  1  'x, y, z'
loop_
 _atom_site_type_symbol
 _atom_site_label
 _atom_site_symmetry_multiplicity
 _atom_site_fract_x
 _atom_site_fract_y
 _atom_site_fract_z
 _atom_site_occupancy
  Tb  Tb0  1  0.740845  0.000135  0.749762  1
  Tb  Tb1  1  0.259222  0.000155  0.250289  1
  Tb  Tb2  1  0.187236  0.797749  0.576409  1
  Tb  Tb3  1  0.812568  0.797547  0.076495  1
  Tb  Tb4  1  0.187433  0.202473  0.923463  1
  Pr  Pr5  1  0.685116  0.499936  0.749944  1
  Pr  Pr6  1  0.315009  0.499761  0.250234  1
  Dy  Dy7  1  0.812822  0.202692  0.423271  1
  W  W8  1  0.252792  0.727672  0.884336  1
  W  W9  1  0.747187  0.727546  0.384351  1
  W  W10  1  0.252867  0.272207  0.615372  1
  W  W11  1  0.747343  0.272258  0.115843  1
  O  O12  1  0.041828  0.940279  0.895917  1
  O  O13  1  0.529381  0.847154  0.930416  1
  O  O14  1  0.957061  0.941070  0.396006  1
  O  O15  1  0.454915  0.793628  0.728219  1
  O  O16  1  0.470223  0.846767  0.430443  1
  O  O17  1  0.986491  0.718921  0.770299  1
  O  O18  1  0.544981  0.793419  0.228323  1
  O  O19  1  0.853779  0.641628  0.544935  1
  O  O20  1  0.348945  0.494420  0.887435  1
  O  O21  1  0.013679  0.719150  0.270485  1
  O  O22  1  0.348702  0.505376  0.612323  1
  O  O23  1  0.853682  0.358393  0.955159  1
  O  O24  1  0.146346  0.641500  0.044992  1
  O  O25  1  0.651844  0.493997  0.387499  1
  O  O26  1  0.986755  0.281065  0.729644  1
  O  O27  1  0.651021  0.505478  0.112592  1
  O  O28  1  0.144987  0.357968  0.454904  1
  O  O29  1  0.455002  0.206244  0.771535  1
  O  O30  1  0.013297  0.280951  0.230162  1
  O  O31  1  0.530305  0.153515  0.568852  1
  O  O32  1  0.545869  0.206207  0.272354  1
  O  O33  1  0.041644  0.059922  0.603753  1
  O  O34  1  0.470536  0.153018  0.069883  1
  O  O35  1  0.958289  0.059797  0.104103  1
