# generated using pymatgen
data_Nd2ThMn(P3Rh4)2
_symmetry_space_group_name_H-M   'P 1'
_cell_length_a   3.96355500
_cell_length_b   11.28896900
_cell_length_c   12.85276800
_cell_angle_alpha   90.00000000
_cell_angle_beta   90.00000000
_cell_angle_gamma   90.00000000
_symmetry_Int_Tables_number   1
_chemical_formula_structural   Nd2ThMn(P3Rh4)2
_chemical_formula_sum   'Nd4 Th2 Mn2 P12 Rh16'
_cell_volume   575.09002903
_cell_formula_units_Z   2
loop_
 _symmetry_equiv_pos_site_id
 _symmetry_equiv_pos_as_xyz
  1  'x, y, z'
loop_
 _atom_site_type_symbol
 _atom_site_label
 _atom_site_symmetry_multiplicity
 _atom_site_fract_x
 _atom_site_fract_y
 _atom_site_fract_z
 _atom_site_occupancy
  Nd  Nd0  1  0.500000  0.815422  0.203741  1
  Nd  Nd1  1  0.500000  0.184578  0.203741  1
  Nd  Nd2  1  0.000000  0.684578  0.796259  1
  Nd  Nd3  1  0.000000  0.315422  0.796259  1
  Th  Th4  1  0.000000  0.500000  0.522339  1
  Th  Th5  1  0.500000  0.000000  0.477661  1
  Mn  Mn6  1  0.500000  0.500000  0.161348  1
  Mn  Mn7  1  0.000000  0.000000  0.838652  1
  P  P8  1  0.500000  0.500000  0.881181  1
  P  P9  1  0.000000  0.000000  0.118819  1
  P  P10  1  0.500000  0.500000  0.337375  1
  P  P11  1  0.000000  0.000000  0.662625  1
  P  P12  1  0.500000  0.311339  0.618176  1
  P  P13  1  0.500000  0.688661  0.618176  1
  P  P14  1  0.000000  0.188661  0.381824  1
  P  P15  1  0.000000  0.811339  0.381824  1
  P  P16  1  0.500000  0.848752  0.891988  1
  P  P17  1  0.500000  0.151248  0.891988  1
  P  P18  1  0.000000  0.651248  0.108012  1
  P  P19  1  0.000000  0.348752  0.108012  1
  Rh  Rh20  1  0.500000  0.500000  0.699983  1
  Rh  Rh21  1  0.000000  0.000000  0.300017  1
  Rh  Rh22  1  0.000000  0.500000  0.988530  1
  Rh  Rh23  1  0.500000  0.000000  0.011470  1
  Rh  Rh24  1  0.500000  0.333598  0.992775  1
  Rh  Rh25  1  0.500000  0.666402  0.992775  1
  Rh  Rh26  1  0.000000  0.166402  0.007225  1
  Rh  Rh27  1  0.000000  0.833598  0.007225  1
  Rh  Rh28  1  0.500000  0.297442  0.431570  1
  Rh  Rh29  1  0.500000  0.702558  0.431570  1
  Rh  Rh30  1  0.000000  0.202558  0.568430  1
  Rh  Rh31  1  0.000000  0.797442  0.568430  1
  Rh  Rh32  1  0.500000  0.877749  0.712512  1
  Rh  Rh33  1  0.500000  0.122251  0.712512  1
  Rh  Rh34  1  0.000000  0.622251  0.287488  1
  Rh  Rh35  1  0.000000  0.377749  0.287488  1
