# generated using pymatgen
data_Er10AlCd2Co
_symmetry_space_group_name_H-M   'P 1'
_cell_length_a   9.47871270
_cell_length_b   9.53205940
_cell_length_c   9.55326400
_cell_angle_alpha   90.00000000
_cell_angle_beta   90.00000000
_cell_angle_gamma   120.18633697
_symmetry_Int_Tables_number   1
_chemical_formula_structural   Er10AlCd2Co
_chemical_formula_sum   'Er20 Al2 Cd4 Co2'
_cell_volume   746.10506756
_cell_formula_units_Z   2
loop_
 _symmetry_equiv_pos_site_id
 _symmetry_equiv_pos_as_xyz
  1  'x, y, z'
loop_
 _atom_site_type_symbol
 _atom_site_label
 _atom_site_symmetry_multiplicity
 _atom_site_fract_x
 _atom_site_fract_y
 _atom_site_fract_z
 _atom_site_occupancy
  Er  Er0  1  0.998633  0.999317  0.498171  1
  Er  Er1  1  0.998633  0.999317  0.001829  1
  Er  Er2  1  0.544552  0.458142  0.250000  1
  Er  Er3  1  0.544552  0.086410  0.250000  1
  Er  Er4  1  0.915455  0.457728  0.250000  1
  Er  Er5  1  0.457512  0.544149  0.750000  1
  Er  Er6  1  0.457512  0.913363  0.750000  1
  Er  Er7  1  0.083932  0.541966  0.750000  1
  Er  Er8  1  0.210389  0.788076  0.436313  1
  Er  Er9  1  0.210389  0.422314  0.436313  1
  Er  Er10  1  0.579438  0.789720  0.433966  1
  Er  Er11  1  0.788386  0.211684  0.560271  1
  Er  Er12  1  0.788386  0.576701  0.560271  1
  Er  Er13  1  0.425049  0.212524  0.565048  1
  Er  Er14  1  0.788386  0.211684  0.939729  1
  Er  Er15  1  0.788386  0.576701  0.939729  1
  Er  Er16  1  0.425049  0.212524  0.934952  1
  Er  Er17  1  0.210389  0.788076  0.063687  1
  Er  Er18  1  0.210389  0.422314  0.063687  1
  Er  Er19  1  0.579438  0.789720  0.066034  1
  Al  Al20  1  0.884701  0.113239  0.250000  1
  Al  Al21  1  0.884701  0.771463  0.250000  1
  Cd  Cd22  1  0.226666  0.113333  0.250000  1
  Cd  Cd23  1  0.113227  0.884801  0.750000  1
  Cd  Cd24  1  0.113227  0.228425  0.750000  1
  Cd  Cd25  1  0.770624  0.885312  0.750000  1
  Co  Co26  1  0.330311  0.665156  0.250000  1
  Co  Co27  1  0.671684  0.335842  0.750000  1
