# generated using pymatgen
data_Er16In4IrPd2Ru
_symmetry_space_group_name_H-M   'P 1'
_cell_length_a   9.59774685
_cell_length_b   9.61268342
_cell_length_c   9.60284074
_cell_angle_alpha   60.20698272
_cell_angle_beta   60.01754767
_cell_angle_gamma   60.05138477
_symmetry_Int_Tables_number   1
_chemical_formula_structural   Er16In4IrPd2Ru
_chemical_formula_sum   'Er16 In4 Ir1 Pd2 Ru1'
_cell_volume   627.76933530
_cell_formula_units_Z   1
loop_
 _symmetry_equiv_pos_site_id
 _symmetry_equiv_pos_as_xyz
  1  'x, y, z'
loop_
 _atom_site_type_symbol
 _atom_site_label
 _atom_site_symmetry_multiplicity
 _atom_site_fract_x
 _atom_site_fract_y
 _atom_site_fract_z
 _atom_site_occupancy
  Er  Er0  1  0.062350  0.060653  0.433145  1
  Er  Er1  1  0.650866  0.057212  0.641057  1
  Er  Er2  1  0.183592  0.809067  0.195859  1
  Er  Er3  1  0.443850  0.060653  0.433145  1
  Er  Er4  1  0.185478  0.195240  0.807949  1
  Er  Er5  1  0.656536  0.649067  0.648133  1
  Er  Er6  1  0.046266  0.649067  0.648133  1
  Er  Er7  1  0.438461  0.062009  0.061070  1
  Er  Er8  1  0.649057  0.641557  0.060329  1
  Er  Er9  1  0.190790  0.809511  0.808909  1
  Er  Er10  1  0.811334  0.195240  0.807949  1
  Er  Er11  1  0.810605  0.187768  0.191023  1
  Er  Er12  1  0.811482  0.809067  0.195859  1
  Er  Er13  1  0.063072  0.438392  0.435464  1
  Er  Er14  1  0.442648  0.434173  0.060357  1
  Er  Er15  1  0.062821  0.434173  0.060357  1
  In  In16  1  0.751354  0.416633  0.417216  1
  In  In17  1  0.416292  0.419406  0.748010  1
  In  In18  1  0.415956  0.748984  0.419106  1
  In  In19  1  0.414797  0.416633  0.417216  1
  Ir  Ir20  1  0.854964  0.427200  0.862872  1
  Pd  Pd21  1  0.852033  0.858642  0.859699  1
  Pd  Pd22  1  0.429627  0.858642  0.859699  1
  Ru  Ru23  1  0.855770  0.861016  0.427445  1
