# generated using pymatgen
data_Y9Ho3ZnGaCo4
_symmetry_space_group_name_H-M   'P 1'
_cell_length_a   8.28476740
_cell_length_b   8.29504158
_cell_length_c   8.28476784
_cell_angle_alpha   111.89146114
_cell_angle_beta   109.38541675
_cell_angle_gamma   107.12168353
_symmetry_Int_Tables_number   1
_chemical_formula_structural   Y9Ho3ZnGaCo4
_chemical_formula_sum   'Y9 Ho3 Zn1 Ga1 Co4'
_cell_volume   437.79663648
_cell_formula_units_Z   1
loop_
 _symmetry_equiv_pos_site_id
 _symmetry_equiv_pos_as_xyz
  1  'x, y, z'
loop_
 _atom_site_type_symbol
 _atom_site_label
 _atom_site_symmetry_multiplicity
 _atom_site_fract_x
 _atom_site_fract_y
 _atom_site_fract_z
 _atom_site_occupancy
  Y  Y0  1  0.431265  0.233622  0.195954  1
  Y  Y1  1  0.569693  0.766064  0.804390  1
  Y  Y2  1  0.037669  0.233622  0.802357  1
  Y  Y3  1  0.961673  0.766064  0.196371  1
  Y  Y4  1  0.181511  0.282077  0.463991  1
  Y  Y5  1  0.819031  0.717725  0.536440  1
  Y  Y6  1  0.181286  0.717725  0.898693  1
  Y  Y7  1  0.818085  0.282077  0.100566  1
  Y  Y8  1  0.325412  0.633723  0.308310  1
  Ho  Ho9  1  0.674064  0.363736  0.689672  1
  Ho  Ho10  1  0.325969  0.014718  0.688750  1
  Ho  Ho11  1  0.674304  0.985208  0.310904  1
  Zn  Zn12  1  0.000520  0.001032  0.000512  1
  Ga  Ga13  1  0.500124  0.500026  0.999902  1
  Co  Co14  1  0.348354  0.001985  0.349124  1
  Co  Co15  1  0.652861  0.001985  0.653631  1
  Co  Co16  1  0.113548  0.614414  0.500865  1
  Co  Co17  1  0.884630  0.384199  0.499570  1
