# generated using pymatgen
data_NdSiRu2C
_symmetry_space_group_name_H-M   'P 1'
_cell_length_a   5.90412055
_cell_length_b   5.90412021
_cell_length_c   7.20865000
_cell_angle_alpha   90.00000000
_cell_angle_beta   90.00000000
_cell_angle_gamma   141.04076853
_symmetry_Int_Tables_number   1
_chemical_formula_structural   NdSiRu2C
_chemical_formula_sum   'Nd2 Si2 Ru4 C2'
_cell_volume   157.99897359
_cell_formula_units_Z   2
loop_
 _symmetry_equiv_pos_site_id
 _symmetry_equiv_pos_as_xyz
  1  'x, y, z'
loop_
 _atom_site_type_symbol
 _atom_site_label
 _atom_site_symmetry_multiplicity
 _atom_site_fract_x
 _atom_site_fract_y
 _atom_site_fract_z
 _atom_site_occupancy
  Nd  Nd0  1  0.549708  0.450292  0.250000  1
  Nd  Nd1  1  0.450292  0.549708  0.750000  1
  Si  Si2  1  0.271624  0.728376  0.250000  1
  Si  Si3  1  0.728376  0.271624  0.750000  1
  Ru  Ru4  1  0.834961  0.165039  0.057895  1
  Ru  Ru5  1  0.165039  0.834961  0.942105  1
  Ru  Ru6  1  0.165039  0.834961  0.557895  1
  Ru  Ru7  1  0.834961  0.165039  0.442105  1
  C  C8  1  0.000000  0.000000  0.000000  1
  C  C9  1  0.000000  0.000000  0.500000  1
