# generated using pymatgen
data_Y4Ge3As3Ir7
_symmetry_space_group_name_H-M   'P 1'
_cell_length_a   7.29988922
_cell_length_b   7.29989043
_cell_length_c   7.29988890
_cell_angle_alpha   109.38403720
_cell_angle_beta   109.67938634
_cell_angle_gamma   109.35043406
_symmetry_Int_Tables_number   1
_chemical_formula_structural   Y4Ge3As3Ir7
_chemical_formula_sum   'Y4 Ge3 As3 Ir7'
_cell_volume   299.44886324
_cell_formula_units_Z   1
loop_
 _symmetry_equiv_pos_site_id
 _symmetry_equiv_pos_as_xyz
  1  'x, y, z'
loop_
 _atom_site_type_symbol
 _atom_site_label
 _atom_site_symmetry_multiplicity
 _atom_site_fract_x
 _atom_site_fract_y
 _atom_site_fract_z
 _atom_site_occupancy
  Y  Y0  1  0.999735  0.999375  0.499784  1
  Y  Y1  1  0.499591  0.999375  0.999641  1
  Y  Y2  1  0.000265  0.500049  0.999641  1
  Y  Y3  1  0.500409  0.500049  0.499784  1
  Ge  Ge4  1  0.679316  0.678033  0.998717  1
  Ge  Ge5  1  0.320684  0.319401  0.998717  1
  Ge  Ge6  1  0.000000  0.682164  0.682164  1
  As  As7  1  0.000000  0.323440  0.323440  1
  As  As8  1  0.680548  0.999283  0.679832  1
  As  As9  1  0.319452  0.999283  0.318735  1
  Ir  Ir10  1  0.000000  0.998456  0.998456  1
  Ir  Ir11  1  0.249913  0.500820  0.750733  1
  Ir  Ir12  1  0.749655  0.250168  0.500513  1
  Ir  Ir13  1  0.500000  0.248952  0.748952  1
  Ir  Ir14  1  0.500000  0.749474  0.249474  1
  Ir  Ir15  1  0.750087  0.500820  0.250906  1
  Ir  Ir16  1  0.250345  0.750858  0.500513  1
