# generated using pymatgen
data_Hf3Zr3(PtN)2
_symmetry_space_group_name_H-M   'P 1'
_cell_length_a   5.94428227
_cell_length_b   5.94428206
_cell_length_c   8.93891047
_cell_angle_alpha   90.17551087
_cell_angle_beta   89.82449017
_cell_angle_gamma   147.44623537
_symmetry_Int_Tables_number   1
_chemical_formula_structural   Hf3Zr3(PtN)2
_chemical_formula_sum   'Hf3 Zr3 Pt2 N2'
_cell_volume   169.95610268
_cell_formula_units_Z   1
loop_
 _symmetry_equiv_pos_site_id
 _symmetry_equiv_pos_as_xyz
  1  'x, y, z'
loop_
 _atom_site_type_symbol
 _atom_site_label
 _atom_site_symmetry_multiplicity
 _atom_site_fract_x
 _atom_site_fract_y
 _atom_site_fract_z
 _atom_site_occupancy
  Hf  Hf0  1  0.371067  0.628932  0.447691  1
  Hf  Hf1  1  0.628766  0.371233  0.553344  1
  Hf  Hf2  1  0.628860  0.371139  0.946100  1
  Zr  Zr3  1  0.370517  0.629482  0.052402  1
  Zr  Zr4  1  0.052145  0.947854  0.249837  1
  Zr  Zr5  1  0.947814  0.052185  0.750045  1
  Pt  Pt6  1  0.750561  0.249437  0.254690  1
  Pt  Pt7  1  0.246709  0.753289  0.746874  1
  N  N8  1  0.003793  0.996207  0.999136  1
  N  N9  1  0.999763  0.000237  0.499883  1
