# generated using pymatgen
data_HoTa2Fe9
_symmetry_space_group_name_H-M   'P 1'
_cell_length_a   8.32600037
_cell_length_b   8.32599970
_cell_length_c   8.32600080
_cell_angle_alpha   34.21941192
_cell_angle_beta   34.21941512
_cell_angle_gamma   34.21941538
_symmetry_Int_Tables_number   1
_chemical_formula_structural   HoTa2Fe9
_chemical_formula_sum   'Ho1 Ta2 Fe9'
_cell_volume   162.76600919
_cell_formula_units_Z   1
loop_
 _symmetry_equiv_pos_site_id
 _symmetry_equiv_pos_as_xyz
  1  'x, y, z'
loop_
 _atom_site_type_symbol
 _atom_site_label
 _atom_site_symmetry_multiplicity
 _atom_site_fract_x
 _atom_site_fract_y
 _atom_site_fract_z
 _atom_site_occupancy
  Ho  Ho0  1  0.000000  0.000000  0.000000  1
  Ta  Ta1  1  0.143749  0.143749  0.143749  1
  Ta  Ta2  1  0.856251  0.856251  0.856251  1
  Fe  Fe3  1  0.500000  0.500000  0.500000  1
  Fe  Fe4  1  0.333396  0.333396  0.333396  1
  Fe  Fe5  1  0.666604  0.666604  0.666604  1
  Fe  Fe6  1  0.082228  0.588559  0.588559  1
  Fe  Fe7  1  0.588559  0.588559  0.082228  1
  Fe  Fe8  1  0.588559  0.082228  0.588559  1
  Fe  Fe9  1  0.411441  0.917772  0.411441  1
  Fe  Fe10  1  0.917772  0.411441  0.411441  1
  Fe  Fe11  1  0.411441  0.411441  0.917772  1
