# generated using pymatgen
data_HoZr3(Ga3Ir)6
_symmetry_space_group_name_H-M   'P 1'
_cell_length_a   7.49760000
_cell_length_b   7.49031966
_cell_length_c   9.32714400
_cell_angle_alpha   90.00000000
_cell_angle_beta   90.00000000
_cell_angle_gamma   119.81988998
_symmetry_Int_Tables_number   1
_chemical_formula_structural   HoZr3(Ga3Ir)6
_chemical_formula_sum   'Ho1 Zr3 Ga18 Ir6'
_cell_volume   454.45122646
_cell_formula_units_Z   1
loop_
 _symmetry_equiv_pos_site_id
 _symmetry_equiv_pos_as_xyz
  1  'x, y, z'
loop_
 _atom_site_type_symbol
 _atom_site_label
 _atom_site_symmetry_multiplicity
 _atom_site_fract_x
 _atom_site_fract_y
 _atom_site_fract_z
 _atom_site_occupancy
  Ho  Ho0  1  0.329814  0.004143  0.750000  1
  Zr  Zr1  1  0.995824  0.671089  0.250000  1
  Zr  Zr2  1  0.004445  0.330253  0.750000  1
  Zr  Zr3  1  0.670763  0.995788  0.250000  1
  Ga  Ga4  1  0.125214  0.127317  0.250000  1
  Ga  Ga5  1  0.870766  0.872892  0.750000  1
  Ga  Ga6  1  0.996423  0.334535  0.080749  1
  Ga  Ga7  1  0.001334  0.662746  0.920370  1
  Ga  Ga8  1  0.001334  0.662746  0.579630  1
  Ga  Ga9  1  0.334767  0.996966  0.414934  1
  Ga  Ga10  1  0.996423  0.334535  0.419251  1
  Ga  Ga11  1  0.668194  0.003426  0.579843  1
  Ga  Ga12  1  0.668194  0.003426  0.920157  1
  Ga  Ga13  1  0.334767  0.996966  0.085066  1
  Ga  Ga14  1  0.330053  0.332284  0.567470  1
  Ga  Ga15  1  0.669315  0.669370  0.429951  1
  Ga  Ga16  1  0.669315  0.669370  0.070049  1
  Ga  Ga17  1  0.330053  0.332284  0.932530  1
  Ga  Ga18  1  0.338045  0.549696  0.250000  1
  Ga  Ga19  1  0.664458  0.453605  0.750000  1
  Ga  Ga20  1  0.551287  0.340010  0.250000  1
  Ga  Ga21  1  0.449448  0.658212  0.750000  1
  Ir  Ir22  1  0.671463  0.327692  0.000951  1
  Ir  Ir23  1  0.328824  0.673042  0.001391  1
  Ir  Ir24  1  0.328824  0.673042  0.498609  1
  Ir  Ir25  1  0.671463  0.327692  0.499049  1
  Ir  Ir26  1  0.999595  0.998436  0.001322  1
  Ir  Ir27  1  0.999595  0.998436  0.498678  1
