# generated using pymatgen
data_TbYbIrRuO7
_symmetry_space_group_name_H-M   'P 1'
_cell_length_a   7.24214286
_cell_length_b   7.24214266
_cell_length_c   7.27375100
_cell_angle_alpha   59.85552269
_cell_angle_beta   59.85552364
_cell_angle_gamma   59.59937923
_symmetry_Int_Tables_number   1
_chemical_formula_structural   TbYbIrRuO7
_chemical_formula_sum   'Tb2 Yb2 Ir2 Ru2 O14'
_cell_volume   268.34856974
_cell_formula_units_Z   2
loop_
 _symmetry_equiv_pos_site_id
 _symmetry_equiv_pos_as_xyz
  1  'x, y, z'
loop_
 _atom_site_type_symbol
 _atom_site_label
 _atom_site_symmetry_multiplicity
 _atom_site_fract_x
 _atom_site_fract_y
 _atom_site_fract_z
 _atom_site_occupancy
  Tb  Tb0  1  0.625000  0.625000  0.125000  1
  Tb  Tb1  1  0.625000  0.625000  0.625000  1
  Yb  Yb2  1  0.625000  0.125000  0.625000  1
  Yb  Yb3  1  0.125000  0.625000  0.625000  1
  Ir  Ir4  1  0.125000  0.625000  0.125000  1
  Ir  Ir5  1  0.625000  0.125000  0.125000  1
  Ru  Ru6  1  0.125000  0.125000  0.625000  1
  Ru  Ru7  1  0.125000  0.125000  0.125000  1
  O  O8  1  0.746366  0.746366  0.753634  1
  O  O9  1  0.503634  0.503634  0.496366  1
  O  O10  1  0.044184  0.455292  0.046574  1
  O  O11  1  0.794708  0.205816  0.796051  1
  O  O12  1  0.055510  0.055510  0.444490  1
  O  O13  1  0.455292  0.044184  0.046574  1
  O  O14  1  0.044184  0.455292  0.453949  1
  O  O15  1  0.460027  0.460027  0.039973  1
  O  O16  1  0.455292  0.044184  0.453949  1
  O  O17  1  0.205816  0.794708  0.796051  1
  O  O18  1  0.794708  0.205816  0.203426  1
  O  O19  1  0.205816  0.794708  0.203426  1
  O  O20  1  0.789973  0.789973  0.210027  1
  O  O21  1  0.194490  0.194490  0.805510  1
