# generated using pymatgen
data_Dy12ZnCo4Pb
_symmetry_space_group_name_H-M   'P 1'
_cell_length_a   8.34476579
_cell_length_b   8.34586221
_cell_length_c   8.34476613
_cell_angle_alpha   111.96105279
_cell_angle_beta   109.16858591
_cell_angle_gamma   107.31270809
_symmetry_Int_Tables_number   1
_chemical_formula_structural   Dy12ZnCo4Pb
_chemical_formula_sum   'Dy12 Zn1 Co4 Pb1'
_cell_volume   446.66118071
_cell_formula_units_Z   1
loop_
 _symmetry_equiv_pos_site_id
 _symmetry_equiv_pos_as_xyz
  1  'x, y, z'
loop_
 _atom_site_type_symbol
 _atom_site_label
 _atom_site_symmetry_multiplicity
 _atom_site_fract_x
 _atom_site_fract_y
 _atom_site_fract_z
 _atom_site_occupancy
  Dy  Dy0  1  0.427762  0.226988  0.200855  1
  Dy  Dy1  1  0.572238  0.773012  0.799145  1
  Dy  Dy2  1  0.026132  0.226988  0.799226  1
  Dy  Dy3  1  0.973868  0.773012  0.200774  1
  Dy  Dy4  1  0.180504  0.283697  0.464223  1
  Dy  Dy5  1  0.819496  0.716303  0.535777  1
  Dy  Dy6  1  0.180527  0.716303  0.896807  1
  Dy  Dy7  1  0.819473  0.283697  0.103193  1
  Dy  Dy8  1  0.323758  0.637107  0.313349  1
  Dy  Dy9  1  0.676242  0.362893  0.686651  1
  Dy  Dy10  1  0.323745  0.010263  0.686518  1
  Dy  Dy11  1  0.676255  0.989737  0.313482  1
  Zn  Zn12  1  0.000000  0.000000  0.000000  1
  Co  Co13  1  0.344540  0.000000  0.344540  1
  Co  Co14  1  0.655460  0.000000  0.655460  1
  Co  Co15  1  0.114162  0.614117  0.499956  1
  Co  Co16  1  0.885838  0.385883  0.500044  1
  Pb  Pb17  1  0.500000  0.500000  0.000000  1
