# generated using pymatgen
data_La3Dy7(SnSb)4
_symmetry_space_group_name_H-M   'P 1'
_cell_length_a   9.18666118
_cell_length_b   8.45746396
_cell_length_c   8.27959539
_cell_angle_alpha   89.68954911
_cell_angle_beta   90.03479071
_cell_angle_gamma   124.48850262
_symmetry_Int_Tables_number   1
_chemical_formula_structural   La3Dy7(SnSb)4
_chemical_formula_sum   'La3 Dy7 Sn4 Sb4'
_cell_volume   530.21530011
_cell_formula_units_Z   1
loop_
 _symmetry_equiv_pos_site_id
 _symmetry_equiv_pos_as_xyz
  1  'x, y, z'
loop_
 _atom_site_type_symbol
 _atom_site_label
 _atom_site_symmetry_multiplicity
 _atom_site_fract_x
 _atom_site_fract_y
 _atom_site_fract_z
 _atom_site_occupancy
  La  La0  1  0.054389  0.357019  0.320370  1
  La  La1  1  0.947489  0.650982  0.679550  1
  La  La2  1  0.444474  0.147048  0.823368  1
  Dy  Dy3  1  0.772000  0.515346  0.159374  1
  Dy  Dy4  1  0.553370  0.836590  0.170988  1
  Dy  Dy5  1  0.226714  0.484676  0.839134  1
  Dy  Dy6  1  0.728453  0.988597  0.658242  1
  Dy  Dy7  1  0.273980  0.015675  0.340804  1
  Dy  Dy8  1  0.000060  0.998848  0.000397  1
  Dy  Dy9  1  0.500146  0.502266  0.499099  1
  Sn  Sn10  1  0.366739  0.367653  0.134759  1
  Sn  Sn11  1  0.632745  0.635361  0.866017  1
  Sn  Sn12  1  0.132638  0.134351  0.633698  1
  Sn  Sn13  1  0.863069  0.869663  0.361048  1
  Sb  Sb14  1  0.817611  0.225507  0.970225  1
  Sb  Sb15  1  0.180669  0.761480  0.043207  1
  Sb  Sb16  1  0.675395  0.269575  0.466590  1
  Sb  Sb17  1  0.330057  0.739364  0.533129  1
