# generated using pymatgen
data_Ba3Sm(PPt3)8
_symmetry_space_group_name_H-M   'P 1'
_cell_length_a   8.63872058
_cell_length_b   8.63872058
_cell_length_c   8.63872058
_cell_angle_alpha   89.95102889
_cell_angle_beta   90.04897111
_cell_angle_gamma   90.04897111
_symmetry_Int_Tables_number   1
_chemical_formula_structural   Ba3Sm(PPt3)8
_chemical_formula_sum   'Ba3 Sm1 P8 Pt24'
_cell_volume   644.68535515
_cell_formula_units_Z   1
loop_
 _symmetry_equiv_pos_site_id
 _symmetry_equiv_pos_as_xyz
  1  'x, y, z'
loop_
 _atom_site_type_symbol
 _atom_site_label
 _atom_site_symmetry_multiplicity
 _atom_site_fract_x
 _atom_site_fract_y
 _atom_site_fract_z
 _atom_site_occupancy
  Ba  Ba0  1  0.500000  0.000000  0.500000  1
  Ba  Ba1  1  0.000000  0.500000  0.500000  1
  Ba  Ba2  1  0.000000  0.000000  0.000000  1
  Sm  Sm3  1  0.500000  0.500000  0.000000  1
  P  P4  1  0.805719  0.302076  0.191761  1
  P  P5  1  0.195344  0.804656  0.304656  1
  P  P6  1  0.697924  0.691761  0.694281  1
  P  P7  1  0.308239  0.194281  0.802076  1
  P  P8  1  0.194281  0.697924  0.808239  1
  P  P9  1  0.804656  0.195344  0.695344  1
  P  P10  1  0.302076  0.308239  0.305719  1
  P  P11  1  0.691761  0.805719  0.197924  1
  Pt  Pt12  1  0.421633  0.835636  0.148321  1
  Pt  Pt13  1  0.580666  0.349584  0.332730  1
  Pt  Pt14  1  0.077264  0.158758  0.654781  1
  Pt  Pt15  1  0.925748  0.656727  0.844273  1
  Pt  Pt16  1  0.167270  0.419334  0.849584  1
  Pt  Pt17  1  0.351679  0.578367  0.335636  1
  Pt  Pt18  1  0.655727  0.074252  0.156727  1
  Pt  Pt19  1  0.845219  0.922736  0.658758  1
  Pt  Pt20  1  0.841242  0.154781  0.422736  1
  Pt  Pt21  1  0.343273  0.344273  0.574252  1
  Pt  Pt22  1  0.164364  0.648321  0.078367  1
  Pt  Pt23  1  0.650416  0.832730  0.919334  1
  Pt  Pt24  1  0.578367  0.164364  0.851679  1
  Pt  Pt25  1  0.419334  0.650416  0.667270  1
  Pt  Pt26  1  0.922736  0.841242  0.345219  1
  Pt  Pt27  1  0.074252  0.343273  0.155727  1
  Pt  Pt28  1  0.832730  0.580666  0.150416  1
  Pt  Pt29  1  0.648321  0.421633  0.664364  1
  Pt  Pt30  1  0.344273  0.925748  0.843273  1
  Pt  Pt31  1  0.154781  0.077264  0.341242  1
  Pt  Pt32  1  0.158758  0.845219  0.577264  1
  Pt  Pt33  1  0.656727  0.655727  0.425748  1
  Pt  Pt34  1  0.835636  0.351679  0.921633  1
  Pt  Pt35  1  0.349584  0.167270  0.080666  1
