# generated using pymatgen
data_BaSr3(BeAs2)2
_symmetry_space_group_name_H-M   'P 1'
_cell_length_a   7.88030398
_cell_length_b   7.85991531
_cell_length_c   7.85991534
_cell_angle_alpha   133.25805262
_cell_angle_beta   130.47441231
_cell_angle_gamma   70.41480849
_symmetry_Int_Tables_number   1
_chemical_formula_structural   BaSr3(BeAs2)2
_chemical_formula_sum   'Ba1 Sr3 Be2 As4'
_cell_volume   264.37029649
_cell_formula_units_Z   1
loop_
 _symmetry_equiv_pos_site_id
 _symmetry_equiv_pos_as_xyz
  1  'x, y, z'
loop_
 _atom_site_type_symbol
 _atom_site_label
 _atom_site_symmetry_multiplicity
 _atom_site_fract_x
 _atom_site_fract_y
 _atom_site_fract_z
 _atom_site_occupancy
  Ba  Ba0  1  0.050705  0.358335  0.692369  1
  Sr  Sr1  1  0.658222  0.861812  0.796410  1
  Sr  Sr2  1  0.337290  0.137051  0.200238  1
  Sr  Sr3  1  0.936313  0.636607  0.299707  1
  Be  Be4  1  0.501537  0.251086  0.751945  1
  Be  Be5  1  0.501537  0.749591  0.250451  1
  As  As6  1  0.419554  0.610587  0.808966  1
  As  As7  1  0.589810  0.396821  0.192990  1
  As  As8  1  0.208619  0.897719  0.310900  1
  As  As9  1  0.796415  0.100393  0.696022  1
