# generated using pymatgen
data_Er12Co2Ni3Hg
_symmetry_space_group_name_H-M   'P 1'
_cell_length_a   8.20388596
_cell_length_b   8.20337274
_cell_length_c   8.20388660
_cell_angle_alpha   109.84107158
_cell_angle_beta   110.65829373
_cell_angle_gamma   107.92876640
_symmetry_Int_Tables_number   1
_chemical_formula_structural   Er12Co2Ni3Hg
_chemical_formula_sum   'Er12 Co2 Ni3 Hg1'
_cell_volume   424.75480319
_cell_formula_units_Z   1
loop_
 _symmetry_equiv_pos_site_id
 _symmetry_equiv_pos_as_xyz
  1  'x, y, z'
loop_
 _atom_site_type_symbol
 _atom_site_label
 _atom_site_symmetry_multiplicity
 _atom_site_fract_x
 _atom_site_fract_y
 _atom_site_fract_z
 _atom_site_occupancy
  Er  Er0  1  0.288201  0.181478  0.469583  1
  Er  Er1  1  0.711799  0.818522  0.530417  1
  Er  Er2  1  0.288104  0.818522  0.106723  1
  Er  Er3  1  0.711896  0.181478  0.893277  1
  Er  Er4  1  0.625381  0.320072  0.304942  1
  Er  Er5  1  0.374619  0.679928  0.695058  1
  Er  Er6  1  0.015131  0.320072  0.694690  1
  Er  Er7  1  0.984869  0.679928  0.305310  1
  Er  Er8  1  0.223119  0.414361  0.191241  1
  Er  Er9  1  0.776881  0.585639  0.808759  1
  Er  Er10  1  0.222677  0.031290  0.808613  1
  Er  Er11  1  0.777323  0.968710  0.191387  1
  Co  Co12  1  0.383912  0.883742  0.499829  1
  Co  Co13  1  0.616088  0.116258  0.500171  1
  Ni  Ni14  1  0.000372  0.360830  0.360458  1
  Ni  Ni15  1  0.999628  0.639170  0.639542  1
  Ni  Ni16  1  0.000000  0.000000  0.000000  1
  Hg  Hg17  1  0.500000  0.500000  0.000000  1
