# generated using pymatgen
data_Y8Ta12Si15P
_symmetry_space_group_name_H-M   'P 1'
_cell_length_a   6.86119198
_cell_length_b   7.05019728
_cell_length_c   13.35491814
_cell_angle_alpha   89.92745082
_cell_angle_beta   89.86351576
_cell_angle_gamma   90.12306019
_symmetry_Int_Tables_number   1
_chemical_formula_structural   Y8Ta12Si15P
_chemical_formula_sum   'Y8 Ta12 Si15 P1'
_cell_volume   646.01036620
_cell_formula_units_Z   1
loop_
 _symmetry_equiv_pos_site_id
 _symmetry_equiv_pos_as_xyz
  1  'x, y, z'
loop_
 _atom_site_type_symbol
 _atom_site_label
 _atom_site_symmetry_multiplicity
 _atom_site_fract_x
 _atom_site_fract_y
 _atom_site_fract_z
 _atom_site_occupancy
  Y  Y0  1  0.502635  0.329280  0.095811  1
  Y  Y1  1  0.002790  0.174648  0.405578  1
  Y  Y2  1  0.496953  0.670471  0.595650  1
  Y  Y3  1  0.996965  0.829018  0.904277  1
  Y  Y4  1  0.497492  0.670396  0.904233  1
  Y  Y5  1  0.998930  0.825241  0.595185  1
  Y  Y6  1  0.500769  0.328527  0.404159  1
  Y  Y7  1  0.003040  0.170840  0.095663  1
  Ta  Ta8  1  0.662796  0.009823  0.749144  1
  Ta  Ta9  1  0.163358  0.490140  0.749376  1
  Ta  Ta10  1  0.337523  0.989992  0.250696  1
  Ta  Ta11  1  0.837046  0.509367  0.250455  1
  Ta  Ta12  1  0.842114  0.328378  0.623312  1
  Ta  Ta13  1  0.337207  0.175196  0.874188  1
  Ta  Ta14  1  0.161667  0.674275  0.125795  1
  Ta  Ta15  1  0.660268  0.826915  0.374767  1
  Ta  Ta16  1  0.161625  0.670320  0.376716  1
  Ta  Ta17  1  0.662957  0.825645  0.125623  1
  Ta  Ta18  1  0.838011  0.325794  0.874072  1
  Ta  Ta19  1  0.336868  0.175901  0.624503  1
  Si  Si20  1  0.796254  0.627339  0.750047  1
  Si  Si21  1  0.296835  0.873779  0.750182  1
  Si  Si22  1  0.203630  0.372641  0.249759  1
  Si  Si23  1  0.704714  0.127155  0.249896  1
  Si  Si24  1  0.542994  0.376144  0.749427  1
  Si  Si25  1  0.040708  0.121945  0.749483  1
  Si  Si26  1  0.457789  0.622716  0.250158  1
  Si  Si27  1  0.959172  0.876961  0.251007  1
  Si  Si28  1  0.664859  0.037281  0.541573  1
  Si  Si29  1  0.163238  0.463619  0.958351  1
  Si  Si30  1  0.336701  0.963385  0.041401  1
  Si  Si31  1  0.828694  0.539736  0.457195  1
  Si  Si32  1  0.335562  0.962974  0.458616  1
  Si  Si33  1  0.836200  0.536464  0.041450  1
  Si  Si34  1  0.663093  0.036943  0.958790  1
  P  P35  1  0.168542  0.460751  0.543461  1
