# generated using pymatgen
data_Pr4Er4Re(B8Os)3
_symmetry_space_group_name_H-M   'P 1'
_cell_length_a   3.71065800
_cell_length_b   9.24279767
_cell_length_c   11.69775200
_cell_angle_alpha   90.08187120
_cell_angle_beta   90.00000000
_cell_angle_gamma   90.00000000
_symmetry_Int_Tables_number   1
_chemical_formula_structural   Pr4Er4Re(B8Os)3
_chemical_formula_sum   'Pr4 Er4 Re1 B24 Os3'
_cell_volume   401.19576620
_cell_formula_units_Z   1
loop_
 _symmetry_equiv_pos_site_id
 _symmetry_equiv_pos_as_xyz
  1  'x, y, z'
loop_
 _atom_site_type_symbol
 _atom_site_label
 _atom_site_symmetry_multiplicity
 _atom_site_fract_x
 _atom_site_fract_y
 _atom_site_fract_z
 _atom_site_occupancy
  Pr  Pr0  1  0.000000  0.322858  0.414950  1
  Pr  Pr1  1  0.000000  0.679113  0.587233  1
  Pr  Pr2  1  0.000000  0.822568  0.084314  1
  Pr  Pr3  1  0.000000  0.176567  0.913196  1
  Er  Er4  1  0.000000  0.943611  0.371181  1
  Er  Er5  1  0.000000  0.055387  0.628447  1
  Er  Er6  1  0.000000  0.443178  0.128346  1
  Er  Er7  1  0.000000  0.556521  0.872260  1
  Re  Re8  1  0.000000  0.860590  0.819181  1
  B  B9  1  0.500000  0.556627  0.430080  1
  B  B10  1  0.500000  0.443534  0.570346  1
  B  B11  1  0.500000  0.056167  0.070431  1
  B  B12  1  0.500000  0.944718  0.929756  1
  B  B13  1  0.500000  0.749749  0.416582  1
  B  B14  1  0.500000  0.250354  0.583202  1
  B  B15  1  0.500000  0.249706  0.083732  1
  B  B16  1  0.500000  0.750185  0.916301  1
  B  B17  1  0.500000  0.789840  0.266787  1
  B  B18  1  0.500000  0.209605  0.732398  1
  B  B19  1  0.500000  0.290301  0.233206  1
  B  B20  1  0.500000  0.709094  0.766920  1
  B  B21  1  0.500000  0.629524  0.185931  1
  B  B22  1  0.500000  0.369973  0.813669  1
  B  B23  1  0.500000  0.130184  0.314241  1
  B  B24  1  0.500000  0.870110  0.686188  1
  B  B25  1  0.500000  0.985577  0.214224  1
  B  B26  1  0.500000  0.015575  0.785608  1
  B  B27  1  0.500000  0.485473  0.286282  1
  B  B28  1  0.500000  0.514736  0.714388  1
  B  B29  1  0.500000  0.599531  0.028035  1
  B  B30  1  0.500000  0.399003  0.972859  1
  B  B31  1  0.500000  0.100551  0.472005  1
  B  B32  1  0.500000  0.899846  0.526822  1
  Os  Os33  1  0.000000  0.639421  0.319135  1
  Os  Os34  1  0.000000  0.360711  0.680438  1
  Os  Os35  1  0.000000  0.139512  0.181325  1
