# generated using pymatgen
data_Dy10YTmIn20
_symmetry_space_group_name_H-M   'P 1'
_cell_length_a   6.52675302
_cell_length_b   10.42130563
_cell_length_c   12.26206784
_cell_angle_alpha   89.92053798
_cell_angle_beta   89.99725351
_cell_angle_gamma   90.01432655
_symmetry_Int_Tables_number   1
_chemical_formula_structural   Dy10YTmIn20
_chemical_formula_sum   'Dy10 Y1 Tm1 In20'
_cell_volume   834.03177172
_cell_formula_units_Z   1
loop_
 _symmetry_equiv_pos_site_id
 _symmetry_equiv_pos_as_xyz
  1  'x, y, z'
loop_
 _atom_site_type_symbol
 _atom_site_label
 _atom_site_symmetry_multiplicity
 _atom_site_fract_x
 _atom_site_fract_y
 _atom_site_fract_z
 _atom_site_occupancy
  Dy  Dy0  1  0.149206  0.749928  0.555568  1
  Dy  Dy1  1  0.649280  0.250217  0.944698  1
  Dy  Dy2  1  0.850789  0.249992  0.444697  1
  Dy  Dy3  1  0.890547  0.492235  0.142020  1
  Dy  Dy4  1  0.609339  0.007103  0.641823  1
  Dy  Dy5  1  0.110251  0.991810  0.858780  1
  Dy  Dy6  1  0.390018  0.507600  0.357894  1
  Dy  Dy7  1  0.110169  0.508204  0.858436  1
  Dy  Dy8  1  0.390384  0.992443  0.358320  1
  Dy  Dy9  1  0.890509  0.007792  0.141750  1
  Y  Y10  1  0.609853  0.492767  0.642434  1
  Tm  Tm11  1  0.349771  0.749869  0.054786  1
  In  In12  1  0.616409  0.750072  0.505131  1
  In  In13  1  0.885579  0.750108  0.006348  1
  In  In14  1  0.383095  0.249986  0.493933  1
  In  In15  1  0.116519  0.249988  0.994099  1
  In  In16  1  0.650391  0.750087  0.243793  1
  In  In17  1  0.847892  0.750552  0.745531  1
  In  In18  1  0.347472  0.249602  0.755232  1
  In  In19  1  0.152456  0.249861  0.254903  1
  In  In20  1  0.125002  0.750282  0.282169  1
  In  In21  1  0.375031  0.750193  0.783747  1
  In  In22  1  0.875616  0.249545  0.716787  1
  In  In23  1  0.624265  0.249830  0.216731  1
  In  In24  1  0.874526  0.543918  0.400306  1
  In  In25  1  0.625201  0.955941  0.900811  1
  In  In26  1  0.124966  0.043714  0.599520  1
  In  In27  1  0.374640  0.457070  0.099354  1
  In  In28  1  0.125360  0.455846  0.599200  1
  In  In29  1  0.374960  0.042656  0.099467  1
  In  In30  1  0.874995  0.956273  0.400315  1
  In  In31  1  0.625508  0.544514  0.901414  1
