# generated using pymatgen
data_Zr6Sc4Al12Ir2Pd3Pt2
_symmetry_space_group_name_H-M   'P 1'
_cell_length_a   8.93614108
_cell_length_b   8.93614186
_cell_length_c   8.95108100
_cell_angle_alpha   60.00212427
_cell_angle_beta   60.00206219
_cell_angle_gamma   60.04651207
_symmetry_Int_Tables_number   1
_chemical_formula_structural   Zr6Sc4Al12Ir2Pd3Pt2
_chemical_formula_sum   'Zr6 Sc4 Al12 Ir2 Pd3 Pt2'
_cell_volume   505.62290388
_cell_formula_units_Z   1
loop_
 _symmetry_equiv_pos_site_id
 _symmetry_equiv_pos_as_xyz
  1  'x, y, z'
loop_
 _atom_site_type_symbol
 _atom_site_label
 _atom_site_symmetry_multiplicity
 _atom_site_fract_x
 _atom_site_fract_y
 _atom_site_fract_z
 _atom_site_occupancy
  Zr  Zr0  1  0.682130  0.681169  0.315977  1
  Zr  Zr1  1  0.316426  0.686305  0.312967  1
  Zr  Zr2  1  0.686060  0.317411  0.313348  1
  Zr  Zr3  1  0.317998  0.318790  0.685262  1
  Zr  Zr4  1  0.682953  0.314479  0.687007  1
  Zr  Zr5  1  0.314672  0.681858  0.686813  1
  Sc  Sc6  1  0.881291  0.880922  0.357208  1
  Sc  Sc7  1  0.882247  0.357947  0.882349  1
  Sc  Sc8  1  0.358390  0.881778  0.882643  1
  Sc  Sc9  1  0.878620  0.878438  0.883977  1
  Al  Al10  1  0.120857  0.122138  0.634941  1
  Al  Al11  1  0.120134  0.633859  0.119571  1
  Al  Al12  1  0.634017  0.120484  0.118599  1
  Al  Al13  1  0.124556  0.124398  0.117825  1
  Al  Al14  1  0.663557  0.663546  0.012085  1
  Al  Al15  1  0.662458  0.011367  0.664487  1
  Al  Al16  1  0.011896  0.662326  0.664540  1
  Al  Al17  1  0.662055  0.662548  0.662627  1
  Al  Al18  1  0.335241  0.334959  0.992407  1
  Al  Al19  1  0.336716  0.991242  0.335176  1
  Al  Al20  1  0.991196  0.336594  0.335193  1
  Al  Al21  1  0.336701  0.336260  0.337125  1
  Ir  Ir22  1  0.000389  0.499117  0.000876  1
  Ir  Ir23  1  0.499036  0.000217  0.000699  1
  Pd  Pd24  1  0.000163  0.999382  0.000447  1
  Pd  Pd25  1  0.001355  0.001314  0.497825  1
  Pd  Pd26  1  0.499406  0.001279  0.498304  1
  Pt  Pt27  1  0.000571  0.500471  0.498591  1
  Pt  Pt28  1  0.498907  0.499399  0.001132  1
