# generated using pymatgen
data_Er10(IrAu)3
_symmetry_space_group_name_H-M   'P 1'
_cell_length_a   11.15168621
_cell_length_b   11.11343400
_cell_length_c   6.28936346
_cell_angle_alpha   90.00000000
_cell_angle_beta   89.73693074
_cell_angle_gamma   90.00000000
_symmetry_Int_Tables_number   1
_chemical_formula_structural   Er10(IrAu)3
_chemical_formula_sum   'Er20 Ir6 Au6'
_cell_volume   779.45479164
_cell_formula_units_Z   2
loop_
 _symmetry_equiv_pos_site_id
 _symmetry_equiv_pos_as_xyz
  1  'x, y, z'
loop_
 _atom_site_type_symbol
 _atom_site_label
 _atom_site_symmetry_multiplicity
 _atom_site_fract_x
 _atom_site_fract_y
 _atom_site_fract_z
 _atom_site_occupancy
  Er  Er0  1  0.300848  0.090295  0.364476  1
  Er  Er1  1  0.300848  0.909705  0.864476  1
  Er  Er2  1  0.696125  0.082402  0.858087  1
  Er  Er3  1  0.696125  0.917598  0.358087  1
  Er  Er4  1  0.574014  0.790334  0.861286  1
  Er  Er5  1  0.574014  0.209666  0.361286  1
  Er  Er6  1  0.411360  0.793353  0.375606  1
  Er  Er7  1  0.411360  0.206647  0.875606  1
  Er  Er8  1  0.212917  0.418883  0.627867  1
  Er  Er9  1  0.212917  0.581117  0.127867  1
  Er  Er10  1  0.799688  0.416833  0.135638  1
  Er  Er11  1  0.799688  0.583167  0.635638  1
  Er  Er12  1  0.921453  0.698892  0.138077  1
  Er  Er13  1  0.921453  0.301108  0.638077  1
  Er  Er14  1  0.095110  0.697770  0.639872  1
  Er  Er15  1  0.095110  0.302230  0.139872  1
  Er  Er16  1  0.998110  0.998358  0.500247  1
  Er  Er17  1  0.998110  0.001642  0.000247  1
  Er  Er18  1  0.492108  0.497481  0.998859  1
  Er  Er19  1  0.492108  0.502519  0.498859  1
  Ir  Ir20  1  0.346986  0.346050  0.250476  1
  Ir  Ir21  1  0.346986  0.653950  0.750476  1
  Ir  Ir22  1  0.498613  0.999593  0.110541  1
  Ir  Ir23  1  0.498613  0.000407  0.610541  1
  Ir  Ir24  1  0.000878  0.499921  0.889861  1
  Ir  Ir25  1  0.000878  0.500079  0.389861  1
  Au  Au26  1  0.840184  0.156098  0.252087  1
  Au  Au27  1  0.840184  0.843902  0.752087  1
  Au  Au28  1  0.155077  0.156517  0.749159  1
  Au  Au29  1  0.155077  0.843483  0.249159  1
  Au  Au30  1  0.656530  0.345339  0.747861  1
  Au  Au31  1  0.656530  0.654661  0.247861  1
