# generated using pymatgen
data_ErFe4ReP3
_symmetry_space_group_name_H-M   'P 1'
_cell_length_a   3.71833100
_cell_length_b   10.36913300
_cell_length_c   11.78995800
_cell_angle_alpha   90.00000000
_cell_angle_beta   90.00000000
_cell_angle_gamma   90.00000000
_symmetry_Int_Tables_number   1
_chemical_formula_structural   ErFe4ReP3
_chemical_formula_sum   'Er4 Fe16 Re4 P12'
_cell_volume   454.57207236
_cell_formula_units_Z   4
loop_
 _symmetry_equiv_pos_site_id
 _symmetry_equiv_pos_as_xyz
  1  'x, y, z'
loop_
 _atom_site_type_symbol
 _atom_site_label
 _atom_site_symmetry_multiplicity
 _atom_site_fract_x
 _atom_site_fract_y
 _atom_site_fract_z
 _atom_site_occupancy
  Er  Er0  1  0.250000  0.582045  0.704129  1
  Er  Er1  1  0.250000  0.917955  0.204129  1
  Er  Er2  1  0.750000  0.417955  0.295871  1
  Er  Er3  1  0.750000  0.082045  0.795871  1
  Fe  Fe4  1  0.250000  0.405240  0.489890  1
  Fe  Fe5  1  0.250000  0.094761  0.989890  1
  Fe  Fe6  1  0.750000  0.594760  0.510110  1
  Fe  Fe7  1  0.750000  0.905240  0.010110  1
  Fe  Fe8  1  0.250000  0.217219  0.178302  1
  Fe  Fe9  1  0.250000  0.282781  0.678302  1
  Fe  Fe10  1  0.750000  0.782781  0.821698  1
  Fe  Fe11  1  0.750000  0.717219  0.321698  1
  Fe  Fe12  1  0.250000  0.877410  0.701929  1
  Fe  Fe13  1  0.250000  0.622590  0.201929  1
  Fe  Fe14  1  0.750000  0.122590  0.298071  1
  Fe  Fe15  1  0.750000  0.377410  0.798071  1
  Fe  Fe16  1  0.250000  0.463027  0.933309  1
  Fe  Fe17  1  0.250000  0.036973  0.433309  1
  Fe  Fe18  1  0.750000  0.536973  0.066691  1
  Fe  Fe19  1  0.750000  0.963027  0.566691  1
  Re  Re20  1  0.250000  0.705553  0.986819  1
  Re  Re21  1  0.250000  0.794447  0.486819  1
  Re  Re22  1  0.750000  0.294447  0.013181  1
  Re  Re23  1  0.750000  0.205553  0.513181  1
  P  P24  1  0.250000  0.422580  0.115230  1
  P  P25  1  0.250000  0.077420  0.615230  1
  P  P26  1  0.750000  0.577420  0.884770  1
  P  P27  1  0.750000  0.922580  0.384770  1
  P  P28  1  0.250000  0.264432  0.870157  1
  P  P29  1  0.250000  0.235568  0.370157  1
  P  P30  1  0.750000  0.735568  0.129843  1
  P  P31  1  0.750000  0.764432  0.629843  1
  P  P32  1  0.250000  0.594010  0.394315  1
  P  P33  1  0.250000  0.905990  0.894315  1
  P  P34  1  0.750000  0.405990  0.605685  1
  P  P35  1  0.750000  0.094010  0.105685  1
