# generated using pymatgen
data_Nb12Al8CrCo3C4
_symmetry_space_group_name_H-M   'P 1'
_cell_length_a   8.26200592
_cell_length_b   8.26200782
_cell_length_c   8.23636000
_cell_angle_alpha   119.89736331
_cell_angle_beta   90.00000000
_cell_angle_gamma   120.20528225
_symmetry_Int_Tables_number   1
_chemical_formula_structural   Nb12Al8CrCo3C4
_chemical_formula_sum   'Nb12 Al8 Cr1 Co3 C4'
_cell_volume   396.92923937
_cell_formula_units_Z   1
loop_
 _symmetry_equiv_pos_site_id
 _symmetry_equiv_pos_as_xyz
  1  'x, y, z'
loop_
 _atom_site_type_symbol
 _atom_site_label
 _atom_site_symmetry_multiplicity
 _atom_site_fract_x
 _atom_site_fract_y
 _atom_site_fract_z
 _atom_site_occupancy
  Nb  Nb0  1  0.435004  0.749055  0.064996  1
  Nb  Nb1  1  0.821082  0.758113  0.079195  1
  Nb  Nb2  1  0.815944  0.129993  0.064996  1
  Nb  Nb3  1  0.564996  0.250947  0.315944  1
  Nb  Nb4  1  0.579195  0.642164  0.321082  1
  Nb  Nb5  1  0.178919  0.241889  0.321083  1
  Nb  Nb6  1  0.435004  0.749055  0.684057  1
  Nb  Nb7  1  0.821082  0.758113  0.678919  1
  Nb  Nb8  1  0.420805  0.357835  0.678919  1
  Nb  Nb9  1  0.564996  0.250947  0.935005  1
  Nb  Nb10  1  0.178919  0.241889  0.920807  1
  Nb  Nb11  1  0.184057  0.870009  0.935006  1
  Al  Al12  1  0.209556  0.580889  0.290444  1
  Al  Al13  1  0.880651  0.579048  0.289524  1
  Al  Al14  1  0.210476  0.908872  0.289524  1
  Al  Al15  1  0.789524  0.091128  0.380652  1
  Al  Al16  1  0.210476  0.908872  0.619348  1
  Al  Al17  1  0.119348  0.420951  0.710476  1
  Al  Al18  1  0.789524  0.091128  0.710476  1
  Al  Al19  1  0.790444  0.419110  0.709557  1
  Cr  Cr20  1  0.000000  0.000000  0.500000  1
  Co  Co21  1  0.000000  0.500000  0.000000  1
  Co  Co22  1  0.500000  0.000000  0.500000  1
  Co  Co23  1  0.000000  0.500000  0.500000  1
  C  C24  1  0.000000  0.000000  0.000000  1
  C  C25  1  0.500000  0.000000  0.000000  1
  C  C26  1  0.500000  0.500000  0.000000  1
  C  C27  1  0.500000  0.500000  0.500000  1
