# generated using pymatgen
data_BaEuVN3
_symmetry_space_group_name_H-M   'P 1'
_cell_length_a   6.35942778
_cell_length_b   6.35942718
_cell_length_c   12.43504900
_cell_angle_alpha   90.00000000
_cell_angle_beta   90.00000000
_cell_angle_gamma   54.64397977
_symmetry_Int_Tables_number   1
_chemical_formula_structural   BaEuVN3
_chemical_formula_sum   'Ba4 Eu4 V4 N12'
_cell_volume   410.15306049
_cell_formula_units_Z   4
loop_
 _symmetry_equiv_pos_site_id
 _symmetry_equiv_pos_as_xyz
  1  'x, y, z'
loop_
 _atom_site_type_symbol
 _atom_site_label
 _atom_site_symmetry_multiplicity
 _atom_site_fract_x
 _atom_site_fract_y
 _atom_site_fract_z
 _atom_site_occupancy
  Ba  Ba0  1  0.045927  0.045927  0.145378  1
  Ba  Ba1  1  0.454074  0.454074  0.645379  1
  Ba  Ba2  1  0.954073  0.954073  0.854622  1
  Ba  Ba3  1  0.545926  0.545926  0.354622  1
  Eu  Eu4  1  0.854242  0.854242  0.420313  1
  Eu  Eu5  1  0.645758  0.645758  0.920313  1
  Eu  Eu6  1  0.145758  0.145758  0.579687  1
  Eu  Eu7  1  0.354242  0.354242  0.079687  1
  V  V8  1  0.236872  0.236872  0.338164  1
  V  V9  1  0.263128  0.263128  0.838165  1
  V  V10  1  0.763129  0.763129  0.661835  1
  V  V11  1  0.736872  0.736872  0.161836  1
  N  N12  1  0.325674  0.325674  0.456240  1
  N  N13  1  0.174327  0.174327  0.956240  1
  N  N14  1  0.674326  0.674326  0.543760  1
  N  N15  1  0.825673  0.825673  0.043760  1
  N  N16  1  0.082490  0.082490  0.377804  1
  N  N17  1  0.417509  0.417509  0.877805  1
  N  N18  1  0.917509  0.917509  0.622195  1
  N  N19  1  0.582491  0.582491  0.122196  1
  N  N20  1  0.524984  0.024983  0.250000  1
  N  N21  1  0.975016  0.475016  0.750000  1
  N  N22  1  0.475016  0.975016  0.750000  1
  N  N23  1  0.024983  0.524984  0.250000  1
