# generated using pymatgen
data_Ho8In2NiRh
_symmetry_space_group_name_H-M   'P 1'
_cell_length_a   9.56776028
_cell_length_b   9.59187066
_cell_length_c   9.56776045
_cell_angle_alpha   59.91660671
_cell_angle_beta   60.11035813
_cell_angle_gamma   59.91660934
_symmetry_Int_Tables_number   1
_chemical_formula_structural   Ho8In2NiRh
_chemical_formula_sum   'Ho16 In4 Ni2 Rh2'
_cell_volume   620.61221214
_cell_formula_units_Z   2
loop_
 _symmetry_equiv_pos_site_id
 _symmetry_equiv_pos_as_xyz
  1  'x, y, z'
loop_
 _atom_site_type_symbol
 _atom_site_label
 _atom_site_symmetry_multiplicity
 _atom_site_fract_x
 _atom_site_fract_y
 _atom_site_fract_z
 _atom_site_occupancy
  Ho  Ho0  1  0.187674  0.188127  0.813022  1
  Ho  Ho1  1  0.597228  0.600159  0.202453  1
  Ho  Ho2  1  0.438773  0.061227  0.438773  1
  Ho  Ho3  1  0.439711  0.438841  0.062577  1
  Ho  Ho4  1  0.812201  0.187799  0.812201  1
  Ho  Ho5  1  0.188273  0.811727  0.188273  1
  Ho  Ho6  1  0.439711  0.058872  0.062577  1
  Ho  Ho7  1  0.187674  0.811178  0.813022  1
  Ho  Ho8  1  0.060053  0.439947  0.060053  1
  Ho  Ho9  1  0.813022  0.811178  0.187674  1
  Ho  Ho10  1  0.202453  0.600159  0.597228  1
  Ho  Ho11  1  0.062577  0.438841  0.439711  1
  Ho  Ho12  1  0.062577  0.058872  0.439711  1
  Ho  Ho13  1  0.813022  0.188127  0.187674  1
  Ho  Ho14  1  0.598100  0.203243  0.598100  1
  Ho  Ho15  1  0.598100  0.600556  0.598100  1
  In  In16  1  0.832732  0.832403  0.832732  1
  In  In17  1  0.832460  0.832519  0.502503  1
  In  In18  1  0.502503  0.832519  0.832460  1
  In  In19  1  0.832732  0.502133  0.832732  1
  Ni  Ni20  1  0.392021  0.822935  0.392021  1
  Ni  Ni21  1  0.392021  0.393022  0.392021  1
  Rh  Rh22  1  0.822635  0.392809  0.391746  1
  Rh  Rh23  1  0.391746  0.392809  0.822635  1
