# generated using pymatgen
data_Tb2Er6InAgIr2
_symmetry_space_group_name_H-M   'P 1'
_cell_length_a   9.57276506
_cell_length_b   9.53705883
_cell_length_c   9.55150700
_cell_angle_alpha   59.93873636
_cell_angle_beta   59.75439220
_cell_angle_gamma   59.81103174
_symmetry_Int_Tables_number   1
_chemical_formula_structural   Tb2Er6InAgIr2
_chemical_formula_sum   'Tb4 Er12 In2 Ag2 Ir4'
_cell_volume   614.29107711
_cell_formula_units_Z   2
loop_
 _symmetry_equiv_pos_site_id
 _symmetry_equiv_pos_as_xyz
  1  'x, y, z'
loop_
 _atom_site_type_symbol
 _atom_site_label
 _atom_site_symmetry_multiplicity
 _atom_site_fract_x
 _atom_site_fract_y
 _atom_site_fract_z
 _atom_site_occupancy
  Tb  Tb0  1  0.188272  0.189117  0.812339  1
  Tb  Tb1  1  0.440454  0.059432  0.059945  1
  Tb  Tb2  1  0.436191  0.059042  0.436900  1
  Tb  Tb3  1  0.064801  0.438366  0.058859  1
  Er  Er4  1  0.652018  0.050456  0.646626  1
  Er  Er5  1  0.190132  0.810715  0.811061  1
  Er  Er6  1  0.063824  0.057665  0.438906  1
  Er  Er7  1  0.807225  0.191855  0.192639  1
  Er  Er8  1  0.811967  0.810693  0.189988  1
  Er  Er9  1  0.650480  0.647486  0.052492  1
  Er  Er10  1  0.651925  0.650067  0.649374  1
  Er  Er11  1  0.060490  0.437600  0.436595  1
  Er  Er12  1  0.049519  0.649145  0.647757  1
  Er  Er13  1  0.811219  0.190428  0.810102  1
  Er  Er14  1  0.438311  0.439304  0.057783  1
  Er  Er15  1  0.188917  0.811378  0.189956  1
  In  In16  1  0.743288  0.421357  0.422086  1
  In  In17  1  0.417188  0.421381  0.420566  1
  Ag  Ag18  1  0.415411  0.748227  0.419150  1
  Ag  Ag19  1  0.417744  0.419087  0.748229  1
  Ir  Ir20  1  0.854895  0.426958  0.858294  1
  Ir  Ir21  1  0.858466  0.857396  0.425555  1
  Ir  Ir22  1  0.428463  0.854477  0.857961  1
  Ir  Ir23  1  0.858801  0.858367  0.856833  1
