# generated using pymatgen
data_Li4U2N5
_symmetry_space_group_name_H-M   'P 1'
_cell_length_a   4.32365400
_cell_length_b   7.45000178
_cell_length_c   4.42219800
_cell_angle_alpha   72.73498278
_cell_angle_beta   90.00000000
_cell_angle_gamma   90.00000000
_symmetry_Int_Tables_number   1
_chemical_formula_structural   Li4U2N5
_chemical_formula_sum   'Li4 U2 N5'
_cell_volume   136.02620220
_cell_formula_units_Z   1
loop_
 _symmetry_equiv_pos_site_id
 _symmetry_equiv_pos_as_xyz
  1  'x, y, z'
loop_
 _atom_site_type_symbol
 _atom_site_label
 _atom_site_symmetry_multiplicity
 _atom_site_fract_x
 _atom_site_fract_y
 _atom_site_fract_z
 _atom_site_occupancy
  Li  Li0  1  0.000000  0.000000  0.000000  1
  Li  Li1  1  0.000000  0.373527  0.313237  1
  Li  Li2  1  0.499999  0.000000  0.500001  1
  Li  Li3  1  0.000000  0.626473  0.686764  1
  U  U4  1  0.499999  0.690802  0.154600  1
  U  U5  1  0.499999  0.309197  0.845402  1
  N  N6  1  0.499999  0.000000  0.000000  1
  N  N7  1  0.000000  0.693420  0.153290  1
  N  N8  1  0.499999  0.358269  0.320866  1
  N  N9  1  0.499999  0.641731  0.679135  1
  N  N10  1  0.000000  0.306581  0.846711  1
