# generated using pymatgen
data_Y4Al18Pd3Ru2Rh
_symmetry_space_group_name_H-M   'P 1'
_cell_length_a   7.60002107
_cell_length_b   7.60002023
_cell_length_c   9.51063112
_cell_angle_alpha   89.89372516
_cell_angle_beta   89.89372046
_cell_angle_gamma   119.54087942
_symmetry_Int_Tables_number   1
_chemical_formula_structural   Y4Al18Pd3Ru2Rh
_chemical_formula_sum   'Y4 Al18 Pd3 Ru2 Rh1'
_cell_volume   477.92225447
_cell_formula_units_Z   1
loop_
 _symmetry_equiv_pos_site_id
 _symmetry_equiv_pos_as_xyz
  1  'x, y, z'
loop_
 _atom_site_type_symbol
 _atom_site_label
 _atom_site_symmetry_multiplicity
 _atom_site_fract_x
 _atom_site_fract_y
 _atom_site_fract_z
 _atom_site_occupancy
  Y  Y0  1  0.995435  0.670406  0.250292  1
  Y  Y1  1  0.005921  0.330657  0.750150  1
  Y  Y2  1  0.669343  0.994079  0.249850  1
  Y  Y3  1  0.329594  0.004565  0.749708  1
  Al  Al4  1  0.124789  0.126105  0.249329  1
  Al  Al5  1  0.873895  0.875211  0.750671  1
  Al  Al6  1  0.000743  0.329746  0.075669  1
  Al  Al7  1  0.998291  0.670924  0.923137  1
  Al  Al8  1  0.993860  0.662559  0.575055  1
  Al  Al9  1  0.337441  0.006140  0.424945  1
  Al  Al10  1  0.994899  0.330517  0.425134  1
  Al  Al11  1  0.669483  0.005101  0.574866  1
  Al  Al12  1  0.670254  0.999257  0.924331  1
  Al  Al13  1  0.329076  0.001709  0.076863  1
  Al  Al14  1  0.334827  0.329207  0.549905  1
  Al  Al15  1  0.670793  0.665173  0.450095  1
  Al  Al16  1  0.670955  0.671242  0.053934  1
  Al  Al17  1  0.328758  0.329045  0.946066  1
  Al  Al18  1  0.340782  0.545791  0.250179  1
  Al  Al19  1  0.658542  0.450604  0.745902  1
  Al  Al20  1  0.549396  0.341458  0.254098  1
  Al  Al21  1  0.454209  0.659218  0.749821  1
  Pd  Pd22  1  0.671738  0.328262  0.000000  1
  Pd  Pd23  1  0.327403  0.672597  0.000000  1
  Pd  Pd24  1  0.327974  0.672026  0.500000  1
  Ru  Ru25  1  0.671608  0.328392  0.500000  1
  Ru  Ru26  1  0.999655  0.000345  0.000000  1
  Rh  Rh27  1  0.000336  0.999664  0.500000  1
