# generated using pymatgen
data_Sm5Dy2Er(Si3Rh)4
_symmetry_space_group_name_H-M   'P 1'
_cell_length_a   8.21961100
_cell_length_b   8.21755458
_cell_length_c   8.07662400
_cell_angle_alpha   90.00000000
_cell_angle_beta   90.00000000
_cell_angle_gamma   120.00828248
_symmetry_Int_Tables_number   1
_chemical_formula_structural   Sm5Dy2Er(Si3Rh)4
_chemical_formula_sum   'Sm5 Dy2 Er1 Si12 Rh4'
_cell_volume   472.40893895
_cell_formula_units_Z   1
loop_
 _symmetry_equiv_pos_site_id
 _symmetry_equiv_pos_as_xyz
  1  'x, y, z'
loop_
 _atom_site_type_symbol
 _atom_site_label
 _atom_site_symmetry_multiplicity
 _atom_site_fract_x
 _atom_site_fract_y
 _atom_site_fract_z
 _atom_site_occupancy
  Sm  Sm0  1  0.999947  0.999893  0.250000  1
  Sm  Sm1  1  0.000038  0.000077  0.750000  1
  Sm  Sm2  1  0.495332  0.504759  0.250000  1
  Sm  Sm3  1  0.495329  0.990657  0.250000  1
  Sm  Sm4  1  0.009427  0.504759  0.250000  1
  Dy  Dy5  1  0.507100  0.492726  0.750000  1
  Dy  Dy6  1  0.985627  0.492726  0.750000  1
  Er  Er7  1  0.506971  0.013941  0.750000  1
  Si  Si8  1  0.833381  0.166232  0.504419  1
  Si  Si9  1  0.833676  0.667353  0.504054  1
  Si  Si10  1  0.332850  0.166232  0.504419  1
  Si  Si11  1  0.833381  0.166232  0.995581  1
  Si  Si12  1  0.833676  0.667353  0.995946  1
  Si  Si13  1  0.332850  0.166232  0.995581  1
  Si  Si14  1  0.168007  0.832285  0.997405  1
  Si  Si15  1  0.664278  0.832285  0.997405  1
  Si  Si16  1  0.167826  0.335651  0.997528  1
  Si  Si17  1  0.168007  0.832285  0.502595  1
  Si  Si18  1  0.664278  0.832285  0.502595  1
  Si  Si19  1  0.167826  0.335651  0.502472  1
  Rh  Rh20  1  0.666494  0.332987  0.490357  1
  Rh  Rh21  1  0.666494  0.332987  0.009643  1
  Rh  Rh22  1  0.333603  0.667207  0.960280  1
  Rh  Rh23  1  0.333603  0.667207  0.539720  1
