# generated using pymatgen
data_U4PaRe3C8
_symmetry_space_group_name_H-M   'P 1'
_cell_length_a   11.39212000
_cell_length_b   11.39212000
_cell_length_c   3.27457500
_cell_angle_alpha   90.00000000
_cell_angle_beta   90.00000000
_cell_angle_gamma   90.00000000
_symmetry_Int_Tables_number   1
_chemical_formula_structural   U4PaRe3C8
_chemical_formula_sum   'U8 Pa2 Re6 C16'
_cell_volume   424.97564709
_cell_formula_units_Z   2
loop_
 _symmetry_equiv_pos_site_id
 _symmetry_equiv_pos_as_xyz
  1  'x, y, z'
loop_
 _atom_site_type_symbol
 _atom_site_label
 _atom_site_symmetry_multiplicity
 _atom_site_fract_x
 _atom_site_fract_y
 _atom_site_fract_z
 _atom_site_occupancy
  U  U0  1  0.272804  0.542389  0.500000  1
  U  U1  1  0.727196  0.457611  0.500000  1
  U  U2  1  0.542389  0.727196  0.500000  1
  U  U3  1  0.772804  0.957611  0.500000  1
  U  U4  1  0.227196  0.042389  0.500000  1
  U  U5  1  0.957611  0.227196  0.500000  1
  U  U6  1  0.457611  0.272804  0.500000  1
  U  U7  1  0.042389  0.772804  0.500000  1
  Pa  Pa8  1  0.000000  0.500000  0.000000  1
  Pa  Pa9  1  0.500000  0.000000  0.000000  1
  Re  Re10  1  0.204591  0.295409  0.000000  1
  Re  Re11  1  0.704591  0.204591  0.000000  1
  Re  Re12  1  0.295409  0.795409  0.000000  1
  Re  Re13  1  0.500000  0.500000  0.000000  1
  Re  Re14  1  0.795409  0.704591  0.000000  1
  Re  Re15  1  0.000000  0.000000  0.000000  1
  C  C16  1  0.347956  0.402503  0.000000  1
  C  C17  1  0.618815  0.118815  0.500000  1
  C  C18  1  0.902503  0.847956  0.000000  1
  C  C19  1  0.655049  0.844951  0.000000  1
  C  C20  1  0.344951  0.155049  0.000000  1
  C  C21  1  0.118815  0.381185  0.500000  1
  C  C22  1  0.152044  0.902503  0.000000  1
  C  C23  1  0.844951  0.344951  0.000000  1
  C  C24  1  0.652044  0.597497  0.000000  1
  C  C25  1  0.597497  0.347956  0.000000  1
  C  C26  1  0.881185  0.618815  0.500000  1
  C  C27  1  0.847956  0.097497  0.000000  1
  C  C28  1  0.381185  0.881185  0.500000  1
  C  C29  1  0.155049  0.655049  0.000000  1
  C  C30  1  0.097497  0.152044  0.000000  1
  C  C31  1  0.402503  0.652044  0.000000  1
