# generated using pymatgen
data_Tb6YEr13Pt16
_symmetry_space_group_name_H-M   'P 1'
_cell_length_a   7.45240328
_cell_length_b   7.53051002
_cell_length_c   14.68765578
_cell_angle_alpha   90.01656534
_cell_angle_beta   90.04282723
_cell_angle_gamma   89.98489542
_symmetry_Int_Tables_number   1
_chemical_formula_structural   Tb6YEr13Pt16
_chemical_formula_sum   'Tb6 Y1 Er13 Pt16'
_cell_volume   824.27678822
_cell_formula_units_Z   1
loop_
 _symmetry_equiv_pos_site_id
 _symmetry_equiv_pos_as_xyz
  1  'x, y, z'
loop_
 _atom_site_type_symbol
 _atom_site_label
 _atom_site_symmetry_multiplicity
 _atom_site_fract_x
 _atom_site_fract_y
 _atom_site_fract_z
 _atom_site_occupancy
  Tb  Tb0  1  0.498723  0.679448  0.093229  1
  Tb  Tb1  1  0.501390  0.320625  0.593002  1
  Tb  Tb2  1  0.001311  0.179370  0.906921  1
  Tb  Tb3  1  0.000893  0.178533  0.592735  1
  Tb  Tb4  1  0.501412  0.320729  0.906874  1
  Tb  Tb5  1  0.498758  0.679624  0.407063  1
  Y  Y6  1  0.998739  0.820443  0.092984  1
  Er  Er7  1  0.681229  0.988945  0.250213  1
  Er  Er8  1  0.181001  0.511207  0.250245  1
  Er  Er9  1  0.818994  0.488907  0.749918  1
  Er  Er10  1  0.319001  0.011039  0.750055  1
  Er  Er11  1  0.655893  0.832228  0.622363  1
  Er  Er12  1  0.155894  0.667948  0.877638  1
  Er  Er13  1  0.844227  0.331944  0.377575  1
  Er  Er14  1  0.343814  0.167864  0.122466  1
  Er  Er15  1  0.343525  0.167547  0.377728  1
  Er  Er16  1  0.844187  0.331962  0.122526  1
  Er  Er17  1  0.155397  0.668387  0.622171  1
  Er  Er18  1  0.656019  0.832039  0.877734  1
  Er  Er19  1  0.997783  0.819535  0.406733  1
  Pt  Pt20  1  0.817494  0.642496  0.251068  1
  Pt  Pt21  1  0.315969  0.858224  0.250478  1
  Pt  Pt22  1  0.683537  0.141891  0.749727  1
  Pt  Pt23  1  0.183583  0.358308  0.749705  1
  Pt  Pt24  1  0.547230  0.385111  0.250197  1
  Pt  Pt25  1  0.046671  0.114517  0.250514  1
  Pt  Pt26  1  0.953152  0.884765  0.749878  1
  Pt  Pt27  1  0.453151  0.615303  0.749822  1
  Pt  Pt28  1  0.817615  0.534206  0.541351  1
  Pt  Pt29  1  0.317500  0.966597  0.958217  1
  Pt  Pt30  1  0.684396  0.032099  0.457881  1
  Pt  Pt31  1  0.182401  0.466822  0.041922  1
  Pt  Pt32  1  0.182003  0.468228  0.457689  1
  Pt  Pt33  1  0.682479  0.033503  0.041866  1
  Pt  Pt34  1  0.317176  0.966239  0.541328  1
  Pt  Pt35  1  0.817453  0.533365  0.958185  1
