# generated using pymatgen
data_Eu2FeN3
_symmetry_space_group_name_H-M   'P 1'
_cell_length_a   6.00675942
_cell_length_b   6.00675976
_cell_length_c   11.76630600
_cell_angle_alpha   90.00000000
_cell_angle_beta   90.00000000
_cell_angle_gamma   126.27120758
_symmetry_Int_Tables_number   1
_chemical_formula_structural   Eu2FeN3
_chemical_formula_sum   'Eu8 Fe4 N12'
_cell_volume   342.27664554
_cell_formula_units_Z   4
loop_
 _symmetry_equiv_pos_site_id
 _symmetry_equiv_pos_as_xyz
  1  'x, y, z'
loop_
 _atom_site_type_symbol
 _atom_site_label
 _atom_site_symmetry_multiplicity
 _atom_site_fract_x
 _atom_site_fract_y
 _atom_site_fract_z
 _atom_site_occupancy
  Eu  Eu0  1  0.054651  0.945349  0.855021  1
  Eu  Eu1  1  0.945349  0.054651  0.144979  1
  Eu  Eu2  1  0.445349  0.554651  0.355021  1
  Eu  Eu3  1  0.554651  0.445349  0.644979  1
  Eu  Eu4  1  0.642540  0.357460  0.073536  1
  Eu  Eu5  1  0.357460  0.642540  0.926464  1
  Eu  Eu6  1  0.857460  0.142540  0.573536  1
  Eu  Eu7  1  0.142540  0.857460  0.426464  1
  Fe  Fe8  1  0.743684  0.256316  0.837729  1
  Fe  Fe9  1  0.256316  0.743684  0.162271  1
  Fe  Fe10  1  0.756316  0.243684  0.337729  1
  Fe  Fe11  1  0.243684  0.756316  0.662271  1
  N  N12  1  0.571925  0.428075  0.867635  1
  N  N13  1  0.428075  0.571925  0.132365  1
  N  N14  1  0.928075  0.071925  0.367635  1
  N  N15  1  0.071925  0.928075  0.632365  1
  N  N16  1  0.519738  0.980262  0.750000  1
  N  N17  1  0.980262  0.519738  0.250000  1
  N  N18  1  0.480262  0.019738  0.250000  1
  N  N19  1  0.019738  0.480262  0.750000  1
  N  N20  1  0.844422  0.155578  0.962361  1
  N  N21  1  0.155578  0.844422  0.037639  1
  N  N22  1  0.655578  0.344422  0.462361  1
  N  N23  1  0.344422  0.655578  0.537639  1
