# generated using pymatgen
data_Ho4Re2(TcRu)3
_symmetry_space_group_name_H-M   'P 1'
_cell_length_a   5.38399029
_cell_length_b   5.18167577
_cell_length_c   9.11741600
_cell_angle_alpha   90.00000000
_cell_angle_beta   90.00000000
_cell_angle_gamma   120.21669923
_symmetry_Int_Tables_number   1
_chemical_formula_structural   Ho4Re2(TcRu)3
_chemical_formula_sum   'Ho4 Re2 Tc3 Ru3'
_cell_volume   219.79835116
_cell_formula_units_Z   1
loop_
 _symmetry_equiv_pos_site_id
 _symmetry_equiv_pos_as_xyz
  1  'x, y, z'
loop_
 _atom_site_type_symbol
 _atom_site_label
 _atom_site_symmetry_multiplicity
 _atom_site_fract_x
 _atom_site_fract_y
 _atom_site_fract_z
 _atom_site_occupancy
  Ho  Ho0  1  0.669526  0.335889  0.563412  1
  Ho  Ho1  1  0.328789  0.663057  0.434792  1
  Ho  Ho2  1  0.328789  0.663057  0.065208  1
  Ho  Ho3  1  0.669526  0.335889  0.936588  1
  Re  Re4  1  0.170629  0.339584  0.750000  1
  Re  Re5  1  0.837245  0.667557  0.250000  1
  Tc  Tc6  1  0.170639  0.828351  0.750000  1
  Tc  Tc7  1  0.655579  0.825710  0.750000  1
  Tc  Tc8  1  0.834848  0.175161  0.250000  1
  Ru  Ru9  1  0.991194  0.994124  0.498806  1
  Ru  Ru10  1  0.991194  0.994124  0.001194  1
  Ru  Ru11  1  0.352041  0.177496  0.250000  1
