# generated using pymatgen
data_Cu6GeWSe8
_symmetry_space_group_name_H-M   'P 1'
_cell_length_a   7.92803800
_cell_length_b   7.92803723
_cell_length_c   13.02021600
_cell_angle_alpha   90.00000000
_cell_angle_beta   90.00000000
_cell_angle_gamma   119.99999486
_symmetry_Int_Tables_number   1
_chemical_formula_structural   Cu6GeWSe8
_chemical_formula_sum   'Cu12 Ge2 W2 Se16'
_cell_volume   708.72907118
_cell_formula_units_Z   2
loop_
 _symmetry_equiv_pos_site_id
 _symmetry_equiv_pos_as_xyz
  1  'x, y, z'
loop_
 _atom_site_type_symbol
 _atom_site_label
 _atom_site_symmetry_multiplicity
 _atom_site_fract_x
 _atom_site_fract_y
 _atom_site_fract_z
 _atom_site_occupancy
  Cu  Cu0  1  0.835728  0.671456  0.102446  1
  Cu  Cu1  1  0.500481  0.499519  0.355898  1
  Cu  Cu2  1  0.000962  0.500481  0.855898  1
  Cu  Cu3  1  0.835728  0.164272  0.102446  1
  Cu  Cu4  1  0.499519  0.500481  0.855898  1
  Cu  Cu5  1  0.164272  0.328544  0.602446  1
  Cu  Cu6  1  0.500481  0.000962  0.355898  1
  Cu  Cu7  1  0.999038  0.499519  0.355898  1
  Cu  Cu8  1  0.164272  0.835728  0.602446  1
  Cu  Cu9  1  0.499519  0.999038  0.855898  1
  Cu  Cu10  1  0.671456  0.835728  0.602446  1
  Cu  Cu11  1  0.328544  0.164272  0.102446  1
  Ge  Ge12  1  0.000000  0.000000  0.851785  1
  Ge  Ge13  1  0.000000  0.000000  0.351785  1
  W  W14  1  0.333333  0.666667  0.481380  1
  W  W15  1  0.666667  0.333333  0.981380  1
  Se  Se16  1  0.000000  0.000000  0.038098  1
  Se  Se17  1  0.335738  0.167869  0.288984  1
  Se  Se18  1  0.832131  0.167869  0.288984  1
  Se  Se19  1  0.000709  0.500355  0.542287  1
  Se  Se20  1  0.832131  0.664262  0.288984  1
  Se  Se21  1  0.666667  0.333333  0.795893  1
  Se  Se22  1  0.167869  0.335738  0.788984  1
  Se  Se23  1  0.499645  0.500355  0.542287  1
  Se  Se24  1  0.000000  0.000000  0.538098  1
  Se  Se25  1  0.333333  0.666667  0.295893  1
  Se  Se26  1  0.999291  0.499645  0.042287  1
  Se  Se27  1  0.499645  0.999291  0.542287  1
  Se  Se28  1  0.167869  0.832131  0.788984  1
  Se  Se29  1  0.664262  0.832131  0.788984  1
  Se  Se30  1  0.500355  0.000709  0.042287  1
  Se  Se31  1  0.500355  0.499645  0.042287  1
