# generated using pymatgen
data_LiY4(InAu5)2
_symmetry_space_group_name_H-M   'P 1'
_cell_length_a   8.52766500
_cell_length_b   8.52767500
_cell_length_c   10.19343300
_cell_angle_alpha   90.00000000
_cell_angle_beta   90.00000000
_cell_angle_gamma   107.15799357
_symmetry_Int_Tables_number   1
_chemical_formula_structural   LiY4(InAu5)2
_chemical_formula_sum   'Li2 Y8 In4 Au20'
_cell_volume   708.28756843
_cell_formula_units_Z   2
loop_
 _symmetry_equiv_pos_site_id
 _symmetry_equiv_pos_as_xyz
  1  'x, y, z'
loop_
 _atom_site_type_symbol
 _atom_site_label
 _atom_site_symmetry_multiplicity
 _atom_site_fract_x
 _atom_site_fract_y
 _atom_site_fract_z
 _atom_site_occupancy
  Li  Li0  1  0.000000  0.000000  0.000000  1
  Li  Li1  1  0.500000  0.500000  0.500000  1
  Y  Y2  1  0.698685  0.301316  0.000000  1
  Y  Y3  1  0.198685  0.801316  0.500000  1
  Y  Y4  1  0.801054  0.801054  0.294093  1
  Y  Y5  1  0.301054  0.301054  0.205907  1
  Y  Y6  1  0.801315  0.198684  0.500000  1
  Y  Y7  1  0.301315  0.698684  0.000000  1
  Y  Y8  1  0.698946  0.698946  0.794093  1
  Y  Y9  1  0.198946  0.198946  0.705907  1
  In  In10  1  0.515008  0.015007  0.250000  1
  In  In11  1  0.984992  0.484993  0.750000  1
  In  In12  1  0.015008  0.515007  0.250000  1
  In  In13  1  0.484992  0.984993  0.750000  1
  Au  Au14  1  0.165893  0.433501  0.482820  1
  Au  Au15  1  0.902625  0.902625  0.593946  1
  Au  Au16  1  0.566500  0.834106  0.517181  1
  Au  Au17  1  0.887492  0.159417  0.205489  1
  Au  Au18  1  0.387492  0.659417  0.294511  1
  Au  Au19  1  0.659417  0.387492  0.294510  1
  Au  Au20  1  0.402625  0.402625  0.906054  1
  Au  Au21  1  0.933500  0.665894  0.017181  1
  Au  Au22  1  0.340583  0.612508  0.705490  1
  Au  Au23  1  0.334107  0.066499  0.982820  1
  Au  Au24  1  0.597375  0.597375  0.093946  1
  Au  Au25  1  0.665893  0.933501  0.017180  1
  Au  Au26  1  0.097375  0.097375  0.406054  1
  Au  Au27  1  0.612508  0.340583  0.705489  1
  Au  Au28  1  0.112508  0.840583  0.794511  1
  Au  Au29  1  0.066500  0.334106  0.982819  1
  Au  Au30  1  0.834107  0.566499  0.517180  1
  Au  Au31  1  0.159417  0.887492  0.205490  1
  Au  Au32  1  0.433500  0.165894  0.482819  1
  Au  Au33  1  0.840583  0.112508  0.794510  1
