# generated using pymatgen
data_Tb4ErTm15(CoSb2)4
_symmetry_space_group_name_H-M   'P 1'
_cell_length_a   7.79770302
_cell_length_b   8.74689500
_cell_length_c   12.06829703
_cell_angle_alpha   90.00000000
_cell_angle_beta   90.00823400
_cell_angle_gamma   90.00000000
_symmetry_Int_Tables_number   1
_chemical_formula_structural   Tb4ErTm15(CoSb2)4
_chemical_formula_sum   'Tb4 Er1 Tm15 Co4 Sb8'
_cell_volume   823.12651230
_cell_formula_units_Z   1
loop_
 _symmetry_equiv_pos_site_id
 _symmetry_equiv_pos_as_xyz
  1  'x, y, z'
loop_
 _atom_site_type_symbol
 _atom_site_label
 _atom_site_symmetry_multiplicity
 _atom_site_fract_x
 _atom_site_fract_y
 _atom_site_fract_z
 _atom_site_occupancy
  Tb  Tb0  1  0.623015  0.750000  0.306966  1
  Tb  Tb1  1  0.122833  0.250000  0.193025  1
  Tb  Tb2  1  0.377246  0.250000  0.692984  1
  Tb  Tb3  1  0.877297  0.750000  0.807050  1
  Er  Er4  1  0.155476  0.750000  0.203949  1
  Tm  Tm5  1  0.655222  0.250000  0.296474  1
  Tm  Tm6  1  0.844582  0.250000  0.796230  1
  Tm  Tm7  1  0.344643  0.750000  0.703675  1
  Tm  Tm8  1  0.449173  0.750000  0.997632  1
  Tm  Tm9  1  0.948704  0.250000  0.502400  1
  Tm  Tm10  1  0.551221  0.250000  0.002076  1
  Tm  Tm11  1  0.051005  0.750000  0.497935  1
  Tm  Tm12  1  0.823456  0.963644  0.065304  1
  Tm  Tm13  1  0.323543  0.036661  0.434605  1
  Tm  Tm14  1  0.176495  0.463370  0.934428  1
  Tm  Tm15  1  0.676390  0.536595  0.565475  1
  Tm  Tm16  1  0.176495  0.036630  0.934428  1
  Tm  Tm17  1  0.676390  0.963405  0.565475  1
  Tm  Tm18  1  0.823456  0.536356  0.065304  1
  Tm  Tm19  1  0.323543  0.463339  0.434605  1
  Co  Co20  1  0.432631  0.750000  0.491425  1
  Co  Co21  1  0.932798  0.250000  0.008435  1
  Co  Co22  1  0.567132  0.250000  0.508616  1
  Co  Co23  1  0.067156  0.750000  0.991352  1
  Sb  Sb24  1  0.930081  0.991946  0.328770  1
  Sb  Sb25  1  0.430793  0.008563  0.171295  1
  Sb  Sb26  1  0.069595  0.491627  0.671495  1
  Sb  Sb27  1  0.569582  0.508365  0.828517  1
  Sb  Sb28  1  0.069595  0.008373  0.671495  1
  Sb  Sb29  1  0.569582  0.991635  0.828517  1
  Sb  Sb30  1  0.930081  0.508054  0.328770  1
  Sb  Sb31  1  0.430793  0.491437  0.171295  1
