# generated using pymatgen
data_Tb8Hf9Si16W3
_symmetry_space_group_name_H-M   'P 1'
_cell_length_a   7.19758171
_cell_length_b   7.19758171
_cell_length_c   13.17906616
_cell_angle_alpha   90.11424787
_cell_angle_beta   90.11424787
_cell_angle_gamma   90.08831976
_symmetry_Int_Tables_number   1
_chemical_formula_structural   Tb8Hf9Si16W3
_chemical_formula_sum   'Tb8 Hf9 Si16 W3'
_cell_volume   682.74039671
_cell_formula_units_Z   1
loop_
 _symmetry_equiv_pos_site_id
 _symmetry_equiv_pos_as_xyz
  1  'x, y, z'
loop_
 _atom_site_type_symbol
 _atom_site_label
 _atom_site_symmetry_multiplicity
 _atom_site_fract_x
 _atom_site_fract_y
 _atom_site_fract_z
 _atom_site_occupancy
  Tb  Tb0  1  0.999473  0.343956  0.215361  1
  Tb  Tb1  1  0.003231  0.656919  0.714783  1
  Tb  Tb2  1  0.155269  0.499867  0.464149  1
  Tb  Tb3  1  0.500133  0.844731  0.035851  1
  Tb  Tb4  1  0.845817  0.501790  0.967689  1
  Tb  Tb5  1  0.498210  0.154183  0.532311  1
  Tb  Tb6  1  0.343081  0.996769  0.785217  1
  Tb  Tb7  1  0.656044  0.000527  0.284639  1
  Hf  Hf8  1  0.675087  0.324913  0.750000  1
  Hf  Hf9  1  0.147547  0.992834  0.373560  1
  Hf  Hf10  1  0.854322  0.004858  0.876530  1
  Hf  Hf11  1  0.505821  0.649909  0.621490  1
  Hf  Hf12  1  0.350091  0.494179  0.878510  1
  Hf  Hf13  1  0.492638  0.351888  0.125462  1
  Hf  Hf14  1  0.648112  0.507362  0.374538  1
  Hf  Hf15  1  0.995142  0.145678  0.623470  1
  Hf  Hf16  1  0.007166  0.852453  0.126440  1
  Si  Si17  1  0.361155  0.298083  0.316524  1
  Si  Si18  1  0.637567  0.705459  0.817324  1
  Si  Si19  1  0.203232  0.861738  0.565813  1
  Si  Si20  1  0.138262  0.796768  0.934187  1
  Si  Si21  1  0.797593  0.138046  0.066971  1
  Si  Si22  1  0.861954  0.202407  0.433029  1
  Si  Si23  1  0.294541  0.362433  0.682676  1
  Si  Si24  1  0.701917  0.638845  0.183476  1
  Si  Si25  1  0.295898  0.050032  0.184049  1
  Si  Si26  1  0.704946  0.947774  0.682086  1
  Si  Si27  1  0.449583  0.795375  0.432411  1
  Si  Si28  1  0.204625  0.550417  0.067589  1
  Si  Si29  1  0.546586  0.203030  0.936155  1
  Si  Si30  1  0.796970  0.453414  0.563845  1
  Si  Si31  1  0.052226  0.295054  0.817914  1
  Si  Si32  1  0.949968  0.704102  0.315951  1
  W  W33  1  0.176584  0.175105  0.001382  1
  W  W34  1  0.824895  0.823416  0.498618  1
  W  W35  1  0.324314  0.675686  0.250000  1
