# generated using pymatgen
data_Sr2Yb2Si10PdPt5
_symmetry_space_group_name_H-M   'P 1'
_cell_length_a   8.33009593
_cell_length_b   8.37204904
_cell_length_c   8.37204832
_cell_angle_alpha   138.28762869
_cell_angle_beta   105.32032701
_cell_angle_gamma   89.45951135
_symmetry_Int_Tables_number   1
_chemical_formula_structural   Sr2Yb2Si10PdPt5
_chemical_formula_sum   'Sr2 Yb2 Si10 Pd1 Pt5'
_cell_volume   358.29058899
_cell_formula_units_Z   1
loop_
 _symmetry_equiv_pos_site_id
 _symmetry_equiv_pos_as_xyz
  1  'x, y, z'
loop_
 _atom_site_type_symbol
 _atom_site_label
 _atom_site_symmetry_multiplicity
 _atom_site_fract_x
 _atom_site_fract_y
 _atom_site_fract_z
 _atom_site_occupancy
  Sr  Sr0  1  0.107554  0.370038  0.735194  1
  Sr  Sr1  1  0.892446  0.627640  0.262483  1
  Yb  Yb2  1  0.636298  0.871450  0.766139  1
  Yb  Yb3  1  0.363702  0.129841  0.235151  1
  Si  Si4  1  0.272134  0.019162  0.751861  1
  Si  Si5  1  0.728679  0.981668  0.248468  1
  Si  Si6  1  0.727866  0.479728  0.747028  1
  Si  Si7  1  0.271321  0.519789  0.252990  1
  Si  Si8  1  0.468470  0.619264  0.855189  1
  Si  Si9  1  0.531530  0.386719  0.150794  1
  Si  Si10  1  0.759585  0.108384  0.645398  1
  Si  Si11  1  0.240415  0.885811  0.348797  1
  Si  Si12  1  0.000000  0.748761  0.748761  1
  Si  Si13  1  0.000000  0.251021  0.251021  1
  Pd  Pd14  1  0.500000  0.250806  0.750806  1
  Pt  Pt15  1  0.253023  0.638009  0.616957  1
  Pt  Pt16  1  0.746977  0.363933  0.384985  1
  Pt  Pt17  1  0.021738  0.132420  0.887118  1
  Pt  Pt18  1  0.978262  0.865381  0.110682  1
  Pt  Pt19  1  0.500000  0.750175  0.250175  1
