# generated using pymatgen
data_Ca3Co8TcAs6
_symmetry_space_group_name_H-M   'P 1'
_cell_length_a   3.85044100
_cell_length_b   10.92841600
_cell_length_c   12.72420900
_cell_angle_alpha   90.00000000
_cell_angle_beta   90.00000000
_cell_angle_gamma   90.00000000
_symmetry_Int_Tables_number   1
_chemical_formula_structural   Ca3Co8TcAs6
_chemical_formula_sum   'Ca6 Co16 Tc2 As12'
_cell_volume   535.42480296
_cell_formula_units_Z   2
loop_
 _symmetry_equiv_pos_site_id
 _symmetry_equiv_pos_as_xyz
  1  'x, y, z'
loop_
 _atom_site_type_symbol
 _atom_site_label
 _atom_site_symmetry_multiplicity
 _atom_site_fract_x
 _atom_site_fract_y
 _atom_site_fract_z
 _atom_site_occupancy
  Ca  Ca0  1  0.000000  0.500000  0.526064  1
  Ca  Ca1  1  0.500000  0.000000  0.473936  1
  Ca  Ca2  1  0.500000  0.820293  0.205761  1
  Ca  Ca3  1  0.500000  0.179707  0.205761  1
  Ca  Ca4  1  0.000000  0.679707  0.794239  1
  Ca  Ca5  1  0.000000  0.320293  0.794239  1
  Co  Co6  1  0.500000  0.500000  0.699717  1
  Co  Co7  1  0.000000  0.000000  0.300283  1
  Co  Co8  1  0.000000  0.500000  0.987974  1
  Co  Co9  1  0.500000  0.000000  0.012026  1
  Co  Co10  1  0.500000  0.331828  0.993915  1
  Co  Co11  1  0.500000  0.668172  0.993915  1
  Co  Co12  1  0.000000  0.168172  0.006085  1
  Co  Co13  1  0.000000  0.831828  0.006085  1
  Co  Co14  1  0.500000  0.297955  0.431215  1
  Co  Co15  1  0.500000  0.702045  0.431215  1
  Co  Co16  1  0.000000  0.202045  0.568785  1
  Co  Co17  1  0.000000  0.797955  0.568785  1
  Co  Co18  1  0.500000  0.881383  0.706693  1
  Co  Co19  1  0.500000  0.118617  0.706693  1
  Co  Co20  1  0.000000  0.618617  0.293307  1
  Co  Co21  1  0.000000  0.381383  0.293307  1
  Tc  Tc22  1  0.500000  0.500000  0.153637  1
  Tc  Tc23  1  0.000000  0.000000  0.846363  1
  As  As24  1  0.500000  0.500000  0.880626  1
  As  As25  1  0.000000  0.000000  0.119374  1
  As  As26  1  0.500000  0.500000  0.347610  1
  As  As27  1  0.000000  0.000000  0.652390  1
  As  As28  1  0.500000  0.309588  0.617227  1
  As  As29  1  0.500000  0.690412  0.617227  1
  As  As30  1  0.000000  0.190412  0.382773  1
  As  As31  1  0.000000  0.809588  0.382773  1
  As  As32  1  0.500000  0.844940  0.890539  1
  As  As33  1  0.500000  0.155060  0.890539  1
  As  As34  1  0.000000  0.655060  0.109461  1
  As  As35  1  0.000000  0.344940  0.109461  1
