# generated using pymatgen
data_Tb7Tm3(InBi2)2
_symmetry_space_group_name_H-M   'P 1'
_cell_length_a   9.09889957
_cell_length_b   9.12366989
_cell_length_c   6.52661248
_cell_angle_alpha   90.01716709
_cell_angle_beta   90.02637705
_cell_angle_gamma   120.06610588
_symmetry_Int_Tables_number   1
_chemical_formula_structural   Tb7Tm3(InBi2)2
_chemical_formula_sum   'Tb7 Tm3 In2 Bi4'
_cell_volume   468.90739884
_cell_formula_units_Z   1
loop_
 _symmetry_equiv_pos_site_id
 _symmetry_equiv_pos_as_xyz
  1  'x, y, z'
loop_
 _atom_site_type_symbol
 _atom_site_label
 _atom_site_symmetry_multiplicity
 _atom_site_fract_x
 _atom_site_fract_y
 _atom_site_fract_z
 _atom_site_occupancy
  Tb  Tb0  1  0.660559  0.329021  0.502485  1
  Tb  Tb1  1  0.755448  0.763831  0.750178  1
  Tb  Tb2  1  0.244314  0.007972  0.750153  1
  Tb  Tb3  1  0.000107  0.236218  0.750166  1
  Tb  Tb4  1  0.239536  0.237937  0.249712  1
  Tb  Tb5  1  0.760564  0.998427  0.249695  1
  Tb  Tb6  1  0.999826  0.760086  0.249889  1
  Tm  Tm7  1  0.660087  0.328649  0.996770  1
  Tm  Tm8  1  0.339835  0.668581  0.996679  1
  Tm  Tm9  1  0.340079  0.668690  0.503551  1
  In  In10  1  0.393905  0.396494  0.750927  1
  In  In11  1  0.605012  0.000605  0.751069  1
  Bi  Bi12  1  0.000762  0.609383  0.750700  1
  Bi  Bi13  1  0.606241  0.604235  0.249278  1
  Bi  Bi14  1  0.392857  0.996200  0.249292  1
  Bi  Bi15  1  0.000867  0.393670  0.249458  1
