# generated using pymatgen
data_SrMnClO2
_symmetry_space_group_name_H-M   'P 1'
_cell_length_a   6.70895410
_cell_length_b   6.70895527
_cell_length_c   5.54043900
_cell_angle_alpha   90.00000000
_cell_angle_beta   90.00000000
_cell_angle_gamma   129.30297647
_symmetry_Int_Tables_number   1
_chemical_formula_structural   SrMnClO2
_chemical_formula_sum   'Sr2 Mn2 Cl2 O4'
_cell_volume   192.96863283
_cell_formula_units_Z   2
loop_
 _symmetry_equiv_pos_site_id
 _symmetry_equiv_pos_as_xyz
  1  'x, y, z'
loop_
 _atom_site_type_symbol
 _atom_site_label
 _atom_site_symmetry_multiplicity
 _atom_site_fract_x
 _atom_site_fract_y
 _atom_site_fract_z
 _atom_site_occupancy
  Sr  Sr0  1  0.379735  0.620264  0.249999  1
  Sr  Sr1  1  0.620264  0.379735  0.749999  1
  Mn  Mn2  1  0.008802  0.991197  0.249999  1
  Mn  Mn3  1  0.991197  0.008802  0.749999  1
  Cl  Cl4  1  0.757669  0.242330  0.249999  1
  Cl  Cl5  1  0.242330  0.757669  0.749999  1
  O  O6  1  0.228622  0.228622  0.000000  1
  O  O7  1  0.771377  0.771377  0.000000  1
  O  O8  1  0.228622  0.228622  0.500000  1
  O  O9  1  0.771377  0.771377  0.500000  1
