# generated using pymatgen
data_BaCr2AgF9
_symmetry_space_group_name_H-M   'P 1'
_cell_length_a   7.45379226
_cell_length_b   7.45379132
_cell_length_c   7.90573448
_cell_angle_alpha   89.02381944
_cell_angle_beta   89.02382411
_cell_angle_gamma   118.78631364
_symmetry_Int_Tables_number   1
_chemical_formula_structural   BaCr2AgF9
_chemical_formula_sum   'Ba2 Cr4 Ag2 F18'
_cell_volume   384.73935073
_cell_formula_units_Z   2
loop_
 _symmetry_equiv_pos_site_id
 _symmetry_equiv_pos_as_xyz
  1  'x, y, z'
loop_
 _atom_site_type_symbol
 _atom_site_label
 _atom_site_symmetry_multiplicity
 _atom_site_fract_x
 _atom_site_fract_y
 _atom_site_fract_z
 _atom_site_occupancy
  Ba  Ba0  1  0.473672  0.526328  0.750000  1
  Ba  Ba1  1  0.526328  0.473672  0.250000  1
  Cr  Cr2  1  0.000000  0.000000  0.500000  1
  Cr  Cr3  1  0.000000  0.000000  0.000000  1
  Cr  Cr4  1  0.500000  0.000000  0.500000  1
  Cr  Cr5  1  0.000000  0.500000  0.000000  1
  Ag  Ag6  1  0.500000  0.000000  0.000000  1
  Ag  Ag7  1  0.000000  0.500000  0.500000  1
  F  F8  1  0.205258  0.912119  0.536682  1
  F  F9  1  0.794742  0.087881  0.463318  1
  F  F10  1  0.087881  0.794742  0.963318  1
  F  F11  1  0.912119  0.205258  0.036682  1
  F  F12  1  0.978906  0.021094  0.750000  1
  F  F13  1  0.021094  0.978906  0.250000  1
  F  F14  1  0.514232  0.907020  0.726912  1
  F  F15  1  0.485768  0.092980  0.273088  1
  F  F16  1  0.092980  0.485768  0.773088  1
  F  F17  1  0.907020  0.514232  0.226912  1
  F  F18  1  0.575904  0.278605  0.563860  1
  F  F19  1  0.424096  0.721395  0.436140  1
  F  F20  1  0.721395  0.424096  0.936140  1
  F  F21  1  0.278605  0.575904  0.063860  1
  F  F22  1  0.715370  0.791170  0.014442  1
  F  F23  1  0.284630  0.208830  0.985558  1
  F  F24  1  0.208830  0.284630  0.485558  1
  F  F25  1  0.791170  0.715370  0.514442  1
