# generated using pymatgen
data_NdBiMoO6
_symmetry_space_group_name_H-M   'P 1'
_cell_length_a   10.42913971
_cell_length_b   10.42913946
_cell_length_c   5.69101964
_cell_angle_alpha   73.52798996
_cell_angle_beta   73.52798469
_cell_angle_gamma   67.33974252
_symmetry_Int_Tables_number   1
_chemical_formula_structural   NdBiMoO6
_chemical_formula_sum   'Nd4 Bi4 Mo4 O24'
_cell_volume   537.03726010
_cell_formula_units_Z   4
loop_
 _symmetry_equiv_pos_site_id
 _symmetry_equiv_pos_as_xyz
  1  'x, y, z'
loop_
 _atom_site_type_symbol
 _atom_site_label
 _atom_site_symmetry_multiplicity
 _atom_site_fract_x
 _atom_site_fract_y
 _atom_site_fract_z
 _atom_site_occupancy
  Nd  Nd0  1  0.630068  0.369932  0.750000  1
  Nd  Nd1  1  0.369932  0.630068  0.250000  1
  Nd  Nd2  1  0.121389  0.878611  0.750000  1
  Nd  Nd3  1  0.878611  0.121389  0.250000  1
  Bi  Bi4  1  0.725040  0.949394  0.868667  1
  Bi  Bi5  1  0.274960  0.050606  0.131333  1
  Bi  Bi6  1  0.050606  0.274960  0.631333  1
  Bi  Bi7  1  0.949394  0.725040  0.368667  1
  Mo  Mo8  1  0.520429  0.791208  0.560240  1
  Mo  Mo9  1  0.479571  0.208792  0.439760  1
  Mo  Mo10  1  0.208792  0.479571  0.939760  1
  Mo  Mo11  1  0.791208  0.520429  0.060240  1
  O  O12  1  0.705383  0.156540  0.616607  1
  O  O13  1  0.294617  0.843460  0.383393  1
  O  O14  1  0.843460  0.294617  0.883393  1
  O  O15  1  0.156540  0.705383  0.116607  1
  O  O16  1  0.378756  0.821637  0.838098  1
  O  O17  1  0.621244  0.178363  0.161902  1
  O  O18  1  0.178363  0.621244  0.661902  1
  O  O19  1  0.821637  0.378756  0.338098  1
  O  O20  1  0.678275  0.774895  0.648472  1
  O  O21  1  0.321725  0.225105  0.351528  1
  O  O22  1  0.225105  0.321725  0.851528  1
  O  O23  1  0.774895  0.678275  0.148472  1
  O  O24  1  0.482628  0.068784  0.712090  1
  O  O25  1  0.517372  0.931216  0.287910  1
  O  O26  1  0.931216  0.517372  0.787910  1
  O  O27  1  0.068784  0.482628  0.212090  1
  O  O28  1  0.541443  0.617754  0.505793  1
  O  O29  1  0.458557  0.382246  0.494207  1
  O  O30  1  0.382246  0.458557  0.994207  1
  O  O31  1  0.617754  0.541443  0.005793  1
  O  O32  1  0.888960  0.927654  0.075688  1
  O  O33  1  0.111040  0.072346  0.924312  1
  O  O34  1  0.072346  0.111040  0.424312  1
  O  O35  1  0.927654  0.888960  0.575688  1
