# generated using pymatgen
data_Hf10ZnSn5Sb2
_symmetry_space_group_name_H-M   'P 1'
_cell_length_a   5.86382717
_cell_length_b   8.70336005
_cell_length_c   8.69559187
_cell_angle_alpha   120.02956281
_cell_angle_beta   89.99312033
_cell_angle_gamma   90.01373499
_symmetry_Int_Tables_number   1
_chemical_formula_structural   Hf10ZnSn5Sb2
_chemical_formula_sum   'Hf10 Zn1 Sn5 Sb2'
_cell_volume   384.20979058
_cell_formula_units_Z   1
loop_
 _symmetry_equiv_pos_site_id
 _symmetry_equiv_pos_as_xyz
  1  'x, y, z'
loop_
 _atom_site_type_symbol
 _atom_site_label
 _atom_site_symmetry_multiplicity
 _atom_site_fract_x
 _atom_site_fract_y
 _atom_site_fract_z
 _atom_site_occupancy
  Hf  Hf0  1  0.499413  0.333855  0.667323  1
  Hf  Hf1  1  0.499413  0.666532  0.332677  1
  Hf  Hf2  1  0.000380  0.666522  0.332584  1
  Hf  Hf3  1  0.000380  0.333939  0.667416  1
  Hf  Hf4  1  0.734025  0.274846  0.000000  1
  Hf  Hf5  1  0.734212  0.725729  0.726410  1
  Hf  Hf6  1  0.734212  0.999320  0.273590  1
  Hf  Hf7  1  0.266043  0.724639  0.000000  1
  Hf  Hf8  1  0.266376  0.275042  0.274865  1
  Hf  Hf9  1  0.266376  0.000177  0.725135  1
  Zn  Zn10  1  0.499028  0.000642  0.000000  1
  Sn  Sn11  1  0.754300  0.388266  0.388149  1
  Sn  Sn12  1  0.754300  0.000117  0.611851  1
  Sn  Sn13  1  0.245724  0.386883  0.000000  1
  Sn  Sn14  1  0.246042  0.612258  0.611741  1
  Sn  Sn15  1  0.246042  0.000517  0.388259  1
  Sb  Sb16  1  0.752807  0.610417  0.000000  1
  Sb  Sb17  1  0.000931  0.000301  0.000000  1
