# generated using pymatgen
data_MnTl2GaF7
_symmetry_space_group_name_H-M   'P 1'
_cell_length_a   7.92100579
_cell_length_b   7.92100587
_cell_length_c   7.92100600
_cell_angle_alpha   120.43244054
_cell_angle_beta   115.90300341
_cell_angle_gamma   93.24633761
_symmetry_Int_Tables_number   1
_chemical_formula_structural   MnTl2GaF7
_chemical_formula_sum   'Mn2 Tl4 Ga2 F14'
_cell_volume   359.86831413
_cell_formula_units_Z   2
loop_
 _symmetry_equiv_pos_site_id
 _symmetry_equiv_pos_as_xyz
  1  'x, y, z'
loop_
 _atom_site_type_symbol
 _atom_site_label
 _atom_site_symmetry_multiplicity
 _atom_site_fract_x
 _atom_site_fract_y
 _atom_site_fract_z
 _atom_site_occupancy
  Mn  Mn0  1  0.500000  0.500000  0.500000  1
  Mn  Mn1  1  0.500000  0.000000  0.000000  1
  Tl  Tl2  1  0.500000  0.500000  0.000000  1
  Tl  Tl3  1  0.000000  0.000000  0.000000  1
  Tl  Tl4  1  0.000000  0.500000  0.000000  1
  Tl  Tl5  1  0.000000  0.000000  0.500000  1
  Ga  Ga6  1  0.000000  0.500000  0.500000  1
  Ga  Ga7  1  0.500000  0.000000  0.500000  1
  F  F8  1  0.883257  0.581852  0.301404  1
  F  F9  1  0.219551  0.918148  0.301404  1
  F  F10  1  0.186113  0.789295  0.751587  1
  F  F11  1  0.462292  0.710705  0.396816  1
  F  F12  1  0.462292  0.065476  0.751587  1
  F  F13  1  0.186113  0.434524  0.396816  1
  F  F14  1  0.813887  0.565476  0.603184  1
  F  F15  1  0.537708  0.934524  0.248413  1
  F  F16  1  0.537708  0.289295  0.603184  1
  F  F17  1  0.813887  0.210705  0.248413  1
  F  F18  1  0.400523  0.250000  0.150523  1
  F  F19  1  0.116743  0.418148  0.698596  1
  F  F20  1  0.780449  0.081852  0.698596  1
  F  F21  1  0.599477  0.750000  0.849477  1
