# generated using pymatgen
data_Pr2YPaPt4
_symmetry_space_group_name_H-M   'P 1'
_cell_length_a   4.60121700
_cell_length_b   5.70697437
_cell_length_c   7.22525168
_cell_angle_alpha   88.56753682
_cell_angle_beta   90.00000000
_cell_angle_gamma   90.00000000
_symmetry_Int_Tables_number   1
_chemical_formula_structural   Pr2YPaPt4
_chemical_formula_sum   'Pr2 Y1 Pa1 Pt4'
_cell_volume   189.66879000
_cell_formula_units_Z   1
loop_
 _symmetry_equiv_pos_site_id
 _symmetry_equiv_pos_as_xyz
  1  'x, y, z'
loop_
 _atom_site_type_symbol
 _atom_site_label
 _atom_site_symmetry_multiplicity
 _atom_site_fract_x
 _atom_site_fract_y
 _atom_site_fract_z
 _atom_site_occupancy
  Pr  Pr0  1  0.750000  0.355384  0.817622  1
  Pr  Pr1  1  0.250000  0.859319  0.683619  1
  Y  Y2  1  0.750000  0.145510  0.318124  1
  Pa  Pa3  1  0.250000  0.643374  0.183662  1
  Pt  Pt4  1  0.250000  0.158831  0.065814  1
  Pt  Pt5  1  0.750000  0.829212  0.980848  1
  Pt  Pt6  1  0.750000  0.655933  0.429821  1
  Pt  Pt7  1  0.250000  0.352439  0.520490  1
