# generated using pymatgen
data_SmPa3CdO10
_symmetry_space_group_name_H-M   'P 1'
_cell_length_a   6.66777177
_cell_length_b   6.66777362
_cell_length_c   6.63673377
_cell_angle_alpha   100.30628600
_cell_angle_beta   98.93291440
_cell_angle_gamma   131.86429678
_symmetry_Int_Tables_number   1
_chemical_formula_structural   SmPa3CdO10
_chemical_formula_sum   'Sm1 Pa3 Cd1 O10'
_cell_volume   200.43045044
_cell_formula_units_Z   1
loop_
 _symmetry_equiv_pos_site_id
 _symmetry_equiv_pos_as_xyz
  1  'x, y, z'
loop_
 _atom_site_type_symbol
 _atom_site_label
 _atom_site_symmetry_multiplicity
 _atom_site_fract_x
 _atom_site_fract_y
 _atom_site_fract_z
 _atom_site_occupancy
  Sm  Sm0  1  0.002296  0.002930  0.005226  1
  Pa  Pa1  1  0.796930  0.598292  0.395223  1
  Pa  Pa2  1  0.198772  0.400974  0.599746  1
  Pa  Pa3  1  0.603357  0.198883  0.802239  1
  Cd  Cd4  1  0.398841  0.798227  0.197068  1
  O  O5  1  0.240023  0.748055  0.510006  1
  O  O6  1  0.642403  0.535820  0.693810  1
  O  O7  1  0.033538  0.336499  0.877868  1
  O  O8  1  0.466267  0.169463  0.098346  1
  O  O9  1  0.865242  0.958081  0.320219  1
  O  O10  1  0.362139  0.454978  0.320219  1
  O  O11  1  0.761952  0.269985  0.510006  1
  O  O12  1  0.157990  0.051407  0.693811  1
  O  O13  1  0.541368  0.844328  0.877869  1
  O  O14  1  0.928883  0.632079  0.098345  1
