# generated using pymatgen
data_Dy10In2SnBi3
_symmetry_space_group_name_H-M   'P 1'
_cell_length_a   9.05778100
_cell_length_b   9.06864162
_cell_length_c   6.57550900
_cell_angle_alpha   90.00000000
_cell_angle_beta   90.00000000
_cell_angle_gamma   119.96038790
_symmetry_Int_Tables_number   1
_chemical_formula_structural   Dy10In2SnBi3
_chemical_formula_sum   'Dy10 In2 Sn1 Bi3'
_cell_volume   467.94765747
_cell_formula_units_Z   1
loop_
 _symmetry_equiv_pos_site_id
 _symmetry_equiv_pos_as_xyz
  1  'x, y, z'
loop_
 _atom_site_type_symbol
 _atom_site_label
 _atom_site_symmetry_multiplicity
 _atom_site_fract_x
 _atom_site_fract_y
 _atom_site_fract_z
 _atom_site_occupancy
  Dy  Dy0  1  0.992306  0.757762  0.750000  1
  Dy  Dy1  1  0.995078  0.234130  0.250000  1
  Dy  Dy2  1  0.760948  0.765870  0.250000  1
  Dy  Dy3  1  0.764069  0.000000  0.750000  1
  Dy  Dy4  1  0.234543  0.242238  0.750000  1
  Dy  Dy5  1  0.240202  0.000000  0.250000  1
  Dy  Dy6  1  0.336370  0.665681  0.501886  1
  Dy  Dy7  1  0.670690  0.334319  0.998114  1
  Dy  Dy8  1  0.670690  0.334319  0.501886  1
  Dy  Dy9  1  0.336370  0.665681  0.998114  1
  In  In10  1  0.001337  0.395835  0.750000  1
  In  In11  1  0.605501  0.604165  0.750000  1
  Sn  Sn12  1  0.604253  0.000000  0.250000  1
  Bi  Bi13  1  0.391017  0.000000  0.750000  1
  Bi  Bi14  1  0.394172  0.391717  0.250000  1
  Bi  Bi15  1  0.002454  0.608283  0.250000  1
