# generated using pymatgen
data_Tb5DyY2(ReB6)4
_symmetry_space_group_name_H-M   'P 1'
_cell_length_a   3.69545500
_cell_length_b   9.19880804
_cell_length_c   11.59013000
_cell_angle_alpha   90.00403273
_cell_angle_beta   90.00000000
_cell_angle_gamma   90.00000000
_symmetry_Int_Tables_number   1
_chemical_formula_structural   Tb5DyY2(ReB6)4
_chemical_formula_sum   'Tb5 Dy1 Y2 Re4 B24'
_cell_volume   393.99234214
_cell_formula_units_Z   1
loop_
 _symmetry_equiv_pos_site_id
 _symmetry_equiv_pos_as_xyz
  1  'x, y, z'
loop_
 _atom_site_type_symbol
 _atom_site_label
 _atom_site_symmetry_multiplicity
 _atom_site_fract_x
 _atom_site_fract_y
 _atom_site_fract_z
 _atom_site_occupancy
  Tb  Tb0  1  0.000000  0.323746  0.413951  1
  Tb  Tb1  1  0.000000  0.676176  0.586151  1
  Tb  Tb2  1  0.000000  0.823704  0.085998  1
  Tb  Tb3  1  0.000000  0.176337  0.913875  1
  Tb  Tb4  1  0.000000  0.943040  0.370051  1
  Dy  Dy5  1  0.000000  0.557054  0.869883  1
  Y  Y6  1  0.000000  0.056989  0.630163  1
  Y  Y7  1  0.000000  0.443085  0.129812  1
  Re  Re8  1  0.000000  0.638417  0.320876  1
  Re  Re9  1  0.000000  0.361545  0.679341  1
  Re  Re10  1  0.000000  0.138735  0.178999  1
  Re  Re11  1  0.000000  0.861200  0.820991  1
  B  B12  1  0.500000  0.553242  0.432639  1
  B  B13  1  0.500000  0.446453  0.567432  1
  B  B14  1  0.500000  0.053579  0.067215  1
  B  B15  1  0.500000  0.946481  0.932622  1
  B  B16  1  0.500000  0.748320  0.418165  1
  B  B17  1  0.500000  0.251278  0.581811  1
  B  B18  1  0.500000  0.248892  0.081614  1
  B  B19  1  0.500000  0.751106  0.918157  1
  B  B20  1  0.500000  0.791403  0.265601  1
  B  B21  1  0.500000  0.208310  0.734475  1
  B  B22  1  0.500000  0.291905  0.234292  1
  B  B23  1  0.500000  0.708206  0.765750  1
  B  B24  1  0.500000  0.630882  0.185763  1
  B  B25  1  0.500000  0.369175  0.814119  1
  B  B26  1  0.500000  0.131280  0.313878  1
  B  B27  1  0.500000  0.868916  0.685960  1
  B  B28  1  0.500000  0.983022  0.211712  1
  B  B29  1  0.500000  0.017223  0.788206  1
  B  B30  1  0.500000  0.482609  0.288073  1
  B  B31  1  0.500000  0.517250  0.711997  1
  B  B32  1  0.500000  0.599911  0.027854  1
  B  B33  1  0.500000  0.400193  0.971909  1
  B  B34  1  0.500000  0.100577  0.472234  1
  B  B35  1  0.500000  0.899758  0.528427  1
