# generated using pymatgen
data_K4Cu2(TcH9)3
_symmetry_space_group_name_H-M   'P 1'
_cell_length_a   10.32753850
_cell_length_b   10.32753841
_cell_length_c   5.19613200
_cell_angle_alpha   90.00000000
_cell_angle_beta   90.00000000
_cell_angle_gamma   123.63495133
_symmetry_Int_Tables_number   1
_chemical_formula_structural   K4Cu2(TcH9)3
_chemical_formula_sum   'K4 Cu2 Tc3 H27'
_cell_volume   461.42553104
_cell_formula_units_Z   1
loop_
 _symmetry_equiv_pos_site_id
 _symmetry_equiv_pos_as_xyz
  1  'x, y, z'
loop_
 _atom_site_type_symbol
 _atom_site_label
 _atom_site_symmetry_multiplicity
 _atom_site_fract_x
 _atom_site_fract_y
 _atom_site_fract_z
 _atom_site_occupancy
  K  K0  1  0.264102  0.982446  0.500000  1
  K  K1  1  0.982446  0.264102  0.500000  1
  K  K2  1  0.766874  0.766874  0.500000  1
  K  K3  1  0.384427  0.384427  0.000000  1
  Cu  Cu4  1  0.362432  0.693088  0.000000  1
  Cu  Cu5  1  0.693088  0.362432  0.000000  1
  Tc  Tc6  1  0.018164  0.018164  0.000000  1
  Tc  Tc7  1  0.360246  0.676876  0.500000  1
  Tc  Tc8  1  0.676876  0.360246  0.500000  1
  H  H9  1  0.885891  0.018744  0.189108  1
  H  H10  1  0.018744  0.885891  0.189108  1
  H  H11  1  0.885891  0.018744  0.810892  1
  H  H12  1  0.018744  0.885891  0.810892  1
  H  H13  1  0.097009  0.097009  0.284859  1
  H  H14  1  0.097009  0.097009  0.715141  1
  H  H15  1  0.208134  0.073619  0.000000  1
  H  H16  1  0.073619  0.208134  0.000000  1
  H  H17  1  0.848523  0.848523  0.000000  1
  H  H18  1  0.239875  0.553510  0.260177  1
  H  H19  1  0.485920  0.695244  0.262804  1
  H  H20  1  0.239875  0.553510  0.739823  1
  H  H21  1  0.553510  0.239875  0.739823  1
  H  H22  1  0.358211  0.796940  0.272133  1
  H  H23  1  0.485920  0.695244  0.737196  1
  H  H24  1  0.695244  0.485920  0.737196  1
  H  H25  1  0.553510  0.239875  0.260177  1
  H  H26  1  0.358211  0.796940  0.727867  1
  H  H27  1  0.695244  0.485920  0.262804  1
  H  H28  1  0.796940  0.358211  0.727867  1
  H  H29  1  0.796940  0.358211  0.272133  1
  H  H30  1  0.363787  0.516248  0.500000  1
  H  H31  1  0.523415  0.853021  0.500000  1
  H  H32  1  0.516248  0.363787  0.500000  1
  H  H33  1  0.187822  0.654088  0.500000  1
  H  H34  1  0.853021  0.523415  0.500000  1
  H  H35  1  0.654088  0.187822  0.500000  1
