# generated using pymatgen
data_Y12Tm4MgHg3Rh4
_symmetry_space_group_name_H-M   'P 1'
_cell_length_a   9.62195472
_cell_length_b   9.60193235
_cell_length_c   9.60193300
_cell_angle_alpha   60.00000119
_cell_angle_beta   60.06881312
_cell_angle_gamma   60.06880762
_symmetry_Int_Tables_number   1
_chemical_formula_structural   Y12Tm4MgHg3Rh4
_chemical_formula_sum   'Y12 Tm4 Mg1 Hg3 Rh4'
_cell_volume   627.93767626
_cell_formula_units_Z   1
loop_
 _symmetry_equiv_pos_site_id
 _symmetry_equiv_pos_as_xyz
  1  'x, y, z'
loop_
 _atom_site_type_symbol
 _atom_site_label
 _atom_site_symmetry_multiplicity
 _atom_site_fract_x
 _atom_site_fract_y
 _atom_site_fract_z
 _atom_site_occupancy
  Y  Y0  1  0.059130  0.440723  0.440723  1
  Y  Y1  1  0.436950  0.062291  0.062291  1
  Y  Y2  1  0.436950  0.062291  0.438467  1
  Y  Y3  1  0.059130  0.440723  0.059425  1
  Y  Y4  1  0.436950  0.438467  0.062291  1
  Y  Y5  1  0.059130  0.059425  0.440723  1
  Y  Y6  1  0.185542  0.813347  0.813347  1
  Y  Y7  1  0.812487  0.186899  0.186899  1
  Y  Y8  1  0.812487  0.186899  0.813716  1
  Y  Y9  1  0.185542  0.813347  0.187764  1
  Y  Y10  1  0.812487  0.813716  0.186899  1
  Y  Y11  1  0.185542  0.187764  0.813347  1
  Tm  Tm12  1  0.600048  0.597779  0.597779  1
  Tm  Tm13  1  0.600048  0.597779  0.204397  1
  Tm  Tm14  1  0.600048  0.204397  0.597779  1
  Tm  Tm15  1  0.193131  0.602290  0.602290  1
  Mg  Mg16  1  0.534713  0.821762  0.821762  1
  Hg  Hg17  1  0.831654  0.835785  0.835785  1
  Hg  Hg18  1  0.831654  0.835785  0.496774  1
  Hg  Hg19  1  0.831654  0.496774  0.835785  1
  Rh  Rh20  1  0.392183  0.395939  0.395939  1
  Rh  Rh21  1  0.392183  0.395939  0.815940  1
  Rh  Rh22  1  0.392183  0.815940  0.395939  1
  Rh  Rh23  1  0.818177  0.393941  0.393941  1
