# generated using pymatgen
data_La4Al2ZnGaPt4
_symmetry_space_group_name_H-M   'P 1'
_cell_length_a   4.55147800
_cell_length_b   7.20789320
_cell_length_c   7.99082415
_cell_angle_alpha   89.31430167
_cell_angle_beta   90.00000000
_cell_angle_gamma   90.00000000
_symmetry_Int_Tables_number   1
_chemical_formula_structural   La4Al2ZnGaPt4
_chemical_formula_sum   'La4 Al2 Zn1 Ga1 Pt4'
_cell_volume   262.13273755
_cell_formula_units_Z   1
loop_
 _symmetry_equiv_pos_site_id
 _symmetry_equiv_pos_as_xyz
  1  'x, y, z'
loop_
 _atom_site_type_symbol
 _atom_site_label
 _atom_site_symmetry_multiplicity
 _atom_site_fract_x
 _atom_site_fract_y
 _atom_site_fract_z
 _atom_site_occupancy
  La  La0  1  0.250000  0.032429  0.689466  1
  La  La1  1  0.250000  0.534327  0.818626  1
  La  La2  1  0.750000  0.966976  0.311758  1
  La  La3  1  0.750000  0.464331  0.179747  1
  Al  Al4  1  0.250000  0.645868  0.434280  1
  Al  Al5  1  0.750000  0.358335  0.564302  1
  Zn  Zn6  1  0.250000  0.150732  0.069982  1
  Ga  Ga7  1  0.750000  0.850790  0.933762  1
  Pt  Pt8  1  0.250000  0.286371  0.396584  1
  Pt  Pt9  1  0.250000  0.771536  0.117014  1
  Pt  Pt10  1  0.750000  0.716932  0.608561  1
  Pt  Pt11  1  0.750000  0.221373  0.875916  1
