# generated using pymatgen
data_HoU3Ga12Rh
_symmetry_space_group_name_H-M   'P 1'
_cell_length_a   7.44738596
_cell_length_b   7.44738490
_cell_length_c   7.44738400
_cell_angle_alpha   109.29969922
_cell_angle_beta   109.29969637
_cell_angle_gamma   109.29971153
_symmetry_Int_Tables_number   1
_chemical_formula_structural   HoU3Ga12Rh
_chemical_formula_sum   'Ho1 U3 Ga12 Rh1'
_cell_volume   319.97575803
_cell_formula_units_Z   1
loop_
 _symmetry_equiv_pos_site_id
 _symmetry_equiv_pos_as_xyz
  1  'x, y, z'
loop_
 _atom_site_type_symbol
 _atom_site_label
 _atom_site_symmetry_multiplicity
 _atom_site_fract_x
 _atom_site_fract_y
 _atom_site_fract_z
 _atom_site_occupancy
  Ho  Ho0  1  0.500000  0.500000  0.500000  1
  U  U1  1  0.000000  0.000000  0.500000  1
  U  U2  1  0.000000  0.500000  0.000000  1
  U  U3  1  0.500000  0.000000  0.000000  1
  Ga  Ga4  1  0.500000  0.749475  0.250525  1
  Ga  Ga5  1  0.500000  0.250525  0.749475  1
  Ga  Ga6  1  0.250525  0.500000  0.749475  1
  Ga  Ga7  1  0.749475  0.500000  0.250525  1
  Ga  Ga8  1  0.749475  0.250525  0.500000  1
  Ga  Ga9  1  0.250525  0.749475  0.500000  1
  Ga  Ga10  1  0.998673  0.290035  0.290035  1
  Ga  Ga11  1  0.001327  0.709965  0.709965  1
  Ga  Ga12  1  0.290035  0.998673  0.290035  1
  Ga  Ga13  1  0.709965  0.001327  0.709965  1
  Ga  Ga14  1  0.290035  0.290035  0.998673  1
  Ga  Ga15  1  0.709965  0.709965  0.001327  1
  Rh  Rh16  1  0.000000  0.000000  0.000000  1
