# generated using pymatgen
data_Y7Co4Sn23Ir2
_symmetry_space_group_name_H-M   'P 1'
_cell_length_a   9.80694300
_cell_length_b   9.78611074
_cell_length_c   10.00022040
_cell_angle_alpha   90.02796238
_cell_angle_beta   90.00000000
_cell_angle_gamma   120.07045392
_symmetry_Int_Tables_number   1
_chemical_formula_structural   Y7Co4Sn23Ir2
_chemical_formula_sum   'Y7 Co4 Sn23 Ir2'
_cell_volume   830.56791452
_cell_formula_units_Z   1
loop_
 _symmetry_equiv_pos_site_id
 _symmetry_equiv_pos_as_xyz
  1  'x, y, z'
loop_
 _atom_site_type_symbol
 _atom_site_label
 _atom_site_symmetry_multiplicity
 _atom_site_fract_x
 _atom_site_fract_y
 _atom_site_fract_z
 _atom_site_occupancy
  Y  Y0  1  0.997641  0.995282  0.993548  1
  Y  Y1  1  0.043365  0.520844  0.308980  1
  Y  Y2  1  0.478232  0.956465  0.307969  1
  Y  Y3  1  0.477478  0.520844  0.308980  1
  Y  Y4  1  0.957302  0.479239  0.691582  1
  Y  Y5  1  0.521681  0.043361  0.692946  1
  Y  Y6  1  0.521937  0.479239  0.691582  1
  Co  Co7  1  0.168408  0.336816  0.804353  1
  Co  Co8  1  0.833726  0.169721  0.198535  1
  Co  Co9  1  0.335995  0.169721  0.198535  1
  Co  Co10  1  0.832592  0.665183  0.199694  1
  Sn  Sn11  1  0.000070  0.000139  0.498959  1
  Sn  Sn12  1  0.116849  0.884548  0.273628  1
  Sn  Sn13  1  0.767698  0.884548  0.273628  1
  Sn  Sn14  1  0.117147  0.234296  0.273326  1
  Sn  Sn15  1  0.888286  0.124714  0.721651  1
  Sn  Sn16  1  0.236428  0.124714  0.721651  1
  Sn  Sn17  1  0.880791  0.761580  0.714857  1
  Sn  Sn18  1  0.352617  0.006050  0.006020  1
  Sn  Sn19  1  0.651501  0.645449  0.005732  1
  Sn  Sn20  1  0.000478  0.345942  0.000887  1
  Sn  Sn21  1  0.345464  0.345942  0.000887  1
  Sn  Sn22  1  0.993949  0.645449  0.005732  1
  Sn  Sn23  1  0.653433  0.006050  0.006020  1
  Sn  Sn24  1  0.781499  0.562997  0.450963  1
  Sn  Sn25  1  0.781737  0.216540  0.451186  1
  Sn  Sn26  1  0.434804  0.216540  0.451186  1
  Sn  Sn27  1  0.217913  0.435826  0.548470  1
  Sn  Sn28  1  0.220372  0.780993  0.542314  1
  Sn  Sn29  1  0.560621  0.780993  0.542314  1
  Sn  Sn30  1  0.667018  0.334035  0.180830  1
  Sn  Sn31  1  0.330548  0.661097  0.823985  1
  Sn  Sn32  1  0.667520  0.335040  0.886181  1
  Sn  Sn33  1  0.332368  0.664737  0.116192  1
  Ir  Ir34  1  0.168991  0.832533  0.803348  1
  Ir  Ir35  1  0.663542  0.832533  0.803348  1
