# generated using pymatgen
data_Ta10Nb4Si5As3
_symmetry_space_group_name_H-M   'P 1'
_cell_length_a   3.49856300
_cell_length_b   7.90530786
_cell_length_c   14.11776901
_cell_angle_alpha   103.86561406
_cell_angle_beta   90.00000000
_cell_angle_gamma   102.78419106
_symmetry_Int_Tables_number   1
_chemical_formula_structural   Ta10Nb4Si5As3
_chemical_formula_sum   'Ta10 Nb4 Si5 As3'
_cell_volume   369.10291163
_cell_formula_units_Z   1
loop_
 _symmetry_equiv_pos_site_id
 _symmetry_equiv_pos_as_xyz
  1  'x, y, z'
loop_
 _atom_site_type_symbol
 _atom_site_label
 _atom_site_symmetry_multiplicity
 _atom_site_fract_x
 _atom_site_fract_y
 _atom_site_fract_z
 _atom_site_occupancy
  Ta  Ta0  1  0.000300  0.000601  0.000579  1
  Ta  Ta1  1  0.498591  0.997180  0.498757  1
  Ta  Ta2  1  0.425788  0.851577  0.826225  1
  Ta  Ta3  1  0.574470  0.148938  0.173227  1
  Ta  Ta4  1  0.197685  0.395370  0.308468  1
  Ta  Ta5  1  0.803930  0.607860  0.691848  1
  Ta  Ta6  1  0.212548  0.425096  0.800646  1
  Ta  Ta7  1  0.788883  0.577767  0.202076  1
  Ta  Ta8  1  0.331077  0.662154  0.028513  1
  Ta  Ta9  1  0.670111  0.340225  0.971275  1
  Nb  Nb10  1  0.997562  0.995124  0.661659  1
  Nb  Nb11  1  0.998964  0.997926  0.339251  1
  Nb  Nb12  1  0.180329  0.360658  0.544304  1
  Nb  Nb13  1  0.820727  0.641454  0.453001  1
  Si  Si14  1  0.175722  0.351443  0.109392  1
  Si  Si15  1  0.826145  0.652290  0.891480  1
  Si  Si16  1  0.370083  0.740166  0.596688  1
  Si  Si17  1  0.627794  0.255589  0.400596  1
  Si  Si18  1  0.371677  0.743354  0.334201  1
  As  As19  1  0.627283  0.254569  0.666407  1
  As  As20  1  0.062947  0.125896  0.848380  1
  As  As21  1  0.937382  0.874763  0.153031  1
