# generated using pymatgen
data_Tb8In3Fe
_symmetry_space_group_name_H-M   'P 1'
_cell_length_a   10.40773400
_cell_length_b   10.40829832
_cell_length_c   7.08756801
_cell_angle_alpha   89.99955220
_cell_angle_beta   89.99648964
_cell_angle_gamma   119.99806499
_symmetry_Int_Tables_number   1
_chemical_formula_structural   Tb8In3Fe
_chemical_formula_sum   'Tb16 In6 Fe2'
_cell_volume   664.92437321
_cell_formula_units_Z   2
loop_
 _symmetry_equiv_pos_site_id
 _symmetry_equiv_pos_as_xyz
  1  'x, y, z'
loop_
 _atom_site_type_symbol
 _atom_site_label
 _atom_site_symmetry_multiplicity
 _atom_site_fract_x
 _atom_site_fract_y
 _atom_site_fract_z
 _atom_site_occupancy
  Tb  Tb0  1  0.822188  0.644399  0.492779  1
  Tb  Tb1  1  0.355610  0.177816  0.492775  1
  Tb  Tb2  1  0.822191  0.177812  0.492758  1
  Tb  Tb3  1  0.177822  0.355613  0.992780  1
  Tb  Tb4  1  0.644386  0.822180  0.992775  1
  Tb  Tb5  1  0.177826  0.822181  0.992739  1
  Tb  Tb6  1  0.666652  0.333344  0.178022  1
  Tb  Tb7  1  0.333349  0.666661  0.678070  1
  Tb  Tb8  1  0.536981  0.073950  0.787646  1
  Tb  Tb9  1  0.926042  0.463018  0.787644  1
  Tb  Tb10  1  0.536991  0.463013  0.787649  1
  Tb  Tb11  1  0.463020  0.926037  0.287599  1
  Tb  Tb12  1  0.073976  0.536987  0.287599  1
  Tb  Tb13  1  0.463008  0.536996  0.287605  1
  Tb  Tb14  1  0.999984  0.000018  0.775329  1
  Tb  Tb15  1  0.000020  0.999983  0.275341  1
  In  In16  1  0.836698  0.673388  0.036210  1
  In  In17  1  0.326565  0.163286  0.036200  1
  In  In18  1  0.836694  0.163303  0.036220  1
  In  In19  1  0.163310  0.326580  0.536145  1
  In  In20  1  0.673435  0.836700  0.536108  1
  In  In21  1  0.163246  0.836733  0.536116  1
  Fe  Fe22  1  0.666683  0.333323  0.560050  1
  Fe  Fe23  1  0.333322  0.666679  0.059915  1
