# generated using pymatgen
data_NdHo3V4F28
_symmetry_space_group_name_H-M   'P 1'
_cell_length_a   5.51419133
_cell_length_b   8.85061410
_cell_length_c   11.86086450
_cell_angle_alpha   63.37528496
_cell_angle_beta   89.96652788
_cell_angle_gamma   89.96592280
_symmetry_Int_Tables_number   1
_chemical_formula_structural   NdHo3V4F28
_chemical_formula_sum   'Nd1 Ho3 V4 F28'
_cell_volume   517.47581120
_cell_formula_units_Z   1
loop_
 _symmetry_equiv_pos_site_id
 _symmetry_equiv_pos_as_xyz
  1  'x, y, z'
loop_
 _atom_site_type_symbol
 _atom_site_label
 _atom_site_symmetry_multiplicity
 _atom_site_fract_x
 _atom_site_fract_y
 _atom_site_fract_z
 _atom_site_occupancy
  Nd  Nd0  1  0.757764  0.810528  0.769188  1
  Ho  Ho1  1  0.259516  0.199523  0.728000  1
  Ho  Ho2  1  0.241523  0.192301  0.229939  1
  Ho  Ho3  1  0.741712  0.810368  0.269093  1
  V  V4  1  0.754731  0.269115  0.957011  1
  V  V5  1  0.252844  0.726938  0.539845  1
  V  V6  1  0.244907  0.725612  0.049610  1
  V  V7  1  0.744047  0.276123  0.453109  1
  F  F8  1  0.439996  0.704484  0.926194  1
  F  F9  1  0.946205  0.294483  0.575536  1
  F  F10  1  0.552349  0.291184  0.077980  1
  F  F11  1  0.053767  0.705864  0.418095  1
  F  F12  1  0.458882  0.282785  0.543510  1
  F  F13  1  0.958765  0.715295  0.962923  1
  F  F14  1  0.542351  0.719059  0.452504  1
  F  F15  1  0.040372  0.278417  0.046868  1
  F  F16  1  0.773634  0.500484  0.865577  1
  F  F17  1  0.270174  0.493415  0.632585  1
  F  F18  1  0.232829  0.492304  0.140029  1
  F  F19  1  0.730047  0.507200  0.362386  1
  F  F20  1  0.756593  0.039701  0.047217  1
  F  F21  1  0.256274  0.956429  0.451742  1
  F  F22  1  0.243249  0.954240  0.958532  1
  F  F23  1  0.742738  0.045303  0.543657  1
  F  F24  1  0.974305  0.727359  0.632378  1
  F  F25  1  0.477301  0.269900  0.861520  1
  F  F26  1  0.019464  0.268512  0.358816  1
  F  F27  1  0.523333  0.730624  0.142759  1
  F  F28  1  0.044927  0.746887  0.173750  1
  F  F29  1  0.541738  0.252711  0.330088  1
  F  F30  1  0.957277  0.249145  0.832291  1
  F  F31  1  0.444389  0.743484  0.667421  1
  F  F32  1  0.423263  0.975207  0.231484  1
  F  F33  1  0.923570  0.026455  0.268529  1
  F  F34  1  0.579330  0.039928  0.770343  1
  F  F35  1  0.095832  0.978633  0.729492  1
