# generated using pymatgen
data_CaLa2(TbGe2)2
_symmetry_space_group_name_H-M   'P 1'
_cell_length_a   8.01386600
_cell_length_b   8.01386600
_cell_length_c   14.62946700
_cell_angle_alpha   90.00000000
_cell_angle_beta   90.00000000
_cell_angle_gamma   90.00000000
_symmetry_Int_Tables_number   1
_chemical_formula_structural   CaLa2(TbGe2)2
_chemical_formula_sum   'Ca4 La8 Tb8 Ge16'
_cell_volume   939.53433578
_cell_formula_units_Z   4
loop_
 _symmetry_equiv_pos_site_id
 _symmetry_equiv_pos_as_xyz
  1  'x, y, z'
loop_
 _atom_site_type_symbol
 _atom_site_label
 _atom_site_symmetry_multiplicity
 _atom_site_fract_x
 _atom_site_fract_y
 _atom_site_fract_z
 _atom_site_occupancy
  Ca  Ca0  1  0.682264  0.682264  0.500000  1
  Ca  Ca1  1  0.817736  0.182264  0.750000  1
  Ca  Ca2  1  0.182264  0.817736  0.250000  1
  Ca  Ca3  1  0.317736  0.317736  0.000000  1
  La  La4  1  0.993164  0.640795  0.040204  1
  La  La5  1  0.006836  0.359205  0.540204  1
  La  La6  1  0.640795  0.993164  0.959796  1
  La  La7  1  0.140795  0.506836  0.790204  1
  La  La8  1  0.859205  0.493164  0.290204  1
  La  La9  1  0.506836  0.140795  0.209796  1
  La  La10  1  0.493164  0.859205  0.709796  1
  La  La11  1  0.359205  0.006836  0.459796  1
  Tb  Tb12  1  0.361203  0.494794  0.375368  1
  Tb  Tb13  1  0.861203  0.005206  0.374632  1
  Tb  Tb14  1  0.994794  0.138797  0.125368  1
  Tb  Tb15  1  0.005206  0.861203  0.625368  1
  Tb  Tb16  1  0.638797  0.505206  0.875368  1
  Tb  Tb17  1  0.494794  0.361203  0.624632  1
  Tb  Tb18  1  0.505206  0.638797  0.124632  1
  Tb  Tb19  1  0.138797  0.994794  0.874632  1
  Ge  Ge20  1  0.065439  0.710273  0.437989  1
  Ge  Ge21  1  0.934561  0.289727  0.937989  1
  Ge  Ge22  1  0.710273  0.065439  0.562011  1
  Ge  Ge23  1  0.210274  0.434561  0.187989  1
  Ge  Ge24  1  0.789727  0.565439  0.687989  1
  Ge  Ge25  1  0.434561  0.210274  0.812011  1
  Ge  Ge26  1  0.565439  0.789727  0.312011  1
  Ge  Ge27  1  0.289727  0.934561  0.062011  1
  Ge  Ge28  1  0.851762  0.792955  0.815836  1
  Ge  Ge29  1  0.148238  0.207045  0.315836  1
  Ge  Ge30  1  0.792955  0.851762  0.184164  1
  Ge  Ge31  1  0.292955  0.648238  0.565836  1
  Ge  Ge32  1  0.707045  0.351762  0.065836  1
  Ge  Ge33  1  0.648238  0.292955  0.434164  1
  Ge  Ge34  1  0.351762  0.707045  0.934164  1
  Ge  Ge35  1  0.207045  0.148238  0.684164  1
