# generated using pymatgen
data_Yb6BeSi23Ru8
_symmetry_space_group_name_H-M   'P 1'
_cell_length_a   10.09633177
_cell_length_b   10.09633144
_cell_length_c   8.15504936
_cell_angle_alpha   89.95800928
_cell_angle_beta   89.95800838
_cell_angle_gamma   132.34357337
_symmetry_Int_Tables_number   1
_chemical_formula_structural   Yb6BeSi23Ru8
_chemical_formula_sum   'Yb6 Be1 Si23 Ru8'
_cell_volume   614.42303752
_cell_formula_units_Z   1
loop_
 _symmetry_equiv_pos_site_id
 _symmetry_equiv_pos_as_xyz
  1  'x, y, z'
loop_
 _atom_site_type_symbol
 _atom_site_label
 _atom_site_symmetry_multiplicity
 _atom_site_fract_x
 _atom_site_fract_y
 _atom_site_fract_z
 _atom_site_occupancy
  Yb  Yb0  1  0.001675  0.998325  0.000000  1
  Yb  Yb1  1  0.501172  0.498828  0.500000  1
  Yb  Yb2  1  0.999339  0.500906  0.247652  1
  Yb  Yb3  1  0.992355  0.493670  0.753283  1
  Yb  Yb4  1  0.499094  0.000661  0.752348  1
  Yb  Yb5  1  0.506330  0.007645  0.246717  1
  Be  Be6  1  0.705523  0.294477  0.000000  1
  Si  Si7  1  0.292786  0.707214  0.000000  1
  Si  Si8  1  0.793246  0.206754  0.500000  1
  Si  Si9  1  0.205543  0.794457  0.500000  1
  Si  Si10  1  0.334137  0.331622  0.167181  1
  Si  Si11  1  0.668378  0.665863  0.832819  1
  Si  Si12  1  0.167552  0.167798  0.668399  1
  Si  Si13  1  0.832202  0.832448  0.331601  1
  Si  Si14  1  0.843368  0.604597  0.005947  1
  Si  Si15  1  0.152611  0.388553  0.993151  1
  Si  Si16  1  0.652515  0.886184  0.507672  1
  Si  Si17  1  0.113816  0.347485  0.492328  1
  Si  Si18  1  0.346607  0.113805  0.492353  1
  Si  Si19  1  0.886195  0.653393  0.507647  1
  Si  Si20  1  0.395403  0.156632  0.994053  1
  Si  Si21  1  0.611447  0.847389  0.006849  1
  Si  Si22  1  0.890751  0.126197  0.269960  1
  Si  Si23  1  0.108056  0.874856  0.730192  1
  Si  Si24  1  0.611072  0.373260  0.774798  1
  Si  Si25  1  0.626740  0.388928  0.225202  1
  Si  Si26  1  0.391893  0.625480  0.231817  1
  Si  Si27  1  0.374520  0.608107  0.768183  1
  Si  Si28  1  0.873803  0.109249  0.730040  1
  Si  Si29  1  0.125144  0.891944  0.269808  1
  Ru  Ru30  1  0.832187  0.167813  0.000000  1
  Ru  Ru31  1  0.168125  0.831875  0.000000  1
  Ru  Ru32  1  0.668378  0.331622  0.500000  1
  Ru  Ru33  1  0.330607  0.669393  0.500000  1
  Ru  Ru34  1  0.125183  0.126131  0.374814  1
  Ru  Ru35  1  0.873869  0.874817  0.625186  1
  Ru  Ru36  1  0.374522  0.376142  0.875524  1
  Ru  Ru37  1  0.623858  0.625478  0.124476  1
