# generated using pymatgen
data_Ta6Fe6Si
_symmetry_space_group_name_H-M   'P 1'
_cell_length_a   9.26070608
_cell_length_b   9.26070628
_cell_length_c   9.26070600
_cell_angle_alpha   30.68444038
_cell_angle_beta   30.68443831
_cell_angle_gamma   30.68444315
_symmetry_Int_Tables_number   1
_chemical_formula_structural   Ta6Fe6Si
_chemical_formula_sum   'Ta6 Fe6 Si1'
_cell_volume   183.38829667
_cell_formula_units_Z   1
loop_
 _symmetry_equiv_pos_site_id
 _symmetry_equiv_pos_as_xyz
  1  'x, y, z'
loop_
 _atom_site_type_symbol
 _atom_site_label
 _atom_site_symmetry_multiplicity
 _atom_site_fract_x
 _atom_site_fract_y
 _atom_site_fract_z
 _atom_site_occupancy
  Ta  Ta0  1  0.167723  0.167723  0.167723  1
  Ta  Ta1  1  0.832277  0.832277  0.832277  1
  Ta  Ta2  1  0.348159  0.348159  0.348159  1
  Ta  Ta3  1  0.651841  0.651841  0.651841  1
  Ta  Ta4  1  0.450592  0.450592  0.450592  1
  Ta  Ta5  1  0.549408  0.549408  0.549408  1
  Fe  Fe6  1  0.590010  0.092948  0.092948  1
  Fe  Fe7  1  0.092948  0.092948  0.590010  1
  Fe  Fe8  1  0.092948  0.590010  0.092948  1
  Fe  Fe9  1  0.907052  0.409990  0.907052  1
  Fe  Fe10  1  0.409990  0.907052  0.907052  1
  Fe  Fe11  1  0.907052  0.907052  0.409990  1
  Si  Si12  1  0.000000  0.000000  0.000000  1
