# generated using pymatgen
data_Dy3(B3Ru4)2
_symmetry_space_group_name_H-M   'P 1'
_cell_length_a   9.99300501
_cell_length_b   9.19558829
_cell_length_c   5.51444467
_cell_angle_alpha   81.43293462
_cell_angle_beta   65.49639053
_cell_angle_gamma   33.07068490
_symmetry_Int_Tables_number   1
_chemical_formula_structural   Dy3(B3Ru4)2
_chemical_formula_sum   'Dy3 B6 Ru8'
_cell_volume   230.60438273
_cell_formula_units_Z   1
loop_
 _symmetry_equiv_pos_site_id
 _symmetry_equiv_pos_as_xyz
  1  'x, y, z'
loop_
 _atom_site_type_symbol
 _atom_site_label
 _atom_site_symmetry_multiplicity
 _atom_site_fract_x
 _atom_site_fract_y
 _atom_site_fract_z
 _atom_site_occupancy
  Dy  Dy0  1  0.000000  0.000000  0.000000  1
  Dy  Dy1  1  0.818327  0.818327  0.181673  1
  Dy  Dy2  1  0.181673  0.181673  0.818327  1
  B  B3  1  0.673492  0.326508  0.673492  1
  B  B4  1  0.326508  0.673492  0.326508  1
  B  B5  1  0.169834  0.483436  0.516564  1
  B  B6  1  0.483436  0.169834  0.830166  1
  B  B7  1  0.830166  0.516564  0.483436  1
  B  B8  1  0.516564  0.830166  0.169834  1
  Ru  Ru9  1  0.912424  0.912424  0.587576  1
  Ru  Ru10  1  0.415618  0.415618  0.584382  1
  Ru  Ru11  1  0.584382  0.584382  0.415618  1
  Ru  Ru12  1  0.250000  0.250000  0.250000  1
  Ru  Ru13  1  0.750000  0.750000  0.750000  1
  Ru  Ru14  1  0.087576  0.087576  0.412424  1
  Ru  Ru15  1  0.587576  0.587576  0.912424  1
  Ru  Ru16  1  0.412424  0.412424  0.087576  1
