# generated using pymatgen
data_Gd10Si16P
_symmetry_space_group_name_H-M   'P 1'
_cell_length_a   11.17447150
_cell_length_b   11.19282622
_cell_length_c   11.17447200
_cell_angle_alpha   145.19583483
_cell_angle_beta   135.50718544
_cell_angle_gamma   57.66176902
_symmetry_Int_Tables_number   1
_chemical_formula_structural   Gd10Si16P
_chemical_formula_sum   'Gd10 Si16 P1'
_cell_volume   554.53811522
_cell_formula_units_Z   1
loop_
 _symmetry_equiv_pos_site_id
 _symmetry_equiv_pos_as_xyz
  1  'x, y, z'
loop_
 _atom_site_type_symbol
 _atom_site_label
 _atom_site_symmetry_multiplicity
 _atom_site_fract_x
 _atom_site_fract_y
 _atom_site_fract_z
 _atom_site_occupancy
  Gd  Gd0  1  0.752887  0.760763  0.513016  1
  Gd  Gd1  1  0.453141  0.961186  0.014026  1
  Gd  Gd2  1  0.848906  0.369436  0.016590  1
  Gd  Gd3  1  0.947160  0.961186  0.508044  1
  Gd  Gd4  1  0.152713  0.167943  0.520531  1
  Gd  Gd5  1  0.352846  0.369436  0.520530  1
  Gd  Gd6  1  0.247747  0.760763  0.007876  1
  Gd  Gd7  1  0.552621  0.565424  0.518159  1
  Gd  Gd8  1  0.047266  0.565424  0.012804  1
  Gd  Gd9  1  0.647412  0.167943  0.015231  1
  Si  Si10  1  0.199694  0.581052  0.381356  1
  Si  Si11  1  0.000860  0.082808  0.081948  1
  Si  Si12  1  0.700039  0.293262  0.593223  1
  Si  Si13  1  0.802084  0.188668  0.386585  1
  Si  Si14  1  0.897004  0.503336  0.606332  1
  Si  Si15  1  0.414165  0.866600  0.452434  1
  Si  Si16  1  0.104544  0.711911  0.607366  1
  Si  Si17  1  0.299821  0.896308  0.596488  1
  Si  Si18  1  0.583521  0.042281  0.458759  1
  Si  Si19  1  0.001047  0.433152  0.432105  1
  Si  Si20  1  0.884651  0.844259  0.959609  1
  Si  Si21  1  0.399703  0.498956  0.099251  1
  Si  Si22  1  0.118768  0.079634  0.960866  1
  Si  Si23  1  0.286582  0.244111  0.957531  1
  Si  Si24  1  0.500105  0.389598  0.889493  1
  Si  Si25  1  0.598017  0.702790  0.104773  1
  P  P26  1  0.706696  0.653268  0.946572  1
