# generated using pymatgen
data_Rb3SrOs2O9
_symmetry_space_group_name_H-M   'P 1'
_cell_length_a   6.29367100
_cell_length_b   6.29367114
_cell_length_c   15.06524400
_cell_angle_alpha   90.00000000
_cell_angle_beta   90.00000000
_cell_angle_gamma   119.99998348
_symmetry_Int_Tables_number   1
_chemical_formula_structural   Rb3SrOs2O9
_chemical_formula_sum   'Rb6 Sr2 Os4 O18'
_cell_volume   516.79101806
_cell_formula_units_Z   2
loop_
 _symmetry_equiv_pos_site_id
 _symmetry_equiv_pos_as_xyz
  1  'x, y, z'
loop_
 _atom_site_type_symbol
 _atom_site_label
 _atom_site_symmetry_multiplicity
 _atom_site_fract_x
 _atom_site_fract_y
 _atom_site_fract_z
 _atom_site_occupancy
  Rb  Rb0  1  0.000000  0.000000  0.250000  1
  Rb  Rb1  1  0.000000  0.000000  0.750000  1
  Rb  Rb2  1  0.333333  0.666667  0.391269  1
  Rb  Rb3  1  0.666667  0.333333  0.608731  1
  Rb  Rb4  1  0.666667  0.333333  0.891269  1
  Rb  Rb5  1  0.333333  0.666667  0.108731  1
  Sr  Sr6  1  0.000000  0.000000  0.500000  1
  Sr  Sr7  1  0.000000  0.000000  0.000000  1
  Os  Os8  1  0.666667  0.333333  0.346177  1
  Os  Os9  1  0.333333  0.666667  0.653823  1
  Os  Os10  1  0.333333  0.666667  0.846177  1
  Os  Os11  1  0.666667  0.333333  0.153823  1
  O  O12  1  0.537483  0.462517  0.250000  1
  O  O13  1  0.537483  0.074965  0.250000  1
  O  O14  1  0.925035  0.462517  0.250000  1
  O  O15  1  0.462517  0.537483  0.750000  1
  O  O16  1  0.462517  0.925035  0.750000  1
  O  O17  1  0.074965  0.537483  0.750000  1
  O  O18  1  0.372996  0.186498  0.407230  1
  O  O19  1  0.813502  0.186498  0.407230  1
  O  O20  1  0.813502  0.627004  0.407230  1
  O  O21  1  0.627004  0.813502  0.592770  1
  O  O22  1  0.186498  0.813502  0.592770  1
  O  O23  1  0.186498  0.372996  0.592770  1
  O  O24  1  0.627004  0.813502  0.907230  1
  O  O25  1  0.186498  0.813502  0.907230  1
  O  O26  1  0.186498  0.372996  0.907230  1
  O  O27  1  0.372996  0.186498  0.092770  1
  O  O28  1  0.813502  0.186498  0.092770  1
  O  O29  1  0.813502  0.627004  0.092770  1
