# generated using pymatgen
data_BaCe2HfBi5
_symmetry_space_group_name_H-M   'P 1'
_cell_length_a   10.09036400
_cell_length_b   10.02212335
_cell_length_c   6.52334300
_cell_angle_alpha   90.00000000
_cell_angle_beta   90.00000000
_cell_angle_gamma   120.22549010
_symmetry_Int_Tables_number   1
_chemical_formula_structural   BaCe2HfBi5
_chemical_formula_sum   'Ba2 Ce4 Hf2 Bi10'
_cell_volume   570.00167689
_cell_formula_units_Z   2
loop_
 _symmetry_equiv_pos_site_id
 _symmetry_equiv_pos_as_xyz
  1  'x, y, z'
loop_
 _atom_site_type_symbol
 _atom_site_label
 _atom_site_symmetry_multiplicity
 _atom_site_fract_x
 _atom_site_fract_y
 _atom_site_fract_z
 _atom_site_occupancy
  Ba  Ba0  1  0.615171  0.000000  0.250000  1
  Ba  Ba1  1  0.384829  0.000000  0.750000  1
  Ce  Ce2  1  0.011568  0.625866  0.250000  1
  Ce  Ce3  1  0.988432  0.374134  0.750000  1
  Ce  Ce4  1  0.385702  0.374134  0.250000  1
  Ce  Ce5  1  0.614298  0.625866  0.750000  1
  Hf  Hf6  1  0.000000  0.000000  0.000000  1
  Hf  Hf7  1  0.000000  0.000000  0.500000  1
  Bi  Bi8  1  0.249820  0.000000  0.250000  1
  Bi  Bi9  1  0.750180  0.000000  0.750000  1
  Bi  Bi10  1  0.012176  0.264014  0.250000  1
  Bi  Bi11  1  0.987824  0.735986  0.750000  1
  Bi  Bi12  1  0.748161  0.735986  0.250000  1
  Bi  Bi13  1  0.251839  0.264014  0.750000  1
  Bi  Bi14  1  0.320168  0.640336  0.000000  1
  Bi  Bi15  1  0.679832  0.359664  0.000000  1
  Bi  Bi16  1  0.679832  0.359664  0.500000  1
  Bi  Bi17  1  0.320168  0.640336  0.500000  1
