# generated using pymatgen
data_Er4LuSn3Cl
_symmetry_space_group_name_H-M   'P 1'
_cell_length_a   9.01697800
_cell_length_b   9.01697799
_cell_length_c   6.45886300
_cell_angle_alpha   90.00000000
_cell_angle_beta   90.00000000
_cell_angle_gamma   120.00000004
_symmetry_Int_Tables_number   1
_chemical_formula_structural   Er4LuSn3Cl
_chemical_formula_sum   'Er8 Lu2 Sn6 Cl2'
_cell_volume   454.78771404
_cell_formula_units_Z   2
loop_
 _symmetry_equiv_pos_site_id
 _symmetry_equiv_pos_as_xyz
  1  'x, y, z'
loop_
 _atom_site_type_symbol
 _atom_site_label
 _atom_site_symmetry_multiplicity
 _atom_site_fract_x
 _atom_site_fract_y
 _atom_site_fract_z
 _atom_site_occupancy
  Er  Er0  1  0.666667  0.333333  0.000000  1
  Er  Er1  1  0.333333  0.666667  0.500000  1
  Er  Er2  1  0.737632  0.000000  0.750000  1
  Er  Er3  1  0.737632  0.737632  0.250000  1
  Er  Er4  1  0.000000  0.262368  0.250000  1
  Er  Er5  1  0.000000  0.737632  0.750000  1
  Er  Er6  1  0.262368  0.262368  0.750000  1
  Er  Er7  1  0.262368  0.000000  0.250000  1
  Lu  Lu8  1  0.666667  0.333333  0.500000  1
  Lu  Lu9  1  0.333333  0.666667  0.000000  1
  Sn  Sn10  1  0.609903  0.609903  0.750000  1
  Sn  Sn11  1  0.000000  0.609903  0.250000  1
  Sn  Sn12  1  0.609903  0.000000  0.250000  1
  Sn  Sn13  1  0.390097  0.000000  0.750000  1
  Sn  Sn14  1  0.000000  0.390097  0.750000  1
  Sn  Sn15  1  0.390097  0.390097  0.250000  1
  Cl  Cl16  1  0.000000  0.000000  0.500000  1
  Cl  Cl17  1  0.000000  0.000000  0.000000  1
