# generated using pymatgen
data_Y18Lu2Cd6TcRu
_symmetry_space_group_name_H-M   'P 1'
_cell_length_a   9.58985000
_cell_length_b   9.58984938
_cell_length_c   9.91107500
_cell_angle_alpha   90.00000000
_cell_angle_beta   90.00000000
_cell_angle_gamma   120.00000215
_symmetry_Int_Tables_number   1
_chemical_formula_structural   Y18Lu2Cd6TcRu
_chemical_formula_sum   'Y18 Lu2 Cd6 Tc1 Ru1'
_cell_volume   789.35976352
_cell_formula_units_Z   1
loop_
 _symmetry_equiv_pos_site_id
 _symmetry_equiv_pos_as_xyz
  1  'x, y, z'
loop_
 _atom_site_type_symbol
 _atom_site_label
 _atom_site_symmetry_multiplicity
 _atom_site_fract_x
 _atom_site_fract_y
 _atom_site_fract_z
 _atom_site_occupancy
  Y  Y0  1  0.209506  0.790494  0.441291  1
  Y  Y1  1  0.209506  0.419011  0.441291  1
  Y  Y2  1  0.580989  0.790494  0.441291  1
  Y  Y3  1  0.790318  0.209682  0.559187  1
  Y  Y4  1  0.790318  0.580633  0.559187  1
  Y  Y5  1  0.419367  0.209682  0.559187  1
  Y  Y6  1  0.790318  0.209682  0.940813  1
  Y  Y7  1  0.790318  0.580633  0.940813  1
  Y  Y8  1  0.419367  0.209682  0.940813  1
  Y  Y9  1  0.209506  0.790494  0.058709  1
  Y  Y10  1  0.209506  0.419011  0.058709  1
  Y  Y11  1  0.580989  0.790494  0.058709  1
  Y  Y12  1  0.540245  0.459755  0.250000  1
  Y  Y13  1  0.540245  0.080490  0.250000  1
  Y  Y14  1  0.919510  0.459755  0.250000  1
  Y  Y15  1  0.458720  0.541280  0.750000  1
  Y  Y16  1  0.458720  0.917441  0.750000  1
  Y  Y17  1  0.082559  0.541280  0.750000  1
  Lu  Lu18  1  0.000000  0.000000  0.500284  1
  Lu  Lu19  1  0.000000  0.000000  0.999716  1
  Cd  Cd20  1  0.886023  0.113977  0.250000  1
  Cd  Cd21  1  0.886023  0.772047  0.250000  1
  Cd  Cd22  1  0.227953  0.113977  0.250000  1
  Cd  Cd23  1  0.113765  0.886235  0.750000  1
  Cd  Cd24  1  0.113765  0.227530  0.750000  1
  Cd  Cd25  1  0.772470  0.886235  0.750000  1
  Tc  Tc26  1  0.333333  0.666667  0.250000  1
  Ru  Ru27  1  0.666667  0.333333  0.750000  1
