# generated using pymatgen
data_RbSb12(OsRh)2
_symmetry_space_group_name_H-M   'P 1'
_cell_length_a   8.17655693
_cell_length_b   8.17655565
_cell_length_c   8.17696646
_cell_angle_alpha   109.52197256
_cell_angle_beta   109.47712246
_cell_angle_gamma   109.41255110
_symmetry_Int_Tables_number   1
_chemical_formula_structural   RbSb12(OsRh)2
_chemical_formula_sum   'Rb1 Sb12 Os2 Rh2'
_cell_volume   420.84453399
_cell_formula_units_Z   1
loop_
 _symmetry_equiv_pos_site_id
 _symmetry_equiv_pos_as_xyz
  1  'x, y, z'
loop_
 _atom_site_type_symbol
 _atom_site_label
 _atom_site_symmetry_multiplicity
 _atom_site_fract_x
 _atom_site_fract_y
 _atom_site_fract_z
 _atom_site_occupancy
  Rb  Rb0  1  0.000000  0.000000  0.000000  1
  Sb  Sb1  1  0.841781  0.658576  0.500357  1
  Sb  Sb2  1  0.158219  0.341424  0.499643  1
  Sb  Sb3  1  0.156897  0.654983  0.811881  1
  Sb  Sb4  1  0.843103  0.345017  0.188119  1
  Sb  Sb5  1  0.655084  0.498464  0.840971  1
  Sb  Sb6  1  0.344916  0.501536  0.159029  1
  Sb  Sb7  1  0.657493  0.814114  0.159029  1
  Sb  Sb8  1  0.342507  0.185886  0.840971  1
  Sb  Sb9  1  0.499285  0.841643  0.655446  1
  Sb  Sb10  1  0.500715  0.158357  0.344554  1
  Sb  Sb11  1  0.186196  0.843839  0.344554  1
  Sb  Sb12  1  0.813804  0.156161  0.655446  1
  Os  Os13  1  0.500000  0.500000  0.500000  1
  Os  Os14  1  0.000000  0.000000  0.500000  1
  Rh  Rh15  1  0.500000  0.000000  0.000000  1
  Rh  Rh16  1  0.000000  0.500000  0.000000  1
