# generated using pymatgen
data_PrNdY4(RuO7)2
_symmetry_space_group_name_H-M   'P 1'
_cell_length_a   6.47573811
_cell_length_b   6.47573620
_cell_length_c   7.54273525
_cell_angle_alpha   89.98300476
_cell_angle_beta   89.98300215
_cell_angle_gamma   110.19300986
_symmetry_Int_Tables_number   1
_chemical_formula_structural   PrNdY4(RuO7)2
_chemical_formula_sum   'Pr1 Nd1 Y4 Ru2 O14'
_cell_volume   296.86416113
_cell_formula_units_Z   1
loop_
 _symmetry_equiv_pos_site_id
 _symmetry_equiv_pos_as_xyz
  1  'x, y, z'
loop_
 _atom_site_type_symbol
 _atom_site_label
 _atom_site_symmetry_multiplicity
 _atom_site_fract_x
 _atom_site_fract_y
 _atom_site_fract_z
 _atom_site_occupancy
  Pr  Pr0  1  0.000000  0.000000  0.000000  1
  Nd  Nd1  1  0.000000  0.000000  0.500000  1
  Y  Y2  1  0.481979  0.931049  0.749630  1
  Y  Y3  1  0.518021  0.068951  0.250370  1
  Y  Y4  1  0.931049  0.481979  0.749630  1
  Y  Y5  1  0.068951  0.518021  0.250370  1
  Ru  Ru6  1  0.500000  0.500000  0.500000  1
  Ru  Ru7  1  0.500000  0.500000  0.000000  1
  O  O8  1  0.587679  0.587679  0.750063  1
  O  O9  1  0.412321  0.412321  0.249937  1
  O  O10  1  0.838499  0.117579  0.748543  1
  O  O11  1  0.161501  0.882421  0.251457  1
  O  O12  1  0.117579  0.838499  0.748543  1
  O  O13  1  0.882421  0.161501  0.251457  1
  O  O14  1  0.440262  0.182324  0.963757  1
  O  O15  1  0.560501  0.817703  0.463826  1
  O  O16  1  0.182324  0.440262  0.963757  1
  O  O17  1  0.817703  0.560501  0.463826  1
  O  O18  1  0.439499  0.182297  0.536174  1
  O  O19  1  0.559738  0.817676  0.036243  1
  O  O20  1  0.817676  0.559738  0.036243  1
  O  O21  1  0.182297  0.439499  0.536174  1
