# generated using pymatgen
data_Rb8Sb(WBr8)3
_symmetry_space_group_name_H-M   'P 1'
_cell_length_a   13.37051997
_cell_length_b   13.37051996
_cell_length_c   13.37051974
_cell_angle_alpha   131.67518479
_cell_angle_beta   131.67518236
_cell_angle_gamma   70.74252237
_symmetry_Int_Tables_number   1
_chemical_formula_structural   Rb8Sb(WBr8)3
_chemical_formula_sum   'Rb8 Sb1 W3 Br24'
_cell_volume   1306.23341835
_cell_formula_units_Z   1
loop_
 _symmetry_equiv_pos_site_id
 _symmetry_equiv_pos_as_xyz
  1  'x, y, z'
loop_
 _atom_site_type_symbol
 _atom_site_label
 _atom_site_symmetry_multiplicity
 _atom_site_fract_x
 _atom_site_fract_y
 _atom_site_fract_z
 _atom_site_occupancy
  Rb  Rb0  1  0.117016  0.640545  0.998045  1
  Rb  Rb1  1  0.359455  0.882984  0.001955  1
  Rb  Rb2  1  0.642500  0.640545  0.523528  1
  Rb  Rb3  1  0.359455  0.357500  0.476472  1
  Rb  Rb4  1  0.881029  0.357500  0.998045  1
  Rb  Rb5  1  0.881029  0.882984  0.523528  1
  Rb  Rb6  1  0.117016  0.118971  0.476472  1
  Rb  Rb7  1  0.642500  0.118971  0.001955  1
  Sb  Sb8  1  0.000000  0.000000  0.000000  1
  W  W9  1  0.750000  0.250000  0.500000  1
  W  W10  1  0.500000  0.500000  0.000000  1
  W  W11  1  0.250000  0.750000  0.500000  1
  Br  Br12  1  0.257754  0.999624  0.258130  1
  Br  Br13  1  0.000376  0.742246  0.741870  1
  Br  Br14  1  0.252100  0.984889  0.732790  1
  Br  Br15  1  0.748693  0.481161  0.732469  1
  Br  Br16  1  0.480690  0.747900  0.732790  1
  Br  Br17  1  0.129530  0.129530  0.000000  1
  Br  Br18  1  0.499448  0.731367  0.231919  1
  Br  Br19  1  0.866727  0.366727  0.500000  1
  Br  Br20  1  0.000376  0.258506  0.258130  1
  Br  Br21  1  0.383361  0.383361  0.000000  1
  Br  Br22  1  0.616639  0.616639  0.000000  1
  Br  Br23  1  0.499448  0.267529  0.768081  1
  Br  Br24  1  0.268633  0.500552  0.768081  1
  Br  Br25  1  0.518839  0.251307  0.267531  1
  Br  Br26  1  0.366675  0.866675  0.500000  1
  Br  Br27  1  0.633273  0.133273  0.500000  1
  Br  Br28  1  0.252100  0.519310  0.267210  1
  Br  Br29  1  0.133325  0.633325  0.500000  1
  Br  Br30  1  0.015111  0.747900  0.267210  1
  Br  Br31  1  0.983776  0.251307  0.732469  1
  Br  Br32  1  0.741494  0.999624  0.741870  1
  Br  Br33  1  0.732471  0.500552  0.231919  1
  Br  Br34  1  0.748693  0.016224  0.267531  1
  Br  Br35  1  0.870470  0.870470  0.000000  1
