# generated using pymatgen
data_La3Pr4Nd(CdIr)2
_symmetry_space_group_name_H-M   'P 1'
_cell_length_a   10.01459174
_cell_length_b   10.08090627
_cell_length_c   10.07293422
_cell_angle_alpha   59.59122098
_cell_angle_beta   60.24475994
_cell_angle_gamma   60.27134662
_symmetry_Int_Tables_number   1
_chemical_formula_structural   La3Pr4Nd(CdIr)2
_chemical_formula_sum   'La6 Pr8 Nd2 Cd4 Ir4'
_cell_volume   719.59282125
_cell_formula_units_Z   2
loop_
 _symmetry_equiv_pos_site_id
 _symmetry_equiv_pos_as_xyz
  1  'x, y, z'
loop_
 _atom_site_type_symbol
 _atom_site_label
 _atom_site_symmetry_multiplicity
 _atom_site_fract_x
 _atom_site_fract_y
 _atom_site_fract_z
 _atom_site_occupancy
  La  La0  1  0.345206  0.348609  0.348066  1
  La  La1  1  0.348636  0.345202  0.958091  1
  La  La2  1  0.348348  0.957354  0.345531  1
  La  La3  1  0.957365  0.348368  0.348742  1
  La  La4  1  0.812235  0.187497  0.188027  1
  La  La5  1  0.187500  0.812209  0.812242  1
  Pr  Pr6  1  0.191309  0.191311  0.808688  1
  Pr  Pr7  1  0.808221  0.808216  0.191783  1
  Pr  Pr8  1  0.936653  0.563344  0.563846  1
  Pr  Pr9  1  0.563342  0.936658  0.936161  1
  Pr  Pr10  1  0.561497  0.938716  0.561566  1
  Pr  Pr11  1  0.938718  0.561502  0.938227  1
  Pr  Pr12  1  0.561696  0.561723  0.938282  1
  Pr  Pr13  1  0.938644  0.938649  0.561362  1
  Nd  Nd14  1  0.191433  0.808191  0.191973  1
  Nd  Nd15  1  0.808192  0.191433  0.808403  1
  Cd  Cd16  1  0.580643  0.579305  0.579568  1
  Cd  Cd17  1  0.579302  0.580647  0.260483  1
  Cd  Cd18  1  0.579714  0.260199  0.580726  1
  Cd  Cd19  1  0.260192  0.579719  0.579366  1
  Ir  Ir20  1  0.136668  0.143820  0.143824  1
  Ir  Ir21  1  0.143816  0.136663  0.575697  1
  Ir  Ir22  1  0.144843  0.575820  0.136101  1
  Ir  Ir23  1  0.575822  0.144844  0.143240  1
