# generated using pymatgen
data_DyHo11CoTc3
_symmetry_space_group_name_H-M   'P 1'
_cell_length_a   6.25311916
_cell_length_b   7.29234652
_cell_length_c   9.12633900
_cell_angle_alpha   90.00000000
_cell_angle_beta   90.00000000
_cell_angle_gamma   90.11964351
_symmetry_Int_Tables_number   1
_chemical_formula_structural   DyHo11CoTc3
_chemical_formula_sum   'Dy1 Ho11 Co1 Tc3'
_cell_volume   416.15934545
_cell_formula_units_Z   1
loop_
 _symmetry_equiv_pos_site_id
 _symmetry_equiv_pos_as_xyz
  1  'x, y, z'
loop_
 _atom_site_type_symbol
 _atom_site_label
 _atom_site_symmetry_multiplicity
 _atom_site_fract_x
 _atom_site_fract_y
 _atom_site_fract_z
 _atom_site_occupancy
  Dy  Dy0  1  0.873672  0.951230  0.750000  1
  Ho  Ho1  1  0.663364  0.175893  0.061668  1
  Ho  Ho2  1  0.371359  0.540826  0.250000  1
  Ho  Ho3  1  0.127476  0.041387  0.250000  1
  Ho  Ho4  1  0.830232  0.677565  0.435602  1
  Ho  Ho5  1  0.331816  0.821543  0.936502  1
  Ho  Ho6  1  0.165835  0.326887  0.565046  1
  Ho  Ho7  1  0.663364  0.175893  0.438332  1
  Ho  Ho8  1  0.165835  0.326887  0.934954  1
  Ho  Ho9  1  0.331816  0.821543  0.563498  1
  Ho  Ho10  1  0.642011  0.457667  0.750000  1
  Ho  Ho11  1  0.830232  0.677565  0.064398  1
  Co  Co12  1  0.039707  0.615630  0.750000  1
  Tc  Tc13  1  0.959739  0.389197  0.250000  1
  Tc  Tc14  1  0.463337  0.113256  0.750000  1
  Tc  Tc15  1  0.540201  0.887031  0.250000  1
