# generated using pymatgen
data_LaNd4Sc15(BO3)20
_symmetry_space_group_name_H-M   'P 1'
_cell_length_a   7.82298332
_cell_length_b   7.82298412
_cell_length_c   18.90268586
_cell_angle_alpha   87.74657536
_cell_angle_beta   87.74657602
_cell_angle_gamma   78.31782538
_symmetry_Int_Tables_number   1
_chemical_formula_structural   LaNd4Sc15(BO3)20
_chemical_formula_sum   'La1 Nd4 Sc15 B20 O60'
_cell_volume   1131.40673932
_cell_formula_units_Z   1
loop_
 _symmetry_equiv_pos_site_id
 _symmetry_equiv_pos_as_xyz
  1  'x, y, z'
loop_
 _atom_site_type_symbol
 _atom_site_label
 _atom_site_symmetry_multiplicity
 _atom_site_fract_x
 _atom_site_fract_y
 _atom_site_fract_z
 _atom_site_occupancy
  La  La0  1  0.999903  0.000097  0.500000  1
  Nd  Nd1  1  0.400092  0.400102  0.700217  1
  Nd  Nd2  1  0.800050  0.799931  0.900019  1
  Nd  Nd3  1  0.200069  0.199950  0.099981  1
  Nd  Nd4  1  0.599898  0.599908  0.299783  1
  Sc  Sc5  1  0.709408  0.162296  0.081175  1
  Sc  Sc6  1  0.109648  0.561899  0.281000  1
  Sc  Sc7  1  0.509721  0.961530  0.480755  1
  Sc  Sc8  1  0.909318  0.362202  0.681099  1
  Sc  Sc9  1  0.309395  0.762268  0.881150  1
  Sc  Sc10  1  0.237732  0.690605  0.118850  1
  Sc  Sc11  1  0.637798  0.090682  0.318901  1
  Sc  Sc12  1  0.038470  0.490279  0.519245  1
  Sc  Sc13  1  0.438101  0.890352  0.719000  1
  Sc  Sc14  1  0.837704  0.290592  0.918825  1
  Sc  Sc15  1  0.252784  0.347231  0.899958  1
  Sc  Sc16  1  0.652769  0.747216  0.100042  1
  Sc  Sc17  1  0.052553  0.147725  0.299606  1
  Sc  Sc18  1  0.452371  0.547629  0.500000  1
  Sc  Sc19  1  0.852275  0.947447  0.700394  1
  B  B20  1  0.500030  0.499970  0.000000  1
  B  B21  1  0.899942  0.899882  0.200040  1
  B  B22  1  0.300265  0.300150  0.399916  1
  B  B23  1  0.699850  0.699735  0.600084  1
  B  B24  1  0.100118  0.100058  0.799960  1
  B  B25  1  0.848441  0.749697  0.399679  1
  B  B26  1  0.250303  0.151559  0.600321  1
  B  B27  1  0.648788  0.551139  0.799944  1
  B  B28  1  0.048782  0.951218  0.000000  1
  B  B29  1  0.448861  0.351212  0.200056  1
  B  B30  1  0.390283  0.939016  0.219527  1
  B  B31  1  0.789606  0.340694  0.419281  1
  B  B32  1  0.190703  0.738133  0.620247  1
  B  B33  1  0.590049  0.139236  0.819513  1
  B  B34  1  0.990228  0.539022  0.019511  1
  B  B35  1  0.659306  0.210394  0.580719  1
  B  B36  1  0.060984  0.609716  0.780473  1
  B  B37  1  0.460978  0.009772  0.980489  1
  B  B38  1  0.860764  0.409951  0.180487  1
  B  B39  1  0.261867  0.809297  0.379753  1
  O  O40  1  0.640448  0.359552  0.000000  1
  O  O41  1  0.040419  0.759592  0.199985  1
  O  O42  1  0.440610  0.159641  0.399857  1
  O  O43  1  0.840359  0.559390  0.600143  1
  O  O44  1  0.240408  0.959581  0.800015  1
  O  O45  1  0.471965  0.612240  0.056178  1
  O  O46  1  0.871717  0.012255  0.256186  1
  O  O47  1  0.272239  0.412334  0.456138  1
  O  O48  1  0.671910  0.812220  0.656190  1
  O  O49  1  0.071925  0.212306  0.856150  1
  O  O50  1  0.387760  0.528035  0.943822  1
  O  O51  1  0.787694  0.928075  0.143850  1
  O  O52  1  0.187780  0.328090  0.343810  1
  O  O53  1  0.587666  0.727761  0.543862  1
  O  O54  1  0.987745  0.128283  0.743814  1
  O  O55  1  0.908535  0.091465  0.000000  1
  O  O56  1  0.308588  0.491398  0.199963  1
  O  O57  1  0.709390  0.891321  0.400030  1
  O  O58  1  0.108679  0.290610  0.599970  1
  O  O59  1  0.508602  0.691412  0.800037  1
  O  O60  1  0.418297  0.826867  0.163400  1
  O  O61  1  0.818507  0.226627  0.363746  1
  O  O62  1  0.218032  0.627665  0.563516  1
  O  O63  1  0.618106  0.026917  0.763467  1
  O  O64  1  0.018258  0.426885  0.963382  1
  O  O65  1  0.173133  0.581703  0.836600  1
  O  O66  1  0.573115  0.981742  0.036618  1
  O  O67  1  0.973083  0.381894  0.236533  1
  O  O68  1  0.372335  0.781968  0.436484  1
  O  O69  1  0.773373  0.181493  0.636254  1
  O  O70  1  0.079644  0.850301  0.940517  1
  O  O71  1  0.479756  0.250297  0.140595  1
  O  O72  1  0.878887  0.650172  0.339908  1
  O  O73  1  0.283245  0.050980  0.540928  1
  O  O74  1  0.679593  0.450227  0.740457  1
  O  O75  1  0.712696  0.114145  0.871712  1
  O  O76  1  0.112812  0.513949  0.071777  1
  O  O77  1  0.512767  0.913945  0.271831  1
  O  O78  1  0.911888  0.318080  0.471446  1
  O  O79  1  0.314430  0.712818  0.671933  1
  O  O80  1  0.730392  0.558801  0.180094  1
  O  O81  1  0.132403  0.958428  0.378314  1
  O  O82  1  0.529927  0.360010  0.580475  1
  O  O83  1  0.930431  0.758551  0.780154  1
  O  O84  1  0.330529  0.158703  0.980027  1
  O  O85  1  0.441199  0.269608  0.819906  1
  O  O86  1  0.841297  0.669471  0.019973  1
  O  O87  1  0.241449  0.069569  0.219846  1
  O  O88  1  0.639990  0.470073  0.419525  1
  O  O89  1  0.041572  0.867597  0.621686  1
  O  O90  1  0.149699  0.920356  0.059483  1
  O  O91  1  0.549773  0.320407  0.259543  1
  O  O92  1  0.949020  0.716755  0.459072  1
  O  O93  1  0.349828  0.121113  0.660092  1
  O  O94  1  0.749703  0.520244  0.859405  1
  O  O95  1  0.885855  0.287304  0.128288  1
  O  O96  1  0.287182  0.685570  0.328067  1
  O  O97  1  0.681920  0.088112  0.528554  1
  O  O98  1  0.086055  0.487233  0.728169  1
  O  O99  1  0.486051  0.887188  0.928223  1
