# generated using pymatgen
data_TbHo5Rh18
_symmetry_space_group_name_H-M   'P 1'
_cell_length_a   5.26432300
_cell_length_b   5.26432236
_cell_length_c   17.57218500
_cell_angle_alpha   90.00000000
_cell_angle_beta   90.00000000
_cell_angle_gamma   119.99999775
_symmetry_Int_Tables_number   1
_chemical_formula_structural   TbHo5Rh18
_chemical_formula_sum   'Tb1 Ho5 Rh18'
_cell_volume   421.73671596
_cell_formula_units_Z   1
loop_
 _symmetry_equiv_pos_site_id
 _symmetry_equiv_pos_as_xyz
  1  'x, y, z'
loop_
 _atom_site_type_symbol
 _atom_site_label
 _atom_site_symmetry_multiplicity
 _atom_site_fract_x
 _atom_site_fract_y
 _atom_site_fract_z
 _atom_site_occupancy
  Tb  Tb0  1  0.666667  0.333333  0.250000  1
  Ho  Ho1  1  0.333333  0.666667  0.542163  1
  Ho  Ho2  1  0.666667  0.333333  0.041339  1
  Ho  Ho3  1  0.666667  0.333333  0.458661  1
  Ho  Ho4  1  0.333333  0.666667  0.957837  1
  Ho  Ho5  1  0.333333  0.666667  0.750000  1
  Rh  Rh6  1  0.167338  0.334676  0.125057  1
  Rh  Rh7  1  0.832685  0.665371  0.625666  1
  Rh  Rh8  1  0.665324  0.832662  0.125057  1
  Rh  Rh9  1  0.167338  0.832662  0.125057  1
  Rh  Rh10  1  0.832685  0.167315  0.625666  1
  Rh  Rh11  1  0.334629  0.167315  0.625666  1
  Rh  Rh12  1  0.832685  0.665371  0.874334  1
  Rh  Rh13  1  0.832685  0.167315  0.874334  1
  Rh  Rh14  1  0.334629  0.167315  0.874334  1
  Rh  Rh15  1  0.665324  0.832662  0.374943  1
  Rh  Rh16  1  0.167338  0.832662  0.374943  1
  Rh  Rh17  1  0.167338  0.334676  0.374943  1
  Rh  Rh18  1  0.000000  0.000000  0.250000  1
  Rh  Rh19  1  0.000000  0.000000  0.750000  1
  Rh  Rh20  1  0.333333  0.666667  0.250000  1
  Rh  Rh21  1  0.666667  0.333333  0.750000  1
  Rh  Rh22  1  0.000000  0.000000  0.999692  1
  Rh  Rh23  1  0.000000  0.000000  0.500308  1
