# generated using pymatgen
data_Sc3Ti2Co10SiB4
_symmetry_space_group_name_H-M   'P 1'
_cell_length_a   8.62585605
_cell_length_b   8.62112817
_cell_length_c   2.97933000
_cell_angle_alpha   90.00000000
_cell_angle_beta   90.00000000
_cell_angle_gamma   90.34308958
_symmetry_Int_Tables_number   1
_chemical_formula_structural   Sc3Ti2Co10SiB4
_chemical_formula_sum   'Sc3 Ti2 Co10 Si1 B4'
_cell_volume   221.55274300
_cell_formula_units_Z   1
loop_
 _symmetry_equiv_pos_site_id
 _symmetry_equiv_pos_as_xyz
  1  'x, y, z'
loop_
 _atom_site_type_symbol
 _atom_site_label
 _atom_site_symmetry_multiplicity
 _atom_site_fract_x
 _atom_site_fract_y
 _atom_site_fract_z
 _atom_site_occupancy
  Sc  Sc0  1  0.827619  0.321852  0.000000  1
  Sc  Sc1  1  0.320303  0.171773  0.000000  1
  Sc  Sc2  1  0.678272  0.826684  0.000000  1
  Ti  Ti3  1  0.501023  0.499648  0.000000  1
  Ti  Ti4  1  0.173146  0.677326  0.000000  1
  Co  Co5  1  0.496904  0.996910  0.500000  1
  Co  Co6  1  0.005653  0.506135  0.500000  1
  Co  Co7  1  0.068072  0.219503  0.500000  1
  Co  Co8  1  0.212015  0.924548  0.500000  1
  Co  Co9  1  0.782915  0.066388  0.500000  1
  Co  Co10  1  0.940310  0.783694  0.500000  1
  Co  Co11  1  0.419968  0.718709  0.500000  1
  Co  Co12  1  0.570064  0.276020  0.500000  1
  Co  Co13  1  0.725857  0.571824  0.500000  1
  Co  Co14  1  0.277400  0.436222  0.500000  1
  Si  Si15  1  0.999307  0.001686  0.000000  1
  B  B16  1  0.619650  0.117995  0.000000  1
  B  B17  1  0.121926  0.382598  0.000000  1
  B  B18  1  0.884882  0.624129  0.000000  1
  B  B19  1  0.374715  0.876356  0.000000  1
