# generated using pymatgen
data_Pr19SmSi15Pd
_symmetry_space_group_name_H-M   'P 1'
_cell_length_a   7.93678877
_cell_length_b   7.93216248
_cell_length_c   15.31905304
_cell_angle_alpha   89.94537710
_cell_angle_beta   89.67500194
_cell_angle_gamma   90.13736993
_symmetry_Int_Tables_number   1
_chemical_formula_structural   Pr19SmSi15Pd
_chemical_formula_sum   'Pr19 Sm1 Si15 Pd1'
_cell_volume   964.40600469
_cell_formula_units_Z   1
loop_
 _symmetry_equiv_pos_site_id
 _symmetry_equiv_pos_as_xyz
  1  'x, y, z'
loop_
 _atom_site_type_symbol
 _atom_site_label
 _atom_site_symmetry_multiplicity
 _atom_site_fract_x
 _atom_site_fract_y
 _atom_site_fract_z
 _atom_site_occupancy
  Pr  Pr0  1  0.190315  0.807918  0.249733  1
  Pr  Pr1  1  0.808546  0.186054  0.751289  1
  Pr  Pr2  1  0.692651  0.688217  0.498900  1
  Pr  Pr3  1  0.374611  0.010250  0.447559  1
  Pr  Pr4  1  0.491935  0.871446  0.698724  1
  Pr  Pr5  1  0.509415  0.123907  0.196940  1
  Pr  Pr6  1  0.876260  0.488205  0.300182  1
  Pr  Pr7  1  0.122505  0.512977  0.801907  1
  Pr  Pr8  1  0.626654  0.988130  0.949538  1
  Pr  Pr9  1  0.001842  0.378462  0.550395  1
  Pr  Pr10  1  0.988742  0.625054  0.051978  1
  Pr  Pr11  1  0.134480  0.986565  0.876319  1
  Pr  Pr12  1  0.516922  0.631057  0.125663  1
  Pr  Pr13  1  0.477693  0.366964  0.627994  1
  Pr  Pr14  1  0.628589  0.517598  0.874471  1
  Pr  Pr15  1  0.371824  0.482562  0.372905  1
  Pr  Pr16  1  0.872180  0.020027  0.376407  1
  Pr  Pr17  1  0.982326  0.127093  0.123997  1
  Pr  Pr18  1  0.020089  0.874037  0.623412  1
  Sm  Sm19  1  0.308209  0.307801  0.999092  1
  Si  Si20  1  0.331553  0.693628  0.951725  1
  Si  Si21  1  0.663549  0.303825  0.451828  1
  Si  Si22  1  0.695934  0.333996  0.049068  1
  Si  Si23  1  0.305098  0.668499  0.548151  1
  Si  Si24  1  0.804752  0.832565  0.202624  1
  Si  Si25  1  0.167756  0.196968  0.297803  1
  Si  Si26  1  0.835902  0.803434  0.798414  1
  Si  Si27  1  0.288540  0.924809  0.058743  1
  Si  Si28  1  0.578644  0.787201  0.309586  1
  Si  Si29  1  0.428342  0.209654  0.815291  1
  Si  Si30  1  0.786438  0.579230  0.690328  1
  Si  Si31  1  0.213297  0.421078  0.188468  1
  Si  Si32  1  0.706211  0.075944  0.559055  1
  Si  Si33  1  0.923633  0.289732  0.941969  1
  Si  Si34  1  0.079297  0.714182  0.441082  1
  Pd  Pd35  1  0.195265  0.170933  0.698457  1
