# generated using pymatgen
data_CaTb(PrSi)4
_symmetry_space_group_name_H-M   'P 1'
_cell_length_a   7.70452300
_cell_length_b   7.70452300
_cell_length_c   4.44290500
_cell_angle_alpha   90.00000000
_cell_angle_beta   90.00000000
_cell_angle_gamma   90.00000000
_symmetry_Int_Tables_number   1
_chemical_formula_structural   CaTb(PrSi)4
_chemical_formula_sum   'Ca1 Tb1 Pr4 Si4'
_cell_volume   263.72939533
_cell_formula_units_Z   1
loop_
 _symmetry_equiv_pos_site_id
 _symmetry_equiv_pos_as_xyz
  1  'x, y, z'
loop_
 _atom_site_type_symbol
 _atom_site_label
 _atom_site_symmetry_multiplicity
 _atom_site_fract_x
 _atom_site_fract_y
 _atom_site_fract_z
 _atom_site_occupancy
  Ca  Ca0  1  0.500000  0.500000  0.000000  1
  Tb  Tb1  1  0.000000  0.000000  0.000000  1
  Pr  Pr2  1  0.676430  0.178425  0.500000  1
  Pr  Pr3  1  0.323570  0.821575  0.500000  1
  Pr  Pr4  1  0.178425  0.323570  0.500000  1
  Pr  Pr5  1  0.821575  0.676430  0.500000  1
  Si  Si6  1  0.106275  0.617393  0.000000  1
  Si  Si7  1  0.893725  0.382607  0.000000  1
  Si  Si8  1  0.617393  0.893725  0.000000  1
  Si  Si9  1  0.382607  0.106275  0.000000  1
