# generated using pymatgen
data_Y16Cd4OsPt3
_symmetry_space_group_name_H-M   'P 1'
_cell_length_a   9.73084388
_cell_length_b   9.73104418
_cell_length_c   9.73101311
_cell_angle_alpha   59.73504980
_cell_angle_beta   59.73374043
_cell_angle_gamma   59.73404697
_symmetry_Int_Tables_number   1
_chemical_formula_structural   Y16Cd4OsPt3
_chemical_formula_sum   'Y16 Cd4 Os1 Pt3'
_cell_volume   647.62603433
_cell_formula_units_Z   1
loop_
 _symmetry_equiv_pos_site_id
 _symmetry_equiv_pos_as_xyz
  1  'x, y, z'
loop_
 _atom_site_type_symbol
 _atom_site_label
 _atom_site_symmetry_multiplicity
 _atom_site_fract_x
 _atom_site_fract_y
 _atom_site_fract_z
 _atom_site_occupancy
  Y  Y0  1  0.352972  0.352963  0.352969  1
  Y  Y1  1  0.348563  0.348555  0.950399  1
  Y  Y2  1  0.348565  0.950390  0.348554  1
  Y  Y3  1  0.950392  0.348564  0.348560  1
  Y  Y4  1  0.814888  0.189112  0.189118  1
  Y  Y5  1  0.189662  0.809291  0.809289  1
  Y  Y6  1  0.189111  0.814893  0.189108  1
  Y  Y7  1  0.809289  0.189662  0.809290  1
  Y  Y8  1  0.189109  0.189108  0.814897  1
  Y  Y9  1  0.809288  0.809292  0.189662  1
  Y  Y10  1  0.934591  0.565108  0.565102  1
  Y  Y11  1  0.558964  0.936720  0.936711  1
  Y  Y12  1  0.565110  0.934583  0.565109  1
  Y  Y13  1  0.936717  0.558962  0.936714  1
  Y  Y14  1  0.565104  0.565107  0.934585  1
  Y  Y15  1  0.936720  0.936723  0.558952  1
  Cd  Cd16  1  0.580910  0.580919  0.580920  1
  Cd  Cd17  1  0.581510  0.581521  0.255401  1
  Cd  Cd18  1  0.581510  0.255403  0.581520  1
  Cd  Cd19  1  0.255404  0.581516  0.581514  1
  Os  Os20  1  0.141756  0.141756  0.141771  1
  Pt  Pt21  1  0.143426  0.143419  0.573012  1
  Pt  Pt22  1  0.143425  0.573014  0.143420  1
  Pt  Pt23  1  0.573015  0.143419  0.143422  1
