# generated using pymatgen
data_Ac(P3Os)4
_symmetry_space_group_name_H-M   'P 1'
_cell_length_a   7.06910922
_cell_length_b   7.06911016
_cell_length_c   7.06910900
_cell_angle_alpha   109.47122018
_cell_angle_beta   109.47122286
_cell_angle_gamma   109.47122383
_symmetry_Int_Tables_number   1
_chemical_formula_structural   Ac(P3Os)4
_chemical_formula_sum   'Ac1 P12 Os4'
_cell_volume   271.93944199
_cell_formula_units_Z   1
loop_
 _symmetry_equiv_pos_site_id
 _symmetry_equiv_pos_as_xyz
  1  'x, y, z'
loop_
 _atom_site_type_symbol
 _atom_site_label
 _atom_site_symmetry_multiplicity
 _atom_site_fract_x
 _atom_site_fract_y
 _atom_site_fract_z
 _atom_site_occupancy
  Ac  Ac0  1  0.000000  0.000000  0.000000  1
  P  P1  1  0.855949  0.641392  0.497341  1
  P  P2  1  0.144051  0.358608  0.502659  1
  P  P3  1  0.144051  0.641392  0.785443  1
  P  P4  1  0.855949  0.358608  0.214557  1
  P  P5  1  0.641392  0.497341  0.855949  1
  P  P6  1  0.358608  0.502659  0.144051  1
  P  P7  1  0.641392  0.785443  0.144051  1
  P  P8  1  0.358608  0.214557  0.855949  1
  P  P9  1  0.497341  0.855949  0.641392  1
  P  P10  1  0.502659  0.144051  0.358608  1
  P  P11  1  0.785443  0.144051  0.641392  1
  P  P12  1  0.214557  0.855949  0.358608  1
  Os  Os13  1  0.500000  0.500000  0.500000  1
  Os  Os14  1  0.500000  0.000000  0.000000  1
  Os  Os15  1  0.000000  0.500000  0.000000  1
  Os  Os16  1  0.000000  0.000000  0.500000  1
