# generated using pymatgen
data_Eu5GaNi2
_symmetry_space_group_name_H-M   'P 1'
_cell_length_a   9.04374363
_cell_length_b   9.04374374
_cell_length_c   9.04374300
_cell_angle_alpha   128.78123783
_cell_angle_beta   128.78123838
_cell_angle_gamma   75.36282439
_symmetry_Int_Tables_number   1
_chemical_formula_structural   Eu5GaNi2
_chemical_formula_sum   'Eu10 Ga2 Ni4'
_cell_volume   437.47112358
_cell_formula_units_Z   2
loop_
 _symmetry_equiv_pos_site_id
 _symmetry_equiv_pos_as_xyz
  1  'x, y, z'
loop_
 _atom_site_type_symbol
 _atom_site_label
 _atom_site_symmetry_multiplicity
 _atom_site_fract_x
 _atom_site_fract_y
 _atom_site_fract_z
 _atom_site_occupancy
  Eu  Eu0  1  0.500000  0.500000  0.000000  1
  Eu  Eu1  1  0.000000  0.000000  0.000000  1
  Eu  Eu2  1  0.530944  0.030944  0.840073  1
  Eu  Eu3  1  0.190871  0.690871  0.159927  1
  Eu  Eu4  1  0.030944  0.190871  0.500000  1
  Eu  Eu5  1  0.690871  0.530944  0.500000  1
  Eu  Eu6  1  0.469056  0.969056  0.159927  1
  Eu  Eu7  1  0.809129  0.309129  0.840073  1
  Eu  Eu8  1  0.969056  0.809129  0.500000  1
  Eu  Eu9  1  0.309129  0.469056  0.500000  1
  Ga  Ga10  1  0.250000  0.250000  0.000000  1
  Ga  Ga11  1  0.750000  0.750000  0.000000  1
  Ni  Ni12  1  0.111550  0.611550  0.723100  1
  Ni  Ni13  1  0.888450  0.388450  0.276900  1
  Ni  Ni14  1  0.611550  0.888450  0.500000  1
  Ni  Ni15  1  0.388450  0.111550  0.500000  1
