# generated using pymatgen
data_Tm4CrTc3B16
_symmetry_space_group_name_H-M   'P 1'
_cell_length_a   3.53929800
_cell_length_b   5.92975680
_cell_length_c   11.45549945
_cell_angle_alpha   89.88849096
_cell_angle_beta   90.00000000
_cell_angle_gamma   90.00000000
_symmetry_Int_Tables_number   1
_chemical_formula_structural   Tm4CrTc3B16
_chemical_formula_sum   'Tm4 Cr1 Tc3 B16'
_cell_volume   240.41813195
_cell_formula_units_Z   1
loop_
 _symmetry_equiv_pos_site_id
 _symmetry_equiv_pos_as_xyz
  1  'x, y, z'
loop_
 _atom_site_type_symbol
 _atom_site_label
 _atom_site_symmetry_multiplicity
 _atom_site_fract_x
 _atom_site_fract_y
 _atom_site_fract_z
 _atom_site_occupancy
  Tm  Tm0  1  0.000000  0.626323  0.350794  1
  Tm  Tm1  1  0.000000  0.374885  0.649482  1
  Tm  Tm2  1  0.000000  0.128089  0.150057  1
  Tm  Tm3  1  0.000000  0.871931  0.848305  1
  Cr  Cr4  1  0.000000  0.871367  0.583368  1
  Tc  Tc5  1  0.000000  0.634720  0.088399  1
  Tc  Tc6  1  0.000000  0.365275  0.911620  1
  Tc  Tc7  1  0.000000  0.127946  0.416738  1
  B  B8  1  0.500000  0.788040  0.186205  1
  B  B9  1  0.500000  0.211462  0.813542  1
  B  B10  1  0.500000  0.287179  0.315727  1
  B  B11  1  0.500000  0.714548  0.683671  1
  B  B12  1  0.500000  0.865429  0.031045  1
  B  B13  1  0.500000  0.134694  0.968523  1
  B  B14  1  0.500000  0.365023  0.469196  1
  B  B15  1  0.500000  0.636203  0.532421  1
  B  B16  1  0.500000  0.884629  0.453386  1
  B  B17  1  0.500000  0.113027  0.548646  1
  B  B18  1  0.500000  0.386054  0.047563  1
  B  B19  1  0.500000  0.614438  0.951908  1
  B  B20  1  0.500000  0.977303  0.307728  1
  B  B21  1  0.500000  0.020740  0.692169  1
  B  B22  1  0.500000  0.475859  0.193627  1
  B  B23  1  0.500000  0.524836  0.805882  1
