# generated using pymatgen
data_Ho2ErCo8TcP6
_symmetry_space_group_name_H-M   'P 1'
_cell_length_a   3.70406800
_cell_length_b   10.50899700
_cell_length_c   12.20329200
_cell_angle_alpha   90.00000000
_cell_angle_beta   90.00000000
_cell_angle_gamma   90.00000000
_symmetry_Int_Tables_number   1
_chemical_formula_structural   Ho2ErCo8TcP6
_chemical_formula_sum   'Ho4 Er2 Co16 Tc2 P12'
_cell_volume   475.02582642
_cell_formula_units_Z   2
loop_
 _symmetry_equiv_pos_site_id
 _symmetry_equiv_pos_as_xyz
  1  'x, y, z'
loop_
 _atom_site_type_symbol
 _atom_site_label
 _atom_site_symmetry_multiplicity
 _atom_site_fract_x
 _atom_site_fract_y
 _atom_site_fract_z
 _atom_site_occupancy
  Ho  Ho0  1  0.000000  0.500000  0.524315  1
  Ho  Ho1  1  0.500000  0.000000  0.475604  1
  Ho  Ho2  1  0.000000  0.682087  0.794102  1
  Ho  Ho3  1  0.000000  0.317913  0.794102  1
  Er  Er4  1  0.500000  0.818025  0.205947  1
  Er  Er5  1  0.500000  0.181975  0.205947  1
  Co  Co6  1  0.000000  0.500000  0.987233  1
  Co  Co7  1  0.500000  0.000000  0.012889  1
  Co  Co8  1  0.500000  0.296635  0.431114  1
  Co  Co9  1  0.500000  0.703365  0.431114  1
  Co  Co10  1  0.000000  0.203335  0.568789  1
  Co  Co11  1  0.000000  0.796665  0.568789  1
  Co  Co12  1  0.500000  0.878756  0.707595  1
  Co  Co13  1  0.500000  0.121244  0.707595  1
  Co  Co14  1  0.000000  0.621396  0.292334  1
  Co  Co15  1  0.000000  0.378604  0.292334  1
  Co  Co16  1  0.500000  0.332261  0.989797  1
  Co  Co17  1  0.500000  0.667739  0.989797  1
  Co  Co18  1  0.000000  0.167734  0.010398  1
  Co  Co19  1  0.000000  0.832266  0.010398  1
  Co  Co20  1  0.500000  0.500000  0.702590  1
  Co  Co21  1  0.000000  0.000000  0.297248  1
  Tc  Tc22  1  0.500000  0.500000  0.156773  1
  Tc  Tc23  1  0.000000  0.000000  0.843195  1
  P  P24  1  0.500000  0.311964  0.616231  1
  P  P25  1  0.500000  0.688036  0.616231  1
  P  P26  1  0.000000  0.187950  0.383552  1
  P  P27  1  0.000000  0.812050  0.383552  1
  P  P28  1  0.500000  0.500000  0.880840  1
  P  P29  1  0.000000  0.000000  0.119444  1
  P  P30  1  0.500000  0.845955  0.892420  1
  P  P31  1  0.500000  0.154045  0.892420  1
  P  P32  1  0.000000  0.654207  0.107657  1
  P  P33  1  0.000000  0.345793  0.107657  1
  P  P34  1  0.500000  0.500000  0.349204  1
  P  P35  1  0.000000  0.000000  0.650792  1
