# generated using pymatgen
data_Pr4DyInSi2
_symmetry_space_group_name_H-M   'P 1'
_cell_length_a   7.81901680
_cell_length_b   7.81901651
_cell_length_c   9.35993352
_cell_angle_alpha   114.68855292
_cell_angle_beta   114.68855415
_cell_angle_gamma   89.99999948
_symmetry_Int_Tables_number   1
_chemical_formula_structural   Pr4DyInSi2
_chemical_formula_sum   'Pr8 Dy2 In2 Si4'
_cell_volume   461.73563952
_cell_formula_units_Z   2
loop_
 _symmetry_equiv_pos_site_id
 _symmetry_equiv_pos_as_xyz
  1  'x, y, z'
loop_
 _atom_site_type_symbol
 _atom_site_label
 _atom_site_symmetry_multiplicity
 _atom_site_fract_x
 _atom_site_fract_y
 _atom_site_fract_z
 _atom_site_occupancy
  Pr  Pr0  1  0.960711  0.814313  0.275024  1
  Pr  Pr1  1  0.314313  0.460711  0.275024  1
  Pr  Pr2  1  0.814313  0.314313  0.275024  1
  Pr  Pr3  1  0.460711  0.960711  0.275024  1
  Pr  Pr4  1  0.039289  0.185687  0.724976  1
  Pr  Pr5  1  0.685687  0.539289  0.724976  1
  Pr  Pr6  1  0.185687  0.685687  0.724976  1
  Pr  Pr7  1  0.539289  0.039289  0.724976  1
  Dy  Dy8  1  0.500000  0.500000  0.000000  1
  Dy  Dy9  1  0.000000  0.000000  0.000000  1
  In  In10  1  0.750000  0.750000  0.500000  1
  In  In11  1  0.250000  0.250000  0.500000  1
  Si  Si12  1  0.619068  0.880932  0.000000  1
  Si  Si13  1  0.380932  0.119068  0.000000  1
  Si  Si14  1  0.880932  0.380932  0.000000  1
  Si  Si15  1  0.119068  0.619068  0.000000  1
