# generated using pymatgen
data_DyHoZn2IrPt
_symmetry_space_group_name_H-M   'P 1'
_cell_length_a   4.08293600
_cell_length_b   6.96464199
_cell_length_c   8.19112797
_cell_angle_alpha   89.87143953
_cell_angle_beta   90.00000000
_cell_angle_gamma   90.00000000
_symmetry_Int_Tables_number   1
_chemical_formula_structural   DyHoZn2IrPt
_chemical_formula_sum   'Dy2 Ho2 Zn4 Ir2 Pt2'
_cell_volume   232.92386463
_cell_formula_units_Z   2
loop_
 _symmetry_equiv_pos_site_id
 _symmetry_equiv_pos_as_xyz
  1  'x, y, z'
loop_
 _atom_site_type_symbol
 _atom_site_label
 _atom_site_symmetry_multiplicity
 _atom_site_fract_x
 _atom_site_fract_y
 _atom_site_fract_z
 _atom_site_occupancy
  Dy  Dy0  1  0.250000  0.543428  0.188076  1
  Dy  Dy1  1  0.750000  0.456572  0.811924  1
  Ho  Ho2  1  0.250000  0.036966  0.321285  1
  Ho  Ho3  1  0.750000  0.963034  0.678715  1
  Zn  Zn4  1  0.250000  0.138229  0.933066  1
  Zn  Zn5  1  0.750000  0.861771  0.066934  1
  Zn  Zn6  1  0.250000  0.637039  0.562053  1
  Zn  Zn7  1  0.750000  0.362961  0.437947  1
  Ir  Ir8  1  0.750000  0.747147  0.377568  1
  Ir  Ir9  1  0.250000  0.252853  0.622432  1
  Pt  Pt10  1  0.750000  0.245300  0.121349  1
  Pt  Pt11  1  0.250000  0.754700  0.878651  1
