# generated using pymatgen
data_Tb4MgZn2Sb
_symmetry_space_group_name_H-M   'P 1'
_cell_length_a   8.57319396
_cell_length_b   8.57319337
_cell_length_c   8.57319500
_cell_angle_alpha   125.53838058
_cell_angle_beta   125.53837778
_cell_angle_gamma   80.64817766
_symmetry_Int_Tables_number   1
_chemical_formula_structural   Tb4MgZn2Sb
_chemical_formula_sum   'Tb8 Mg2 Zn4 Sb2'
_cell_volume   402.34211877
_cell_formula_units_Z   2
loop_
 _symmetry_equiv_pos_site_id
 _symmetry_equiv_pos_as_xyz
  1  'x, y, z'
loop_
 _atom_site_type_symbol
 _atom_site_label
 _atom_site_symmetry_multiplicity
 _atom_site_fract_x
 _atom_site_fract_y
 _atom_site_fract_z
 _atom_site_occupancy
  Tb  Tb0  1  0.515870  0.697198  0.500000  1
  Tb  Tb1  1  0.015907  0.515907  0.818760  1
  Tb  Tb2  1  0.697145  0.197145  0.181243  1
  Tb  Tb3  1  0.984093  0.484093  0.181240  1
  Tb  Tb4  1  0.197198  0.015870  0.500000  1
  Tb  Tb5  1  0.484130  0.302802  0.500000  1
  Tb  Tb6  1  0.802802  0.984130  0.500000  1
  Tb  Tb7  1  0.302855  0.802855  0.818757  1
  Mg  Mg8  1  0.000000  0.000000  0.000000  1
  Mg  Mg9  1  0.500000  0.500000  0.000000  1
  Zn  Zn10  1  0.364575  0.864575  0.229148  1
  Zn  Zn11  1  0.864589  0.635411  0.500000  1
  Zn  Zn12  1  0.635425  0.135425  0.770852  1
  Zn  Zn13  1  0.135411  0.364589  0.500000  1
  Sb  Sb14  1  0.750001  0.749999  0.000000  1
  Sb  Sb15  1  0.249999  0.250001  0.000000  1
