# generated using pymatgen
data_SrLa(CuO2)4
_symmetry_space_group_name_H-M   'P 1'
_cell_length_a   6.42486418
_cell_length_b   6.42486463
_cell_length_c   6.42486440
_cell_angle_alpha   124.61596381
_cell_angle_beta   124.61597206
_cell_angle_gamma   82.17509151
_symmetry_Int_Tables_number   1
_chemical_formula_structural   SrLa(CuO2)4
_chemical_formula_sum   'Sr1 La1 Cu4 O8'
_cell_volume   172.67690157
_cell_formula_units_Z   1
loop_
 _symmetry_equiv_pos_site_id
 _symmetry_equiv_pos_as_xyz
  1  'x, y, z'
loop_
 _atom_site_type_symbol
 _atom_site_label
 _atom_site_symmetry_multiplicity
 _atom_site_fract_x
 _atom_site_fract_y
 _atom_site_fract_z
 _atom_site_occupancy
  Sr  Sr0  1  0.000000  0.000000  0.000000  1
  La  La1  1  0.750000  0.250000  0.500000  1
  Cu  Cu2  1  0.370384  0.624232  0.244085  1
  Cu  Cu3  1  0.380147  0.126299  0.755915  1
  Cu  Cu4  1  0.375768  0.619853  0.746152  1
  Cu  Cu5  1  0.873701  0.629616  0.253848  1
  O  O6  1  0.722387  0.314309  0.135403  1
  O  O7  1  0.178906  0.586984  0.864597  1
  O  O8  1  0.031031  0.950546  0.387732  1
  O  O9  1  0.562813  0.643299  0.612268  1
  O  O10  1  0.049454  0.437187  0.080486  1
  O  O11  1  0.356701  0.968969  0.919514  1
  O  O12  1  0.413016  0.277613  0.591922  1
  O  O13  1  0.685691  0.821094  0.408078  1
