# generated using pymatgen
data_KNd2Er(SbAu)4
_symmetry_space_group_name_H-M   'P 1'
_cell_length_a   4.65152100
_cell_length_b   4.65152181
_cell_length_c   17.52325500
_cell_angle_alpha   90.00000000
_cell_angle_beta   90.00000000
_cell_angle_gamma   120.00000134
_symmetry_Int_Tables_number   1
_chemical_formula_structural   KNd2Er(SbAu)4
_chemical_formula_sum   'K1 Nd2 Er1 Sb4 Au4'
_cell_volume   328.34881585
_cell_formula_units_Z   1
loop_
 _symmetry_equiv_pos_site_id
 _symmetry_equiv_pos_as_xyz
  1  'x, y, z'
loop_
 _atom_site_type_symbol
 _atom_site_label
 _atom_site_symmetry_multiplicity
 _atom_site_fract_x
 _atom_site_fract_y
 _atom_site_fract_z
 _atom_site_occupancy
  K  K0  1  0.000000  0.000000  0.250000  1
  Nd  Nd1  1  0.000000  0.000000  0.514425  1
  Nd  Nd2  1  0.000000  0.000000  0.985575  1
  Er  Er3  1  0.000000  0.000000  0.750000  1
  Sb  Sb4  1  0.333333  0.666667  0.390608  1
  Sb  Sb5  1  0.666667  0.333333  0.620606  1
  Sb  Sb6  1  0.666667  0.333333  0.879394  1
  Sb  Sb7  1  0.333333  0.666667  0.109392  1
  Au  Au8  1  0.666667  0.333333  0.419195  1
  Au  Au9  1  0.333333  0.666667  0.668516  1
  Au  Au10  1  0.333333  0.666667  0.831484  1
  Au  Au11  1  0.666667  0.333333  0.080805  1
