# generated using pymatgen
data_Yb(CrS2)2
_symmetry_space_group_name_H-M   'P 1'
_cell_length_a   3.58893800
_cell_length_b   10.86278400
_cell_length_c   12.73329800
_cell_angle_alpha   90.00000000
_cell_angle_beta   90.00000000
_cell_angle_gamma   90.00000000
_symmetry_Int_Tables_number   1
_chemical_formula_structural   Yb(CrS2)2
_chemical_formula_sum   'Yb4 Cr8 S16'
_cell_volume   496.41855131
_cell_formula_units_Z   4
loop_
 _symmetry_equiv_pos_site_id
 _symmetry_equiv_pos_as_xyz
  1  'x, y, z'
loop_
 _atom_site_type_symbol
 _atom_site_label
 _atom_site_symmetry_multiplicity
 _atom_site_fract_x
 _atom_site_fract_y
 _atom_site_fract_z
 _atom_site_occupancy
  Yb  Yb0  1  0.250000  0.239128  0.331588  1
  Yb  Yb1  1  0.750000  0.760872  0.668412  1
  Yb  Yb2  1  0.750000  0.260872  0.831588  1
  Yb  Yb3  1  0.250000  0.739128  0.168412  1
  Cr  Cr4  1  0.250000  0.056931  0.114106  1
  Cr  Cr5  1  0.750000  0.943069  0.885894  1
  Cr  Cr6  1  0.750000  0.443069  0.614106  1
  Cr  Cr7  1  0.250000  0.556931  0.385894  1
  Cr  Cr8  1  0.250000  0.085140  0.596352  1
  Cr  Cr9  1  0.750000  0.914860  0.403648  1
  Cr  Cr10  1  0.750000  0.414860  0.096352  1
  Cr  Cr11  1  0.250000  0.585140  0.903648  1
  S  S12  1  0.750000  0.032587  0.712482  1
  S  S13  1  0.250000  0.967413  0.287518  1
  S  S14  1  0.250000  0.467413  0.212482  1
  S  S15  1  0.750000  0.532587  0.787518  1
  S  S16  1  0.250000  0.084502  0.927591  1
  S  S17  1  0.750000  0.915498  0.072409  1
  S  S18  1  0.750000  0.415498  0.427591  1
  S  S19  1  0.250000  0.584502  0.572409  1
  S  S20  1  0.750000  0.118949  0.472102  1
  S  S21  1  0.250000  0.881051  0.527898  1
  S  S22  1  0.250000  0.381051  0.972102  1
  S  S23  1  0.750000  0.618949  0.027898  1
  S  S24  1  0.750000  0.200842  0.160343  1
  S  S25  1  0.250000  0.799158  0.839657  1
  S  S26  1  0.250000  0.299158  0.660343  1
  S  S27  1  0.750000  0.700842  0.339657  1
