# generated using pymatgen
data_BaVNi(Sb6Os)2
_symmetry_space_group_name_H-M   'P 1'
_cell_length_a   8.19922575
_cell_length_b   8.14975528
_cell_length_c   8.25600463
_cell_angle_alpha   109.55620048
_cell_angle_beta   109.58612486
_cell_angle_gamma   109.03476443
_symmetry_Int_Tables_number   1
_chemical_formula_structural   BaVNi(Sb6Os)2
_chemical_formula_sum   'Ba1 V1 Ni1 Sb12 Os2'
_cell_volume   425.90961171
_cell_formula_units_Z   1
loop_
 _symmetry_equiv_pos_site_id
 _symmetry_equiv_pos_as_xyz
  1  'x, y, z'
loop_
 _atom_site_type_symbol
 _atom_site_label
 _atom_site_symmetry_multiplicity
 _atom_site_fract_x
 _atom_site_fract_y
 _atom_site_fract_z
 _atom_site_occupancy
  Ba  Ba0  1  0.000000  0.000000  0.000000  1
  V  V1  1  0.000000  0.500000  0.000000  1
  Ni  Ni2  1  0.000000  0.000000  0.500000  1
  Sb  Sb3  1  0.340460  0.184102  0.840504  1
  Sb  Sb4  1  0.659540  0.815898  0.159496  1
  Sb  Sb5  1  0.652661  0.497735  0.837147  1
  Sb  Sb6  1  0.347339  0.502265  0.162853  1
  Sb  Sb7  1  0.186901  0.848876  0.350715  1
  Sb  Sb8  1  0.813099  0.151124  0.649285  1
  Sb  Sb9  1  0.501198  0.843162  0.660023  1
  Sb  Sb10  1  0.498802  0.156838  0.339977  1
  Sb  Sb11  1  0.838357  0.340086  0.185473  1
  Sb  Sb12  1  0.161643  0.659914  0.814527  1
  Sb  Sb13  1  0.842970  0.659050  0.500638  1
  Sb  Sb14  1  0.157030  0.340950  0.499362  1
  Os  Os15  1  0.500000  0.000000  0.000000  1
  Os  Os16  1  0.500000  0.500000  0.500000  1
