# generated using pymatgen
data_Nd2TiSi3Rh4
_symmetry_space_group_name_H-M   'P 1'
_cell_length_a   4.13449400
_cell_length_b   4.13449400
_cell_length_c   10.37371700
_cell_angle_alpha   90.00000000
_cell_angle_beta   90.00000000
_cell_angle_gamma   90.00000000
_symmetry_Int_Tables_number   1
_chemical_formula_structural   Nd2TiSi3Rh4
_chemical_formula_sum   'Nd2 Ti1 Si3 Rh4'
_cell_volume   177.32873994
_cell_formula_units_Z   1
loop_
 _symmetry_equiv_pos_site_id
 _symmetry_equiv_pos_as_xyz
  1  'x, y, z'
loop_
 _atom_site_type_symbol
 _atom_site_label
 _atom_site_symmetry_multiplicity
 _atom_site_fract_x
 _atom_site_fract_y
 _atom_site_fract_z
 _atom_site_occupancy
  Nd  Nd0  1  0.000000  0.500000  0.244934  1
  Nd  Nd1  1  0.500000  0.000000  0.755066  1
  Ti  Ti2  1  0.000000  0.000000  0.500000  1
  Si  Si3  1  0.500000  0.500000  0.500000  1
  Si  Si4  1  0.000000  0.500000  0.876330  1
  Si  Si5  1  0.500000  0.000000  0.123670  1
  Rh  Rh6  1  0.000000  0.000000  0.000000  1
  Rh  Rh7  1  0.500000  0.500000  0.000000  1
  Rh  Rh8  1  0.000000  0.500000  0.639471  1
  Rh  Rh9  1  0.500000  0.000000  0.360529  1
