# generated using pymatgen
data_La3TbTe7Pd
_symmetry_space_group_name_H-M   'P 1'
_cell_length_a   4.35958495
_cell_length_b   8.90377400
_cell_length_c   9.41074385
_cell_angle_alpha   90.00000000
_cell_angle_beta   90.03255446
_cell_angle_gamma   90.00000000
_symmetry_Int_Tables_number   1
_chemical_formula_structural   La3TbTe7Pd
_chemical_formula_sum   'La3 Tb1 Te7 Pd1'
_cell_volume   365.29451826
_cell_formula_units_Z   1
loop_
 _symmetry_equiv_pos_site_id
 _symmetry_equiv_pos_as_xyz
  1  'x, y, z'
loop_
 _atom_site_type_symbol
 _atom_site_label
 _atom_site_symmetry_multiplicity
 _atom_site_fract_x
 _atom_site_fract_y
 _atom_site_fract_z
 _atom_site_occupancy
  La  La0  1  0.003052  0.250000  0.740465  1
  La  La1  1  0.499227  0.001860  0.270103  1
  La  La2  1  0.499227  0.498140  0.270103  1
  Tb  Tb3  1  0.000424  0.750000  0.709108  1
  Te  Te4  1  0.997813  0.939189  0.996367  1
  Te  Te5  1  0.997813  0.560811  0.996367  1
  Te  Te6  1  0.503740  0.250000  0.000859  1
  Te  Te7  1  0.999532  0.750000  0.373472  1
  Te  Te8  1  0.999882  0.250000  0.374850  1
  Te  Te9  1  0.501185  0.992952  0.633240  1
  Te  Te10  1  0.501185  0.507048  0.633240  1
  Pd  Pd11  1  0.496919  0.750000  0.002752  1
