# generated using pymatgen
data_Yb2Lu(BPt2)3
_symmetry_space_group_name_H-M   'P 1'
_cell_length_a   5.38685300
_cell_length_b   5.41151250
_cell_length_c   7.67385200
_cell_angle_alpha   90.00000000
_cell_angle_beta   90.00000000
_cell_angle_gamma   119.84938057
_symmetry_Int_Tables_number   1
_chemical_formula_structural   Yb2Lu(BPt2)3
_chemical_formula_sum   'Yb2 Lu1 B3 Pt6'
_cell_volume   194.02379225
_cell_formula_units_Z   1
loop_
 _symmetry_equiv_pos_site_id
 _symmetry_equiv_pos_as_xyz
  1  'x, y, z'
loop_
 _atom_site_type_symbol
 _atom_site_label
 _atom_site_symmetry_multiplicity
 _atom_site_fract_x
 _atom_site_fract_y
 _atom_site_fract_z
 _atom_site_occupancy
  Yb  Yb0  1  0.500000  0.500000  0.835548  1
  Yb  Yb1  1  0.000000  0.500000  0.164452  1
  Lu  Lu2  1  0.500000  0.000000  0.500000  1
  B  B3  1  0.500000  0.500000  0.331794  1
  B  B4  1  0.500000  0.000000  0.000000  1
  B  B5  1  0.000000  0.500000  0.668206  1
  Pt  Pt6  1  0.153416  0.858046  0.830138  1
  Pt  Pt7  1  0.148497  0.296994  0.500000  1
  Pt  Pt8  1  0.704629  0.858046  0.169862  1
  Pt  Pt9  1  0.846584  0.141954  0.830138  1
  Pt  Pt10  1  0.851503  0.703006  0.500000  1
  Pt  Pt11  1  0.295371  0.141954  0.169862  1
