# generated using pymatgen
data_Tm2UTc3
_symmetry_space_group_name_H-M   'P 1'
_cell_length_a   5.72819500
_cell_length_b   5.72819441
_cell_length_c   8.24354800
_cell_angle_alpha   90.00000000
_cell_angle_beta   90.00000000
_cell_angle_gamma   119.99999761
_symmetry_Int_Tables_number   1
_chemical_formula_structural   Tm2UTc3
_chemical_formula_sum   'Tm4 U2 Tc6'
_cell_volume   234.25040830
_cell_formula_units_Z   2
loop_
 _symmetry_equiv_pos_site_id
 _symmetry_equiv_pos_as_xyz
  1  'x, y, z'
loop_
 _atom_site_type_symbol
 _atom_site_label
 _atom_site_symmetry_multiplicity
 _atom_site_fract_x
 _atom_site_fract_y
 _atom_site_fract_z
 _atom_site_occupancy
  Tm  Tm0  1  0.333333  0.666667  0.440953  1
  Tm  Tm1  1  0.666667  0.333333  0.559047  1
  Tm  Tm2  1  0.666667  0.333333  0.940953  1
  Tm  Tm3  1  0.333333  0.666667  0.059047  1
  U  U4  1  0.000000  0.000000  0.500000  1
  U  U5  1  0.000000  0.000000  0.000000  1
  Tc  Tc6  1  0.835006  0.164994  0.250000  1
  Tc  Tc7  1  0.835006  0.670012  0.250000  1
  Tc  Tc8  1  0.329988  0.164994  0.250000  1
  Tc  Tc9  1  0.164994  0.835006  0.750000  1
  Tc  Tc10  1  0.164994  0.329988  0.750000  1
  Tc  Tc11  1  0.670012  0.835006  0.750000  1
