# generated using pymatgen
data_KBa(PrI4)2
_symmetry_space_group_name_H-M   'P 1'
_cell_length_a   9.23369081
_cell_length_b   9.23368941
_cell_length_c   7.51042520
_cell_angle_alpha   72.49657110
_cell_angle_beta   72.49657663
_cell_angle_gamma   111.10839284
_symmetry_Int_Tables_number   1
_chemical_formula_structural   KBa(PrI4)2
_chemical_formula_sum   'K1 Ba1 Pr2 I8'
_cell_volume   505.92781225
_cell_formula_units_Z   1
loop_
 _symmetry_equiv_pos_site_id
 _symmetry_equiv_pos_as_xyz
  1  'x, y, z'
loop_
 _atom_site_type_symbol
 _atom_site_label
 _atom_site_symmetry_multiplicity
 _atom_site_fract_x
 _atom_site_fract_y
 _atom_site_fract_z
 _atom_site_occupancy
  K  K0  1  0.637242  0.362758  0.250000  1
  Ba  Ba1  1  0.366106  0.633894  0.750000  1
  Pr  Pr2  1  0.999957  0.000043  0.750000  1
  Pr  Pr3  1  0.000183  0.999817  0.250000  1
  I  I4  1  0.647437  0.776721  0.216010  1
  I  I5  1  0.223279  0.352563  0.283990  1
  I  I6  1  0.352012  0.227826  0.787016  1
  I  I7  1  0.772174  0.647988  0.712984  1
  I  I8  1  0.717604  0.054526  0.584988  1
  I  I9  1  0.945474  0.282396  0.915012  1
  I  I10  1  0.278153  0.939619  0.423089  1
  I  I11  1  0.060381  0.721847  0.076911  1
