# generated using pymatgen
data_Y16CdCo3Hg3Ru
_symmetry_space_group_name_H-M   'P 1'
_cell_length_a   9.60213436
_cell_length_b   9.52700472
_cell_length_c   9.52776331
_cell_angle_alpha   59.76138102
_cell_angle_beta   60.15905643
_cell_angle_gamma   60.15277658
_symmetry_Int_Tables_number   1
_chemical_formula_structural   Y16CdCo3Hg3Ru
_chemical_formula_sum   'Y16 Cd1 Co3 Hg3 Ru1'
_cell_volume   616.63281739
_cell_formula_units_Z   1
loop_
 _symmetry_equiv_pos_site_id
 _symmetry_equiv_pos_as_xyz
  1  'x, y, z'
loop_
 _atom_site_type_symbol
 _atom_site_label
 _atom_site_symmetry_multiplicity
 _atom_site_fract_x
 _atom_site_fract_y
 _atom_site_fract_z
 _atom_site_occupancy
  Y  Y0  1  0.437398  0.438065  0.061809  1
  Y  Y1  1  0.064046  0.056794  0.440575  1
  Y  Y2  1  0.440051  0.061847  0.061834  1
  Y  Y3  1  0.843983  0.851598  0.851605  1
  Y  Y4  1  0.690002  0.309724  0.309717  1
  Y  Y5  1  0.061242  0.439986  0.439990  1
  Y  Y6  1  0.313192  0.690084  0.690082  1
  Y  Y7  1  0.314950  0.307351  0.686145  1
  Y  Y8  1  0.842081  0.851412  0.455981  1
  Y  Y9  1  0.690710  0.688706  0.309675  1
  Y  Y10  1  0.459807  0.848041  0.848050  1
  Y  Y11  1  0.064056  0.440568  0.056798  1
  Y  Y12  1  0.842076  0.455994  0.851412  1
  Y  Y13  1  0.437403  0.061804  0.438074  1
  Y  Y14  1  0.314952  0.686149  0.307346  1
  Y  Y15  1  0.690714  0.309679  0.688709  1
  Cd  Cd16  1  0.079544  0.078298  0.078293  1
  Co  Co17  1  0.640614  0.078646  0.643252  1
  Co  Co18  1  0.638870  0.640993  0.640992  1
  Co  Co19  1  0.640619  0.643240  0.078642  1
  Hg  Hg20  1  0.085481  0.747445  0.085008  1
  Hg  Hg21  1  0.085477  0.085011  0.747450  1
  Hg  Hg22  1  0.745779  0.085390  0.085388  1
  Ru  Ru23  1  0.076953  0.643171  0.643169  1
