# generated using pymatgen
data_La2Yb2Mg3Au10
_symmetry_space_group_name_H-M   'P 1'
_cell_length_a   8.64411600
_cell_length_b   8.64411541
_cell_length_c   10.32327300
_cell_angle_alpha   90.00000000
_cell_angle_beta   90.00000000
_cell_angle_gamma   107.95649841
_symmetry_Int_Tables_number   1
_chemical_formula_structural   La2Yb2Mg3Au10
_chemical_formula_sum   'La4 Yb4 Mg6 Au20'
_cell_volume   733.79015447
_cell_formula_units_Z   2
loop_
 _symmetry_equiv_pos_site_id
 _symmetry_equiv_pos_as_xyz
  1  'x, y, z'
loop_
 _atom_site_type_symbol
 _atom_site_label
 _atom_site_symmetry_multiplicity
 _atom_site_fract_x
 _atom_site_fract_y
 _atom_site_fract_z
 _atom_site_occupancy
  La  La0  1  0.300783  0.300783  0.198574  1
  La  La1  1  0.699217  0.699217  0.801426  1
  La  La2  1  0.199217  0.199217  0.698574  1
  La  La3  1  0.800783  0.800783  0.301426  1
  Yb  Yb4  1  0.696615  0.303385  0.000000  1
  Yb  Yb5  1  0.303385  0.696615  0.000000  1
  Yb  Yb6  1  0.803385  0.196615  0.500000  1
  Yb  Yb7  1  0.196615  0.803385  0.500000  1
  Mg  Mg8  1  0.014127  0.514127  0.250000  1
  Mg  Mg9  1  0.985873  0.485873  0.750000  1
  Mg  Mg10  1  0.485873  0.985873  0.750000  1
  Mg  Mg11  1  0.514127  0.014127  0.250000  1
  Mg  Mg12  1  0.000000  0.000000  0.000000  1
  Mg  Mg13  1  0.500000  0.500000  0.500000  1
  Au  Au14  1  0.096835  0.096835  0.403990  1
  Au  Au15  1  0.903165  0.903165  0.596010  1
  Au  Au16  1  0.403165  0.403165  0.903990  1
  Au  Au17  1  0.596835  0.596835  0.096010  1
  Au  Au18  1  0.875649  0.167293  0.204976  1
  Au  Au19  1  0.124351  0.832707  0.795024  1
  Au  Au20  1  0.624351  0.332707  0.704976  1
  Au  Au21  1  0.667293  0.375649  0.295024  1
  Au  Au22  1  0.375649  0.667293  0.295024  1
  Au  Au23  1  0.332707  0.624351  0.704976  1
  Au  Au24  1  0.832707  0.124351  0.795024  1
  Au  Au25  1  0.167293  0.875649  0.204976  1
  Au  Au26  1  0.942684  0.648895  0.016414  1
  Au  Au27  1  0.057316  0.351105  0.983586  1
  Au  Au28  1  0.557316  0.851105  0.516414  1
  Au  Au29  1  0.148895  0.442684  0.483586  1
  Au  Au30  1  0.442684  0.148895  0.483586  1
  Au  Au31  1  0.851105  0.557316  0.516414  1
  Au  Au32  1  0.351105  0.057316  0.983586  1
  Au  Au33  1  0.648895  0.942684  0.016414  1
