# generated using pymatgen
data_Pr3Th(CoB10)2
_symmetry_space_group_name_H-M   'P 1'
_cell_length_a   4.19922800
_cell_length_b   5.64133113
_cell_length_c   11.24809427
_cell_angle_alpha   90.09974187
_cell_angle_beta   90.00000000
_cell_angle_gamma   90.00000000
_symmetry_Int_Tables_number   1
_chemical_formula_structural   Pr3Th(CoB10)2
_chemical_formula_sum   'Pr3 Th1 Co2 B20'
_cell_volume   266.45835201
_cell_formula_units_Z   1
loop_
 _symmetry_equiv_pos_site_id
 _symmetry_equiv_pos_as_xyz
  1  'x, y, z'
loop_
 _atom_site_type_symbol
 _atom_site_label
 _atom_site_symmetry_multiplicity
 _atom_site_fract_x
 _atom_site_fract_y
 _atom_site_fract_z
 _atom_site_occupancy
  Pr  Pr0  1  0.500000  0.300458  0.865835  1
  Pr  Pr1  1  0.500000  0.699493  0.133884  1
  Pr  Pr2  1  0.500000  0.802058  0.635157  1
  Th  Th3  1  0.500000  0.199985  0.366229  1
  Co  Co4  1  0.000000  0.497702  0.499128  1
  Co  Co5  1  0.000000  0.000236  0.000096  1
  B  B6  1  0.000000  0.127677  0.539716  1
  B  B7  1  0.000000  0.873048  0.459366  1
  B  B8  1  0.000000  0.627597  0.959438  1
  B  B9  1  0.000000  0.372386  0.040837  1
  B  B10  1  0.000000  0.155014  0.697060  1
  B  B11  1  0.000000  0.847116  0.303222  1
  B  B12  1  0.298725  0.200852  0.113302  1
  B  B13  1  0.298365  0.798968  0.887160  1
  B  B14  1  0.701056  0.700659  0.386482  1
  B  B15  1  0.701149  0.297952  0.612788  1
  B  B16  1  0.701635  0.798968  0.887160  1
  B  B17  1  0.701275  0.200852  0.113302  1
  B  B18  1  0.298851  0.297952  0.612788  1
  B  B19  1  0.298944  0.700659  0.386482  1
  B  B20  1  0.000000  0.035753  0.187665  1
  B  B21  1  0.000000  0.964796  0.812967  1
  B  B22  1  0.000000  0.534872  0.312950  1
  B  B23  1  0.000000  0.465075  0.686660  1
  B  B24  1  0.000000  0.344763  0.197459  1
  B  B25  1  0.000000  0.655113  0.802865  1
