# generated using pymatgen
data_TbMgCo4Sn5
_symmetry_space_group_name_H-M   'P 1'
_cell_length_a   6.65129682
_cell_length_b   6.79652415
_cell_length_c   6.67168562
_cell_angle_alpha   121.09246238
_cell_angle_beta   120.37723498
_cell_angle_gamma   89.18792496
_symmetry_Int_Tables_number   1
_chemical_formula_structural   TbMgCo4Sn5
_chemical_formula_sum   'Tb1 Mg1 Co4 Sn5'
_cell_volume   209.99291793
_cell_formula_units_Z   1
loop_
 _symmetry_equiv_pos_site_id
 _symmetry_equiv_pos_as_xyz
  1  'x, y, z'
loop_
 _atom_site_type_symbol
 _atom_site_label
 _atom_site_symmetry_multiplicity
 _atom_site_fract_x
 _atom_site_fract_y
 _atom_site_fract_z
 _atom_site_occupancy
  Tb  Tb0  1  0.002455  0.997086  0.000000  1
  Mg  Mg1  1  0.475298  0.107642  0.000000  1
  Co  Co2  1  0.741806  0.413516  0.000000  1
  Co  Co3  1  0.398193  0.729347  0.000000  1
  Co  Co4  1  0.601716  0.607356  0.350392  1
  Co  Co5  1  0.251325  0.256965  0.649608  1
  Sn  Sn6  1  0.119598  0.456124  0.000000  1
  Sn  Sn7  1  0.883038  0.888406  0.351937  1
  Sn  Sn8  1  0.499869  0.005678  0.504268  1
  Sn  Sn9  1  0.995601  0.501410  0.495732  1
  Sn  Sn10  1  0.531101  0.536469  0.648063  1
