# generated using pymatgen
data_Li4Zn8IrRu3
_symmetry_space_group_name_H-M   'P 1'
_cell_length_a   5.94350300
_cell_length_b   5.97258300
_cell_length_c   6.17673300
_cell_angle_alpha   90.00000000
_cell_angle_beta   89.99973517
_cell_angle_gamma   90.00000000
_symmetry_Int_Tables_number   1
_chemical_formula_structural   Li4Zn8IrRu3
_chemical_formula_sum   'Li4 Zn8 Ir1 Ru3'
_cell_volume   219.26206939
_cell_formula_units_Z   1
loop_
 _symmetry_equiv_pos_site_id
 _symmetry_equiv_pos_as_xyz
  1  'x, y, z'
loop_
 _atom_site_type_symbol
 _atom_site_label
 _atom_site_symmetry_multiplicity
 _atom_site_fract_x
 _atom_site_fract_y
 _atom_site_fract_z
 _atom_site_occupancy
  Li  Li0  1  0.249144  0.250000  0.000007  1
  Li  Li1  1  0.750867  0.750000  0.999990  1
  Li  Li2  1  0.749132  0.750000  0.499999  1
  Li  Li3  1  0.250951  0.250000  0.500000  1
  Zn  Zn4  1  0.499081  0.999071  0.249027  1
  Zn  Zn5  1  0.499081  0.500926  0.249027  1
  Zn  Zn6  1  0.000949  0.999077  0.250159  1
  Zn  Zn7  1  0.000949  0.500925  0.250159  1
  Zn  Zn8  1  0.000945  0.999068  0.749843  1
  Zn  Zn9  1  0.000945  0.500930  0.749843  1
  Zn  Zn10  1  0.499087  0.999066  0.750972  1
  Zn  Zn11  1  0.499087  0.500937  0.750972  1
  Ir  Ir12  1  0.749473  0.250000  0.499997  1
  Ru  Ru13  1  0.750374  0.250000  0.000006  1
  Ru  Ru14  1  0.249679  0.750000  0.999994  1
  Ru  Ru15  1  0.250250  0.750000  0.500006  1
