# generated using pymatgen
data_ScMn2P6IN12
_symmetry_space_group_name_H-M   'P 1'
_cell_length_a   7.37637122
_cell_length_b   7.33534755
_cell_length_c   7.37636981
_cell_angle_alpha   109.40554596
_cell_angle_beta   110.26558026
_cell_angle_gamma   109.40551880
_symmetry_Int_Tables_number   1
_chemical_formula_structural   ScMn2P6IN12
_chemical_formula_sum   'Sc1 Mn2 P6 I1 N12'
_cell_volume   304.68761136
_cell_formula_units_Z   1
loop_
 _symmetry_equiv_pos_site_id
 _symmetry_equiv_pos_as_xyz
  1  'x, y, z'
loop_
 _atom_site_type_symbol
 _atom_site_label
 _atom_site_symmetry_multiplicity
 _atom_site_fract_x
 _atom_site_fract_y
 _atom_site_fract_z
 _atom_site_occupancy
  Sc  Sc0  1  0.028455  0.394328  0.028455  1
  Mn  Mn1  1  0.004382  0.002030  0.383079  1
  Mn  Mn2  1  0.383079  0.002030  0.004382  1
  P  P3  1  0.505887  0.258930  0.751694  1
  P  P4  1  0.251562  0.749520  0.497705  1
  P  P5  1  0.741717  0.499907  0.257956  1
  P  P6  1  0.751694  0.258930  0.505887  1
  P  P7  1  0.497705  0.749520  0.251562  1
  P  P8  1  0.257956  0.499907  0.741717  1
  I  I9  1  0.975863  0.968206  0.975863  1
  N  N10  1  0.378894  0.667176  0.378894  1
  N  N11  1  0.708175  0.426423  0.428897  1
  N  N12  1  0.428897  0.426423  0.708175  1
  N  N13  1  0.732334  0.296048  0.732334  1
  N  N14  1  0.991305  0.574985  0.285573  1
  N  N15  1  0.285573  0.574985  0.991305  1
  N  N16  1  0.292325  0.001827  0.564934  1
  N  N17  1  0.000163  0.281282  0.570908  1
  N  N18  1  0.716929  0.722215  0.291257  1
  N  N19  1  0.564934  0.001827  0.292325  1
  N  N20  1  0.291257  0.722215  0.716929  1
  N  N21  1  0.570908  0.281282  0.000163  1
