# generated using pymatgen
data_NdEr5NbCo17P12
_symmetry_space_group_name_H-M   'P 1'
_cell_length_a   3.69298300
_cell_length_b   10.56095000
_cell_length_c   12.25863900
_cell_angle_alpha   90.00000000
_cell_angle_beta   90.00000000
_cell_angle_gamma   90.00000000
_symmetry_Int_Tables_number   1
_chemical_formula_structural   NdEr5NbCo17P12
_chemical_formula_sum   'Nd1 Er5 Nb1 Co17 P12'
_cell_volume   478.10419114
_cell_formula_units_Z   1
loop_
 _symmetry_equiv_pos_site_id
 _symmetry_equiv_pos_as_xyz
  1  'x, y, z'
loop_
 _atom_site_type_symbol
 _atom_site_label
 _atom_site_symmetry_multiplicity
 _atom_site_fract_x
 _atom_site_fract_y
 _atom_site_fract_z
 _atom_site_occupancy
  Nd  Nd0  1  0.250000  0.750000  0.522719  1
  Er  Er1  1  0.750000  0.250000  0.473089  1
  Er  Er2  1  0.250000  0.930768  0.793926  1
  Er  Er3  1  0.250000  0.569232  0.793926  1
  Er  Er4  1  0.750000  0.067701  0.203907  1
  Er  Er5  1  0.750000  0.432299  0.203907  1
  Nb  Nb6  1  0.250000  0.250000  0.845258  1
  Co  Co7  1  0.750000  0.750000  0.159416  1
  Co  Co8  1  0.250000  0.250000  0.297852  1
  Co  Co9  1  0.750000  0.750000  0.706496  1
  Co  Co10  1  0.750000  0.250000  0.016117  1
  Co  Co11  1  0.250000  0.750000  0.985910  1
  Co  Co12  1  0.250000  0.420057  0.010776  1
  Co  Co13  1  0.250000  0.079943  0.010776  1
  Co  Co14  1  0.750000  0.585787  0.996018  1
  Co  Co15  1  0.750000  0.914213  0.996018  1
  Co  Co16  1  0.250000  0.452284  0.567452  1
  Co  Co17  1  0.250000  0.047716  0.567452  1
  Co  Co18  1  0.750000  0.544228  0.429495  1
  Co  Co19  1  0.750000  0.955772  0.429495  1
  Co  Co20  1  0.250000  0.871263  0.290209  1
  Co  Co21  1  0.250000  0.628737  0.290209  1
  Co  Co22  1  0.750000  0.127871  0.706317  1
  Co  Co23  1  0.750000  0.372129  0.706317  1
  P  P24  1  0.250000  0.250000  0.119627  1
  P  P25  1  0.750000  0.750000  0.883278  1
  P  P26  1  0.250000  0.250000  0.643147  1
  P  P27  1  0.750000  0.750000  0.341126  1
  P  P28  1  0.250000  0.438996  0.382341  1
  P  P29  1  0.250000  0.061004  0.382341  1
  P  P30  1  0.750000  0.558498  0.615937  1
  P  P31  1  0.750000  0.941502  0.615937  1
  P  P32  1  0.250000  0.900025  0.109702  1
  P  P33  1  0.250000  0.599975  0.109702  1
  P  P34  1  0.750000  0.088826  0.896904  1
  P  P35  1  0.750000  0.411174  0.896904  1
