# generated using pymatgen
data_Er8Lu12Si15Hg
_symmetry_space_group_name_H-M   'P 1'
_cell_length_a   7.28815670
_cell_length_b   7.57863882
_cell_length_c   14.40043835
_cell_angle_alpha   89.89429980
_cell_angle_beta   89.39980042
_cell_angle_gamma   89.99801215
_symmetry_Int_Tables_number   1
_chemical_formula_structural   Er8Lu12Si15Hg
_chemical_formula_sum   'Er8 Lu12 Si15 Hg1'
_cell_volume   795.35324215
_cell_formula_units_Z   1
loop_
 _symmetry_equiv_pos_site_id
 _symmetry_equiv_pos_as_xyz
  1  'x, y, z'
loop_
 _atom_site_type_symbol
 _atom_site_label
 _atom_site_symmetry_multiplicity
 _atom_site_fract_x
 _atom_site_fract_y
 _atom_site_fract_z
 _atom_site_occupancy
  Er  Er0  1  0.014357  0.177686  0.097829  1
  Er  Er1  1  0.984773  0.823014  0.904373  1
  Er  Er2  1  0.485349  0.679472  0.903993  1
  Er  Er3  1  0.988255  0.830167  0.598540  1
  Er  Er4  1  0.513697  0.320778  0.096764  1
  Er  Er5  1  0.008906  0.172430  0.397916  1
  Er  Er6  1  0.512158  0.319136  0.398818  1
  Er  Er7  1  0.494385  0.685264  0.600104  1
  Lu  Lu8  1  0.164623  0.507932  0.752988  1
  Lu  Lu9  1  0.835295  0.492073  0.250414  1
  Lu  Lu10  1  0.335195  0.007021  0.249037  1
  Lu  Lu11  1  0.667470  0.990388  0.751479  1
  Lu  Lu12  1  0.341127  0.168696  0.626671  1
  Lu  Lu13  1  0.663721  0.824326  0.375008  1
  Lu  Lu14  1  0.166465  0.677803  0.372371  1
  Lu  Lu15  1  0.669347  0.822764  0.122884  1
  Lu  Lu16  1  0.828064  0.325749  0.624320  1
  Lu  Lu17  1  0.329622  0.176706  0.877813  1
  Lu  Lu18  1  0.828783  0.321649  0.877886  1
  Lu  Lu19  1  0.169311  0.678027  0.123633  1
  Si  Si20  1  0.037601  0.112979  0.752267  1
  Si  Si21  1  0.962553  0.891481  0.248036  1
  Si  Si22  1  0.465184  0.607538  0.247866  1
  Si  Si23  1  0.534976  0.393092  0.751902  1
  Si  Si24  1  0.283172  0.871242  0.752429  1
  Si  Si25  1  0.714745  0.129965  0.247392  1
  Si  Si26  1  0.215434  0.367826  0.247440  1
  Si  Si27  1  0.785924  0.630571  0.753294  1
  Si  Si28  1  0.831076  0.533460  0.458579  1
  Si  Si29  1  0.332016  0.965550  0.459487  1
  Si  Si30  1  0.842391  0.532867  0.038574  1
  Si  Si31  1  0.666856  0.034958  0.537917  1
  Si  Si32  1  0.156891  0.466575  0.962564  1
  Si  Si33  1  0.657981  0.031533  0.960780  1
  Si  Si34  1  0.340979  0.968399  0.039969  1
  Hg  Hg35  1  0.171317  0.460887  0.538666  1
