# generated using pymatgen
data_Tb2DyCI3
_symmetry_space_group_name_H-M   'P 1'
_cell_length_a   3.91801900
_cell_length_b   8.74847674
_cell_length_c   11.92522049
_cell_angle_alpha   92.25861912
_cell_angle_beta   90.00000000
_cell_angle_gamma   90.00000000
_symmetry_Int_Tables_number   1
_chemical_formula_structural   Tb2DyCI3
_chemical_formula_sum   'Tb4 Dy2 C2 I6'
_cell_volume   408.43962672
_cell_formula_units_Z   2
loop_
 _symmetry_equiv_pos_site_id
 _symmetry_equiv_pos_as_xyz
  1  'x, y, z'
loop_
 _atom_site_type_symbol
 _atom_site_label
 _atom_site_symmetry_multiplicity
 _atom_site_fract_x
 _atom_site_fract_y
 _atom_site_fract_z
 _atom_site_occupancy
  Tb  Tb0  1  0.250000  0.918238  0.599690  1
  Tb  Tb1  1  0.750000  0.081762  0.400310  1
  Tb  Tb2  1  0.250000  0.886934  0.186682  1
  Tb  Tb3  1  0.750000  0.113066  0.813318  1
  Dy  Dy4  1  0.250000  0.291386  0.615119  1
  Dy  Dy5  1  0.750000  0.708614  0.384881  1
  C  C6  1  0.250000  0.881959  0.386942  1
  C  C7  1  0.750000  0.118041  0.613058  1
  I  I8  1  0.250000  0.858943  0.873059  1
  I  I9  1  0.750000  0.141057  0.126941  1
  I  I10  1  0.250000  0.375645  0.870846  1
  I  I11  1  0.750000  0.624355  0.129154  1
  I  I12  1  0.250000  0.382660  0.367926  1
  I  I13  1  0.750000  0.617340  0.632074  1
