# generated using pymatgen
data_Hf4TiBeSb3
_symmetry_space_group_name_H-M   'P 1'
_cell_length_a   8.44234900
_cell_length_b   8.44234901
_cell_length_c   5.65079900
_cell_angle_alpha   90.00000000
_cell_angle_beta   90.00000000
_cell_angle_gamma   119.99999605
_symmetry_Int_Tables_number   1
_chemical_formula_structural   Hf4TiBeSb3
_chemical_formula_sum   'Hf8 Ti2 Be2 Sb6'
_cell_volume   348.79247942
_cell_formula_units_Z   2
loop_
 _symmetry_equiv_pos_site_id
 _symmetry_equiv_pos_as_xyz
  1  'x, y, z'
loop_
 _atom_site_type_symbol
 _atom_site_label
 _atom_site_symmetry_multiplicity
 _atom_site_fract_x
 _atom_site_fract_y
 _atom_site_fract_z
 _atom_site_occupancy
  Hf  Hf0  1  0.333333  0.666667  0.500000  1
  Hf  Hf1  1  0.666667  0.333333  0.500000  1
  Hf  Hf2  1  0.748946  0.748946  0.746227  1
  Hf  Hf3  1  0.251054  0.000000  0.746227  1
  Hf  Hf4  1  0.000000  0.251054  0.746227  1
  Hf  Hf5  1  0.251054  0.251054  0.253773  1
  Hf  Hf6  1  0.748946  0.000000  0.253773  1
  Hf  Hf7  1  0.000000  0.748946  0.253773  1
  Ti  Ti8  1  0.666667  0.333333  0.000000  1
  Ti  Ti9  1  0.333333  0.666667  0.000000  1
  Be  Be10  1  0.000000  0.000000  0.500000  1
  Be  Be11  1  0.000000  0.000000  0.000000  1
  Sb  Sb12  1  0.393740  0.393740  0.757675  1
  Sb  Sb13  1  0.606260  0.000000  0.757675  1
  Sb  Sb14  1  0.000000  0.606260  0.757675  1
  Sb  Sb15  1  0.606260  0.606260  0.242325  1
  Sb  Sb16  1  0.393740  0.000000  0.242325  1
  Sb  Sb17  1  0.000000  0.393740  0.242325  1
