# generated using pymatgen
data_Tb20IrRuRh10
_symmetry_space_group_name_H-M   'P 1'
_cell_length_a   10.93323521
_cell_length_b   10.93248722
_cell_length_c   6.41864501
_cell_angle_alpha   89.99470222
_cell_angle_beta   89.99978335
_cell_angle_gamma   90.02245113
_symmetry_Int_Tables_number   1
_chemical_formula_structural   Tb20IrRuRh10
_chemical_formula_sum   'Tb20 Ir1 Ru1 Rh10'
_cell_volume   767.20423504
_cell_formula_units_Z   1
loop_
 _symmetry_equiv_pos_site_id
 _symmetry_equiv_pos_as_xyz
  1  'x, y, z'
loop_
 _atom_site_type_symbol
 _atom_site_label
 _atom_site_symmetry_multiplicity
 _atom_site_fract_x
 _atom_site_fract_y
 _atom_site_fract_z
 _atom_site_occupancy
  Tb  Tb0  1  0.292445  0.087602  0.376582  1
  Tb  Tb1  1  0.292949  0.911192  0.881121  1
  Tb  Tb2  1  0.707251  0.087539  0.881356  1
  Tb  Tb3  1  0.707514  0.912360  0.376431  1
  Tb  Tb4  1  0.586438  0.792249  0.881045  1
  Tb  Tb5  1  0.587660  0.207536  0.376833  1
  Tb  Tb6  1  0.411987  0.791733  0.377624  1
  Tb  Tb7  1  0.412367  0.207112  0.881335  1
  Tb  Tb8  1  0.209953  0.412299  0.621427  1
  Tb  Tb9  1  0.209923  0.588931  0.119689  1
  Tb  Tb10  1  0.790752  0.411387  0.120278  1
  Tb  Tb11  1  0.790699  0.588993  0.621078  1
  Tb  Tb12  1  0.911403  0.709301  0.120557  1
  Tb  Tb13  1  0.911110  0.290555  0.621103  1
  Tb  Tb14  1  0.090187  0.709234  0.621308  1
  Tb  Tb15  1  0.088593  0.290725  0.120740  1
  Tb  Tb16  1  0.999908  0.999952  0.499195  1
  Tb  Tb17  1  0.000051  0.000108  0.999125  1
  Tb  Tb18  1  0.499729  0.500155  0.999108  1
  Tb  Tb19  1  0.499862  0.500239  0.499188  1
  Ir  Ir20  1  0.346046  0.652979  0.749877  1
  Ru  Ru21  1  0.500252  0.000496  0.124347  1
  Rh  Rh22  1  0.847168  0.154319  0.250347  1
  Rh  Rh23  1  0.847138  0.846204  0.750021  1
  Rh  Rh24  1  0.152773  0.153810  0.749957  1
  Rh  Rh25  1  0.152382  0.846197  0.250316  1
  Rh  Rh26  1  0.653829  0.347153  0.749955  1
  Rh  Rh27  1  0.654771  0.652935  0.250482  1
  Rh  Rh28  1  0.345615  0.346681  0.250148  1
  Rh  Rh29  1  0.500227  0.000484  0.623077  1
  Rh  Rh30  1  0.999428  0.499733  0.878266  1
  Rh  Rh31  1  0.999591  0.499805  0.378083  1
