# generated using pymatgen
data_Nb6Ga5CuRh12
_symmetry_space_group_name_H-M   'P 1'
_cell_length_a   4.09329400
_cell_length_b   7.15672400
_cell_length_c   12.29320800
_cell_angle_alpha   90.00000000
_cell_angle_beta   90.00000000
_cell_angle_gamma   90.00000000
_symmetry_Int_Tables_number   1
_chemical_formula_structural   Nb6Ga5CuRh12
_chemical_formula_sum   'Nb6 Ga5 Cu1 Rh12'
_cell_volume   360.12430877
_cell_formula_units_Z   1
loop_
 _symmetry_equiv_pos_site_id
 _symmetry_equiv_pos_as_xyz
  1  'x, y, z'
loop_
 _atom_site_type_symbol
 _atom_site_label
 _atom_site_symmetry_multiplicity
 _atom_site_fract_x
 _atom_site_fract_y
 _atom_site_fract_z
 _atom_site_occupancy
  Nb  Nb0  1  0.000000  0.499999  0.000000  1
  Nb  Nb1  1  0.500007  0.000000  0.158687  1
  Nb  Nb2  1  0.000000  0.499999  0.332595  1
  Nb  Nb3  1  0.499999  0.000000  0.500000  1
  Nb  Nb4  1  0.000000  0.499999  0.667405  1
  Nb  Nb5  1  0.499992  0.000000  0.841313  1
  Ga  Ga6  1  0.500004  0.499999  0.167566  1
  Ga  Ga7  1  0.000000  0.000000  0.330907  1
  Ga  Ga8  1  0.499999  0.499999  0.500000  1
  Ga  Ga9  1  0.000000  0.000000  0.669093  1
  Ga  Ga10  1  0.499994  0.499999  0.832434  1
  Cu  Cu11  1  0.000000  0.000000  0.000000  1
  Rh  Rh12  1  0.499999  0.254556  0.000000  1
  Rh  Rh13  1  0.499999  0.745444  0.000000  1
  Rh  Rh14  1  0.000000  0.250595  0.166842  1
  Rh  Rh15  1  0.000000  0.749406  0.166842  1
  Rh  Rh16  1  0.500009  0.248142  0.333274  1
  Rh  Rh17  1  0.500009  0.751858  0.333274  1
  Rh  Rh18  1  0.000000  0.250377  0.500000  1
  Rh  Rh19  1  0.000000  0.749623  0.500000  1
  Rh  Rh20  1  0.499992  0.248142  0.666725  1
  Rh  Rh21  1  0.499992  0.751858  0.666725  1
  Rh  Rh22  1  0.000000  0.250595  0.833158  1
  Rh  Rh23  1  0.000000  0.749406  0.833158  1
