# generated using pymatgen
data_Ba6Tm2(IrO6)3
_symmetry_space_group_name_H-M   'P 1'
_cell_length_a   10.29822925
_cell_length_b   10.29822805
_cell_length_c   10.29822900
_cell_angle_alpha   146.38807933
_cell_angle_beta   131.85201603
_cell_angle_gamma   59.99900791
_symmetry_Int_Tables_number   1
_chemical_formula_structural   Ba6Tm2(IrO6)3
_chemical_formula_sum   'Ba6 Tm2 Ir3 O18'
_cell_volume   446.21733311
_cell_formula_units_Z   1
loop_
 _symmetry_equiv_pos_site_id
 _symmetry_equiv_pos_as_xyz
  1  'x, y, z'
loop_
 _atom_site_type_symbol
 _atom_site_label
 _atom_site_symmetry_multiplicity
 _atom_site_fract_x
 _atom_site_fract_y
 _atom_site_fract_z
 _atom_site_occupancy
  Ba  Ba0  1  0.772540  0.500000  0.272540  1
  Ba  Ba1  1  0.396136  0.158093  0.238044  1
  Ba  Ba2  1  0.079951  0.841907  0.238044  1
  Ba  Ba3  1  0.227460  0.500000  0.727460  1
  Ba  Ba4  1  0.920049  0.158093  0.761956  1
  Ba  Ba5  1  0.603864  0.841907  0.761956  1
  Tm  Tm6  1  0.665718  0.665718  0.000000  1
  Tm  Tm7  1  0.334282  0.334282  0.000000  1
  Ir  Ir8  1  0.500000  0.000000  0.500000  1
  Ir  Ir9  1  0.170137  0.670137  0.500000  1
  Ir  Ir10  1  0.829863  0.329863  0.500000  1
  O  O11  1  0.727424  0.000000  0.727424  1
  O  O12  1  0.406408  0.669540  0.736868  1
  O  O13  1  0.067330  0.330460  0.736868  1
  O  O14  1  0.578603  0.842474  0.263870  1
  O  O15  1  0.248582  0.512560  0.263978  1
  O  O16  1  0.905853  0.180048  0.274195  1
  O  O17  1  0.421397  0.685266  0.263870  1
  O  O18  1  0.094147  0.368342  0.274195  1
  O  O19  1  0.751418  0.015396  0.263978  1
  O  O20  1  0.272576  0.000000  0.272576  1
  O  O21  1  0.932670  0.669540  0.263132  1
  O  O22  1  0.593592  0.330460  0.263132  1
  O  O23  1  0.421397  0.157526  0.736130  1
  O  O24  1  0.094147  0.819952  0.725805  1
  O  O25  1  0.751418  0.487440  0.736022  1
  O  O26  1  0.578603  0.314734  0.736130  1
  O  O27  1  0.248582  0.984604  0.736022  1
  O  O28  1  0.905853  0.631659  0.725805  1
