# generated using pymatgen
data_LaZr(Tc2P)4
_symmetry_space_group_name_H-M   'P 1'
_cell_length_a   7.42351178
_cell_length_b   7.42351178
_cell_length_c   3.95983400
_cell_angle_alpha   90.00000000
_cell_angle_beta   90.00000000
_cell_angle_gamma   90.93436963
_symmetry_Int_Tables_number   1
_chemical_formula_structural   LaZr(Tc2P)4
_chemical_formula_sum   'La1 Zr1 Tc8 P4'
_cell_volume   218.19160274
_cell_formula_units_Z   1
loop_
 _symmetry_equiv_pos_site_id
 _symmetry_equiv_pos_as_xyz
  1  'x, y, z'
loop_
 _atom_site_type_symbol
 _atom_site_label
 _atom_site_symmetry_multiplicity
 _atom_site_fract_x
 _atom_site_fract_y
 _atom_site_fract_z
 _atom_site_occupancy
  La  La0  1  0.000000  0.000000  0.500000  1
  Zr  Zr1  1  0.500000  0.500000  0.000000  1
  Tc  Tc2  1  0.343923  0.086264  0.000000  1
  Tc  Tc3  1  0.576645  0.164359  0.500000  1
  Tc  Tc4  1  0.423355  0.835641  0.500000  1
  Tc  Tc5  1  0.656077  0.913736  0.000000  1
  Tc  Tc6  1  0.164359  0.576645  0.500000  1
  Tc  Tc7  1  0.835641  0.423355  0.500000  1
  Tc  Tc8  1  0.086264  0.343923  0.000000  1
  Tc  Tc9  1  0.913736  0.656077  0.000000  1
  P  P10  1  0.780305  0.219695  0.000000  1
  P  P11  1  0.705023  0.705023  0.500000  1
  P  P12  1  0.294977  0.294977  0.500000  1
  P  P13  1  0.219695  0.780305  0.000000  1
