# generated using pymatgen
data_Y11Cd9Pt4
_symmetry_space_group_name_H-M   'P 1'
_cell_length_a   13.17281140
_cell_length_b   13.17281132
_cell_length_c   3.71445800
_cell_angle_alpha   90.00000000
_cell_angle_beta   90.00000000
_cell_angle_gamma   111.71173603
_symmetry_Int_Tables_number   1
_chemical_formula_structural   Y11Cd9Pt4
_chemical_formula_sum   'Y11 Cd9 Pt4'
_cell_volume   598.81775820
_cell_formula_units_Z   1
loop_
 _symmetry_equiv_pos_site_id
 _symmetry_equiv_pos_as_xyz
  1  'x, y, z'
loop_
 _atom_site_type_symbol
 _atom_site_label
 _atom_site_symmetry_multiplicity
 _atom_site_fract_x
 _atom_site_fract_y
 _atom_site_fract_z
 _atom_site_occupancy
  Y  Y0  1  0.076707  0.415557  0.000000  1
  Y  Y1  1  0.923293  0.584443  0.000000  1
  Y  Y2  1  0.415557  0.076707  0.000000  1
  Y  Y3  1  0.584443  0.923293  0.000000  1
  Y  Y4  1  0.627838  0.372162  0.000000  1
  Y  Y5  1  0.372162  0.627838  0.000000  1
  Y  Y6  1  0.837821  0.162179  0.000000  1
  Y  Y7  1  0.162179  0.837821  0.000000  1
  Y  Y8  1  0.000000  0.000000  0.000000  1
  Y  Y9  1  0.309698  0.309698  0.000000  1
  Y  Y10  1  0.690302  0.690302  0.000000  1
  Cd  Cd11  1  0.842809  0.364180  0.500000  1
  Cd  Cd12  1  0.157191  0.635820  0.500000  1
  Cd  Cd13  1  0.364180  0.842809  0.500000  1
  Cd  Cd14  1  0.635820  0.157191  0.500000  1
  Cd  Cd15  1  0.069740  0.214798  0.500000  1
  Cd  Cd16  1  0.930260  0.785202  0.500000  1
  Cd  Cd17  1  0.214798  0.069740  0.500000  1
  Cd  Cd18  1  0.785202  0.930260  0.500000  1
  Cd  Cd19  1  0.500000  0.500000  0.500000  1
  Pt  Pt20  1  0.248867  0.450443  0.500000  1
  Pt  Pt21  1  0.751133  0.549557  0.500000  1
  Pt  Pt22  1  0.450443  0.248867  0.500000  1
  Pt  Pt23  1  0.549557  0.751133  0.500000  1
