# generated using pymatgen
data_ZrZn2Ni3
_symmetry_space_group_name_H-M   'P 1'
_cell_length_a   4.82380089
_cell_length_b   4.82380120
_cell_length_c   4.82380094
_cell_angle_alpha   61.14440345
_cell_angle_beta   61.14440162
_cell_angle_gamma   61.14440305
_symmetry_Int_Tables_number   1
_chemical_formula_structural   ZrZn2Ni3
_chemical_formula_sum   'Zr1 Zn2 Ni3'
_cell_volume   81.41334881
_cell_formula_units_Z   1
loop_
 _symmetry_equiv_pos_site_id
 _symmetry_equiv_pos_as_xyz
  1  'x, y, z'
loop_
 _atom_site_type_symbol
 _atom_site_label
 _atom_site_symmetry_multiplicity
 _atom_site_fract_x
 _atom_site_fract_y
 _atom_site_fract_z
 _atom_site_occupancy
  Zr  Zr0  1  0.008011  0.008011  0.008011  1
  Zn  Zn1  1  0.620448  0.620448  0.620448  1
  Zn  Zn2  1  0.253981  0.253981  0.253981  1
  Ni  Ni3  1  0.122622  0.622470  0.622470  1
  Ni  Ni4  1  0.622470  0.122622  0.622470  1
  Ni  Ni5  1  0.622470  0.622470  0.122622  1
