# generated using pymatgen
data_Tb4Pr2CoI10
_symmetry_space_group_name_H-M   'P 1'
_cell_length_a   7.82312426
_cell_length_b   9.84236271
_cell_length_c   9.83855014
_cell_angle_alpha   106.85216884
_cell_angle_beta   96.11523514
_cell_angle_gamma   105.20539078
_symmetry_Int_Tables_number   1
_chemical_formula_structural   Tb4Pr2CoI10
_chemical_formula_sum   'Tb4 Pr2 Co1 I10'
_cell_volume   685.82952209
_cell_formula_units_Z   1
loop_
 _symmetry_equiv_pos_site_id
 _symmetry_equiv_pos_as_xyz
  1  'x, y, z'
loop_
 _atom_site_type_symbol
 _atom_site_label
 _atom_site_symmetry_multiplicity
 _atom_site_fract_x
 _atom_site_fract_y
 _atom_site_fract_z
 _atom_site_occupancy
  Tb  Tb0  1  0.029731  0.718332  0.915318  1
  Tb  Tb1  1  0.970269  0.281668  0.084682  1
  Tb  Tb2  1  0.657927  0.877853  0.838928  1
  Tb  Tb3  1  0.342073  0.122147  0.161072  1
  Pr  Pr4  1  0.886165  0.957763  0.231571  1
  Pr  Pr5  1  0.113835  0.042237  0.768429  1
  Co  Co6  1  0.000000  0.000000  0.000000  1
  I  I7  1  0.652283  0.553837  0.731361  1
  I  I8  1  0.347717  0.446163  0.268639  1
  I  I9  1  0.734069  0.911341  0.543987  1
  I  I10  1  0.265931  0.088659  0.456013  1
  I  I11  1  0.082569  0.377558  0.824063  1
  I  I12  1  0.917431  0.622442  0.175937  1
  I  I13  1  0.447863  0.817194  0.089517  1
  I  I14  1  0.552137  0.182806  0.910483  1
  I  I15  1  0.227883  0.739722  0.659621  1
  I  I16  1  0.772117  0.260278  0.340379  1
