# generated using pymatgen
data_Li3Ho3InBi2
_symmetry_space_group_name_H-M   'P 1'
_cell_length_a   7.26070200
_cell_length_b   7.26070340
_cell_length_c   4.76338900
_cell_angle_alpha   90.00000000
_cell_angle_beta   90.00000000
_cell_angle_gamma   119.99999361
_symmetry_Int_Tables_number   1
_chemical_formula_structural   Li3Ho3InBi2
_chemical_formula_sum   'Li3 Ho3 In1 Bi2'
_cell_volume   217.47233513
_cell_formula_units_Z   1
loop_
 _symmetry_equiv_pos_site_id
 _symmetry_equiv_pos_as_xyz
  1  'x, y, z'
loop_
 _atom_site_type_symbol
 _atom_site_label
 _atom_site_symmetry_multiplicity
 _atom_site_fract_x
 _atom_site_fract_y
 _atom_site_fract_z
 _atom_site_occupancy
  Li  Li0  1  0.227440  0.000000  0.500000  1
  Li  Li1  1  0.772560  0.772560  0.500000  1
  Li  Li2  1  0.000000  0.227440  0.500000  1
  Ho  Ho3  1  0.000000  0.562625  0.000000  1
  Ho  Ho4  1  0.562625  0.000000  0.000000  1
  Ho  Ho5  1  0.437375  0.437375  0.000000  1
  In  In6  1  0.000000  0.000000  0.000000  1
  Bi  Bi7  1  0.333333  0.666667  0.500000  1
  Bi  Bi8  1  0.666667  0.333333  0.500000  1
