# generated using pymatgen
data_Ce6YErF30
_symmetry_space_group_name_H-M   'P 1'
_cell_length_a   8.59838634
_cell_length_b   8.59838583
_cell_length_c   8.58404105
_cell_angle_alpha   79.65645854
_cell_angle_beta   79.65646578
_cell_angle_gamma   100.25322271
_symmetry_Int_Tables_number   1
_chemical_formula_structural   Ce6YErF30
_chemical_formula_sum   'Ce6 Y1 Er1 F30'
_cell_volume   599.51016633
_cell_formula_units_Z   1
loop_
 _symmetry_equiv_pos_site_id
 _symmetry_equiv_pos_as_xyz
  1  'x, y, z'
loop_
 _atom_site_type_symbol
 _atom_site_label
 _atom_site_symmetry_multiplicity
 _atom_site_fract_x
 _atom_site_fract_y
 _atom_site_fract_z
 _atom_site_occupancy
  Ce  Ce0  1  0.749533  0.250467  0.250000  1
  Ce  Ce1  1  0.250404  0.749596  0.750000  1
  Ce  Ce2  1  0.755166  0.678770  0.672467  1
  Ce  Ce3  1  0.321230  0.244834  0.827533  1
  Ce  Ce4  1  0.245291  0.321434  0.326720  1
  Ce  Ce5  1  0.678566  0.754709  0.173280  1
  Y  Y6  1  0.821458  0.178542  0.750000  1
  Er  Er7  1  0.178629  0.821371  0.250000  1
  F  F8  1  0.318082  0.350092  0.053005  1
  F  F9  1  0.945520  0.814951  0.156180  1
  F  F10  1  0.845086  0.451509  0.682841  1
  F  F11  1  0.449144  0.844374  0.183698  1
  F  F12  1  0.815146  0.944021  0.654978  1
  F  F13  1  0.349997  0.318009  0.553009  1
  F  F14  1  0.681991  0.650003  0.946990  1
  F  F15  1  0.055979  0.184854  0.845022  1
  F  F16  1  0.155626  0.550856  0.316302  1
  F  F17  1  0.548491  0.154914  0.817159  1
  F  F18  1  0.185049  0.054480  0.343820  1
  F  F19  1  0.649908  0.681918  0.446995  1
  F  F20  1  0.776495  0.276702  0.990039  1
  F  F21  1  0.011154  0.276267  0.216271  1
  F  F22  1  0.780020  0.510632  0.223219  1
  F  F23  1  0.510569  0.780111  0.723195  1
  F  F24  1  0.276190  0.011128  0.716258  1
  F  F25  1  0.275704  0.776841  0.489248  1
  F  F26  1  0.223159  0.724296  0.010752  1
  F  F27  1  0.988872  0.723810  0.783742  1
  F  F28  1  0.219889  0.489431  0.776805  1
  F  F29  1  0.489368  0.219980  0.276781  1
  F  F30  1  0.723733  0.988846  0.283729  1
  F  F31  1  0.723298  0.223505  0.509961  1
  F  F32  1  0.466386  0.533614  0.250000  1
  F  F33  1  0.749930  0.962993  0.964957  1
  F  F34  1  0.037007  0.250070  0.535043  1
  F  F35  1  0.249529  0.035288  0.036776  1
  F  F36  1  0.964712  0.750471  0.463224  1
  F  F37  1  0.533687  0.466313  0.750000  1
