# generated using pymatgen
data_Tb5Dy4Lu7(CdPt)4
_symmetry_space_group_name_H-M   'P 1'
_cell_length_a   9.61288835
_cell_length_b   9.60551364
_cell_length_c   9.60551459
_cell_angle_alpha   60.06751840
_cell_angle_beta   59.97459781
_cell_angle_gamma   59.97459885
_symmetry_Int_Tables_number   1
_chemical_formula_structural   Tb5Dy4Lu7(CdPt)4
_chemical_formula_sum   'Tb5 Dy4 Lu7 Cd4 Pt4'
_cell_volume   627.24069078
_cell_formula_units_Z   1
loop_
 _symmetry_equiv_pos_site_id
 _symmetry_equiv_pos_as_xyz
  1  'x, y, z'
loop_
 _atom_site_type_symbol
 _atom_site_label
 _atom_site_symmetry_multiplicity
 _atom_site_fract_x
 _atom_site_fract_y
 _atom_site_fract_z
 _atom_site_occupancy
  Tb  Tb0  1  0.560646  0.939354  0.939354  1
  Tb  Tb1  1  0.565127  0.934878  0.564117  1
  Tb  Tb2  1  0.935878  0.564117  0.934878  1
  Tb  Tb3  1  0.565127  0.564117  0.934878  1
  Tb  Tb4  1  0.935878  0.934878  0.564117  1
  Dy  Dy5  1  0.350876  0.352804  0.352804  1
  Dy  Dy6  1  0.353167  0.357138  0.936527  1
  Dy  Dy7  1  0.353167  0.936527  0.357138  1
  Dy  Dy8  1  0.943517  0.352804  0.352804  1
  Lu  Lu9  1  0.811716  0.188284  0.188284  1
  Lu  Lu10  1  0.185704  0.814296  0.814296  1
  Lu  Lu11  1  0.185553  0.813150  0.188603  1
  Lu  Lu12  1  0.812694  0.188603  0.813150  1
  Lu  Lu13  1  0.185553  0.188603  0.813150  1
  Lu  Lu14  1  0.812694  0.813150  0.188603  1
  Lu  Lu15  1  0.936876  0.563124  0.563124  1
  Cd  Cd16  1  0.585878  0.580157  0.580157  1
  Cd  Cd17  1  0.582410  0.580216  0.254962  1
  Cd  Cd18  1  0.582410  0.254962  0.580216  1
  Cd  Cd19  1  0.253807  0.580157  0.580157  1
  Pt  Pt20  1  0.144837  0.141526  0.141526  1
  Pt  Pt21  1  0.142185  0.140825  0.574808  1
  Pt  Pt22  1  0.142185  0.574808  0.140825  1
  Pt  Pt23  1  0.572112  0.141526  0.141526  1
