# generated using pymatgen
data_YHo5OsRu
_symmetry_space_group_name_H-M   'P 1'
_cell_length_a   6.28984900
_cell_length_b   7.33989000
_cell_length_c   9.07293000
_cell_angle_alpha   90.00000000
_cell_angle_beta   90.00000000
_cell_angle_gamma   90.00000000
_symmetry_Int_Tables_number   1
_chemical_formula_structural   YHo5OsRu
_chemical_formula_sum   'Y2 Ho10 Os2 Ru2'
_cell_volume   418.86814270
_cell_formula_units_Z   2
loop_
 _symmetry_equiv_pos_site_id
 _symmetry_equiv_pos_as_xyz
  1  'x, y, z'
loop_
 _atom_site_type_symbol
 _atom_site_label
 _atom_site_symmetry_multiplicity
 _atom_site_fract_x
 _atom_site_fract_y
 _atom_site_fract_z
 _atom_site_occupancy
  Y  Y0  1  0.131200  0.460340  0.750000  1
  Y  Y1  1  0.368800  0.960339  0.750000  1
  Ho  Ho2  1  0.329242  0.676511  0.065049  1
  Ho  Ho3  1  0.170758  0.176511  0.434951  1
  Ho  Ho4  1  0.667849  0.324732  0.562297  1
  Ho  Ho5  1  0.832151  0.824732  0.937703  1
  Ho  Ho6  1  0.667849  0.324732  0.937703  1
  Ho  Ho7  1  0.832151  0.824732  0.562297  1
  Ho  Ho8  1  0.329242  0.676511  0.434951  1
  Ho  Ho9  1  0.170758  0.176511  0.065049  1
  Ho  Ho10  1  0.868336  0.538539  0.250000  1
  Ho  Ho11  1  0.631664  0.038539  0.250000  1
  Os  Os12  1  0.038555  0.884307  0.250000  1
  Os  Os13  1  0.461445  0.384307  0.250000  1
  Ru  Ru14  1  0.957856  0.114329  0.750000  1
  Ru  Ru15  1  0.542144  0.614329  0.750000  1
