# generated using pymatgen
data_La7Pr5(GaI3)4
_symmetry_space_group_name_H-M   'P 1'
_cell_length_a   11.01608502
_cell_length_b   11.03381913
_cell_length_c   11.04265396
_cell_angle_alpha   109.39360305
_cell_angle_beta   109.32587691
_cell_angle_gamma   109.27456878
_symmetry_Int_Tables_number   1
_chemical_formula_structural   La7Pr5(GaI3)4
_chemical_formula_sum   'La7 Pr5 Ga4 I12'
_cell_volume   1038.56378878
_cell_formula_units_Z   1
loop_
 _symmetry_equiv_pos_site_id
 _symmetry_equiv_pos_as_xyz
  1  'x, y, z'
loop_
 _atom_site_type_symbol
 _atom_site_label
 _atom_site_symmetry_multiplicity
 _atom_site_fract_x
 _atom_site_fract_y
 _atom_site_fract_z
 _atom_site_occupancy
  La  La0  1  0.025667  0.261920  0.014134  1
  La  La1  1  0.749974  0.012690  0.486856  1
  La  La2  1  0.262241  0.750848  0.238146  1
  La  La3  1  0.487843  0.750612  0.012602  1
  La  La4  1  0.749866  0.238253  0.262455  1
  La  La5  1  0.012925  0.488038  0.749724  1
  La  La6  1  0.238818  0.262124  0.749544  1
  Pr  Pr7  1  0.484685  0.236122  0.471183  1
  Pr  Pr8  1  0.470336  0.483523  0.236149  1
  Pr  Pr9  1  0.264192  0.015913  0.029894  1
  Pr  Pr10  1  0.016770  0.029414  0.264628  1
  Pr  Pr11  1  0.236769  0.470557  0.484860  1
  Ga  Ga12  1  0.498766  0.001483  0.250187  1
  Ga  Ga13  1  0.250433  0.499179  0.001015  1
  Ga  Ga14  1  0.250372  0.249658  0.250819  1
  Ga  Ga15  1  0.001353  0.249908  0.498335  1
  I  I16  1  0.757631  0.742365  0.249750  1
  I  I17  1  0.994084  0.508319  0.252374  1
  I  I18  1  0.250105  0.757683  0.742493  1
  I  I19  1  0.754018  0.513640  0.506366  1
  I  I20  1  0.506412  0.249764  0.993797  1
  I  I21  1  0.744762  0.992550  0.986658  1
  I  I22  1  0.994188  0.984987  0.744071  1
  I  I23  1  0.513786  0.506339  0.754213  1
  I  I24  1  0.250073  0.993700  0.506301  1
  I  I25  1  0.741075  0.250143  0.756396  1
  I  I26  1  0.506154  0.754241  0.513184  1
  I  I27  1  0.986702  0.746026  0.993867  1
