# generated using pymatgen
data_Er4Tm9Th3Tl2(CdIr2)2
_symmetry_space_group_name_H-M   'P 1'
_cell_length_a   9.64216165
_cell_length_b   9.64312232
_cell_length_c   9.64312300
_cell_angle_alpha   59.84161661
_cell_angle_beta   59.82079334
_cell_angle_gamma   59.82080257
_symmetry_Int_Tables_number   1
_chemical_formula_structural   Er4Tm9Th3Tl2(CdIr2)2
_chemical_formula_sum   'Er4 Tm9 Th3 Tl2 Cd2 Ir4'
_cell_volume   631.52915847
_cell_formula_units_Z   1
loop_
 _symmetry_equiv_pos_site_id
 _symmetry_equiv_pos_as_xyz
  1  'x, y, z'
loop_
 _atom_site_type_symbol
 _atom_site_label
 _atom_site_symmetry_multiplicity
 _atom_site_fract_x
 _atom_site_fract_y
 _atom_site_fract_z
 _atom_site_occupancy
  Er  Er0  1  0.815888  0.186847  0.815969  1
  Er  Er1  1  0.188297  0.814155  0.185454  1
  Er  Er2  1  0.814785  0.815964  0.185081  1
  Er  Er3  1  0.186576  0.186843  0.814175  1
  Tm  Tm4  1  0.197197  0.601753  0.601826  1
  Tm  Tm5  1  0.061537  0.438786  0.439899  1
  Tm  Tm6  1  0.435841  0.063651  0.063881  1
  Tm  Tm7  1  0.436489  0.062914  0.437229  1
  Tm  Tm8  1  0.062421  0.437489  0.060053  1
  Tm  Tm9  1  0.436738  0.436850  0.063182  1
  Tm  Tm10  1  0.062447  0.059814  0.438049  1
  Tm  Tm11  1  0.189630  0.813926  0.813328  1
  Tm  Tm12  1  0.814198  0.188866  0.184491  1
  Th  Th13  1  0.597286  0.598498  0.599692  1
  Th  Th14  1  0.598027  0.601997  0.199894  1
  Th  Th15  1  0.597748  0.199766  0.602881  1
  Tl  Tl16  1  0.838872  0.832568  0.835268  1
  Tl  Tl17  1  0.836503  0.832020  0.494592  1
  Cd  Cd18  1  0.834261  0.497517  0.833025  1
  Cd  Cd19  1  0.495694  0.832005  0.833811  1
  Ir  Ir20  1  0.392580  0.391234  0.391494  1
  Ir  Ir21  1  0.391795  0.390581  0.824582  1
  Ir  Ir22  1  0.392339  0.824309  0.390484  1
  Ir  Ir23  1  0.822849  0.391648  0.391658  1
