# generated using pymatgen
data_Tb2Ho4GaTcNi
_symmetry_space_group_name_H-M   'P 1'
_cell_length_a   8.36072302
_cell_length_b   8.36072352
_cell_length_c   8.36072295
_cell_angle_alpha   104.36916896
_cell_angle_beta   111.15864559
_cell_angle_gamma   113.00924926
_symmetry_Int_Tables_number   1
_chemical_formula_structural   Tb2Ho4GaTcNi
_chemical_formula_sum   'Tb4 Ho8 Ga2 Tc2 Ni2'
_cell_volume   447.12109946
_cell_formula_units_Z   2
loop_
 _symmetry_equiv_pos_site_id
 _symmetry_equiv_pos_as_xyz
  1  'x, y, z'
loop_
 _atom_site_type_symbol
 _atom_site_label
 _atom_site_symmetry_multiplicity
 _atom_site_fract_x
 _atom_site_fract_y
 _atom_site_fract_z
 _atom_site_occupancy
  Tb  Tb0  1  0.600646  0.780853  0.819793  1
  Tb  Tb1  1  0.961059  0.780853  0.180207  1
  Tb  Tb2  1  0.038941  0.219147  0.819793  1
  Tb  Tb3  1  0.399354  0.219147  0.180207  1
  Ho  Ho4  1  0.690088  0.256891  0.946980  1
  Ho  Ho5  1  0.309912  0.743109  0.053020  1
  Ho  Ho6  1  0.690088  0.743109  0.433198  1
  Ho  Ho7  1  0.309912  0.256891  0.566802  1
  Ho  Ho8  1  0.816155  0.148747  0.332593  1
  Ho  Ho9  1  0.816155  0.483562  0.667407  1
  Ho  Ho10  1  0.183845  0.851253  0.667407  1
  Ho  Ho11  1  0.183845  0.516438  0.332593  1
  Ga  Ga12  1  0.500000  0.500000  0.000000  1
  Ga  Ga13  1  0.500000  0.000000  0.500000  1
  Tc  Tc14  1  0.821110  0.500000  0.321110  1
  Tc  Tc15  1  0.178890  0.500000  0.678890  1
  Ni  Ni16  1  0.000000  0.118754  0.118754  1
  Ni  Ni17  1  0.000000  0.881246  0.881246  1
