# generated using pymatgen
data_Y10CdIn2Os
_symmetry_space_group_name_H-M   'P 1'
_cell_length_a   9.72959938
_cell_length_b   9.72959948
_cell_length_c   9.86712800
_cell_angle_alpha   90.00000000
_cell_angle_beta   90.00000000
_cell_angle_gamma   119.96787633
_symmetry_Int_Tables_number   1
_chemical_formula_structural   Y10CdIn2Os
_chemical_formula_sum   'Y20 Cd2 In4 Os2'
_cell_volume   809.19241784
_cell_formula_units_Z   2
loop_
 _symmetry_equiv_pos_site_id
 _symmetry_equiv_pos_as_xyz
  1  'x, y, z'
loop_
 _atom_site_type_symbol
 _atom_site_label
 _atom_site_symmetry_multiplicity
 _atom_site_fract_x
 _atom_site_fract_y
 _atom_site_fract_z
 _atom_site_occupancy
  Y  Y0  1  0.998062  0.001938  0.504986  1
  Y  Y1  1  0.998062  0.001938  0.995014  1
  Y  Y2  1  0.209177  0.790823  0.440812  1
  Y  Y3  1  0.210330  0.419211  0.438856  1
  Y  Y4  1  0.580789  0.789670  0.438856  1
  Y  Y5  1  0.789337  0.210663  0.559532  1
  Y  Y6  1  0.791581  0.581474  0.560532  1
  Y  Y7  1  0.418526  0.208419  0.560532  1
  Y  Y8  1  0.789337  0.210663  0.940468  1
  Y  Y9  1  0.791581  0.581474  0.939468  1
  Y  Y10  1  0.418526  0.208419  0.939468  1
  Y  Y11  1  0.209177  0.790823  0.059188  1
  Y  Y12  1  0.210330  0.419211  0.061144  1
  Y  Y13  1  0.580789  0.789670  0.061144  1
  Y  Y14  1  0.538738  0.461262  0.250000  1
  Y  Y15  1  0.536514  0.073814  0.250000  1
  Y  Y16  1  0.926186  0.463486  0.250000  1
  Y  Y17  1  0.462561  0.537439  0.750000  1
  Y  Y18  1  0.463551  0.920131  0.750000  1
  Y  Y19  1  0.079869  0.536449  0.750000  1
  Cd  Cd20  1  0.115760  0.232297  0.750000  1
  Cd  Cd21  1  0.767703  0.884240  0.750000  1
  In  In22  1  0.884569  0.115431  0.250000  1
  In  In23  1  0.886209  0.771467  0.250000  1
  In  In24  1  0.228533  0.113791  0.250000  1
  In  In25  1  0.116385  0.883615  0.750000  1
  Os  Os26  1  0.332326  0.667674  0.250000  1
  Os  Os27  1  0.665491  0.334509  0.750000  1
