# generated using pymatgen
data_Yb3SmReTc3B16
_symmetry_space_group_name_H-M   'P 1'
_cell_length_a   3.58179800
_cell_length_b   5.99562500
_cell_length_c   11.59681903
_cell_angle_alpha   90.03466293
_cell_angle_beta   90.00000000
_cell_angle_gamma   90.00000000
_symmetry_Int_Tables_number   1
_chemical_formula_structural   Yb3SmReTc3B16
_chemical_formula_sum   'Yb3 Sm1 Re1 Tc3 B16'
_cell_volume   249.04300733
_cell_formula_units_Z   1
loop_
 _symmetry_equiv_pos_site_id
 _symmetry_equiv_pos_as_xyz
  1  'x, y, z'
loop_
 _atom_site_type_symbol
 _atom_site_label
 _atom_site_symmetry_multiplicity
 _atom_site_fract_x
 _atom_site_fract_y
 _atom_site_fract_z
 _atom_site_occupancy
  Yb  Yb0  1  0.500000  0.372356  0.148661  1
  Yb  Yb1  1  0.500000  0.627201  0.849612  1
  Yb  Yb2  1  0.500000  0.127935  0.651659  1
  Sm  Sm3  1  0.500000  0.872754  0.349376  1
  Re  Re4  1  0.500000  0.870523  0.082521  1
  Tc  Tc5  1  0.500000  0.371379  0.416426  1
  Tc  Tc6  1  0.500000  0.630217  0.584069  1
  Tc  Tc7  1  0.500000  0.130338  0.916400  1
  B  B8  1  0.000000  0.115125  0.046733  1
  B  B9  1  0.000000  0.885781  0.952161  1
  B  B10  1  0.000000  0.385161  0.548419  1
  B  B11  1  0.000000  0.610597  0.454039  1
  B  B12  1  0.000000  0.136784  0.469361  1
  B  B13  1  0.000000  0.863616  0.533831  1
  B  B14  1  0.000000  0.364730  0.967066  1
  B  B15  1  0.000000  0.634182  0.031180  1
  B  B16  1  0.000000  0.026802  0.190810  1
  B  B17  1  0.000000  0.976251  0.807439  1
  B  B18  1  0.000000  0.475988  0.692930  1
  B  B19  1  0.000000  0.522685  0.307688  1
  B  B20  1  0.000000  0.218604  0.315074  1
  B  B21  1  0.000000  0.783014  0.685961  1
  B  B22  1  0.000000  0.283750  0.815069  1
  B  B23  1  0.000000  0.714228  0.183515  1
