# generated using pymatgen
data_ScB9N
_symmetry_space_group_name_H-M   'P 1'
_cell_length_a   5.47435073
_cell_length_b   5.47435191
_cell_length_c   7.45231721
_cell_angle_alpha   111.54870022
_cell_angle_beta   68.45129663
_cell_angle_gamma   119.99999574
_symmetry_Int_Tables_number   1
_chemical_formula_structural   ScB9N
_chemical_formula_sum   'Sc2 B18 N2'
_cell_volume   175.15734301
_cell_formula_units_Z   2
loop_
 _symmetry_equiv_pos_site_id
 _symmetry_equiv_pos_as_xyz
  1  'x, y, z'
loop_
 _atom_site_type_symbol
 _atom_site_label
 _atom_site_symmetry_multiplicity
 _atom_site_fract_x
 _atom_site_fract_y
 _atom_site_fract_z
 _atom_site_occupancy
  Sc  Sc0  1  0.304461  0.695538  0.086614  1
  Sc  Sc1  1  0.695537  0.304462  0.913386  1
  B  B2  1  0.181759  0.143620  0.105479  1
  B  B3  1  0.856381  0.143619  0.105479  1
  B  B4  1  0.856381  0.818242  0.105479  1
  B  B5  1  0.351910  0.324188  0.296466  1
  B  B6  1  0.675813  0.324187  0.296466  1
  B  B7  1  0.675813  0.648091  0.296466  1
  B  B8  1  0.338396  0.131350  0.454559  1
  B  B9  1  0.338396  0.661604  0.454559  1
  B  B10  1  0.868649  0.661604  0.454559  1
  B  B11  1  0.131350  0.338396  0.545442  1
  B  B12  1  0.661604  0.338396  0.545442  1
  B  B13  1  0.661604  0.868650  0.545442  1
  B  B14  1  0.324188  0.351910  0.703534  1
  B  B15  1  0.324188  0.675813  0.703534  1
  B  B16  1  0.648089  0.675812  0.703534  1
  B  B17  1  0.143620  0.181759  0.894521  1
  B  B18  1  0.143620  0.856381  0.894521  1
  B  B19  1  0.818242  0.856381  0.894521  1
  N  N20  1  0.196100  0.803899  0.411699  1
  N  N21  1  0.803899  0.196100  0.588301  1
