# generated using pymatgen
data_LiTm8HgRh2
_symmetry_space_group_name_H-M   'P 1'
_cell_length_a   9.49606285
_cell_length_b   9.47702639
_cell_length_c   9.47702571
_cell_angle_alpha   60.10747100
_cell_angle_beta   59.93352503
_cell_angle_gamma   59.93353122
_symmetry_Int_Tables_number   1
_chemical_formula_structural   LiTm8HgRh2
_chemical_formula_sum   'Li2 Tm16 Hg2 Rh4'
_cell_volume   602.95713713
_cell_formula_units_Z   2
loop_
 _symmetry_equiv_pos_site_id
 _symmetry_equiv_pos_as_xyz
  1  'x, y, z'
loop_
 _atom_site_type_symbol
 _atom_site_label
 _atom_site_symmetry_multiplicity
 _atom_site_fract_x
 _atom_site_fract_y
 _atom_site_fract_z
 _atom_site_occupancy
  Li  Li0  1  0.430118  0.715466  0.424296  1
  Li  Li1  1  0.430118  0.424296  0.715466  1
  Tm  Tm2  1  0.062665  0.064753  0.436290  1
  Tm  Tm3  1  0.436292  0.064753  0.436290  1
  Tm  Tm4  1  0.062665  0.436290  0.064753  1
  Tm  Tm5  1  0.041318  0.651678  0.651678  1
  Tm  Tm6  1  0.436292  0.436290  0.064753  1
  Tm  Tm7  1  0.649800  0.055652  0.644750  1
  Tm  Tm8  1  0.186281  0.812485  0.189519  1
  Tm  Tm9  1  0.186281  0.189519  0.812485  1
  Tm  Tm10  1  0.811716  0.812485  0.189519  1
  Tm  Tm11  1  0.438269  0.061731  0.061731  1
  Tm  Tm12  1  0.809090  0.190910  0.190910  1
  Tm  Tm13  1  0.066000  0.434000  0.434000  1
  Tm  Tm14  1  0.811716  0.189519  0.812485  1
  Tm  Tm15  1  0.183211  0.816789  0.816789  1
  Tm  Tm16  1  0.649800  0.644750  0.055652  1
  Tm  Tm17  1  0.655326  0.651678  0.651678  1
  Hg  Hg18  1  0.408905  0.419702  0.419702  1
  Hg  Hg19  1  0.751691  0.419702  0.419702  1
  Rh  Rh20  1  0.855625  0.861666  0.427084  1
  Rh  Rh21  1  0.853104  0.859401  0.859401  1
  Rh  Rh22  1  0.428093  0.859401  0.859401  1
  Rh  Rh23  1  0.855625  0.427084  0.861666  1
