# generated using pymatgen
data_CePrPaCo2
_symmetry_space_group_name_H-M   'P 1'
_cell_length_a   6.07580801
_cell_length_b   6.07580663
_cell_length_c   6.07580679
_cell_angle_alpha   145.96364674
_cell_angle_beta   118.93821576
_cell_angle_gamma   71.78709133
_symmetry_Int_Tables_number   1
_chemical_formula_structural   CePrPaCo2
_chemical_formula_sum   'Ce1 Pr1 Pa1 Co2'
_cell_volume   108.06039956
_cell_formula_units_Z   1
loop_
 _symmetry_equiv_pos_site_id
 _symmetry_equiv_pos_as_xyz
  1  'x, y, z'
loop_
 _atom_site_type_symbol
 _atom_site_label
 _atom_site_symmetry_multiplicity
 _atom_site_fract_x
 _atom_site_fract_y
 _atom_site_fract_z
 _atom_site_occupancy
  Ce  Ce0  1  0.690105  0.190105  0.500000  1
  Pr  Pr1  1  0.301772  0.801772  0.500000  1
  Pa  Pa2  1  0.994154  0.994154  0.000000  1
  Co  Co3  1  0.288377  0.506985  0.781392  1
  Co  Co4  1  0.725593  0.506985  0.218608  1
