# generated using pymatgen
data_La4CoCuSi6
_symmetry_space_group_name_H-M   'P 1'
_cell_length_a   8.18688300
_cell_length_b   8.18688355
_cell_length_c   4.38697700
_cell_angle_alpha   90.00000000
_cell_angle_beta   90.00000000
_cell_angle_gamma   120.00000183
_symmetry_Int_Tables_number   1
_chemical_formula_structural   La4CoCuSi6
_chemical_formula_sum   'La4 Co1 Cu1 Si6'
_cell_volume   254.64384189
_cell_formula_units_Z   1
loop_
 _symmetry_equiv_pos_site_id
 _symmetry_equiv_pos_as_xyz
  1  'x, y, z'
loop_
 _atom_site_type_symbol
 _atom_site_label
 _atom_site_symmetry_multiplicity
 _atom_site_fract_x
 _atom_site_fract_y
 _atom_site_fract_z
 _atom_site_occupancy
  La  La0  1  0.505476  0.494524  0.000000  1
  La  La1  1  0.989047  0.494524  0.000000  1
  La  La2  1  0.505476  0.010953  0.000000  1
  La  La3  1  0.000000  0.000000  0.000000  1
  Co  Co4  1  0.666667  0.333333  0.500000  1
  Cu  Cu5  1  0.333333  0.666667  0.500000  1
  Si  Si6  1  0.828311  0.656623  0.500000  1
  Si  Si7  1  0.166960  0.833040  0.500000  1
  Si  Si8  1  0.666079  0.833040  0.500000  1
  Si  Si9  1  0.166960  0.333921  0.500000  1
  Si  Si10  1  0.828311  0.171689  0.500000  1
  Si  Si11  1  0.343377  0.171689  0.500000  1
