# generated using pymatgen
data_Mg4As6Ir4Ru3
_symmetry_space_group_name_H-M   'P 1'
_cell_length_a   7.05734517
_cell_length_b   7.06277162
_cell_length_c   7.06277150
_cell_angle_alpha   109.42826366
_cell_angle_beta   109.50829889
_cell_angle_gamma   109.50829155
_symmetry_Int_Tables_number   1
_chemical_formula_structural   Mg4As6Ir4Ru3
_chemical_formula_sum   'Mg4 As6 Ir4 Ru3'
_cell_volume   270.89580471
_cell_formula_units_Z   1
loop_
 _symmetry_equiv_pos_site_id
 _symmetry_equiv_pos_as_xyz
  1  'x, y, z'
loop_
 _atom_site_type_symbol
 _atom_site_label
 _atom_site_symmetry_multiplicity
 _atom_site_fract_x
 _atom_site_fract_y
 _atom_site_fract_z
 _atom_site_occupancy
  Mg  Mg0  1  0.000000  0.999592  0.499776  1
  Mg  Mg1  1  0.500000  0.000153  0.999847  1
  Mg  Mg2  1  0.000000  0.500224  0.000408  1
  Mg  Mg3  1  0.500000  0.500153  0.499847  1
  As  As4  1  0.686075  0.689586  0.996489  1
  As  As5  1  0.306827  0.310198  0.996629  1
  As  As6  1  0.000000  0.685501  0.691773  1
  As  As7  1  0.000000  0.308227  0.314499  1
  As  As8  1  0.693173  0.003371  0.689802  1
  As  As9  1  0.313925  0.003511  0.310414  1
  Ir  Ir10  1  0.500000  0.250098  0.749902  1
  Ir  Ir11  1  0.500000  0.750098  0.249902  1
  Ir  Ir12  1  0.749731  0.500087  0.249644  1
  Ir  Ir13  1  0.250269  0.750356  0.499913  1
  Ru  Ru14  1  0.000000  0.999754  0.000246  1
  Ru  Ru15  1  0.250306  0.499699  0.750608  1
  Ru  Ru16  1  0.749694  0.249392  0.500301  1
