# generated using pymatgen
data_Tb3Dy17(Bi2P)4
_symmetry_space_group_name_H-M   'P 1'
_cell_length_a   8.00924413
_cell_length_b   8.98285903
_cell_length_c   12.19549919
_cell_angle_alpha   90.00542701
_cell_angle_beta   90.01937611
_cell_angle_gamma   90.00752001
_symmetry_Int_Tables_number   1
_chemical_formula_structural   Tb3Dy17(Bi2P)4
_chemical_formula_sum   'Tb3 Dy17 Bi8 P4'
_cell_volume   877.41623712
_cell_formula_units_Z   1
loop_
 _symmetry_equiv_pos_site_id
 _symmetry_equiv_pos_as_xyz
  1  'x, y, z'
loop_
 _atom_site_type_symbol
 _atom_site_label
 _atom_site_symmetry_multiplicity
 _atom_site_fract_x
 _atom_site_fract_y
 _atom_site_fract_z
 _atom_site_occupancy
  Tb  Tb0  1  0.684074  0.452395  0.563982  1
  Tb  Tb1  1  0.816220  0.452437  0.064043  1
  Tb  Tb2  1  0.183926  0.547685  0.935998  1
  Dy  Dy3  1  0.852392  0.750036  0.794905  1
  Dy  Dy4  1  0.147833  0.249960  0.205234  1
  Dy  Dy5  1  0.352232  0.249777  0.704993  1
  Dy  Dy6  1  0.647859  0.750013  0.294848  1
  Dy  Dy7  1  0.376917  0.749991  0.699286  1
  Dy  Dy8  1  0.623019  0.249944  0.300754  1
  Dy  Dy9  1  0.877028  0.249994  0.800562  1
  Dy  Dy10  1  0.123184  0.749791  0.199663  1
  Dy  Dy11  1  0.959144  0.750122  0.501999  1
  Dy  Dy12  1  0.041142  0.249904  0.497760  1
  Dy  Dy13  1  0.459029  0.250051  0.997875  1
  Dy  Dy14  1  0.540836  0.749921  0.002189  1
  Dy  Dy15  1  0.683799  0.048048  0.564107  1
  Dy  Dy16  1  0.316054  0.951662  0.435937  1
  Dy  Dy17  1  0.184302  0.951868  0.935922  1
  Dy  Dy18  1  0.316880  0.548381  0.436138  1
  Dy  Dy19  1  0.815767  0.047914  0.064146  1
  Bi  Bi20  1  0.577888  0.490898  0.826307  1
  Bi  Bi21  1  0.421990  0.509071  0.173874  1
  Bi  Bi22  1  0.077986  0.509055  0.673402  1
  Bi  Bi23  1  0.422034  0.990859  0.173625  1
  Bi  Bi24  1  0.922366  0.490874  0.326537  1
  Bi  Bi25  1  0.577977  0.009052  0.826333  1
  Bi  Bi26  1  0.922111  0.009075  0.326314  1
  Bi  Bi27  1  0.078012  0.990777  0.673613  1
  P  P28  1  0.570339  0.751297  0.511605  1
  P  P29  1  0.427782  0.249167  0.487818  1
  P  P30  1  0.071046  0.247902  0.988313  1
  P  P31  1  0.928831  0.752078  0.011919  1
