# generated using pymatgen
data_SmHo7Cu3Si12Rh
_symmetry_space_group_name_H-M   'P 1'
_cell_length_a   8.03202007
_cell_length_b   8.02872972
_cell_length_c   8.09897303
_cell_angle_alpha   89.99979482
_cell_angle_beta   89.99053618
_cell_angle_gamma   120.02527433
_symmetry_Int_Tables_number   1
_chemical_formula_structural   SmHo7Cu3Si12Rh
_chemical_formula_sum   'Sm1 Ho7 Cu3 Si12 Rh1'
_cell_volume   452.19060682
_cell_formula_units_Z   1
loop_
 _symmetry_equiv_pos_site_id
 _symmetry_equiv_pos_as_xyz
  1  'x, y, z'
loop_
 _atom_site_type_symbol
 _atom_site_label
 _atom_site_symmetry_multiplicity
 _atom_site_fract_x
 _atom_site_fract_y
 _atom_site_fract_z
 _atom_site_occupancy
  Sm  Sm0  1  0.000134  0.000108  0.250612  1
  Ho  Ho1  1  0.000109  0.000081  0.749952  1
  Ho  Ho2  1  0.499106  0.501108  0.248192  1
  Ho  Ho3  1  0.499079  0.998060  0.248211  1
  Ho  Ho4  1  0.002096  0.501108  0.248172  1
  Ho  Ho5  1  0.499076  0.501136  0.751710  1
  Ho  Ho6  1  0.499047  0.997967  0.751683  1
  Ho  Ho7  1  0.002202  0.501143  0.751724  1
  Cu  Cu8  1  0.333044  0.666529  0.498617  1
  Cu  Cu9  1  0.666235  0.333022  0.499134  1
  Cu  Cu10  1  0.666219  0.332892  0.000491  1
  Si  Si11  1  0.169454  0.830581  0.502255  1
  Si  Si12  1  0.169417  0.338770  0.502316  1
  Si  Si13  1  0.661112  0.830541  0.502308  1
  Si  Si14  1  0.830931  0.169246  0.502005  1
  Si  Si15  1  0.830891  0.661699  0.502060  1
  Si  Si16  1  0.338189  0.169143  0.502064  1
  Si  Si17  1  0.831680  0.168526  0.997919  1
  Si  Si18  1  0.831566  0.663076  0.997936  1
  Si  Si19  1  0.336763  0.168454  0.997915  1
  Si  Si20  1  0.167926  0.831937  0.997898  1
  Si  Si21  1  0.168103  0.336085  0.997898  1
  Si  Si22  1  0.664150  0.831950  0.997900  1
  Rh  Rh23  1  0.333470  0.666837  0.001026  1
