# generated using pymatgen
data_Hf6Al16IrPd6
_symmetry_space_group_name_H-M   'P 1'
_cell_length_a   8.76139330
_cell_length_b   8.74845414
_cell_length_c   8.76139290
_cell_angle_alpha   60.04883773
_cell_angle_beta   59.85577146
_cell_angle_gamma   60.04883962
_symmetry_Int_Tables_number   1
_chemical_formula_structural   Hf6Al16IrPd6
_chemical_formula_sum   'Hf6 Al16 Ir1 Pd6'
_cell_volume   474.68612577
_cell_formula_units_Z   1
loop_
 _symmetry_equiv_pos_site_id
 _symmetry_equiv_pos_as_xyz
  1  'x, y, z'
loop_
 _atom_site_type_symbol
 _atom_site_label
 _atom_site_symmetry_multiplicity
 _atom_site_fract_x
 _atom_site_fract_y
 _atom_site_fract_z
 _atom_site_occupancy
  Hf  Hf0  1  0.680184  0.316983  0.319816  1
  Hf  Hf1  1  0.319816  0.683017  0.680184  1
  Hf  Hf2  1  0.318471  0.681529  0.318471  1
  Hf  Hf3  1  0.681529  0.318471  0.681529  1
  Hf  Hf4  1  0.319816  0.316983  0.680184  1
  Hf  Hf5  1  0.680184  0.683017  0.319816  1
  Al  Al6  1  0.335944  0.334811  0.335944  1
  Al  Al7  1  0.664056  0.665189  0.664056  1
  Al  Al8  1  0.335652  0.335708  0.992932  1
  Al  Al9  1  0.335944  0.993301  0.335944  1
  Al  Al10  1  0.664348  0.664292  0.007068  1
  Al  Al11  1  0.664056  0.006699  0.664056  1
  Al  Al12  1  0.992932  0.335708  0.335652  1
  Al  Al13  1  0.007068  0.664292  0.664348  1
  Al  Al14  1  0.120470  0.119627  0.120470  1
  Al  Al15  1  0.879530  0.880373  0.879530  1
  Al  Al16  1  0.126352  0.118005  0.637637  1
  Al  Al17  1  0.120470  0.639433  0.120470  1
  Al  Al18  1  0.873648  0.881995  0.362363  1
  Al  Al19  1  0.879530  0.360567  0.879530  1
  Al  Al20  1  0.637637  0.118005  0.126352  1
  Al  Al21  1  0.362363  0.881995  0.873648  1
  Ir  Ir22  1  0.500000  0.000000  0.500000  1
  Pd  Pd23  1  0.500000  0.000000  0.000000  1
  Pd  Pd24  1  0.000000  0.500000  0.500000  1
  Pd  Pd25  1  0.000000  0.500000  0.000000  1
  Pd  Pd26  1  0.000000  0.000000  0.500000  1
  Pd  Pd27  1  0.500000  0.500000  0.000000  1
  Pd  Pd28  1  0.000000  0.000000  0.000000  1
