# generated using pymatgen
data_YbDy3(IrOs3)2
_symmetry_space_group_name_H-M   'P 1'
_cell_length_a   5.26801700
_cell_length_b   5.26801814
_cell_length_c   9.00937400
_cell_angle_alpha   90.00000000
_cell_angle_beta   90.00000000
_cell_angle_gamma   120.00001168
_symmetry_Int_Tables_number   1
_chemical_formula_structural   YbDy3(IrOs3)2
_chemical_formula_sum   'Yb1 Dy3 Ir2 Os6'
_cell_volume   216.53077284
_cell_formula_units_Z   1
loop_
 _symmetry_equiv_pos_site_id
 _symmetry_equiv_pos_as_xyz
  1  'x, y, z'
loop_
 _atom_site_type_symbol
 _atom_site_label
 _atom_site_symmetry_multiplicity
 _atom_site_fract_x
 _atom_site_fract_y
 _atom_site_fract_z
 _atom_site_occupancy
  Yb  Yb0  1  0.333333  0.666667  0.434119  1
  Dy  Dy1  1  0.666667  0.333333  0.563517  1
  Dy  Dy2  1  0.666667  0.333333  0.931971  1
  Dy  Dy3  1  0.333333  0.666667  0.072674  1
  Ir  Ir4  1  0.000000  0.000000  0.498469  1
  Ir  Ir5  1  0.000000  0.000000  0.999440  1
  Os  Os6  1  0.829373  0.170627  0.249732  1
  Os  Os7  1  0.829373  0.658745  0.249732  1
  Os  Os8  1  0.341255  0.170627  0.249732  1
  Os  Os9  1  0.170535  0.829465  0.750204  1
  Os  Os10  1  0.170535  0.341069  0.750204  1
  Os  Os11  1  0.658931  0.829465  0.750204  1
