# generated using pymatgen
data_Mg3Fe(PtO3)8
_symmetry_space_group_name_H-M   'P 1'
_cell_length_a   4.60049283
_cell_length_b   9.20494971
_cell_length_c   9.45208100
_cell_angle_alpha   90.00000000
_cell_angle_beta   90.00000000
_cell_angle_gamma   89.81738497
_symmetry_Int_Tables_number   1
_chemical_formula_structural   Mg3Fe(PtO3)8
_chemical_formula_sum   'Mg3 Fe1 Pt8 O24'
_cell_volume   400.26812535
_cell_formula_units_Z   1
loop_
 _symmetry_equiv_pos_site_id
 _symmetry_equiv_pos_as_xyz
  1  'x, y, z'
loop_
 _atom_site_type_symbol
 _atom_site_label
 _atom_site_symmetry_multiplicity
 _atom_site_fract_x
 _atom_site_fract_y
 _atom_site_fract_z
 _atom_site_occupancy
  Mg  Mg0  1  0.999564  0.499864  0.000000  1
  Mg  Mg1  1  0.500000  0.750000  0.500000  1
  Mg  Mg2  1  0.000436  0.000136  0.000000  1
  Fe  Fe3  1  0.500000  0.250000  0.500000  1
  Pt  Pt4  1  0.997211  0.999312  0.331398  1
  Pt  Pt5  1  0.002789  0.500688  0.331398  1
  Pt  Pt6  1  0.500000  0.250000  0.831933  1
  Pt  Pt7  1  0.500000  0.750000  0.831428  1
  Pt  Pt8  1  0.500000  0.250000  0.168067  1
  Pt  Pt9  1  0.500000  0.750000  0.168572  1
  Pt  Pt10  1  0.997211  0.999312  0.668602  1
  Pt  Pt11  1  0.002789  0.500688  0.668602  1
  O  O12  1  0.312109  0.155906  0.000000  1
  O  O13  1  0.311361  0.655760  0.000000  1
  O  O14  1  0.194049  0.404331  0.500000  1
  O  O15  1  0.186030  0.905654  0.500000  1
  O  O16  1  0.805951  0.095669  0.500000  1
  O  O17  1  0.813970  0.594346  0.500000  1
  O  O18  1  0.687891  0.344094  0.000000  1
  O  O19  1  0.688639  0.844240  0.000000  1
  O  O20  1  0.305103  0.153862  0.336301  1
  O  O21  1  0.306777  0.652298  0.334000  1
  O  O22  1  0.193948  0.401841  0.834262  1
  O  O23  1  0.196283  0.903347  0.833571  1
  O  O24  1  0.806052  0.098159  0.834262  1
  O  O25  1  0.803717  0.596653  0.833571  1
  O  O26  1  0.806052  0.098159  0.165738  1
  O  O27  1  0.803717  0.596653  0.166429  1
  O  O28  1  0.193948  0.401841  0.165738  1
  O  O29  1  0.196283  0.903347  0.166429  1
  O  O30  1  0.694897  0.346138  0.336301  1
  O  O31  1  0.693223  0.847702  0.334000  1
  O  O32  1  0.305103  0.153862  0.663699  1
  O  O33  1  0.306777  0.652298  0.666000  1
  O  O34  1  0.694897  0.346138  0.663699  1
  O  O35  1  0.693223  0.847702  0.666000  1
