# generated using pymatgen
data_TbEr3CdPd
_symmetry_space_group_name_H-M   'P 1'
_cell_length_a   9.64785653
_cell_length_b   9.64301279
_cell_length_c   9.64301222
_cell_angle_alpha   60.03323628
_cell_angle_beta   59.98337976
_cell_angle_gamma   59.98338128
_symmetry_Int_Tables_number   1
_chemical_formula_structural   TbEr3CdPd
_chemical_formula_sum   'Tb4 Er12 Cd4 Pd4'
_cell_volume   634.36771253
_cell_formula_units_Z   4
loop_
 _symmetry_equiv_pos_site_id
 _symmetry_equiv_pos_as_xyz
  1  'x, y, z'
loop_
 _atom_site_type_symbol
 _atom_site_label
 _atom_site_symmetry_multiplicity
 _atom_site_fract_x
 _atom_site_fract_y
 _atom_site_fract_z
 _atom_site_occupancy
  Tb  Tb0  1  0.565824  0.934176  0.565824  1
  Tb  Tb1  1  0.934176  0.565824  0.934176  1
  Tb  Tb2  1  0.565824  0.565824  0.934176  1
  Tb  Tb3  1  0.934176  0.934176  0.565824  1
  Er  Er4  1  0.353286  0.353772  0.353772  1
  Er  Er5  1  0.353772  0.353286  0.939172  1
  Er  Er6  1  0.353772  0.939172  0.353286  1
  Er  Er7  1  0.939172  0.353772  0.353772  1
  Er  Er8  1  0.810865  0.189135  0.189135  1
  Er  Er9  1  0.189135  0.810865  0.810865  1
  Er  Er10  1  0.189126  0.810874  0.189126  1
  Er  Er11  1  0.810874  0.189126  0.810874  1
  Er  Er12  1  0.189126  0.189126  0.810874  1
  Er  Er13  1  0.810874  0.810874  0.189126  1
  Er  Er14  1  0.934865  0.565135  0.565135  1
  Er  Er15  1  0.565135  0.934865  0.934865  1
  Cd  Cd16  1  0.582153  0.581753  0.581753  1
  Cd  Cd17  1  0.581753  0.582153  0.254339  1
  Cd  Cd18  1  0.581753  0.254339  0.582153  1
  Cd  Cd19  1  0.254339  0.581753  0.581753  1
  Pd  Pd20  1  0.144697  0.144214  0.144214  1
  Pd  Pd21  1  0.144214  0.144697  0.566875  1
  Pd  Pd22  1  0.144214  0.566875  0.144697  1
  Pd  Pd23  1  0.566875  0.144214  0.144214  1
