# generated using pymatgen
data_Ca6TbNd13Sn16
_symmetry_space_group_name_H-M   'P 1'
_cell_length_a   8.06029847
_cell_length_b   8.50633274
_cell_length_c   16.10907578
_cell_angle_alpha   90.03545908
_cell_angle_beta   89.89860555
_cell_angle_gamma   89.78914829
_symmetry_Int_Tables_number   1
_chemical_formula_structural   Ca6TbNd13Sn16
_chemical_formula_sum   'Ca6 Tb1 Nd13 Sn16'
_cell_volume   1104.48649371
_cell_formula_units_Z   1
loop_
 _symmetry_equiv_pos_site_id
 _symmetry_equiv_pos_as_xyz
  1  'x, y, z'
loop_
 _atom_site_type_symbol
 _atom_site_label
 _atom_site_symmetry_multiplicity
 _atom_site_fract_x
 _atom_site_fract_y
 _atom_site_fract_z
 _atom_site_occupancy
  Ca  Ca0  1  0.996937  0.183632  0.407057  1
  Ca  Ca1  1  0.334561  0.829659  0.123155  1
  Ca  Ca2  1  0.164767  0.496399  0.248800  1
  Ca  Ca3  1  0.666226  0.006816  0.249493  1
  Ca  Ca4  1  0.334575  0.993714  0.750367  1
  Ca  Ca5  1  0.834294  0.504235  0.750388  1
  Tb  Tb6  1  0.165353  0.329253  0.624028  1
  Nd  Nd7  1  0.506051  0.682244  0.904089  1
  Nd  Nd8  1  0.835932  0.674131  0.124429  1
  Nd  Nd9  1  0.164351  0.325562  0.875629  1
  Nd  Nd10  1  0.507371  0.682940  0.596502  1
  Nd  Nd11  1  0.664696  0.173120  0.624733  1
  Nd  Nd12  1  0.836875  0.671539  0.376636  1
  Nd  Nd13  1  0.993167  0.181908  0.092450  1
  Nd  Nd14  1  0.006868  0.817143  0.903646  1
  Nd  Nd15  1  0.664863  0.171413  0.875416  1
  Nd  Nd16  1  0.489498  0.314979  0.095649  1
  Nd  Nd17  1  0.334717  0.830964  0.374644  1
  Nd  Nd18  1  0.007706  0.815654  0.597457  1
  Nd  Nd19  1  0.491620  0.316693  0.403733  1
  Sn  Sn20  1  0.826988  0.465461  0.540475  1
  Sn  Sn21  1  0.671253  0.963655  0.462719  1
  Sn  Sn22  1  0.706584  0.858473  0.750429  1
  Sn  Sn23  1  0.180522  0.541652  0.465811  1
  Sn  Sn24  1  0.325987  0.034053  0.961570  1
  Sn  Sn25  1  0.793150  0.363052  0.249208  1
  Sn  Sn26  1  0.823185  0.462547  0.962971  1
  Sn  Sn27  1  0.533595  0.600789  0.250017  1
  Sn  Sn28  1  0.173835  0.535825  0.037698  1
  Sn  Sn29  1  0.464196  0.393854  0.749705  1
  Sn  Sn30  1  0.204213  0.638534  0.749353  1
  Sn  Sn31  1  0.968625  0.107459  0.747503  1
  Sn  Sn32  1  0.326447  0.036085  0.539828  1
  Sn  Sn33  1  0.675509  0.961940  0.036220  1
  Sn  Sn34  1  0.291173  0.142461  0.248891  1
  Sn  Sn35  1  0.034309  0.892164  0.249298  1
