# generated using pymatgen
data_Ti4BBr6
_symmetry_space_group_name_H-M   'P 1'
_cell_length_a   3.48162200
_cell_length_b   12.05645600
_cell_length_c   12.53459400
_cell_angle_alpha   90.00000000
_cell_angle_beta   90.00000000
_cell_angle_gamma   90.00000000
_symmetry_Int_Tables_number   1
_chemical_formula_structural   Ti4BBr6
_chemical_formula_sum   'Ti8 B2 Br12'
_cell_volume   526.15239917
_cell_formula_units_Z   2
loop_
 _symmetry_equiv_pos_site_id
 _symmetry_equiv_pos_as_xyz
  1  'x, y, z'
loop_
 _atom_site_type_symbol
 _atom_site_label
 _atom_site_symmetry_multiplicity
 _atom_site_fract_x
 _atom_site_fract_y
 _atom_site_fract_z
 _atom_site_occupancy
  Ti  Ti0  1  0.000000  0.093024  0.074232  1
  Ti  Ti1  1  0.000000  0.906976  0.925768  1
  Ti  Ti2  1  0.000000  0.593024  0.425768  1
  Ti  Ti3  1  0.000000  0.406976  0.574232  1
  Ti  Ti4  1  0.500000  0.112578  0.869352  1
  Ti  Ti5  1  0.500000  0.887422  0.130648  1
  Ti  Ti6  1  0.500000  0.612578  0.630648  1
  Ti  Ti7  1  0.500000  0.387422  0.369352  1
  B  B8  1  0.500000  0.000000  0.000000  1
  B  B9  1  0.500000  0.500000  0.500000  1
  Br  Br10  1  0.500000  0.272013  0.677123  1
  Br  Br11  1  0.500000  0.727987  0.322877  1
  Br  Br12  1  0.500000  0.772013  0.822877  1
  Br  Br13  1  0.500000  0.227987  0.177123  1
  Br  Br14  1  0.000000  0.256031  0.935188  1
  Br  Br15  1  0.000000  0.743969  0.064812  1
  Br  Br16  1  0.000000  0.482045  0.245754  1
  Br  Br17  1  0.000000  0.517955  0.754246  1
  Br  Br18  1  0.000000  0.982045  0.254246  1
  Br  Br19  1  0.000000  0.017955  0.745754  1
  Br  Br20  1  0.000000  0.243969  0.435188  1
  Br  Br21  1  0.000000  0.756031  0.564812  1
