# generated using pymatgen
data_Nd3SmGa2(Si4Pt3)2
_symmetry_space_group_name_H-M   'P 1'
_cell_length_a   8.33408365
_cell_length_b   8.33255405
_cell_length_c   8.31803054
_cell_angle_alpha   137.12450508
_cell_angle_beta   105.25567816
_cell_angle_gamma   90.33149767
_symmetry_Int_Tables_number   1
_chemical_formula_structural   Nd3SmGa2(Si4Pt3)2
_chemical_formula_sum   'Nd3 Sm1 Ga2 Si8 Pt6'
_cell_volume   361.40720330
_cell_formula_units_Z   1
loop_
 _symmetry_equiv_pos_site_id
 _symmetry_equiv_pos_as_xyz
  1  'x, y, z'
loop_
 _atom_site_type_symbol
 _atom_site_label
 _atom_site_symmetry_multiplicity
 _atom_site_fract_x
 _atom_site_fract_y
 _atom_site_fract_z
 _atom_site_occupancy
  Nd  Nd0  1  0.635586  0.371293  0.267735  1
  Nd  Nd1  1  0.364442  0.628760  0.732255  1
  Nd  Nd2  1  0.103392  0.867699  0.232180  1
  Sm  Sm3  1  0.896636  0.132096  0.767802  1
  Ga  Ga4  1  0.270434  0.520438  0.249683  1
  Ga  Ga5  1  0.729362  0.479066  0.749969  1
  Si  Si6  1  0.730927  0.980957  0.250283  1
  Si  Si7  1  0.268917  0.019204  0.749976  1
  Si  Si8  1  0.457970  0.108921  0.349094  1
  Si  Si9  1  0.542581  0.891508  0.651109  1
  Si  Si10  1  0.759975  0.608893  0.151045  1
  Si  Si11  1  0.239851  0.390792  0.849016  1
  Si  Si12  1  0.005355  0.255373  0.249654  1
  Si  Si13  1  0.994542  0.744797  0.749999  1
  Pt  Pt14  1  0.245657  0.121729  0.103753  1
  Pt  Pt15  1  0.754503  0.878609  0.896022  1
  Pt  Pt16  1  0.017537  0.642064  0.396007  1
  Pt  Pt17  1  0.981901  0.357619  0.604055  1
  Pt  Pt18  1  0.493789  0.243641  0.750090  1
  Pt  Pt19  1  0.506645  0.756541  0.250274  1
