# generated using pymatgen
data_SeS8I3
_symmetry_space_group_name_H-M   'P 1'
_cell_length_a   8.75136157
_cell_length_b   10.62047383
_cell_length_c   12.50170651
_cell_angle_alpha   103.74138912
_cell_angle_beta   107.48292337
_cell_angle_gamma   105.22026838
_symmetry_Int_Tables_number   1
_chemical_formula_structural   SeS8I3
_chemical_formula_sum   'Se2 S16 I6'
_cell_volume   1004.21974355
_cell_formula_units_Z   2
loop_
 _symmetry_equiv_pos_site_id
 _symmetry_equiv_pos_as_xyz
  1  'x, y, z'
loop_
 _atom_site_type_symbol
 _atom_site_label
 _atom_site_symmetry_multiplicity
 _atom_site_fract_x
 _atom_site_fract_y
 _atom_site_fract_z
 _atom_site_occupancy
  Se  Se0  1  0.815744  0.027344  0.844217  1
  Se  Se1  1  0.184256  0.972656  0.155783  1
  S  S2  1  0.858449  0.510676  0.815908  1
  S  S3  1  0.141551  0.489324  0.184092  1
  S  S4  1  0.732272  0.420398  0.632931  1
  S  S5  1  0.267728  0.579602  0.367069  1
  S  S6  1  0.752443  0.228358  0.578025  1
  S  S7  1  0.247557  0.771642  0.421975  1
  S  S8  1  0.947317  0.247039  0.516124  1
  S  S9  1  0.052683  0.752961  0.483876  1
  S  S10  1  0.897267  0.357005  0.144477  1
  S  S11  1  0.102733  0.642995  0.855523  1
  S  S12  1  0.728381  0.459452  0.107223  1
  S  S13  1  0.271619  0.540548  0.892777  1
  S  S14  1  0.679979  0.531541  0.257408  1
  S  S15  1  0.320021  0.468459  0.742592  1
  S  S16  1  0.833683  0.737880  0.349812  1
  S  S17  1  0.166317  0.262120  0.650188  1
  I  I18  1  0.523253  0.079492  0.804489  1
  I  I19  1  0.476747  0.920508  0.195511  1
  I  I20  1  0.833059  0.861140  0.038968  1
  I  I21  1  0.166941  0.138860  0.961032  1
  I  I22  1  0.755269  0.834383  0.650345  1
  I  I23  1  0.244731  0.165617  0.349655  1
