# generated using pymatgen
data_Ba4CaYbBi4
_symmetry_space_group_name_H-M   'P 1'
_cell_length_a   10.09831961
_cell_length_b   10.09831974
_cell_length_c   8.73682530
_cell_angle_alpha   89.97077139
_cell_angle_beta   90.02923051
_cell_angle_gamma   149.67432021
_symmetry_Int_Tables_number   1
_chemical_formula_structural   Ba4CaYbBi4
_chemical_formula_sum   'Ba4 Ca1 Yb1 Bi4'
_cell_volume   449.85204777
_cell_formula_units_Z   1
loop_
 _symmetry_equiv_pos_site_id
 _symmetry_equiv_pos_as_xyz
  1  'x, y, z'
loop_
 _atom_site_type_symbol
 _atom_site_label
 _atom_site_symmetry_multiplicity
 _atom_site_fract_x
 _atom_site_fract_y
 _atom_site_fract_z
 _atom_site_occupancy
  Ba  Ba0  1  0.032218  0.967781  0.232045  1
  Ba  Ba1  1  0.797796  0.202203  0.397443  1
  Ba  Ba2  1  0.967444  0.032555  0.732515  1
  Ba  Ba3  1  0.202234  0.797765  0.897559  1
  Ca  Ca4  1  0.596211  0.403789  0.575940  1
  Yb  Yb5  1  0.404141  0.595859  0.076031  1
  Bi  Bi6  1  0.436626  0.563373  0.442311  1
  Bi  Bi7  1  0.174697  0.825302  0.486143  1
  Bi  Bi8  1  0.563385  0.436614  0.942452  1
  Bi  Bi9  1  0.825244  0.174755  0.986264  1
