# generated using pymatgen
data_NdEu2HfSb5
_symmetry_space_group_name_H-M   'P 1'
_cell_length_a   9.55927518
_cell_length_b   9.55927521
_cell_length_c   6.37872300
_cell_angle_alpha   90.00000000
_cell_angle_beta   90.00000000
_cell_angle_gamma   119.97767950
_symmetry_Int_Tables_number   1
_chemical_formula_structural   NdEu2HfSb5
_chemical_formula_sum   'Nd2 Eu4 Hf2 Sb10'
_cell_volume   504.90763664
_cell_formula_units_Z   2
loop_
 _symmetry_equiv_pos_site_id
 _symmetry_equiv_pos_as_xyz
  1  'x, y, z'
loop_
 _atom_site_type_symbol
 _atom_site_label
 _atom_site_symmetry_multiplicity
 _atom_site_fract_x
 _atom_site_fract_y
 _atom_site_fract_z
 _atom_site_occupancy
  Nd  Nd0  1  0.382018  0.382018  0.250000  1
  Nd  Nd1  1  0.617982  0.617982  0.750000  1
  Eu  Eu2  1  0.615332  0.004757  0.250000  1
  Eu  Eu3  1  0.384668  0.995243  0.750000  1
  Eu  Eu4  1  0.004757  0.615332  0.250000  1
  Eu  Eu5  1  0.995243  0.384668  0.750000  1
  Hf  Hf6  1  0.000000  0.000000  0.000000  1
  Hf  Hf7  1  0.000000  0.000000  0.500000  1
  Sb  Sb8  1  0.257874  0.000753  0.250000  1
  Sb  Sb9  1  0.742126  0.999247  0.750000  1
  Sb  Sb10  1  0.000753  0.257874  0.250000  1
  Sb  Sb11  1  0.999247  0.742126  0.750000  1
  Sb  Sb12  1  0.739243  0.739243  0.250000  1
  Sb  Sb13  1  0.260757  0.260757  0.750000  1
  Sb  Sb14  1  0.337920  0.662080  0.000000  1
  Sb  Sb15  1  0.662080  0.337920  0.000000  1
  Sb  Sb16  1  0.662080  0.337920  0.500000  1
  Sb  Sb17  1  0.337920  0.662080  0.500000  1
