# generated using pymatgen
data_Th10Hg2Bi5Pb
_symmetry_space_group_name_H-M   'P 1'
_cell_length_a   9.75928478
_cell_length_b   9.76606268
_cell_length_c   6.65762600
_cell_angle_alpha   90.00000000
_cell_angle_beta   90.00000000
_cell_angle_gamma   120.02298316
_symmetry_Int_Tables_number   1
_chemical_formula_structural   Th10Hg2Bi5Pb
_chemical_formula_sum   'Th10 Hg2 Bi5 Pb1'
_cell_volume   549.39777802
_cell_formula_units_Z   1
loop_
 _symmetry_equiv_pos_site_id
 _symmetry_equiv_pos_as_xyz
  1  'x, y, z'
loop_
 _atom_site_type_symbol
 _atom_site_label
 _atom_site_symmetry_multiplicity
 _atom_site_fract_x
 _atom_site_fract_y
 _atom_site_fract_z
 _atom_site_occupancy
  Th  Th0  1  0.667748  0.333403  0.500664  1
  Th  Th1  1  0.332252  0.665657  0.500664  1
  Th  Th2  1  0.332252  0.665657  0.999336  1
  Th  Th3  1  0.667748  0.333403  0.999336  1
  Th  Th4  1  0.725270  0.725264  0.250000  1
  Th  Th5  1  0.274730  0.999993  0.250000  1
  Th  Th6  1  0.000000  0.274947  0.250000  1
  Th  Th7  1  0.275194  0.276248  0.750000  1
  Th  Th8  1  0.724806  0.001053  0.750000  1
  Th  Th9  1  0.000000  0.724701  0.750000  1
  Hg  Hg10  1  0.000000  0.000547  0.500719  1
  Hg  Hg11  1  0.000000  0.000547  0.999281  1
  Bi  Bi12  1  0.380672  0.381002  0.250000  1
  Bi  Bi13  1  0.619328  0.000331  0.250000  1
  Bi  Bi14  1  0.000000  0.618551  0.250000  1
  Bi  Bi15  1  0.619076  0.619168  0.750000  1
  Bi  Bi16  1  0.380924  0.000093  0.750000  1
  Pb  Pb17  1  0.000000  0.379435  0.750000  1
