# generated using pymatgen
data_LaNd3Y4(CdPt)2
_symmetry_space_group_name_H-M   'P 1'
_cell_length_a   9.89596407
_cell_length_b   9.89596407
_cell_length_c   9.85256900
_cell_angle_alpha   60.14494982
_cell_angle_beta   60.14494981
_cell_angle_gamma   60.12838282
_symmetry_Int_Tables_number   1
_chemical_formula_structural   LaNd3Y4(CdPt)2
_chemical_formula_sum   'La2 Nd6 Y8 Cd4 Pt4'
_cell_volume   684.41605373
_cell_formula_units_Z   2
loop_
 _symmetry_equiv_pos_site_id
 _symmetry_equiv_pos_as_xyz
  1  'x, y, z'
loop_
 _atom_site_type_symbol
 _atom_site_label
 _atom_site_symmetry_multiplicity
 _atom_site_fract_x
 _atom_site_fract_y
 _atom_site_fract_z
 _atom_site_occupancy
  La  La0  1  0.350258  0.350258  0.352925  1
  La  La1  1  0.350258  0.350258  0.946559  1
  Nd  Nd2  1  0.937974  0.562791  0.563997  1
  Nd  Nd3  1  0.562791  0.937974  0.935239  1
  Nd  Nd4  1  0.562791  0.937974  0.563997  1
  Nd  Nd5  1  0.937974  0.562791  0.935239  1
  Nd  Nd6  1  0.562769  0.562769  0.937231  1
  Nd  Nd7  1  0.937867  0.937867  0.562133  1
  Y  Y8  1  0.351694  0.943787  0.352259  1
  Y  Y9  1  0.943787  0.351694  0.352259  1
  Y  Y10  1  0.813933  0.187243  0.187154  1
  Y  Y11  1  0.187243  0.813933  0.811670  1
  Y  Y12  1  0.187243  0.813933  0.187154  1
  Y  Y13  1  0.813933  0.187243  0.811670  1
  Y  Y14  1  0.186053  0.186053  0.813947  1
  Y  Y15  1  0.811446  0.811446  0.188554  1
  Cd  Cd16  1  0.582504  0.582504  0.575892  1
  Cd  Cd17  1  0.582504  0.582504  0.259101  1
  Cd  Cd18  1  0.584740  0.258617  0.578322  1
  Cd  Cd19  1  0.258617  0.584740  0.578322  1
  Pt  Pt20  1  0.139922  0.139922  0.147178  1
  Pt  Pt21  1  0.139922  0.139922  0.572979  1
  Pt  Pt22  1  0.137553  0.576228  0.143110  1
  Pt  Pt23  1  0.576228  0.137553  0.143110  1
