# generated using pymatgen
data_Nd4Si10NiPt5
_symmetry_space_group_name_H-M   'P 1'
_cell_length_a   8.22980985
_cell_length_b   8.22981061
_cell_length_c   8.22981089
_cell_angle_alpha   136.63527582
_cell_angle_beta   105.63616564
_cell_angle_gamma   90.19908924
_symmetry_Int_Tables_number   1
_chemical_formula_structural   Nd4Si10NiPt5
_chemical_formula_sum   'Nd4 Si10 Ni1 Pt5'
_cell_volume   351.40973002
_cell_formula_units_Z   1
loop_
 _symmetry_equiv_pos_site_id
 _symmetry_equiv_pos_as_xyz
  1  'x, y, z'
loop_
 _atom_site_type_symbol
 _atom_site_label
 _atom_site_symmetry_multiplicity
 _atom_site_fract_x
 _atom_site_fract_y
 _atom_site_fract_z
 _atom_site_occupancy
  Nd  Nd0  1  0.638265  0.871561  0.767165  1
  Nd  Nd1  1  0.361735  0.128900  0.233296  1
  Nd  Nd2  1  0.104396  0.371100  0.732835  1
  Nd  Nd3  1  0.895604  0.628439  0.266704  1
  Si  Si4  1  0.273487  0.023487  0.750000  1
  Si  Si5  1  0.727289  0.977289  0.250000  1
  Si  Si6  1  0.726513  0.476513  0.750000  1
  Si  Si7  1  0.272711  0.522711  0.250000  1
  Si  Si8  1  0.463122  0.598906  0.844024  1
  Si  Si9  1  0.536878  0.380902  0.135784  1
  Si  Si10  1  0.754882  0.119098  0.655976  1
  Si  Si11  1  0.245118  0.901094  0.364216  1
  Si  Si12  1  0.000000  0.750000  0.750000  1
  Si  Si13  1  0.000000  0.250000  0.250000  1
  Ni  Ni14  1  0.500000  0.250000  0.750000  1
  Pt  Pt15  1  0.247755  0.637028  0.611049  1
  Pt  Pt16  1  0.752245  0.363294  0.389273  1
  Pt  Pt17  1  0.025979  0.136706  0.888951  1
  Pt  Pt18  1  0.974021  0.862972  0.110727  1
  Pt  Pt19  1  0.500000  0.750000  0.250000  1
