# generated using pymatgen
data_SmFe8P5
_symmetry_space_group_name_H-M   'P 1'
_cell_length_a   3.57771100
_cell_length_b   9.08057000
_cell_length_c   10.54790400
_cell_angle_alpha   90.00000000
_cell_angle_beta   90.00000000
_cell_angle_gamma   90.00000000
_symmetry_Int_Tables_number   1
_chemical_formula_structural   SmFe8P5
_chemical_formula_sum   'Sm2 Fe16 P10'
_cell_volume   342.67666797
_cell_formula_units_Z   2
loop_
 _symmetry_equiv_pos_site_id
 _symmetry_equiv_pos_as_xyz
  1  'x, y, z'
loop_
 _atom_site_type_symbol
 _atom_site_label
 _atom_site_symmetry_multiplicity
 _atom_site_fract_x
 _atom_site_fract_y
 _atom_site_fract_z
 _atom_site_occupancy
  Sm  Sm0  1  0.750000  0.816968  0.750000  1
  Sm  Sm1  1  0.250000  0.183032  0.250000  1
  Fe  Fe2  1  0.750000  0.518635  0.920982  1
  Fe  Fe3  1  0.750000  0.518635  0.579018  1
  Fe  Fe4  1  0.250000  0.481365  0.079018  1
  Fe  Fe5  1  0.250000  0.481365  0.420982  1
  Fe  Fe6  1  0.750000  0.109367  0.991290  1
  Fe  Fe7  1  0.750000  0.109367  0.508710  1
  Fe  Fe8  1  0.250000  0.890633  0.008710  1
  Fe  Fe9  1  0.250000  0.890633  0.491290  1
  Fe  Fe10  1  0.750000  0.693145  0.106089  1
  Fe  Fe11  1  0.750000  0.693145  0.393911  1
  Fe  Fe12  1  0.250000  0.306855  0.893911  1
  Fe  Fe13  1  0.250000  0.306855  0.606089  1
  Fe  Fe14  1  0.750000  0.151865  0.750000  1
  Fe  Fe15  1  0.250000  0.848135  0.250000  1
  Fe  Fe16  1  0.250000  0.545841  0.750000  1
  Fe  Fe17  1  0.750000  0.454159  0.250000  1
  P  P18  1  0.750000  0.935296  0.131597  1
  P  P19  1  0.750000  0.935296  0.368403  1
  P  P20  1  0.250000  0.064704  0.868403  1
  P  P21  1  0.250000  0.064704  0.631597  1
  P  P22  1  0.750000  0.336758  0.062150  1
  P  P23  1  0.750000  0.336758  0.437850  1
  P  P24  1  0.250000  0.663242  0.937850  1
  P  P25  1  0.250000  0.663242  0.562150  1
  P  P26  1  0.750000  0.390496  0.750000  1
  P  P27  1  0.250000  0.609504  0.250000  1
