# generated using pymatgen
data_TbAlGa5Cu6
_symmetry_space_group_name_H-M   'P 1'
_cell_length_a   6.60970257
_cell_length_b   6.60970193
_cell_length_c   6.60970186
_cell_angle_alpha   133.93459080
_cell_angle_beta   99.49813142
_cell_angle_gamma   98.11427605
_symmetry_Int_Tables_number   1
_chemical_formula_structural   TbAlGa5Cu6
_chemical_formula_sum   'Tb1 Al1 Ga5 Cu6'
_cell_volume   191.35315468
_cell_formula_units_Z   1
loop_
 _symmetry_equiv_pos_site_id
 _symmetry_equiv_pos_as_xyz
  1  'x, y, z'
loop_
 _atom_site_type_symbol
 _atom_site_label
 _atom_site_symmetry_multiplicity
 _atom_site_fract_x
 _atom_site_fract_y
 _atom_site_fract_z
 _atom_site_occupancy
  Tb  Tb0  1  0.998944  0.998944  0.000000  1
  Al  Al1  1  0.205117  0.705117  0.500000  1
  Ga  Ga2  1  0.347634  0.347634  0.000000  1
  Ga  Ga3  1  0.649318  0.649318  0.000000  1
  Ga  Ga4  1  0.652166  0.998858  0.653308  1
  Ga  Ga5  1  0.345550  0.998858  0.346692  1
  Ga  Ga6  1  0.802598  0.302598  0.500000  1
  Cu  Cu7  1  0.498871  0.999517  0.999948  1
  Cu  Cu8  1  0.498871  0.498923  0.499354  1
  Cu  Cu9  1  0.999569  0.999517  0.500646  1
  Cu  Cu10  1  0.999569  0.498923  0.000052  1
  Cu  Cu11  1  0.227631  0.500896  0.726735  1
  Cu  Cu12  1  0.774161  0.500896  0.273265  1
