# generated using pymatgen
data_EuP2Rh
_symmetry_space_group_name_H-M   'P 1'
_cell_length_a   8.25604543
_cell_length_b   8.25604532
_cell_length_c   4.32717900
_cell_angle_alpha   90.00000000
_cell_angle_beta   90.00000000
_cell_angle_gamma   149.96603803
_symmetry_Int_Tables_number   1
_chemical_formula_structural   EuP2Rh
_chemical_formula_sum   'Eu2 P4 Rh2'
_cell_volume   147.62658714
_cell_formula_units_Z   2
loop_
 _symmetry_equiv_pos_site_id
 _symmetry_equiv_pos_as_xyz
  1  'x, y, z'
loop_
 _atom_site_type_symbol
 _atom_site_label
 _atom_site_symmetry_multiplicity
 _atom_site_fract_x
 _atom_site_fract_y
 _atom_site_fract_z
 _atom_site_occupancy
  Eu  Eu0  1  0.895186  0.104814  0.750000  1
  Eu  Eu1  1  0.104814  0.895186  0.250000  1
  P  P2  1  0.536509  0.463491  0.750000  1
  P  P3  1  0.463491  0.536509  0.250000  1
  P  P4  1  0.251506  0.748494  0.750000  1
  P  P5  1  0.748494  0.251506  0.250000  1
  Rh  Rh6  1  0.685301  0.314699  0.750000  1
  Rh  Rh7  1  0.314699  0.685301  0.250000  1
