# generated using pymatgen
data_LaPr(Si2Pd7)3
_symmetry_space_group_name_H-M   'P 1'
_cell_length_a   8.72551728
_cell_length_b   8.72551645
_cell_length_c   8.72551700
_cell_angle_alpha   60.00000169
_cell_angle_beta   60.00000487
_cell_angle_gamma   59.99999351
_symmetry_Int_Tables_number   1
_chemical_formula_structural   LaPr(Si2Pd7)3
_chemical_formula_sum   'La1 Pr1 Si6 Pd21'
_cell_volume   469.74103030
_cell_formula_units_Z   1
loop_
 _symmetry_equiv_pos_site_id
 _symmetry_equiv_pos_as_xyz
  1  'x, y, z'
loop_
 _atom_site_type_symbol
 _atom_site_label
 _atom_site_symmetry_multiplicity
 _atom_site_fract_x
 _atom_site_fract_y
 _atom_site_fract_z
 _atom_site_occupancy
  La  La0  1  0.250000  0.250000  0.250000  1
  Pr  Pr1  1  0.750000  0.750000  0.750000  1
  Si  Si2  1  0.736127  0.736127  0.263873  1
  Si  Si3  1  0.263873  0.736127  0.263873  1
  Si  Si4  1  0.736127  0.263873  0.263873  1
  Si  Si5  1  0.263873  0.263873  0.736127  1
  Si  Si6  1  0.736127  0.263873  0.736127  1
  Si  Si7  1  0.263873  0.736127  0.736127  1
  Pd  Pd8  1  0.000000  0.000000  0.000000  1
  Pd  Pd9  1  0.614242  0.614242  0.157275  1
  Pd  Pd10  1  0.614242  0.157275  0.614242  1
  Pd  Pd11  1  0.157275  0.614242  0.614242  1
  Pd  Pd12  1  0.614242  0.614242  0.614242  1
  Pd  Pd13  1  0.385724  0.385724  0.842826  1
  Pd  Pd14  1  0.385724  0.842826  0.385724  1
  Pd  Pd15  1  0.842826  0.385724  0.385724  1
  Pd  Pd16  1  0.385724  0.385724  0.385724  1
  Pd  Pd17  1  0.999963  0.999963  0.344095  1
  Pd  Pd18  1  0.655979  0.999963  0.344095  1
  Pd  Pd19  1  0.999963  0.655979  0.344095  1
  Pd  Pd20  1  0.655979  0.344095  0.999963  1
  Pd  Pd21  1  0.999963  0.344095  0.999963  1
  Pd  Pd22  1  0.999963  0.344095  0.655979  1
  Pd  Pd23  1  0.344095  0.655979  0.999963  1
  Pd  Pd24  1  0.344095  0.999963  0.655979  1
  Pd  Pd25  1  0.344095  0.999963  0.999963  1
  Pd  Pd26  1  0.999963  0.999963  0.655979  1
  Pd  Pd27  1  0.999963  0.655979  0.999963  1
  Pd  Pd28  1  0.655979  0.999963  0.999963  1
