# generated using pymatgen
data_Sc2Be4Ir5
_symmetry_space_group_name_H-M   'P 1'
_cell_length_a   3.34184400
_cell_length_b   8.44442708
_cell_length_c   10.06912103
_cell_angle_alpha   90.00373800
_cell_angle_beta   90.00000000
_cell_angle_gamma   90.00000000
_symmetry_Int_Tables_number   1
_chemical_formula_structural   Sc2Be4Ir5
_chemical_formula_sum   'Sc4 Be8 Ir10'
_cell_volume   284.15017161
_cell_formula_units_Z   2
loop_
 _symmetry_equiv_pos_site_id
 _symmetry_equiv_pos_as_xyz
  1  'x, y, z'
loop_
 _atom_site_type_symbol
 _atom_site_label
 _atom_site_symmetry_multiplicity
 _atom_site_fract_x
 _atom_site_fract_y
 _atom_site_fract_z
 _atom_site_occupancy
  Sc  Sc0  1  0.500000  0.842823  0.179991  1
  Sc  Sc1  1  0.500000  0.157177  0.820009  1
  Sc  Sc2  1  0.500000  0.657196  0.680041  1
  Sc  Sc3  1  0.500000  0.342804  0.319959  1
  Be  Be4  1  0.500000  0.962500  0.596522  1
  Be  Be5  1  0.500000  0.037500  0.403478  1
  Be  Be6  1  0.500000  0.845170  0.902481  1
  Be  Be7  1  0.500000  0.154830  0.097519  1
  Be  Be8  1  0.500000  0.654833  0.402498  1
  Be  Be9  1  0.500000  0.345167  0.597502  1
  Be  Be10  1  0.500000  0.462550  0.903468  1
  Be  Be11  1  0.500000  0.537450  0.096532  1
  Ir  Ir12  1  0.000000  0.659070  0.952216  1
  Ir  Ir13  1  0.000000  0.340930  0.047784  1
  Ir  Ir14  1  0.000000  0.840959  0.452190  1
  Ir  Ir15  1  0.000000  0.159041  0.547810  1
  Ir  Ir16  1  0.000000  0.000000  0.000000  1
  Ir  Ir17  1  0.000000  0.403367  0.758949  1
  Ir  Ir18  1  0.000000  0.596633  0.241051  1
  Ir  Ir19  1  0.000000  0.500000  0.500000  1
  Ir  Ir20  1  0.000000  0.903383  0.740995  1
  Ir  Ir21  1  0.000000  0.096617  0.259005  1
