# generated using pymatgen
data_SmAlTeO6
_symmetry_space_group_name_H-M   'P 1'
_cell_length_a   5.09669700
_cell_length_b   8.82695600
_cell_length_c   10.12701700
_cell_angle_alpha   90.00016333
_cell_angle_beta   90.00051829
_cell_angle_gamma   89.99978863
_symmetry_Int_Tables_number   1
_chemical_formula_structural   SmAlTeO6
_chemical_formula_sum   'Sm4 Al4 Te4 O24'
_cell_volume   455.59748325
_cell_formula_units_Z   4
loop_
 _symmetry_equiv_pos_site_id
 _symmetry_equiv_pos_as_xyz
  1  'x, y, z'
loop_
 _atom_site_type_symbol
 _atom_site_label
 _atom_site_symmetry_multiplicity
 _atom_site_fract_x
 _atom_site_fract_y
 _atom_site_fract_z
 _atom_site_occupancy
  Sm  Sm0  1  0.000000  0.000000  0.500000  1
  Sm  Sm1  1  0.500000  0.500000  0.500000  1
  Sm  Sm2  1  0.000000  0.000000  0.000000  1
  Sm  Sm3  1  0.500000  0.500000  0.000000  1
  Al  Al4  1  0.500042  0.833350  0.750011  1
  Al  Al5  1  0.499958  0.166650  0.249989  1
  Al  Al6  1  0.000042  0.333351  0.750011  1
  Al  Al7  1  0.999958  0.666649  0.249989  1
  Te  Te8  1  0.499986  0.166676  0.750031  1
  Te  Te9  1  0.999986  0.666676  0.750031  1
  Te  Te10  1  0.000014  0.333324  0.249969  1
  Te  Te11  1  0.500014  0.833324  0.249969  1
  O  O12  1  0.629488  0.998578  0.643423  1
  O  O13  1  0.129488  0.498578  0.643423  1
  O  O14  1  0.687439  0.315427  0.643427  1
  O  O15  1  0.187439  0.815427  0.643427  1
  O  O16  1  0.183225  0.185992  0.643427  1
  O  O17  1  0.683224  0.685991  0.643427  1
  O  O18  1  0.187358  0.184593  0.143451  1
  O  O19  1  0.687358  0.684593  0.143451  1
  O  O20  1  0.129415  0.501418  0.143438  1
  O  O21  1  0.629415  0.001418  0.143438  1
  O  O22  1  0.683159  0.314009  0.143439  1
  O  O23  1  0.183159  0.814009  0.143439  1
  O  O24  1  0.870512  0.501422  0.356577  1
  O  O25  1  0.370512  0.001422  0.356577  1
  O  O26  1  0.812561  0.184573  0.356573  1
  O  O27  1  0.312561  0.684573  0.356573  1
  O  O28  1  0.316776  0.314009  0.356573  1
  O  O29  1  0.816775  0.814008  0.356573  1
  O  O30  1  0.312642  0.315407  0.856549  1
  O  O31  1  0.812642  0.815407  0.856549  1
  O  O32  1  0.370585  0.998582  0.856562  1
  O  O33  1  0.870585  0.498582  0.856562  1
  O  O34  1  0.816841  0.185991  0.856561  1
  O  O35  1  0.316841  0.685991  0.856561  1
