# generated using pymatgen
data_Er5P12IrRu7Rh11
_symmetry_space_group_name_H-M   'P 1'
_cell_length_a   12.61544011
_cell_length_b   12.58572716
_cell_length_c   3.94704600
_cell_angle_alpha   90.00000000
_cell_angle_beta   90.00000000
_cell_angle_gamma   119.80002295
_symmetry_Int_Tables_number   1
_chemical_formula_structural   Er5P12IrRu7Rh11
_chemical_formula_sum   'Er5 P12 Ir1 Ru7 Rh11'
_cell_volume   543.81998468
_cell_formula_units_Z   1
loop_
 _symmetry_equiv_pos_site_id
 _symmetry_equiv_pos_as_xyz
  1  'x, y, z'
loop_
 _atom_site_type_symbol
 _atom_site_label
 _atom_site_symmetry_multiplicity
 _atom_site_fract_x
 _atom_site_fract_y
 _atom_site_fract_z
 _atom_site_occupancy
  Er  Er0  1  0.666117  0.333197  0.000000  1
  Er  Er1  1  0.333104  0.668236  0.000000  1
  Er  Er2  1  0.815510  0.813616  0.500000  1
  Er  Er3  1  0.185951  0.998609  0.500000  1
  Er  Er4  1  0.000596  0.185576  0.500000  1
  P  P5  1  0.695081  0.173401  0.500000  1
  P  P6  1  0.826271  0.521120  0.500000  1
  P  P7  1  0.478681  0.305359  0.500000  1
  P  P8  1  0.169994  0.691752  0.500000  1
  P  P9  1  0.520767  0.834266  0.500000  1
  P  P10  1  0.312388  0.480905  0.500000  1
  P  P11  1  0.637513  0.634350  0.000000  1
  P  P12  1  0.361966  0.000152  0.000000  1
  P  P13  1  0.996335  0.361864  0.000000  1
  P  P14  1  0.184656  0.180349  0.000000  1
  P  P15  1  0.819458  0.002917  0.000000  1
  P  P16  1  0.999421  0.815173  0.000000  1
  Ir  Ir17  1  0.000310  0.999726  0.000000  1
  Ru  Ru18  1  0.803105  0.182622  0.000000  1
  Ru  Ru19  1  0.815953  0.619343  0.000000  1
  Ru  Ru20  1  0.380334  0.196988  0.000000  1
  Ru  Ru21  1  0.182702  0.804868  0.000000  1
  Ru  Ru22  1  0.284187  0.284808  0.500000  1
  Ru  Ru23  1  0.716473  0.999645  0.500000  1
  Ru  Ru24  1  0.998951  0.713945  0.500000  1
  Rh  Rh25  1  0.625895  0.816777  0.000000  1
  Rh  Rh26  1  0.190850  0.374766  0.000000  1
  Rh  Rh27  1  0.446898  0.456248  0.000000  1
  Rh  Rh28  1  0.543844  0.992523  0.000000  1
  Rh  Rh29  1  0.003854  0.550091  0.000000  1
  Rh  Rh30  1  0.872780  0.366304  0.500000  1
  Rh  Rh31  1  0.632538  0.506447  0.500000  1
  Rh  Rh32  1  0.495165  0.127654  0.500000  1
  Rh  Rh33  1  0.361101  0.870341  0.500000  1
  Rh  Rh34  1  0.507746  0.642538  0.500000  1
  Rh  Rh35  1  0.133504  0.493523  0.500000  1
