# generated using pymatgen
data_Ce3Mg4ScRh8
_symmetry_space_group_name_H-M   'P 1'
_cell_length_a   6.28985200
_cell_length_b   6.28883000
_cell_length_c   7.09492400
_cell_angle_alpha   90.00000000
_cell_angle_beta   90.00082468
_cell_angle_gamma   90.00000000
_symmetry_Int_Tables_number   1
_chemical_formula_structural   Ce3Mg4ScRh8
_chemical_formula_sum   'Ce3 Mg4 Sc1 Rh8'
_cell_volume   280.64546536
_cell_formula_units_Z   1
loop_
 _symmetry_equiv_pos_site_id
 _symmetry_equiv_pos_as_xyz
  1  'x, y, z'
loop_
 _atom_site_type_symbol
 _atom_site_label
 _atom_site_symmetry_multiplicity
 _atom_site_fract_x
 _atom_site_fract_y
 _atom_site_fract_z
 _atom_site_occupancy
  Ce  Ce0  1  0.250021  0.250000  0.999980  1
  Ce  Ce1  1  0.749960  0.750001  0.999986  1
  Ce  Ce2  1  0.249978  0.250000  0.499998  1
  Mg  Mg3  1  0.750021  0.250000  0.000000  1
  Mg  Mg4  1  0.249969  0.750001  0.000005  1
  Mg  Mg5  1  0.749980  0.250000  0.499979  1
  Mg  Mg6  1  0.250010  0.750001  0.499996  1
  Sc  Sc7  1  0.750029  0.750001  0.500015  1
  Rh  Rh8  1  0.998609  0.998589  0.253250  1
  Rh  Rh9  1  0.998609  0.501412  0.253250  1
  Rh  Rh10  1  0.501404  0.998585  0.253254  1
  Rh  Rh11  1  0.501404  0.501416  0.253254  1
  Rh  Rh12  1  0.501388  0.998598  0.746749  1
  Rh  Rh13  1  0.501388  0.501401  0.746749  1
  Rh  Rh14  1  0.998616  0.998607  0.746768  1
  Rh  Rh15  1  0.998616  0.501392  0.746768  1
