# generated using pymatgen
data_MgNi2(MoO4)3
_symmetry_space_group_name_H-M   'P 1'
_cell_length_a   6.99142335
_cell_length_b   8.42388459
_cell_length_c   9.75688187
_cell_angle_alpha   96.21654297
_cell_angle_beta   107.12304946
_cell_angle_gamma   101.63734585
_symmetry_Int_Tables_number   1
_chemical_formula_structural   MgNi2(MoO4)3
_chemical_formula_sum   'Mg2 Ni4 Mo6 O24'
_cell_volume   529.17128529
_cell_formula_units_Z   2
loop_
 _symmetry_equiv_pos_site_id
 _symmetry_equiv_pos_as_xyz
  1  'x, y, z'
loop_
 _atom_site_type_symbol
 _atom_site_label
 _atom_site_symmetry_multiplicity
 _atom_site_fract_x
 _atom_site_fract_y
 _atom_site_fract_z
 _atom_site_occupancy
  Mg  Mg0  1  0.964881  0.886082  0.712711  1
  Mg  Mg1  1  0.035119  0.113918  0.287289  1
  Ni  Ni2  1  0.253405  0.699829  0.908491  1
  Ni  Ni3  1  0.746595  0.300171  0.091509  1
  Ni  Ni4  1  0.537971  0.691058  0.493126  1
  Ni  Ni5  1  0.462029  0.308942  0.506874  1
  Mo  Mo6  1  0.505147  0.992180  0.755375  1
  Mo  Mo7  1  0.494853  0.007820  0.244625  1
  Mo  Mo8  1  0.699413  0.601532  0.841896  1
  Mo  Mo9  1  0.300587  0.398468  0.158104  1
  Mo  Mo10  1  0.977282  0.698682  0.374994  1
  Mo  Mo11  1  0.022718  0.301318  0.625006  1
  O  O12  1  0.261796  0.868247  0.762056  1
  O  O13  1  0.738204  0.131753  0.237944  1
  O  O14  1  0.556169  0.709088  0.925363  1
  O  O15  1  0.443831  0.290912  0.074637  1
  O  O16  1  0.554519  0.524312  0.648509  1
  O  O17  1  0.445481  0.475688  0.351491  1
  O  O18  1  0.550039  0.860506  0.355917  1
  O  O19  1  0.449961  0.139494  0.644083  1
  O  O20  1  0.660473  0.096693  0.930912  1
  O  O21  1  0.339527  0.903307  0.069088  1
  O  O22  1  0.653148  0.867369  0.681256  1
  O  O23  1  0.346852  0.132631  0.318744  1
  O  O24  1  0.023764  0.127345  0.715734  1
  O  O25  1  0.976236  0.872655  0.284266  1
  O  O26  1  0.047153  0.266903  0.138592  1
  O  O27  1  0.952847  0.733097  0.861408  1
  O  O28  1  0.151491  0.486671  0.753114  1
  O  O29  1  0.848509  0.513329  0.246886  1
  O  O30  1  0.143818  0.274259  0.482282  1
  O  O31  1  0.856182  0.725741  0.517718  1
  O  O32  1  0.255123  0.565010  0.069873  1
  O  O33  1  0.744877  0.434990  0.930127  1
  O  O34  1  0.238341  0.697792  0.463084  1
  O  O35  1  0.761659  0.302208  0.536916  1
