# generated using pymatgen
data_Ta12Al8Co3CuC4
_symmetry_space_group_name_H-M   'P 1'
_cell_length_a   8.22024485
_cell_length_b   8.23215347
_cell_length_c   8.23215400
_cell_angle_alpha   59.99999786
_cell_angle_beta   59.95206385
_cell_angle_gamma   59.95206058
_symmetry_Int_Tables_number   1
_chemical_formula_structural   Ta12Al8Co3CuC4
_chemical_formula_sum   'Ta12 Al8 Co3 Cu1 C4'
_cell_volume   393.62405576
_cell_formula_units_Z   1
loop_
 _symmetry_equiv_pos_site_id
 _symmetry_equiv_pos_as_xyz
  1  'x, y, z'
loop_
 _atom_site_type_symbol
 _atom_site_label
 _atom_site_symmetry_multiplicity
 _atom_site_fract_x
 _atom_site_fract_y
 _atom_site_fract_z
 _atom_site_occupancy
  Ta  Ta0  1  0.313322  0.937471  0.937471  1
  Ta  Ta1  1  0.936702  0.310134  0.310134  1
  Ta  Ta2  1  0.936702  0.310134  0.943031  1
  Ta  Ta3  1  0.936702  0.943031  0.310134  1
  Ta  Ta4  1  0.313322  0.937471  0.311736  1
  Ta  Ta5  1  0.313322  0.311736  0.937471  1
  Ta  Ta6  1  0.063298  0.689866  0.056969  1
  Ta  Ta7  1  0.686678  0.062529  0.688264  1
  Ta  Ta8  1  0.686678  0.062529  0.062529  1
  Ta  Ta9  1  0.063298  0.056969  0.689866  1
  Ta  Ta10  1  0.063298  0.689866  0.689866  1
  Ta  Ta11  1  0.686678  0.688264  0.062529  1
  Al  Al12  1  0.297269  0.290072  0.290072  1
  Al  Al13  1  0.297269  0.290072  0.622589  1
  Al  Al14  1  0.618483  0.293839  0.293839  1
  Al  Al15  1  0.297269  0.622589  0.290072  1
  Al  Al16  1  0.702731  0.709928  0.709928  1
  Al  Al17  1  0.702731  0.709928  0.377411  1
  Al  Al18  1  0.702731  0.377411  0.709928  1
  Al  Al19  1  0.381517  0.706161  0.706161  1
  Co  Co20  1  0.500000  0.500000  0.500000  1
  Co  Co21  1  0.500000  0.500000  0.000000  1
  Co  Co22  1  0.500000  0.000000  0.500000  1
  Cu  Cu23  1  0.000000  0.500000  0.500000  1
  C  C24  1  0.000000  0.000000  0.000000  1
  C  C25  1  0.000000  0.000000  0.500000  1
  C  C26  1  0.500000  0.000000  0.000000  1
  C  C27  1  0.000000  0.500000  0.000000  1
