# generated using pymatgen
data_Y3Th11(TcRu2)2
_symmetry_space_group_name_H-M   'P 1'
_cell_length_a   9.82419493
_cell_length_b   9.93444530
_cell_length_c   6.42325576
_cell_angle_alpha   90.04097105
_cell_angle_beta   89.81772416
_cell_angle_gamma   120.34764206
_symmetry_Int_Tables_number   1
_chemical_formula_structural   Y3Th11(TcRu2)2
_chemical_formula_sum   'Y3 Th11 Tc2 Ru4'
_cell_volume   540.99339422
_cell_formula_units_Z   1
loop_
 _symmetry_equiv_pos_site_id
 _symmetry_equiv_pos_as_xyz
  1  'x, y, z'
loop_
 _atom_site_type_symbol
 _atom_site_label
 _atom_site_symmetry_multiplicity
 _atom_site_fract_x
 _atom_site_fract_y
 _atom_site_fract_z
 _atom_site_occupancy
  Y  Y0  1  0.461917  0.536382  0.293856  1
  Y  Y1  1  0.073029  0.535198  0.298490  1
  Y  Y2  1  0.925189  0.461658  0.799432  1
  Th  Th3  1  0.250367  0.126940  0.509403  1
  Th  Th4  1  0.542965  0.082088  0.798883  1
  Th  Th5  1  0.749147  0.873563  0.013018  1
  Th  Th6  1  0.667043  0.334771  0.275043  1
  Th  Th7  1  0.123602  0.869925  0.007837  1
  Th  Th8  1  0.462025  0.920658  0.299356  1
  Th  Th9  1  0.538634  0.463475  0.797931  1
  Th  Th10  1  0.876404  0.129045  0.511963  1
  Th  Th11  1  0.122601  0.250306  0.012016  1
  Th  Th12  1  0.874369  0.749667  0.510568  1
  Th  Th13  1  0.333447  0.664810  0.770750  1
  Tc  Tc14  1  0.812409  0.636086  0.047703  1
  Tc  Tc15  1  0.812111  0.175852  0.049139  1
  Ru  Ru16  1  0.630175  0.816725  0.548004  1
  Ru  Ru17  1  0.368057  0.186460  0.041498  1
  Ru  Ru18  1  0.185992  0.364306  0.555309  1
  Ru  Ru19  1  0.190520  0.822086  0.543795  1
