# generated using pymatgen
data_Na3Ca2PtO6
_symmetry_space_group_name_H-M   'P 1'
_cell_length_a   10.91178626
_cell_length_b   10.37587395
_cell_length_c   5.80245068
_cell_angle_alpha   79.34657341
_cell_angle_beta   69.14699644
_cell_angle_gamma   31.50643192
_symmetry_Int_Tables_number   1
_chemical_formula_structural   Na3Ca2PtO6
_chemical_formula_sum   'Na6 Ca4 Pt2 O12'
_cell_volume   311.22058967
_cell_formula_units_Z   2
loop_
 _symmetry_equiv_pos_site_id
 _symmetry_equiv_pos_as_xyz
  1  'x, y, z'
loop_
 _atom_site_type_symbol
 _atom_site_label
 _atom_site_symmetry_multiplicity
 _atom_site_fract_x
 _atom_site_fract_y
 _atom_site_fract_z
 _atom_site_occupancy
  Na  Na0  1  0.000000  0.000000  0.000000  1
  Na  Na1  1  0.085842  0.085842  0.414158  1
  Na  Na2  1  0.835842  0.835842  0.164158  1
  Na  Na3  1  0.164158  0.164158  0.835842  1
  Na  Na4  1  0.250000  0.250000  0.250000  1
  Na  Na5  1  0.414158  0.414158  0.085842  1
  Ca  Ca6  1  0.580633  0.580633  0.919367  1
  Ca  Ca7  1  0.919367  0.919367  0.580633  1
  Ca  Ca8  1  0.669367  0.669367  0.330633  1
  Ca  Ca9  1  0.330633  0.330633  0.669367  1
  Pt  Pt10  1  0.750000  0.750000  0.750000  1
  Pt  Pt11  1  0.500000  0.500000  0.500000  1
  O  O12  1  0.284483  0.715517  0.284483  1
  O  O13  1  0.715517  0.284483  0.715517  1
  O  O14  1  0.965517  0.534483  0.965517  1
  O  O15  1  0.534483  0.965517  0.534483  1
  O  O16  1  0.204519  0.646362  0.792633  1
  O  O17  1  0.356486  0.792633  0.646362  1
  O  O18  1  0.792633  0.356486  0.204519  1
  O  O19  1  0.646362  0.204519  0.356486  1
  O  O20  1  0.603638  0.045481  0.893514  1
  O  O21  1  0.893514  0.457367  0.603638  1
  O  O22  1  0.457367  0.893514  0.045481  1
  O  O23  1  0.045481  0.603638  0.457367  1
