# generated using pymatgen
data_Dy2MnGeF14
_symmetry_space_group_name_H-M   'P 1'
_cell_length_a   5.43543200
_cell_length_b   8.70636160
_cell_length_c   11.69649080
_cell_angle_alpha   62.39058275
_cell_angle_beta   90.00000000
_cell_angle_gamma   90.00000000
_symmetry_Int_Tables_number   1
_chemical_formula_structural   Dy2MnGeF14
_chemical_formula_sum   'Dy4 Mn2 Ge2 F28'
_cell_volume   490.48138075
_cell_formula_units_Z   2
loop_
 _symmetry_equiv_pos_site_id
 _symmetry_equiv_pos_as_xyz
  1  'x, y, z'
loop_
 _atom_site_type_symbol
 _atom_site_label
 _atom_site_symmetry_multiplicity
 _atom_site_fract_x
 _atom_site_fract_y
 _atom_site_fract_z
 _atom_site_occupancy
  Dy  Dy0  1  0.760995  0.809739  0.764632  1
  Dy  Dy1  1  0.260995  0.190261  0.735368  1
  Dy  Dy2  1  0.239350  0.189811  0.235223  1
  Dy  Dy3  1  0.739350  0.810189  0.264777  1
  Mn  Mn4  1  0.241734  0.726481  0.043266  1
  Mn  Mn5  1  0.741734  0.273519  0.456734  1
  Ge  Ge6  1  0.757974  0.273191  0.957271  1
  Ge  Ge7  1  0.257974  0.726809  0.542729  1
  F  F8  1  0.430673  0.705190  0.921286  1
  F  F9  1  0.930673  0.294810  0.578714  1
  F  F10  1  0.567844  0.294476  0.077384  1
  F  F11  1  0.067844  0.705524  0.422616  1
  F  F12  1  0.454155  0.279653  0.539949  1
  F  F13  1  0.954155  0.720347  0.960051  1
  F  F14  1  0.543572  0.720023  0.460426  1
  F  F15  1  0.043572  0.279977  0.039574  1
  F  F16  1  0.773929  0.509114  0.863581  1
  F  F17  1  0.273929  0.490886  0.636419  1
  F  F18  1  0.225777  0.488243  0.137736  1
  F  F19  1  0.725777  0.511757  0.362264  1
  F  F20  1  0.757728  0.037895  0.046783  1
  F  F21  1  0.257728  0.962105  0.453217  1
  F  F22  1  0.243136  0.963516  0.953040  1
  F  F23  1  0.743136  0.036484  0.546960  1
  F  F24  1  0.983083  0.727005  0.633344  1
  F  F25  1  0.483083  0.272995  0.866656  1
  F  F26  1  0.020705  0.273345  0.367488  1
  F  F27  1  0.520705  0.726655  0.132512  1
  F  F28  1  0.055124  0.743109  0.169916  1
  F  F29  1  0.555124  0.256891  0.330084  1
  F  F30  1  0.945413  0.257466  0.831530  1
  F  F31  1  0.445413  0.742534  0.668470  1
  F  F32  1  0.407045  0.968527  0.228543  1
  F  F33  1  0.907045  0.031473  0.271457  1
  F  F34  1  0.591764  0.030729  0.771056  1
  F  F35  1  0.091764  0.969271  0.728944  1
