# generated using pymatgen
data_Mg4Co11(Ni3P4)3
_symmetry_space_group_name_H-M   'P 1'
_cell_length_a   3.57932700
_cell_length_b   10.19081027
_cell_length_c   11.78461349
_cell_angle_alpha   89.91294719
_cell_angle_beta   90.00000000
_cell_angle_gamma   90.00000000
_symmetry_Int_Tables_number   1
_chemical_formula_structural   Mg4Co11(Ni3P4)3
_chemical_formula_sum   'Mg4 Co11 Ni9 P12'
_cell_volume   429.85792144
_cell_formula_units_Z   1
loop_
 _symmetry_equiv_pos_site_id
 _symmetry_equiv_pos_as_xyz
  1  'x, y, z'
loop_
 _atom_site_type_symbol
 _atom_site_label
 _atom_site_symmetry_multiplicity
 _atom_site_fract_x
 _atom_site_fract_y
 _atom_site_fract_z
 _atom_site_occupancy
  Mg  Mg0  1  0.250000  0.578931  0.706526  1
  Mg  Mg1  1  0.250000  0.920433  0.208044  1
  Mg  Mg2  1  0.750000  0.421866  0.293999  1
  Mg  Mg3  1  0.750000  0.079229  0.792363  1
  Co  Co4  1  0.250000  0.279582  0.672422  1
  Co  Co5  1  0.750000  0.780399  0.827583  1
  Co  Co6  1  0.750000  0.720416  0.327189  1
  Co  Co7  1  0.250000  0.881490  0.700921  1
  Co  Co8  1  0.250000  0.619927  0.200574  1
  Co  Co9  1  0.750000  0.118909  0.299013  1
  Co  Co10  1  0.750000  0.382042  0.798908  1
  Co  Co11  1  0.250000  0.464493  0.930547  1
  Co  Co12  1  0.250000  0.034261  0.431033  1
  Co  Co13  1  0.750000  0.535709  0.068623  1
  Co  Co14  1  0.750000  0.964626  0.569205  1
  Ni  Ni15  1  0.250000  0.711644  0.989380  1
  Ni  Ni16  1  0.250000  0.787210  0.490819  1
  Ni  Ni17  1  0.750000  0.285188  0.007896  1
  Ni  Ni18  1  0.750000  0.212391  0.509791  1
  Ni  Ni19  1  0.250000  0.408405  0.476882  1
  Ni  Ni20  1  0.250000  0.092099  0.977918  1
  Ni  Ni21  1  0.750000  0.592653  0.523324  1
  Ni  Ni22  1  0.750000  0.906532  0.022613  1
  Ni  Ni23  1  0.250000  0.221757  0.172982  1
  P  P24  1  0.250000  0.423256  0.113768  1
  P  P25  1  0.250000  0.080034  0.614039  1
  P  P26  1  0.750000  0.580363  0.885272  1
  P  P27  1  0.750000  0.919398  0.386291  1
  P  P28  1  0.250000  0.265621  0.860914  1
  P  P29  1  0.250000  0.233720  0.364095  1
  P  P30  1  0.750000  0.734347  0.138862  1
  P  P31  1  0.750000  0.765923  0.639007  1
  P  P32  1  0.250000  0.602422  0.388325  1
  P  P33  1  0.250000  0.898272  0.888005  1
  P  P34  1  0.750000  0.398454  0.611681  1
  P  P35  1  0.750000  0.097996  0.111185  1
