# generated using pymatgen
data_Tb16CdHg3(OsPt)2
_symmetry_space_group_name_H-M   'P 1'
_cell_length_a   9.67173689
_cell_length_b   9.67805922
_cell_length_c   9.74122200
_cell_angle_alpha   59.78387294
_cell_angle_beta   59.76205778
_cell_angle_gamma   59.69630783
_symmetry_Int_Tables_number   1
_chemical_formula_structural   Tb16CdHg3(OsPt)2
_chemical_formula_sum   'Tb16 Cd1 Hg3 Os2 Pt2'
_cell_volume   641.05078264
_cell_formula_units_Z   1
loop_
 _symmetry_equiv_pos_site_id
 _symmetry_equiv_pos_as_xyz
  1  'x, y, z'
loop_
 _atom_site_type_symbol
 _atom_site_label
 _atom_site_symmetry_multiplicity
 _atom_site_fract_x
 _atom_site_fract_y
 _atom_site_fract_z
 _atom_site_occupancy
  Tb  Tb0  1  0.351636  0.350747  0.353456  1
  Tb  Tb1  1  0.351636  0.350747  0.944161  1
  Tb  Tb2  1  0.346635  0.952625  0.350369  1
  Tb  Tb3  1  0.949224  0.347665  0.351555  1
  Tb  Tb4  1  0.813176  0.188774  0.192276  1
  Tb  Tb5  1  0.187399  0.814303  0.806589  1
  Tb  Tb6  1  0.187399  0.814303  0.191709  1
  Tb  Tb7  1  0.813176  0.188774  0.805774  1
  Tb  Tb8  1  0.188325  0.189525  0.811075  1
  Tb  Tb9  1  0.806600  0.806852  0.193274  1
  Tb  Tb10  1  0.937829  0.555776  0.566521  1
  Tb  Tb11  1  0.555271  0.938493  0.939540  1
  Tb  Tb12  1  0.555271  0.938493  0.566696  1
  Tb  Tb13  1  0.937829  0.555776  0.939874  1
  Tb  Tb14  1  0.562028  0.562961  0.937505  1
  Tb  Tb15  1  0.938211  0.939218  0.561286  1
  Cd  Cd16  1  0.258818  0.581101  0.580041  1
  Hg  Hg17  1  0.583626  0.585829  0.585601  1
  Hg  Hg18  1  0.583626  0.585829  0.244942  1
  Hg  Hg19  1  0.584647  0.242421  0.586466  1
  Os  Os20  1  0.144142  0.145310  0.136032  1
  Os  Os21  1  0.144142  0.145310  0.574517  1
  Pt  Pt22  1  0.145696  0.573335  0.140485  1
  Pt  Pt23  1  0.573658  0.145835  0.140254  1
