# generated using pymatgen
data_TbDy11InNi5
_symmetry_space_group_name_H-M   'P 1'
_cell_length_a   8.34225665
_cell_length_b   8.34551061
_cell_length_c   8.34551100
_cell_angle_alpha   107.24817505
_cell_angle_beta   109.61825598
_cell_angle_gamma   111.59301543
_symmetry_Int_Tables_number   1
_chemical_formula_structural   TbDy11InNi5
_chemical_formula_sum   'Tb1 Dy11 In1 Ni5'
_cell_volume   446.53230159
_cell_formula_units_Z   1
loop_
 _symmetry_equiv_pos_site_id
 _symmetry_equiv_pos_as_xyz
  1  'x, y, z'
loop_
 _atom_site_type_symbol
 _atom_site_label
 _atom_site_symmetry_multiplicity
 _atom_site_fract_x
 _atom_site_fract_y
 _atom_site_fract_z
 _atom_site_occupancy
  Tb  Tb0  1  0.478514  0.296660  0.181855  1
  Dy  Dy1  1  0.114580  0.297284  0.817294  1
  Dy  Dy2  1  0.885862  0.703470  0.182393  1
  Dy  Dy3  1  0.521384  0.703455  0.817930  1
  Dy  Dy4  1  0.306030  0.628019  0.322231  1
  Dy  Dy5  1  0.306030  0.983800  0.678011  1
  Dy  Dy6  1  0.693701  0.371073  0.677822  1
  Dy  Dy7  1  0.693701  0.015879  0.322627  1
  Dy  Dy8  1  0.190237  0.210359  0.401163  1
  Dy  Dy9  1  0.810556  0.790659  0.600738  1
  Dy  Dy10  1  0.190237  0.789074  0.979878  1
  Dy  Dy11  1  0.810556  0.209818  0.019898  1
  In  In12  1  0.999742  0.499890  0.499853  1
  Ni  Ni13  1  0.499322  0.625086  0.123547  1
  Ni  Ni14  1  0.499322  0.375776  0.874238  1
  Ni  Ni15  1  0.364241  0.998783  0.365459  1
  Ni  Ni16  1  0.633649  0.999548  0.634101  1
  Ni  Ni17  1  0.002331  0.001369  0.000962  1
