# generated using pymatgen
data_Er4Ir2Pb5
_symmetry_space_group_name_H-M   'P 1'
_cell_length_a   8.18571061
_cell_length_b   3.53537500
_cell_length_c   9.87562587
_cell_angle_alpha   90.00000000
_cell_angle_beta   93.81471829
_cell_angle_gamma   90.00000000
_symmetry_Int_Tables_number   1
_chemical_formula_structural   Er4Ir2Pb5
_chemical_formula_sum   'Er4 Ir2 Pb5'
_cell_volume   285.16302718
_cell_formula_units_Z   1
loop_
 _symmetry_equiv_pos_site_id
 _symmetry_equiv_pos_as_xyz
  1  'x, y, z'
loop_
 _atom_site_type_symbol
 _atom_site_label
 _atom_site_symmetry_multiplicity
 _atom_site_fract_x
 _atom_site_fract_y
 _atom_site_fract_z
 _atom_site_occupancy
  Er  Er0  1  0.804798  0.500001  0.159974  1
  Er  Er1  1  0.197287  0.500001  0.434835  1
  Er  Er2  1  0.802713  0.500001  0.565165  1
  Er  Er3  1  0.195201  0.500001  0.840026  1
  Ir  Ir4  1  0.920800  0.000000  0.362719  1
  Ir  Ir5  1  0.079201  0.000000  0.637282  1
  Pb  Pb6  1  0.500000  0.000000  0.000000  1
  Pb  Pb7  1  0.146153  0.000000  0.137298  1
  Pb  Pb8  1  0.538136  0.000000  0.335195  1
  Pb  Pb9  1  0.461863  0.000000  0.664804  1
  Pb  Pb10  1  0.853846  0.000000  0.862703  1
