# generated using pymatgen
data_Y3Sc(ReOs3)2
_symmetry_space_group_name_H-M   'P 1'
_cell_length_a   5.35914542
_cell_length_b   5.23699515
_cell_length_c   8.83759508
_cell_angle_alpha   89.90588605
_cell_angle_beta   90.09582805
_cell_angle_gamma   119.26259416
_symmetry_Int_Tables_number   1
_chemical_formula_structural   Y3Sc(ReOs3)2
_chemical_formula_sum   'Y3 Sc1 Re2 Os6'
_cell_volume   216.38192703
_cell_formula_units_Z   1
loop_
 _symmetry_equiv_pos_site_id
 _symmetry_equiv_pos_as_xyz
  1  'x, y, z'
loop_
 _atom_site_type_symbol
 _atom_site_label
 _atom_site_symmetry_multiplicity
 _atom_site_fract_x
 _atom_site_fract_y
 _atom_site_fract_z
 _atom_site_occupancy
  Y  Y0  1  0.330523  0.662714  0.432994  1
  Y  Y1  1  0.668797  0.330386  0.937844  1
  Y  Y2  1  0.669596  0.331238  0.564441  1
  Sc  Sc3  1  0.327182  0.661111  0.066127  1
  Re  Re4  1  0.167088  0.834833  0.752129  1
  Re  Re5  1  0.832208  0.670048  0.247091  1
  Os  Os6  1  0.652225  0.829135  0.752611  1
  Os  Os7  1  0.346456  0.177136  0.246257  1
  Os  Os8  1  0.826686  0.179641  0.246723  1
  Os  Os9  1  0.174675  0.353212  0.753154  1
  Os  Os10  1  0.001046  0.985434  0.500340  1
  Os  Os11  1  0.003519  0.985112  0.000290  1
