# generated using pymatgen
data_Pr3Mg2InSn2Pd
_symmetry_space_group_name_H-M   'P 1'
_cell_length_a   7.62724679
_cell_length_b   7.62724603
_cell_length_c   4.67445100
_cell_angle_alpha   90.00000000
_cell_angle_beta   90.00000000
_cell_angle_gamma   119.73899116
_symmetry_Int_Tables_number   1
_chemical_formula_structural   Pr3Mg2InSn2Pd
_chemical_formula_sum   'Pr3 Mg2 In1 Sn2 Pd1'
_cell_volume   236.12014266
_cell_formula_units_Z   1
loop_
 _symmetry_equiv_pos_site_id
 _symmetry_equiv_pos_as_xyz
  1  'x, y, z'
loop_
 _atom_site_type_symbol
 _atom_site_label
 _atom_site_symmetry_multiplicity
 _atom_site_fract_x
 _atom_site_fract_y
 _atom_site_fract_z
 _atom_site_occupancy
  Pr  Pr0  1  0.402600  0.402600  0.500000  1
  Pr  Pr1  1  0.599017  0.000311  0.500000  1
  Pr  Pr2  1  0.000311  0.599017  0.500000  1
  Mg  Mg3  1  0.230067  0.000646  0.000000  1
  Mg  Mg4  1  0.000646  0.230067  0.000000  1
  In  In5  1  0.769963  0.769963  0.000000  1
  Sn  Sn6  1  0.665368  0.330499  0.000000  1
  Sn  Sn7  1  0.330499  0.665368  0.000000  1
  Pd  Pd8  1  0.001528  0.001528  0.500000  1
