# generated using pymatgen
data_Pa8In4PdPt5Rh2
_symmetry_space_group_name_H-M   'P 1'
_cell_length_a   7.80959197
_cell_length_b   7.80611948
_cell_length_c   7.29722610
_cell_angle_alpha   90.03502847
_cell_angle_beta   90.14371083
_cell_angle_gamma   90.17344730
_symmetry_Int_Tables_number   1
_chemical_formula_structural   Pa8In4PdPt5Rh2
_chemical_formula_sum   'Pa8 In4 Pd1 Pt5 Rh2'
_cell_volume   444.85441175
_cell_formula_units_Z   1
loop_
 _symmetry_equiv_pos_site_id
 _symmetry_equiv_pos_as_xyz
  1  'x, y, z'
loop_
 _atom_site_type_symbol
 _atom_site_label
 _atom_site_symmetry_multiplicity
 _atom_site_fract_x
 _atom_site_fract_y
 _atom_site_fract_z
 _atom_site_occupancy
  Pa  Pa0  1  0.164373  0.166877  0.003803  1
  Pa  Pa1  1  0.833039  0.835716  0.998016  1
  Pa  Pa2  1  0.662124  0.338076  0.501145  1
  Pa  Pa3  1  0.339819  0.659920  0.498867  1
  Pa  Pa4  1  0.679239  0.320889  0.999634  1
  Pa  Pa5  1  0.322571  0.677173  0.000930  1
  Pa  Pa6  1  0.816458  0.818268  0.501180  1
  Pa  Pa7  1  0.181925  0.183555  0.497594  1
  In  In8  1  0.498955  0.004516  0.249998  1
  In  In9  1  0.497272  0.995171  0.750155  1
  In  In10  1  0.003483  0.500761  0.250380  1
  In  In11  1  0.996520  0.503382  0.750411  1
  Pd  Pd12  1  0.133070  0.868568  0.729482  1
  Pt  Pt13  1  0.629380  0.628643  0.231953  1
  Pt  Pt14  1  0.873080  0.129314  0.733273  1
  Pt  Pt15  1  0.867920  0.130061  0.267803  1
  Pt  Pt16  1  0.370968  0.370540  0.768388  1
  Pt  Pt17  1  0.130086  0.868121  0.266832  1
  Rh  Rh18  1  0.364293  0.364884  0.234447  1
  Rh  Rh19  1  0.635420  0.635567  0.765706  1
