# generated using pymatgen
data_KCeNdSe6
_symmetry_space_group_name_H-M   'P 1'
_cell_length_a   11.78916457
_cell_length_b   11.78916536
_cell_length_c   11.78916500
_cell_angle_alpha   159.20134837
_cell_angle_beta   152.07463227
_cell_angle_gamma   35.07581301
_symmetry_Int_Tables_number   1
_chemical_formula_structural   KCeNdSe6
_chemical_formula_sum   'K1 Ce1 Nd1 Se6'
_cell_volume   272.19020936
_cell_formula_units_Z   1
loop_
 _symmetry_equiv_pos_site_id
 _symmetry_equiv_pos_as_xyz
  1  'x, y, z'
loop_
 _atom_site_type_symbol
 _atom_site_label
 _atom_site_symmetry_multiplicity
 _atom_site_fract_x
 _atom_site_fract_y
 _atom_site_fract_z
 _atom_site_occupancy
  K  K0  1  0.996722  0.996722  0.000000  1
  Ce  Ce1  1  0.686721  0.186721  0.500000  1
  Nd  Nd2  1  0.316325  0.816325  0.500000  1
  Se  Se3  1  0.183406  0.396752  0.786655  1
  Se  Se4  1  0.220090  0.220090  0.000000  1
  Se  Se5  1  0.397202  0.606909  0.790295  1
  Se  Se6  1  0.610098  0.396752  0.213345  1
  Se  Se7  1  0.816614  0.606909  0.209705  1
  Se  Se8  1  0.772822  0.772822  0.000000  1
