# generated using pymatgen
data_Ba10MoPN10
_symmetry_space_group_name_H-M   'P 1'
_cell_length_a   8.06969847
_cell_length_b   8.06969737
_cell_length_c   9.45603266
_cell_angle_alpha   76.12501861
_cell_angle_beta   76.12502154
_cell_angle_gamma   95.91046171
_symmetry_Int_Tables_number   1
_chemical_formula_structural   Ba10MoPN10
_chemical_formula_sum   'Ba10 Mo1 P1 N10'
_cell_volume   571.89117852
_cell_formula_units_Z   1
loop_
 _symmetry_equiv_pos_site_id
 _symmetry_equiv_pos_as_xyz
  1  'x, y, z'
loop_
 _atom_site_type_symbol
 _atom_site_label
 _atom_site_symmetry_multiplicity
 _atom_site_fract_x
 _atom_site_fract_y
 _atom_site_fract_z
 _atom_site_occupancy
  Ba  Ba0  1  0.404624  0.389711  0.373946  1
  Ba  Ba1  1  0.610289  0.595376  0.626054  1
  Ba  Ba2  1  0.668674  0.668717  0.004553  1
  Ba  Ba3  1  0.331283  0.331326  0.995447  1
  Ba  Ba4  1  0.914094  0.929837  0.201527  1
  Ba  Ba5  1  0.070163  0.085906  0.798473  1
  Ba  Ba6  1  0.568505  0.098687  0.760147  1
  Ba  Ba7  1  0.901313  0.431495  0.239853  1
  Ba  Ba8  1  0.447292  0.915934  0.241454  1
  Ba  Ba9  1  0.084066  0.552708  0.758546  1
  Mo  Mo10  1  0.242096  0.757904  0.000000  1
  P  P11  1  0.757736  0.242264  0.000000  1
  N  N12  1  0.652387  0.653222  0.312700  1
  N  N13  1  0.346778  0.347613  0.687300  1
  N  N14  1  0.720991  0.032915  0.995298  1
  N  N15  1  0.967085  0.279009  0.004702  1
  N  N16  1  0.283376  0.987497  0.012039  1
  N  N17  1  0.012503  0.716624  0.987961  1
  N  N18  1  0.398329  0.732324  0.826995  1
  N  N19  1  0.267676  0.601671  0.173004  1
  N  N20  1  0.621922  0.271183  0.155298  1
  N  N21  1  0.728817  0.378078  0.844701  1
