# generated using pymatgen
data_SmFeP3Rh4
_symmetry_space_group_name_H-M   'P 1'
_cell_length_a   3.87987000
_cell_length_b   10.80095900
_cell_length_c   12.47047100
_cell_angle_alpha   90.00000000
_cell_angle_beta   90.00000000
_cell_angle_gamma   90.00000000
_symmetry_Int_Tables_number   1
_chemical_formula_structural   SmFeP3Rh4
_chemical_formula_sum   'Sm4 Fe4 P12 Rh16'
_cell_volume   522.59150831
_cell_formula_units_Z   4
loop_
 _symmetry_equiv_pos_site_id
 _symmetry_equiv_pos_as_xyz
  1  'x, y, z'
loop_
 _atom_site_type_symbol
 _atom_site_label
 _atom_site_symmetry_multiplicity
 _atom_site_fract_x
 _atom_site_fract_y
 _atom_site_fract_z
 _atom_site_occupancy
  Sm  Sm0  1  0.250000  0.582709  0.709131  1
  Sm  Sm1  1  0.250000  0.917291  0.209131  1
  Sm  Sm2  1  0.750000  0.417291  0.290869  1
  Sm  Sm3  1  0.750000  0.082709  0.790869  1
  Fe  Fe4  1  0.250000  0.461957  0.933706  1
  Fe  Fe5  1  0.250000  0.038043  0.433706  1
  Fe  Fe6  1  0.750000  0.538043  0.066294  1
  Fe  Fe7  1  0.750000  0.961957  0.566294  1
  P  P8  1  0.250000  0.430366  0.105021  1
  P  P9  1  0.250000  0.069634  0.605021  1
  P  P10  1  0.750000  0.569634  0.894979  1
  P  P11  1  0.750000  0.930366  0.394979  1
  P  P12  1  0.250000  0.272386  0.870657  1
  P  P13  1  0.250000  0.227614  0.370657  1
  P  P14  1  0.750000  0.727614  0.129343  1
  P  P15  1  0.750000  0.772386  0.629343  1
  P  P16  1  0.250000  0.602342  0.389666  1
  P  P17  1  0.250000  0.897658  0.889666  1
  P  P18  1  0.750000  0.397658  0.610334  1
  P  P19  1  0.750000  0.102342  0.110334  1
  Rh  Rh20  1  0.250000  0.716197  0.990717  1
  Rh  Rh21  1  0.250000  0.783803  0.490717  1
  Rh  Rh22  1  0.750000  0.283803  0.009283  1
  Rh  Rh23  1  0.750000  0.216197  0.509283  1
  Rh  Rh24  1  0.250000  0.408288  0.481067  1
  Rh  Rh25  1  0.250000  0.091712  0.981067  1
  Rh  Rh26  1  0.750000  0.591712  0.518933  1
  Rh  Rh27  1  0.750000  0.908288  0.018933  1
  Rh  Rh28  1  0.250000  0.229650  0.174824  1
  Rh  Rh29  1  0.250000  0.270350  0.674824  1
  Rh  Rh30  1  0.750000  0.770350  0.825176  1
  Rh  Rh31  1  0.750000  0.729650  0.325176  1
  Rh  Rh32  1  0.250000  0.881289  0.700045  1
  Rh  Rh33  1  0.250000  0.618711  0.200045  1
  Rh  Rh34  1  0.750000  0.118711  0.299955  1
  Rh  Rh35  1  0.750000  0.381289  0.799955  1
