# generated using pymatgen
data_Ta6Al3RhN2
_symmetry_space_group_name_H-M   'P 1'
_cell_length_a   7.02560355
_cell_length_b   7.02007025
_cell_length_c   7.05091700
_cell_angle_alpha   90.00000000
_cell_angle_beta   90.00000000
_cell_angle_gamma   90.43929434
_symmetry_Int_Tables_number   1
_chemical_formula_structural   Ta6Al3RhN2
_chemical_formula_sum   'Ta12 Al6 Rh2 N4'
_cell_volume   347.74263025
_cell_formula_units_Z   2
loop_
 _symmetry_equiv_pos_site_id
 _symmetry_equiv_pos_as_xyz
  1  'x, y, z'
loop_
 _atom_site_type_symbol
 _atom_site_label
 _atom_site_symmetry_multiplicity
 _atom_site_fract_x
 _atom_site_fract_y
 _atom_site_fract_z
 _atom_site_occupancy
  Ta  Ta0  1  0.792563  0.956785  0.374690  1
  Ta  Ta1  1  0.707437  0.043215  0.874690  1
  Ta  Ta2  1  0.206398  0.455137  0.126372  1
  Ta  Ta3  1  0.293602  0.544863  0.626372  1
  Ta  Ta4  1  0.956542  0.380384  0.790565  1
  Ta  Ta5  1  0.043801  0.872578  0.707793  1
  Ta  Ta6  1  0.456199  0.127422  0.207793  1
  Ta  Ta7  1  0.543458  0.619616  0.290565  1
  Ta  Ta8  1  0.378360  0.791303  0.956037  1
  Ta  Ta9  1  0.872928  0.706676  0.044435  1
  Ta  Ta10  1  0.121640  0.208697  0.456037  1
  Ta  Ta11  1  0.627072  0.293324  0.544435  1
  Al  Al12  1  0.822703  0.321277  0.176728  1
  Al  Al13  1  0.677297  0.678723  0.676728  1
  Al  Al14  1  0.561272  0.421585  0.926608  1
  Al  Al15  1  0.419365  0.932759  0.570381  1
  Al  Al16  1  0.938728  0.578415  0.426608  1
  Al  Al17  1  0.080635  0.067241  0.070381  1
  Rh  Rh18  1  0.181156  0.824582  0.318994  1
  Rh  Rh19  1  0.318844  0.175418  0.818994  1
  N  N20  1  0.877381  0.121696  0.627542  1
  N  N21  1  0.622619  0.878304  0.127542  1
  N  N22  1  0.128422  0.626217  0.879854  1
  N  N23  1  0.371578  0.373783  0.379854  1
