# generated using pymatgen
data_Pr4Ho5ScPb8
_symmetry_space_group_name_H-M   'P 1'
_cell_length_a   8.23793100
_cell_length_b   8.37428500
_cell_length_c   15.76348000
_cell_angle_alpha   90.00000000
_cell_angle_beta   90.00000000
_cell_angle_gamma   90.00000000
_symmetry_Int_Tables_number   1
_chemical_formula_structural   Pr4Ho5ScPb8
_chemical_formula_sum   'Pr8 Ho10 Sc2 Pb16'
_cell_volume   1087.47175839
_cell_formula_units_Z   2
loop_
 _symmetry_equiv_pos_site_id
 _symmetry_equiv_pos_as_xyz
  1  'x, y, z'
loop_
 _atom_site_type_symbol
 _atom_site_label
 _atom_site_symmetry_multiplicity
 _atom_site_fract_x
 _atom_site_fract_y
 _atom_site_fract_z
 _atom_site_occupancy
  Pr  Pr0  1  0.477828  0.678011  0.597609  1
  Pr  Pr1  1  0.977828  0.821989  0.902391  1
  Pr  Pr2  1  0.521492  0.322071  0.095717  1
  Pr  Pr3  1  0.021492  0.177929  0.404283  1
  Pr  Pr4  1  0.521492  0.322071  0.404283  1
  Pr  Pr5  1  0.021492  0.177929  0.095717  1
  Pr  Pr6  1  0.477828  0.678011  0.902391  1
  Pr  Pr7  1  0.977828  0.821989  0.597609  1
  Ho  Ho8  1  0.636965  0.157474  0.624291  1
  Ho  Ho9  1  0.136965  0.342526  0.875709  1
  Ho  Ho10  1  0.362754  0.841471  0.121867  1
  Ho  Ho11  1  0.862754  0.658529  0.378133  1
  Ho  Ho12  1  0.362754  0.841471  0.378133  1
  Ho  Ho13  1  0.862754  0.658529  0.121867  1
  Ho  Ho14  1  0.636965  0.157474  0.875709  1
  Ho  Ho15  1  0.136965  0.342526  0.624291  1
  Ho  Ho16  1  0.197326  0.504828  0.250000  1
  Ho  Ho17  1  0.697326  0.995172  0.250000  1
  Sc  Sc18  1  0.803086  0.493756  0.750000  1
  Sc  Sc19  1  0.303086  0.006244  0.750000  1
  Pb  Pb20  1  0.702489  0.958959  0.457453  1
  Pb  Pb21  1  0.202489  0.541041  0.042547  1
  Pb  Pb22  1  0.296955  0.040496  0.953488  1
  Pb  Pb23  1  0.796955  0.459504  0.546512  1
  Pb  Pb24  1  0.296955  0.040496  0.546512  1
  Pb  Pb25  1  0.796955  0.459504  0.953488  1
  Pb  Pb26  1  0.702489  0.958959  0.042547  1
  Pb  Pb27  1  0.202489  0.541041  0.457453  1
  Pb  Pb28  1  0.444011  0.371389  0.750000  1
  Pb  Pb29  1  0.944011  0.128611  0.750000  1
  Pb  Pb30  1  0.559404  0.629042  0.250000  1
  Pb  Pb31  1  0.059404  0.870958  0.250000  1
  Pb  Pb32  1  0.666464  0.846384  0.750000  1
  Pb  Pb33  1  0.166464  0.653616  0.750000  1
  Pb  Pb34  1  0.332744  0.149316  0.250000  1
  Pb  Pb35  1  0.832744  0.350684  0.250000  1
