# generated using pymatgen
data_Nd2Ho4Al24Os7Au
_symmetry_space_group_name_H-M   'P 1'
_cell_length_a   8.87471547
_cell_length_b   8.85227684
_cell_length_c   9.61540396
_cell_angle_alpha   90.07869534
_cell_angle_beta   89.87824656
_cell_angle_gamma   119.75976844
_symmetry_Int_Tables_number   1
_chemical_formula_structural   Nd2Ho4Al24Os7Au
_chemical_formula_sum   'Nd2 Ho4 Al24 Os7 Au1'
_cell_volume   655.77191193
_cell_formula_units_Z   1
loop_
 _symmetry_equiv_pos_site_id
 _symmetry_equiv_pos_as_xyz
  1  'x, y, z'
loop_
 _atom_site_type_symbol
 _atom_site_label
 _atom_site_symmetry_multiplicity
 _atom_site_fract_x
 _atom_site_fract_y
 _atom_site_fract_z
 _atom_site_occupancy
  Nd  Nd0  1  0.187748  0.381251  0.249519  1
  Nd  Nd1  1  0.812252  0.618749  0.750481  1
  Ho  Ho2  1  0.610914  0.809350  0.250938  1
  Ho  Ho3  1  0.389086  0.190650  0.749062  1
  Ho  Ho4  1  0.194593  0.805841  0.253164  1
  Ho  Ho5  1  0.805407  0.194159  0.746836  1
  Al  Al6  1  0.328367  0.671644  0.023695  1
  Al  Al7  1  0.671633  0.328356  0.976305  1
  Al  Al8  1  0.667188  0.333102  0.521167  1
  Al  Al9  1  0.332812  0.666898  0.478833  1
  Al  Al10  1  0.163646  0.327127  0.575470  1
  Al  Al11  1  0.836354  0.672873  0.424530  1
  Al  Al12  1  0.671543  0.836836  0.572672  1
  Al  Al13  1  0.849406  0.677782  0.080663  1
  Al  Al14  1  0.328457  0.163164  0.427328  1
  Al  Al15  1  0.150594  0.322218  0.919337  1
  Al  Al16  1  0.165216  0.837013  0.574456  1
  Al  Al17  1  0.323026  0.150170  0.077921  1
  Al  Al18  1  0.834784  0.162987  0.425544  1
  Al  Al19  1  0.676974  0.849830  0.922079  1
  Al  Al20  1  0.834094  0.163315  0.074083  1
  Al  Al21  1  0.165906  0.836685  0.925917  1
  Al  Al22  1  0.559935  0.122046  0.249403  1
  Al  Al23  1  0.440065  0.877954  0.750597  1
  Al  Al24  1  0.876119  0.439924  0.249435  1
  Al  Al25  1  0.123881  0.560076  0.750565  1
  Al  Al26  1  0.565578  0.436307  0.255830  1
  Al  Al27  1  0.434422  0.563693  0.744170  1
  Al  Al28  1  0.994286  0.994879  0.250309  1
  Al  Al29  1  0.005714  0.005121  0.749691  1
  Os  Os30  1  0.500000  0.000000  0.000000  1
  Os  Os31  1  0.000000  0.500000  0.000000  1
  Os  Os32  1  0.500000  0.000000  0.500000  1
  Os  Os33  1  0.000000  0.500000  0.500000  1
  Os  Os34  1  0.500000  0.500000  0.500000  1
  Os  Os35  1  0.000000  0.000000  0.000000  1
  Os  Os36  1  0.000000  0.000000  0.500000  1
  Au  Au37  1  0.500000  0.500000  0.000000  1
