# generated using pymatgen
data_Tb3Er5Re2(B12Os)2
_symmetry_space_group_name_H-M   'P 1'
_cell_length_a   3.65771600
_cell_length_b   9.14088551
_cell_length_c   11.53411210
_cell_angle_alpha   90.12531857
_cell_angle_beta   90.00000000
_cell_angle_gamma   90.00000000
_symmetry_Int_Tables_number   1
_chemical_formula_structural   Tb3Er5Re2(B12Os)2
_chemical_formula_sum   'Tb3 Er5 Re2 B24 Os2'
_cell_volume   385.63938421
_cell_formula_units_Z   1
loop_
 _symmetry_equiv_pos_site_id
 _symmetry_equiv_pos_as_xyz
  1  'x, y, z'
loop_
 _atom_site_type_symbol
 _atom_site_label
 _atom_site_symmetry_multiplicity
 _atom_site_fract_x
 _atom_site_fract_y
 _atom_site_fract_z
 _atom_site_occupancy
  Tb  Tb0  1  0.000000  0.320759  0.412498  1
  Tb  Tb1  1  0.000000  0.679211  0.587546  1
  Tb  Tb2  1  0.000000  0.824315  0.084864  1
  Er  Er3  1  0.000000  0.175508  0.915303  1
  Er  Er4  1  0.000000  0.943476  0.370695  1
  Er  Er5  1  0.000000  0.056669  0.629386  1
  Er  Er6  1  0.000000  0.442446  0.128539  1
  Er  Er7  1  0.000000  0.557252  0.871275  1
  Re  Re8  1  0.000000  0.138677  0.179518  1
  Re  Re9  1  0.000000  0.861904  0.820274  1
  B  B10  1  0.500000  0.553999  0.432665  1
  B  B11  1  0.500000  0.445917  0.567410  1
  B  B12  1  0.500000  0.053545  0.066708  1
  B  B13  1  0.500000  0.947276  0.932843  1
  B  B14  1  0.500000  0.749196  0.418430  1
  B  B15  1  0.500000  0.250804  0.581699  1
  B  B16  1  0.500000  0.249223  0.080622  1
  B  B17  1  0.500000  0.750811  0.918634  1
  B  B18  1  0.500000  0.790871  0.266130  1
  B  B19  1  0.500000  0.208861  0.734372  1
  B  B20  1  0.500000  0.291807  0.234189  1
  B  B21  1  0.500000  0.708226  0.765679  1
  B  B22  1  0.500000  0.630441  0.186035  1
  B  B23  1  0.500000  0.369037  0.814334  1
  B  B24  1  0.500000  0.130953  0.314770  1
  B  B25  1  0.500000  0.869218  0.685265  1
  B  B26  1  0.500000  0.982878  0.212775  1
  B  B27  1  0.500000  0.017963  0.787449  1
  B  B28  1  0.500000  0.483149  0.287594  1
  B  B29  1  0.500000  0.516688  0.712451  1
  B  B30  1  0.500000  0.602120  0.028472  1
  B  B31  1  0.500000  0.397002  0.971244  1
  B  B32  1  0.500000  0.102434  0.471830  1
  B  B33  1  0.500000  0.897612  0.528228  1
  Os  Os34  1  0.000000  0.637819  0.321359  1
  Os  Os35  1  0.000000  0.361933  0.678914  1
