# generated using pymatgen
data_Lu4B8MoRu9
_symmetry_space_group_name_H-M   'P 1'
_cell_length_a   3.06721800
_cell_length_b   8.71563288
_cell_length_c   10.15100405
_cell_angle_alpha   90.36433388
_cell_angle_beta   90.00000000
_cell_angle_gamma   90.00000000
_symmetry_Int_Tables_number   1
_chemical_formula_structural   Lu4B8MoRu9
_chemical_formula_sum   'Lu4 B8 Mo1 Ru9'
_cell_volume   271.35872722
_cell_formula_units_Z   1
loop_
 _symmetry_equiv_pos_site_id
 _symmetry_equiv_pos_as_xyz
  1  'x, y, z'
loop_
 _atom_site_type_symbol
 _atom_site_label
 _atom_site_symmetry_multiplicity
 _atom_site_fract_x
 _atom_site_fract_y
 _atom_site_fract_z
 _atom_site_occupancy
  Lu  Lu0  1  0.500000  0.841063  0.179539  1
  Lu  Lu1  1  0.500000  0.159625  0.819095  1
  Lu  Lu2  1  0.500000  0.660305  0.683291  1
  Lu  Lu3  1  0.500000  0.341678  0.316576  1
  B  B4  1  0.500000  0.966686  0.588487  1
  B  B5  1  0.500000  0.034194  0.410255  1
  B  B6  1  0.500000  0.850273  0.901133  1
  B  B7  1  0.500000  0.148590  0.098553  1
  B  B8  1  0.500000  0.645679  0.399509  1
  B  B9  1  0.500000  0.351751  0.601107  1
  B  B10  1  0.500000  0.464958  0.914136  1
  B  B11  1  0.500000  0.534341  0.087366  1
  Mo  Mo12  1  0.000000  0.658387  0.954332  1
  Ru  Ru13  1  0.000000  0.336592  0.049025  1
  Ru  Ru14  1  0.000000  0.842583  0.453017  1
  Ru  Ru15  1  0.000000  0.158466  0.544839  1
  Ru  Ru16  1  0.000000  0.001943  0.999684  1
  Ru  Ru17  1  0.000000  0.405699  0.760984  1
  Ru  Ru18  1  0.000000  0.594768  0.240175  1
  Ru  Ru19  1  0.000000  0.499719  0.501027  1
  Ru  Ru20  1  0.000000  0.909113  0.736697  1
  Ru  Ru21  1  0.000000  0.093584  0.261173  1
