# generated using pymatgen
data_SrPrTm2(Ir2O7)2
_symmetry_space_group_name_H-M   'P 1'
_cell_length_a   7.32354091
_cell_length_b   7.34111932
_cell_length_c   7.32354155
_cell_angle_alpha   59.73476266
_cell_angle_beta   59.49688541
_cell_angle_gamma   59.73475567
_symmetry_Int_Tables_number   1
_chemical_formula_structural   SrPrTm2(Ir2O7)2
_chemical_formula_sum   'Sr1 Pr1 Tm2 Ir4 O14'
_cell_volume   276.23036161
_cell_formula_units_Z   1
loop_
 _symmetry_equiv_pos_site_id
 _symmetry_equiv_pos_as_xyz
  1  'x, y, z'
loop_
 _atom_site_type_symbol
 _atom_site_label
 _atom_site_symmetry_multiplicity
 _atom_site_fract_x
 _atom_site_fract_y
 _atom_site_fract_z
 _atom_site_occupancy
  Sr  Sr0  1  0.125000  0.625000  0.125000  1
  Pr  Pr1  1  0.125000  0.125000  0.125000  1
  Tm  Tm2  1  0.125000  0.125000  0.625000  1
  Tm  Tm3  1  0.625000  0.125000  0.125000  1
  Ir  Ir4  1  0.625000  0.625000  0.625000  1
  Ir  Ir5  1  0.125000  0.625000  0.625000  1
  Ir  Ir6  1  0.625000  0.125000  0.625000  1
  Ir  Ir7  1  0.625000  0.625000  0.125000  1
  O  O8  1  0.954543  0.528508  0.560978  1
  O  O9  1  0.293016  0.290713  0.696376  1
  O  O10  1  0.954786  0.541197  0.954786  1
  O  O11  1  0.696376  0.290713  0.293016  1
  O  O12  1  0.560978  0.528508  0.954543  1
  O  O13  1  0.542450  0.958157  0.542450  1
  O  O14  1  0.553624  0.959287  0.956984  1
  O  O15  1  0.264276  0.229482  0.264276  1
  O  O16  1  0.295457  0.721492  0.689022  1
  O  O17  1  0.707550  0.291843  0.707550  1
  O  O18  1  0.985724  0.020518  0.985724  1
  O  O19  1  0.956984  0.959287  0.553624  1
  O  O20  1  0.295214  0.708803  0.295214  1
  O  O21  1  0.689022  0.721492  0.295457  1
