# generated using pymatgen
data_Li3Al2ZnPt6
_symmetry_space_group_name_H-M   'P 1'
_cell_length_a   4.09412900
_cell_length_b   6.57551500
_cell_length_c   12.28071900
_cell_angle_alpha   90.00000000
_cell_angle_beta   90.00215065
_cell_angle_gamma   90.00000000
_symmetry_Int_Tables_number   1
_chemical_formula_structural   Li3Al2ZnPt6
_chemical_formula_sum   'Li6 Al4 Zn2 Pt12'
_cell_volume   330.60931777
_cell_formula_units_Z   2
loop_
 _symmetry_equiv_pos_site_id
 _symmetry_equiv_pos_as_xyz
  1  'x, y, z'
loop_
 _atom_site_type_symbol
 _atom_site_label
 _atom_site_symmetry_multiplicity
 _atom_site_fract_x
 _atom_site_fract_y
 _atom_site_fract_z
 _atom_site_occupancy
  Li  Li0  1  0.000036  0.000000  0.003515  1
  Li  Li1  1  0.499845  0.500001  0.163153  1
  Li  Li2  1  0.999920  0.000000  0.329885  1
  Li  Li3  1  0.500017  0.500001  0.500163  1
  Li  Li4  1  0.000062  0.000000  0.666507  1
  Li  Li5  1  0.500114  0.500001  0.836790  1
  Al  Al6  1  0.999937  0.500001  0.333322  1
  Al  Al7  1  0.500016  0.000000  0.498904  1
  Al  Al8  1  0.000075  0.500001  0.667765  1
  Al  Al9  1  0.500091  0.000000  0.833340  1
  Zn  Zn10  1  0.000031  0.500001  0.998585  1
  Zn  Zn11  1  0.499875  0.000000  0.168086  1
  Pt  Pt12  1  0.500030  0.244767  0.998147  1
  Pt  Pt13  1  0.500030  0.755234  0.998147  1
  Pt  Pt14  1  0.999904  0.255233  0.168521  1
  Pt  Pt15  1  0.999904  0.744768  0.168521  1
  Pt  Pt16  1  0.499918  0.254490  0.335915  1
  Pt  Pt17  1  0.499918  0.745510  0.335915  1
  Pt  Pt18  1  0.000001  0.250007  0.500985  1
  Pt  Pt19  1  0.000001  0.749993  0.500985  1
  Pt  Pt20  1  0.500040  0.249986  0.665681  1
  Pt  Pt21  1  0.500040  0.750014  0.665681  1
  Pt  Pt22  1  0.000096  0.245509  0.830743  1
  Pt  Pt23  1  0.000096  0.754492  0.830743  1
