# generated using pymatgen
data_Dy4AlFe3B16
_symmetry_space_group_name_H-M   'P 1'
_cell_length_a   3.42029400
_cell_length_b   5.91660885
_cell_length_c   11.43993459
_cell_angle_alpha   90.09074080
_cell_angle_beta   90.00000000
_cell_angle_gamma   90.00000000
_symmetry_Int_Tables_number   1
_chemical_formula_structural   Dy4AlFe3B16
_chemical_formula_sum   'Dy4 Al1 Fe3 B16'
_cell_volume   231.50442375
_cell_formula_units_Z   1
loop_
 _symmetry_equiv_pos_site_id
 _symmetry_equiv_pos_as_xyz
  1  'x, y, z'
loop_
 _atom_site_type_symbol
 _atom_site_label
 _atom_site_symmetry_multiplicity
 _atom_site_fract_x
 _atom_site_fract_y
 _atom_site_fract_z
 _atom_site_occupancy
  Dy  Dy0  1  0.000000  0.628159  0.351418  1
  Dy  Dy1  1  0.000000  0.373282  0.649688  1
  Dy  Dy2  1  0.000000  0.125138  0.151697  1
  Dy  Dy3  1  0.000000  0.876060  0.847169  1
  Al  Al4  1  0.000000  0.631498  0.086453  1
  Fe  Fe5  1  0.000000  0.374177  0.913249  1
  Fe  Fe6  1  0.000000  0.133538  0.417047  1
  Fe  Fe7  1  0.000000  0.865127  0.588179  1
  B  B8  1  0.500000  0.787835  0.188179  1
  B  B9  1  0.500000  0.217805  0.816082  1
  B  B10  1  0.500000  0.279611  0.316455  1
  B  B11  1  0.500000  0.718247  0.682806  1
  B  B12  1  0.500000  0.866211  0.029976  1
  B  B13  1  0.500000  0.138027  0.966271  1
  B  B14  1  0.500000  0.360601  0.467978  1
  B  B15  1  0.500000  0.638543  0.531805  1
  B  B16  1  0.500000  0.888665  0.454229  1
  B  B17  1  0.500000  0.111186  0.546308  1
  B  B18  1  0.500000  0.382741  0.043670  1
  B  B19  1  0.500000  0.609498  0.950280  1
  B  B20  1  0.500000  0.977237  0.310278  1
  B  B21  1  0.500000  0.024312  0.689675  1
  B  B22  1  0.500000  0.470889  0.192635  1
  B  B23  1  0.500000  0.521616  0.808474  1
