# generated using pymatgen
data_Ti20(Si3As)3
_symmetry_space_group_name_H-M   'P 1'
_cell_length_a   5.12970000
_cell_length_b   7.47578405
_cell_length_c   13.03053195
_cell_angle_alpha   90.06131690
_cell_angle_beta   90.00000000
_cell_angle_gamma   90.00000000
_symmetry_Int_Tables_number   1
_chemical_formula_structural   Ti20(Si3As)3
_chemical_formula_sum   'Ti20 Si9 As3'
_cell_volume   499.70145192
_cell_formula_units_Z   1
loop_
 _symmetry_equiv_pos_site_id
 _symmetry_equiv_pos_as_xyz
  1  'x, y, z'
loop_
 _atom_site_type_symbol
 _atom_site_label
 _atom_site_symmetry_multiplicity
 _atom_site_fract_x
 _atom_site_fract_y
 _atom_site_fract_z
 _atom_site_occupancy
  Ti  Ti0  1  0.752426  0.999720  0.665962  1
  Ti  Ti1  1  0.751145  0.500082  0.166900  1
  Ti  Ti2  1  0.752391  0.499769  0.833586  1
  Ti  Ti3  1  0.751284  0.000608  0.333306  1
  Ti  Ti4  1  0.247609  0.499769  0.833586  1
  Ti  Ti5  1  0.248716  0.000608  0.333306  1
  Ti  Ti6  1  0.247574  0.999720  0.665962  1
  Ti  Ti7  1  0.248855  0.500082  0.166900  1
  Ti  Ti8  1  0.500000  0.254565  0.499926  1
  Ti  Ti9  1  0.500000  0.752503  0.002192  1
  Ti  Ti10  1  0.500000  0.621912  0.625858  1
  Ti  Ti11  1  0.500000  0.123708  0.128123  1
  Ti  Ti12  1  0.500000  0.127423  0.872172  1
  Ti  Ti13  1  0.500000  0.623834  0.372134  1
  Ti  Ti14  1  0.000000  0.750897  0.499672  1
  Ti  Ti15  1  0.000000  0.248992  0.000019  1
  Ti  Ti16  1  0.000000  0.873271  0.873038  1
  Ti  Ti17  1  0.000000  0.375057  0.373255  1
  Ti  Ti18  1  0.000000  0.373090  0.627079  1
  Ti  Ti19  1  0.000000  0.874106  0.127133  1
  Si  Si20  1  0.500000  0.304041  0.304098  1
  Si  Si21  1  0.500000  0.303136  0.695861  1
  Si  Si22  1  0.500000  0.803704  0.196578  1
  Si  Si23  1  0.000000  0.612552  0.000571  1
  Si  Si24  1  0.000000  0.114077  0.499707  1
  Si  Si25  1  0.000000  0.693199  0.693355  1
  Si  Si26  1  0.000000  0.195578  0.195747  1
  Si  Si27  1  0.000000  0.195211  0.804416  1
  Si  Si28  1  0.000000  0.696005  0.304435  1
  As  As29  1  0.500000  0.388802  0.000523  1
  As  As30  1  0.500000  0.889217  0.499341  1
  As  As31  1  0.500000  0.804750  0.805249  1
