# generated using pymatgen
data_Er8Tm12CoBi8Ir3
_symmetry_space_group_name_H-M   'P 1'
_cell_length_a   7.89540730
_cell_length_b   8.93538400
_cell_length_c   12.37976102
_cell_angle_alpha   90.00000000
_cell_angle_beta   90.19331614
_cell_angle_gamma   90.00000000
_symmetry_Int_Tables_number   1
_chemical_formula_structural   Er8Tm12CoBi8Ir3
_chemical_formula_sum   'Er8 Tm12 Co1 Bi8 Ir3'
_cell_volume   873.36855050
_cell_formula_units_Z   1
loop_
 _symmetry_equiv_pos_site_id
 _symmetry_equiv_pos_as_xyz
  1  'x, y, z'
loop_
 _atom_site_type_symbol
 _atom_site_label
 _atom_site_symmetry_multiplicity
 _atom_site_fract_x
 _atom_site_fract_y
 _atom_site_fract_z
 _atom_site_occupancy
  Er  Er0  1  0.123008  0.750000  0.808284  1
  Er  Er1  1  0.875373  0.250000  0.191240  1
  Er  Er2  1  0.624193  0.250000  0.691368  1
  Er  Er3  1  0.381015  0.750000  0.314684  1
  Er  Er4  1  0.556969  0.750000  0.997580  1
  Er  Er5  1  0.446137  0.250000  0.001215  1
  Er  Er6  1  0.055635  0.250000  0.501411  1
  Er  Er7  1  0.945919  0.750000  0.498495  1
  Tm  Tm8  1  0.657254  0.750000  0.699592  1
  Tm  Tm9  1  0.338892  0.250000  0.293061  1
  Tm  Tm10  1  0.160880  0.250000  0.793264  1
  Tm  Tm11  1  0.839280  0.750000  0.206689  1
  Tm  Tm12  1  0.826444  0.457085  0.933142  1
  Tm  Tm13  1  0.174735  0.542170  0.066772  1
  Tm  Tm14  1  0.326245  0.544048  0.565597  1
  Tm  Tm15  1  0.174735  0.957830  0.066772  1
  Tm  Tm16  1  0.672102  0.464355  0.435752  1
  Tm  Tm17  1  0.826444  0.042915  0.933142  1
  Tm  Tm18  1  0.672102  0.035645  0.435752  1
  Tm  Tm19  1  0.326245  0.955952  0.565597  1
  Co  Co20  1  0.567679  0.750000  0.492477  1
  Bi  Bi21  1  0.932741  0.008871  0.672201  1
  Bi  Bi22  1  0.066136  0.990760  0.327557  1
  Bi  Bi23  1  0.434160  0.990466  0.826457  1
  Bi  Bi24  1  0.066136  0.509240  0.327557  1
  Bi  Bi25  1  0.565551  0.008132  0.173640  1
  Bi  Bi26  1  0.932741  0.491129  0.672201  1
  Bi  Bi27  1  0.565551  0.491868  0.173640  1
  Bi  Bi28  1  0.434160  0.509534  0.826457  1
  Ir  Ir29  1  0.929127  0.750000  0.992123  1
  Ir  Ir30  1  0.072561  0.250000  0.008587  1
  Ir  Ir31  1  0.429847  0.250000  0.507694  1
