# generated using pymatgen
data_CsOsCl6
_symmetry_space_group_name_H-M   'P 1'
_cell_length_a   7.12137675
_cell_length_b   7.12137811
_cell_length_c   12.76155185
_cell_angle_alpha   78.77971136
_cell_angle_beta   78.77971067
_cell_angle_gamma   55.57444059
_symmetry_Int_Tables_number   1
_chemical_formula_structural   CsOsCl6
_chemical_formula_sum   'Cs2 Os2 Cl12'
_cell_volume   520.76914760
_cell_formula_units_Z   2
loop_
 _symmetry_equiv_pos_site_id
 _symmetry_equiv_pos_as_xyz
  1  'x, y, z'
loop_
 _atom_site_type_symbol
 _atom_site_label
 _atom_site_symmetry_multiplicity
 _atom_site_fract_x
 _atom_site_fract_y
 _atom_site_fract_z
 _atom_site_occupancy
  Cs  Cs0  1  0.115324  0.884676  0.250000  1
  Cs  Cs1  1  0.884676  0.115324  0.750000  1
  Os  Os2  1  0.000000  0.500000  0.000000  1
  Os  Os3  1  0.500000  0.000000  0.500000  1
  Cl  Cl4  1  0.191762  0.375735  0.151966  1
  Cl  Cl5  1  0.624265  0.808238  0.348034  1
  Cl  Cl6  1  0.808238  0.624265  0.848034  1
  Cl  Cl7  1  0.375735  0.191762  0.651966  1
  Cl  Cl8  1  0.804882  0.875553  0.038732  1
  Cl  Cl9  1  0.124447  0.195118  0.461268  1
  Cl  Cl10  1  0.195118  0.124447  0.961268  1
  Cl  Cl11  1  0.875553  0.804882  0.538732  1
  Cl  Cl12  1  0.711795  0.461085  0.100267  1
  Cl  Cl13  1  0.538915  0.288205  0.399733  1
  Cl  Cl14  1  0.288205  0.538915  0.899733  1
  Cl  Cl15  1  0.461085  0.711795  0.600267  1
