# generated using pymatgen
data_Na4Ca2(IrO4)3
_symmetry_space_group_name_H-M   'P 1'
_cell_length_a   9.59696500
_cell_length_b   9.59696383
_cell_length_c   3.19791800
_cell_angle_alpha   90.00000000
_cell_angle_beta   90.00000000
_cell_angle_gamma   119.99999370
_symmetry_Int_Tables_number   1
_chemical_formula_structural   Na4Ca2(IrO4)3
_chemical_formula_sum   'Na4 Ca2 Ir3 O12'
_cell_volume   255.07374088
_cell_formula_units_Z   1
loop_
 _symmetry_equiv_pos_site_id
 _symmetry_equiv_pos_as_xyz
  1  'x, y, z'
loop_
 _atom_site_type_symbol
 _atom_site_label
 _atom_site_symmetry_multiplicity
 _atom_site_fract_x
 _atom_site_fract_y
 _atom_site_fract_z
 _atom_site_occupancy
  Na  Na0  1  0.000000  0.000000  0.000000  1
  Na  Na1  1  0.697243  0.000000  0.500000  1
  Na  Na2  1  0.000000  0.697243  0.500000  1
  Na  Na3  1  0.302757  0.302757  0.500000  1
  Ca  Ca4  1  0.333333  0.666667  0.500000  1
  Ca  Ca5  1  0.666667  0.333333  0.500000  1
  Ir  Ir6  1  0.328750  0.000000  0.000000  1
  Ir  Ir7  1  0.000000  0.328750  0.000000  1
  Ir  Ir8  1  0.671250  0.671250  0.000000  1
  O  O9  1  0.194596  0.000000  0.500000  1
  O  O10  1  0.000000  0.194596  0.500000  1
  O  O11  1  0.805404  0.805404  0.500000  1
  O  O12  1  0.457560  0.000000  0.500000  1
  O  O13  1  0.000000  0.457560  0.500000  1
  O  O14  1  0.542440  0.542440  0.500000  1
  O  O15  1  0.229573  0.448141  0.000000  1
  O  O16  1  0.551859  0.781432  0.000000  1
  O  O17  1  0.448141  0.229573  0.000000  1
  O  O18  1  0.218568  0.770427  0.000000  1
  O  O19  1  0.781432  0.551859  0.000000  1
  O  O20  1  0.770427  0.218568  0.000000  1
