# generated using pymatgen
data_Cs2V2ZnO7
_symmetry_space_group_name_H-M   'P 1'
_cell_length_a   6.36569501
_cell_length_b   8.72050601
_cell_length_c   8.72049800
_cell_angle_alpha   90.00113012
_cell_angle_beta   90.00103792
_cell_angle_gamma   90.00113163
_symmetry_Int_Tables_number   1
_chemical_formula_structural   Cs2V2ZnO7
_chemical_formula_sum   'Cs4 V4 Zn2 O14'
_cell_volume   484.09299580
_cell_formula_units_Z   2
loop_
 _symmetry_equiv_pos_site_id
 _symmetry_equiv_pos_as_xyz
  1  'x, y, z'
loop_
 _atom_site_type_symbol
 _atom_site_label
 _atom_site_symmetry_multiplicity
 _atom_site_fract_x
 _atom_site_fract_y
 _atom_site_fract_z
 _atom_site_occupancy
  Cs  Cs0  1  0.508428  0.162489  0.662492  1
  Cs  Cs1  1  0.491460  0.337520  0.162490  1
  Cs  Cs2  1  0.508526  0.837489  0.337491  1
  Cs  Cs3  1  0.491466  0.662486  0.837520  1
  V  V4  1  0.959049  0.641079  0.141082  1
  V  V5  1  0.040990  0.141025  0.358959  1
  V  V6  1  0.959050  0.358932  0.858935  1
  V  V7  1  0.040983  0.858964  0.641020  1
  Zn  Zn8  1  0.999967  0.499979  0.500034  1
  Zn  Zn9  1  0.999968  0.000028  0.999977  1
  O  O10  1  0.131773  0.999951  0.499943  1
  O  O11  1  0.868276  0.500012  0.000015  1
  O  O12  1  0.777809  0.144914  0.355075  1
  O  O13  1  0.222170  0.355063  0.855064  1
  O  O14  1  0.777824  0.855075  0.644913  1
  O  O15  1  0.222263  0.644906  0.144906  1
  O  O16  1  0.147685  0.317710  0.413753  1
  O  O17  1  0.852246  0.182283  0.913731  1
  O  O18  1  0.147701  0.682247  0.586331  1
  O  O19  1  0.852366  0.817746  0.086284  1
  O  O20  1  0.852367  0.586285  0.317748  1
  O  O21  1  0.147708  0.913755  0.817708  1
  O  O22  1  0.852247  0.413729  0.682285  1
  O  O23  1  0.147677  0.086335  0.182245  1
