# generated using pymatgen
data_La4TaNb3(TeO6)4
_symmetry_space_group_name_H-M   'P 1'
_cell_length_a   6.86422660
_cell_length_b   7.49434076
_cell_length_c   10.89871847
_cell_angle_alpha   99.96766880
_cell_angle_beta   102.90857830
_cell_angle_gamma   89.33026211
_symmetry_Int_Tables_number   1
_chemical_formula_structural   La4TaNb3(TeO6)4
_chemical_formula_sum   'La4 Ta1 Nb3 Te4 O24'
_cell_volume   538.03044351
_cell_formula_units_Z   1
loop_
 _symmetry_equiv_pos_site_id
 _symmetry_equiv_pos_as_xyz
  1  'x, y, z'
loop_
 _atom_site_type_symbol
 _atom_site_label
 _atom_site_symmetry_multiplicity
 _atom_site_fract_x
 _atom_site_fract_y
 _atom_site_fract_z
 _atom_site_occupancy
  La  La0  1  0.327107  0.288227  0.152490  1
  La  La1  1  0.236244  0.139567  0.491700  1
  La  La2  1  0.761592  0.860313  0.506040  1
  La  La3  1  0.674738  0.711801  0.844592  1
  Ta  Ta4  1  0.186820  0.453848  0.800598  1
  Nb  Nb5  1  0.815715  0.545183  0.198649  1
  Nb  Nb6  1  0.824791  0.039737  0.199133  1
  Nb  Nb7  1  0.175593  0.959761  0.800480  1
  Te  Te8  1  0.329491  0.802477  0.201560  1
  Te  Te9  1  0.267058  0.630048  0.497642  1
  Te  Te10  1  0.731525  0.370133  0.503378  1
  Te  Te11  1  0.669876  0.197389  0.797799  1
  O  O12  1  0.759768  0.568729  0.031331  1
  O  O13  1  0.816638  0.942900  0.034533  1
  O  O14  1  0.711299  0.286236  0.181318  1
  O  O15  1  0.503782  0.985363  0.180325  1
  O  O16  1  0.498194  0.600550  0.207915  1
  O  O17  1  0.088801  0.498670  0.225592  1
  O  O18  1  0.105493  0.107669  0.257206  1
  O  O19  1  0.852498  0.815620  0.282204  1
  O  O20  1  0.397367  0.871502  0.385745  1
  O  O21  1  0.462866  0.323309  0.403216  1
  O  O22  1  0.816045  0.545011  0.412860  1
  O  O23  1  0.850230  0.150466  0.429130  1
  O  O24  1  0.149670  0.850463  0.571451  1
  O  O25  1  0.185884  0.455279  0.590286  1
  O  O26  1  0.536087  0.677425  0.596835  1
  O  O27  1  0.599676  0.128486  0.613994  1
  O  O28  1  0.149111  0.186647  0.719576  1
  O  O29  1  0.893994  0.894150  0.741918  1
  O  O30  1  0.912930  0.500807  0.775253  1
  O  O31  1  0.500410  0.400065  0.793501  1
  O  O32  1  0.496070  0.014523  0.819778  1
  O  O33  1  0.287438  0.711838  0.818152  1
  O  O34  1  0.183328  0.054674  0.965071  1
  O  O35  1  0.241862  0.431134  0.968751  1
