# generated using pymatgen
data_Tb2Tm14InAg3Rh4
_symmetry_space_group_name_H-M   'P 1'
_cell_length_a   9.47748273
_cell_length_b   9.45809624
_cell_length_c   9.44278763
_cell_angle_alpha   59.91317239
_cell_angle_beta   59.87838065
_cell_angle_gamma   59.93216472
_symmetry_Int_Tables_number   1
_chemical_formula_structural   Tb2Tm14InAg3Rh4
_chemical_formula_sum   'Tb2 Tm14 In1 Ag3 Rh4'
_cell_volume   597.27381623
_cell_formula_units_Z   1
loop_
 _symmetry_equiv_pos_site_id
 _symmetry_equiv_pos_as_xyz
  1  'x, y, z'
loop_
 _atom_site_type_symbol
 _atom_site_label
 _atom_site_symmetry_multiplicity
 _atom_site_fract_x
 _atom_site_fract_y
 _atom_site_fract_z
 _atom_site_occupancy
  Tb  Tb0  1  0.062351  0.062722  0.437934  1
  Tb  Tb1  1  0.436992  0.062722  0.437934  1
  Tm  Tm2  1  0.061668  0.435915  0.067231  1
  Tm  Tm3  1  0.054085  0.647084  0.649798  1
  Tm  Tm4  1  0.435186  0.435915  0.067231  1
  Tm  Tm5  1  0.647975  0.053841  0.650210  1
  Tm  Tm6  1  0.187670  0.812716  0.187190  1
  Tm  Tm7  1  0.187932  0.189804  0.813068  1
  Tm  Tm8  1  0.812424  0.812716  0.187190  1
  Tm  Tm9  1  0.435960  0.061801  0.066278  1
  Tm  Tm10  1  0.812530  0.188421  0.186518  1
  Tm  Tm11  1  0.062277  0.437884  0.437563  1
  Tm  Tm12  1  0.809197  0.189804  0.813068  1
  Tm  Tm13  1  0.188384  0.809445  0.813787  1
  Tm  Tm14  1  0.649369  0.647545  0.053718  1
  Tm  Tm15  1  0.649035  0.647084  0.649798  1
  In  In16  1  0.420396  0.420165  0.739044  1
  Ag  Ag17  1  0.417544  0.418933  0.414649  1
  Ag  Ag18  1  0.748873  0.418933  0.414649  1
  Ag  Ag19  1  0.418642  0.748058  0.414657  1
  Rh  Rh20  1  0.857381  0.855575  0.429665  1
  Rh  Rh21  1  0.857935  0.856819  0.856531  1
  Rh  Rh22  1  0.428714  0.856819  0.856531  1
  Rh  Rh23  1  0.857481  0.429279  0.855758  1
