# generated using pymatgen
data_Tb3Dy2Tm11(InRh)4
_symmetry_space_group_name_H-M   'P 1'
_cell_length_a   9.58014866
_cell_length_b   9.57972212
_cell_length_c   9.58027305
_cell_angle_alpha   60.03477694
_cell_angle_beta   59.96094787
_cell_angle_gamma   59.96918615
_symmetry_Int_Tables_number   1
_chemical_formula_structural   Tb3Dy2Tm11(InRh)4
_chemical_formula_sum   'Tb3 Dy2 Tm11 In4 Rh4'
_cell_volume   621.54477997
_cell_formula_units_Z   1
loop_
 _symmetry_equiv_pos_site_id
 _symmetry_equiv_pos_as_xyz
  1  'x, y, z'
loop_
 _atom_site_type_symbol
 _atom_site_label
 _atom_site_symmetry_multiplicity
 _atom_site_fract_x
 _atom_site_fract_y
 _atom_site_fract_z
 _atom_site_occupancy
  Tb  Tb0  1  0.062134  0.062531  0.437649  1
  Tb  Tb1  1  0.438107  0.062165  0.437808  1
  Tb  Tb2  1  0.062403  0.437617  0.062549  1
  Dy  Dy3  1  0.048952  0.650375  0.650463  1
  Dy  Dy4  1  0.438336  0.438239  0.061712  1
  Tm  Tm5  1  0.650620  0.048273  0.650444  1
  Tm  Tm6  1  0.188501  0.811628  0.187863  1
  Tm  Tm7  1  0.188407  0.187877  0.811838  1
  Tm  Tm8  1  0.811290  0.811508  0.188590  1
  Tm  Tm9  1  0.440269  0.059992  0.059747  1
  Tm  Tm10  1  0.811382  0.188365  0.188263  1
  Tm  Tm11  1  0.060261  0.439742  0.439520  1
  Tm  Tm12  1  0.811094  0.188670  0.811640  1
  Tm  Tm13  1  0.188195  0.811938  0.812286  1
  Tm  Tm14  1  0.650636  0.650376  0.048267  1
  Tm  Tm15  1  0.650455  0.650595  0.650725  1
  In  In16  1  0.417145  0.417531  0.417295  1
  In  In17  1  0.747891  0.417892  0.417914  1
  In  In18  1  0.418497  0.747930  0.416090  1
  In  In19  1  0.418538  0.416002  0.748273  1
  Rh  Rh20  1  0.857187  0.857628  0.425972  1
  Rh  Rh21  1  0.855545  0.859171  0.859147  1
  Rh  Rh22  1  0.427219  0.857909  0.858258  1
  Rh  Rh23  1  0.856938  0.426046  0.857684  1
