# generated using pymatgen
data_Ca2HoUO6
_symmetry_space_group_name_H-M   'P 1'
_cell_length_a   6.78595511
_cell_length_b   6.77193366
_cell_length_c   6.75766726
_cell_angle_alpha   91.52663419
_cell_angle_beta   91.29476686
_cell_angle_gamma   91.26239333
_symmetry_Int_Tables_number   1
_chemical_formula_structural   Ca2HoUO6
_chemical_formula_sum   'Ca4 Ho2 U2 O12'
_cell_volume   310.27301165
_cell_formula_units_Z   2
loop_
 _symmetry_equiv_pos_site_id
 _symmetry_equiv_pos_as_xyz
  1  'x, y, z'
loop_
 _atom_site_type_symbol
 _atom_site_label
 _atom_site_symmetry_multiplicity
 _atom_site_fract_x
 _atom_site_fract_y
 _atom_site_fract_z
 _atom_site_occupancy
  Ca  Ca0  1  0.553674  0.249866  0.059372  1
  Ca  Ca1  1  0.251686  0.058852  0.556739  1
  Ca  Ca2  1  0.061905  0.555747  0.249973  1
  Ca  Ca3  1  0.446339  0.749793  0.940803  1
  Ho  Ho4  1  0.937171  0.442161  0.748217  1
  Ho  Ho5  1  0.749137  0.938132  0.441701  1
  U  U6  1  0.998596  0.997915  0.998802  1
  U  U7  1  0.498065  0.498590  0.500047  1
  O  O8  1  0.292669  0.062216  0.922734  1
  O  O9  1  0.056444  0.921928  0.303492  1
  O  O10  1  0.924457  0.302529  0.053539  1
  O  O11  1  0.703083  0.934046  0.094261  1
  O  O12  1  0.921534  0.087657  0.691062  1
  O  O13  1  0.071328  0.692773  0.923485  1
  O  O14  1  0.192934  0.409423  0.547496  1
  O  O15  1  0.411318  0.539997  0.203147  1
  O  O16  1  0.474082  0.805919  0.586957  1
  O  O17  1  0.602078  0.458586  0.796763  1
  O  O18  1  0.806368  0.598927  0.470855  1
  O  O19  1  0.547131  0.194944  0.410555  1
