# generated using pymatgen
data_TmTiCo4As3
_symmetry_space_group_name_H-M   'P 1'
_cell_length_a   3.77079600
_cell_length_b   10.79440500
_cell_length_c   12.35908600
_cell_angle_alpha   90.00000000
_cell_angle_beta   90.00000000
_cell_angle_gamma   90.00000000
_symmetry_Int_Tables_number   1
_chemical_formula_structural   TmTiCo4As3
_chemical_formula_sum   'Tm4 Ti4 Co16 As12'
_cell_volume   503.05804707
_cell_formula_units_Z   4
loop_
 _symmetry_equiv_pos_site_id
 _symmetry_equiv_pos_as_xyz
  1  'x, y, z'
loop_
 _atom_site_type_symbol
 _atom_site_label
 _atom_site_symmetry_multiplicity
 _atom_site_fract_x
 _atom_site_fract_y
 _atom_site_fract_z
 _atom_site_occupancy
  Tm  Tm0  1  0.250000  0.579451  0.706207  1
  Tm  Tm1  1  0.250000  0.920549  0.206207  1
  Tm  Tm2  1  0.750000  0.420549  0.293793  1
  Tm  Tm3  1  0.750000  0.079451  0.793793  1
  Ti  Ti4  1  0.250000  0.699914  0.990934  1
  Ti  Ti5  1  0.250000  0.800086  0.490934  1
  Ti  Ti6  1  0.750000  0.300086  0.009066  1
  Ti  Ti7  1  0.750000  0.199914  0.509066  1
  Co  Co8  1  0.250000  0.405427  0.488797  1
  Co  Co9  1  0.250000  0.094573  0.988797  1
  Co  Co10  1  0.750000  0.594573  0.511203  1
  Co  Co11  1  0.750000  0.905427  0.011203  1
  Co  Co12  1  0.250000  0.217241  0.175968  1
  Co  Co13  1  0.250000  0.282759  0.675968  1
  Co  Co14  1  0.750000  0.782759  0.824032  1
  Co  Co15  1  0.750000  0.717241  0.324032  1
  Co  Co16  1  0.250000  0.884397  0.698447  1
  Co  Co17  1  0.250000  0.615603  0.198447  1
  Co  Co18  1  0.750000  0.115603  0.301553  1
  Co  Co19  1  0.750000  0.384397  0.801553  1
  Co  Co20  1  0.250000  0.464337  0.933814  1
  Co  Co21  1  0.250000  0.035663  0.433814  1
  Co  Co22  1  0.750000  0.535663  0.066186  1
  Co  Co23  1  0.750000  0.964337  0.566186  1
  As  As24  1  0.250000  0.419279  0.118390  1
  As  As25  1  0.250000  0.080721  0.618390  1
  As  As26  1  0.750000  0.580721  0.881610  1
  As  As27  1  0.750000  0.919279  0.381610  1
  As  As28  1  0.250000  0.264533  0.863288  1
  As  As29  1  0.250000  0.235467  0.363288  1
  As  As30  1  0.750000  0.735467  0.136712  1
  As  As31  1  0.750000  0.764533  0.636712  1
  As  As32  1  0.250000  0.592469  0.389292  1
  As  As33  1  0.250000  0.907531  0.889292  1
  As  As34  1  0.750000  0.407531  0.610708  1
  As  As35  1  0.750000  0.092469  0.110708  1
