# generated using pymatgen
data_Er3Bi3SbWO14
_symmetry_space_group_name_H-M   'P 1'
_cell_length_a   6.46680413
_cell_length_b   6.66246678
_cell_length_c   7.61090001
_cell_angle_alpha   106.76195989
_cell_angle_beta   89.91113528
_cell_angle_gamma   98.37723382
_symmetry_Int_Tables_number   1
_chemical_formula_structural   Er3Bi3SbWO14
_chemical_formula_sum   'Er3 Bi3 Sb1 W1 O14'
_cell_volume   310.34828409
_cell_formula_units_Z   1
loop_
 _symmetry_equiv_pos_site_id
 _symmetry_equiv_pos_as_xyz
  1  'x, y, z'
loop_
 _atom_site_type_symbol
 _atom_site_label
 _atom_site_symmetry_multiplicity
 _atom_site_fract_x
 _atom_site_fract_y
 _atom_site_fract_z
 _atom_site_occupancy
  Er  Er0  1  0.543472  0.992342  0.749541  1
  Er  Er1  1  0.459240  0.005141  0.253124  1
  Er  Er2  1  0.256685  0.535666  0.884139  1
  Bi  Bi3  1  0.744355  0.473890  0.113124  1
  Bi  Bi4  1  0.724275  0.458815  0.614783  1
  Bi  Bi5  1  0.264117  0.539524  0.384380  1
  Sb  Sb6  1  0.005016  0.000926  0.999626  1
  W  W7  1  0.003339  0.007410  0.502745  1
  O  O8  1  0.441704  0.652955  0.163714  1
  O  O9  1  0.539754  0.342931  0.827042  1
  O  O10  1  0.295194  0.930464  0.949974  1
  O  O11  1  0.709316  0.045471  0.049972  1
  O  O12  1  0.294870  0.920800  0.510419  1
  O  O13  1  0.706691  0.082879  0.491848  1
  O  O14  1  0.528782  0.355949  0.345691  1
  O  O15  1  0.455523  0.642370  0.663227  1
  O  O16  1  0.939974  0.678794  0.954528  1
  O  O17  1  0.084242  0.314482  0.034152  1
  O  O18  1  0.094427  0.306875  0.624740  1
  O  O19  1  0.904051  0.706490  0.381997  1
  O  O20  1  0.896343  0.946593  0.737904  1
  O  O21  1  0.108630  0.059235  0.263328  1
