# generated using pymatgen
data_Ho7Th3Co4
_symmetry_space_group_name_H-M   'P 1'
_cell_length_a   8.73638283
_cell_length_b   8.71303496
_cell_length_c   6.88742121
_cell_angle_alpha   85.01768125
_cell_angle_beta   84.28337317
_cell_angle_gamma   41.94650689
_symmetry_Int_Tables_number   1
_chemical_formula_structural   Ho7Th3Co4
_chemical_formula_sum   'Ho7 Th3 Co4'
_cell_volume   348.63635878
_cell_formula_units_Z   1
loop_
 _symmetry_equiv_pos_site_id
 _symmetry_equiv_pos_as_xyz
  1  'x, y, z'
loop_
 _atom_site_type_symbol
 _atom_site_label
 _atom_site_symmetry_multiplicity
 _atom_site_fract_x
 _atom_site_fract_y
 _atom_site_fract_z
 _atom_site_occupancy
  Ho  Ho0  1  0.796960  0.012729  0.913932  1
  Ho  Ho1  1  0.355903  0.217223  0.318705  1
  Ho  Ho2  1  0.787894  0.642448  0.175761  1
  Ho  Ho3  1  0.641795  0.786091  0.680731  1
  Ho  Ho4  1  0.219072  0.357283  0.819915  1
  Ho  Ho5  1  0.574824  0.424643  0.252302  1
  Ho  Ho6  1  0.423448  0.573145  0.752090  1
  Th  Th7  1  0.000449  0.806696  0.410451  1
  Th  Th8  1  0.198832  0.992787  0.091785  1
  Th  Th9  1  0.996426  0.195628  0.592565  1
  Co  Co10  1  0.172679  0.610031  0.091523  1
  Co  Co11  1  0.386590  0.833659  0.414104  1
  Co  Co12  1  0.836288  0.382846  0.913091  1
  Co  Co13  1  0.608839  0.164792  0.573044  1
