# generated using pymatgen
data_SmTm2V(Co4P3)2
_symmetry_space_group_name_H-M   'P 1'
_cell_length_a   3.68340800
_cell_length_b   10.53531400
_cell_length_c   12.23095500
_cell_angle_alpha   90.00000000
_cell_angle_beta   90.00000000
_cell_angle_gamma   90.00000000
_symmetry_Int_Tables_number   1
_chemical_formula_structural   SmTm2V(Co4P3)2
_chemical_formula_sum   'Sm2 Tm4 V2 Co16 P12'
_cell_volume   474.63272581
_cell_formula_units_Z   2
loop_
 _symmetry_equiv_pos_site_id
 _symmetry_equiv_pos_as_xyz
  1  'x, y, z'
loop_
 _atom_site_type_symbol
 _atom_site_label
 _atom_site_symmetry_multiplicity
 _atom_site_fract_x
 _atom_site_fract_y
 _atom_site_fract_z
 _atom_site_occupancy
  Sm  Sm0  1  0.000000  0.500000  0.523877  1
  Sm  Sm1  1  0.500000  0.000000  0.476123  1
  Tm  Tm2  1  0.500000  0.818895  0.203386  1
  Tm  Tm3  1  0.500000  0.181105  0.203386  1
  Tm  Tm4  1  0.000000  0.681105  0.796614  1
  Tm  Tm5  1  0.000000  0.318895  0.796614  1
  V  V6  1  0.500000  0.500000  0.152649  1
  V  V7  1  0.000000  0.000000  0.847351  1
  Co  Co8  1  0.500000  0.500000  0.704795  1
  Co  Co9  1  0.000000  0.000000  0.295205  1
  Co  Co10  1  0.000000  0.500000  0.986628  1
  Co  Co11  1  0.500000  0.000000  0.013372  1
  Co  Co12  1  0.500000  0.332301  0.992812  1
  Co  Co13  1  0.500000  0.667699  0.992812  1
  Co  Co14  1  0.000000  0.167699  0.007188  1
  Co  Co15  1  0.000000  0.832301  0.007188  1
  Co  Co16  1  0.500000  0.295377  0.430094  1
  Co  Co17  1  0.500000  0.704623  0.430094  1
  Co  Co18  1  0.000000  0.204623  0.569906  1
  Co  Co19  1  0.000000  0.795377  0.569906  1
  Co  Co20  1  0.500000  0.878350  0.709683  1
  Co  Co21  1  0.500000  0.121650  0.709683  1
  Co  Co22  1  0.000000  0.621650  0.290317  1
  Co  Co23  1  0.000000  0.378350  0.290317  1
  P  P24  1  0.500000  0.500000  0.882346  1
  P  P25  1  0.000000  0.000000  0.117654  1
  P  P26  1  0.500000  0.500000  0.344604  1
  P  P27  1  0.000000  0.000000  0.655396  1
  P  P28  1  0.500000  0.309720  0.617880  1
  P  P29  1  0.500000  0.690280  0.617880  1
  P  P30  1  0.000000  0.190280  0.382120  1
  P  P31  1  0.000000  0.809720  0.382120  1
  P  P32  1  0.500000  0.845225  0.892056  1
  P  P33  1  0.500000  0.154775  0.892056  1
  P  P34  1  0.000000  0.654775  0.107944  1
  P  P35  1  0.000000  0.345225  0.107944  1
