# generated using pymatgen
data_Pa3Fe2Co7P6
_symmetry_space_group_name_H-M   'P 1'
_cell_length_a   3.77087300
_cell_length_b   10.41734500
_cell_length_c   12.22103200
_cell_angle_alpha   90.00000000
_cell_angle_beta   90.00000000
_cell_angle_gamma   90.00000000
_symmetry_Int_Tables_number   1
_chemical_formula_structural   Pa3Fe2Co7P6
_chemical_formula_sum   'Pa6 Fe4 Co14 P12'
_cell_volume   480.07250613
_cell_formula_units_Z   2
loop_
 _symmetry_equiv_pos_site_id
 _symmetry_equiv_pos_as_xyz
  1  'x, y, z'
loop_
 _atom_site_type_symbol
 _atom_site_label
 _atom_site_symmetry_multiplicity
 _atom_site_fract_x
 _atom_site_fract_y
 _atom_site_fract_z
 _atom_site_occupancy
  Pa  Pa0  1  0.000000  0.500000  0.521836  1
  Pa  Pa1  1  0.500000  0.000000  0.478164  1
  Pa  Pa2  1  0.500000  0.818000  0.207507  1
  Pa  Pa3  1  0.500000  0.182000  0.207507  1
  Pa  Pa4  1  0.000000  0.682000  0.792493  1
  Pa  Pa5  1  0.000000  0.318000  0.792493  1
  Fe  Fe6  1  0.500000  0.500000  0.152679  1
  Fe  Fe7  1  0.000000  0.000000  0.847321  1
  Fe  Fe8  1  0.000000  0.500000  0.981466  1
  Fe  Fe9  1  0.500000  0.000000  0.018534  1
  Co  Co10  1  0.500000  0.500000  0.700995  1
  Co  Co11  1  0.000000  0.000000  0.299005  1
  Co  Co12  1  0.500000  0.331726  0.993087  1
  Co  Co13  1  0.500000  0.668274  0.993087  1
  Co  Co14  1  0.000000  0.168274  0.006913  1
  Co  Co15  1  0.000000  0.831726  0.006913  1
  Co  Co16  1  0.500000  0.302861  0.429477  1
  Co  Co17  1  0.500000  0.697139  0.429477  1
  Co  Co18  1  0.000000  0.197139  0.570523  1
  Co  Co19  1  0.000000  0.802861  0.570523  1
  Co  Co20  1  0.500000  0.876946  0.713946  1
  Co  Co21  1  0.500000  0.123054  0.713946  1
  Co  Co22  1  0.000000  0.623054  0.286054  1
  Co  Co23  1  0.000000  0.376946  0.286054  1
  P  P24  1  0.500000  0.500000  0.883026  1
  P  P25  1  0.000000  0.000000  0.116974  1
  P  P26  1  0.500000  0.500000  0.338020  1
  P  P27  1  0.000000  0.000000  0.661980  1
  P  P28  1  0.500000  0.308975  0.613048  1
  P  P29  1  0.500000  0.691025  0.613048  1
  P  P30  1  0.000000  0.191025  0.386952  1
  P  P31  1  0.000000  0.808975  0.386952  1
  P  P32  1  0.500000  0.849631  0.896354  1
  P  P33  1  0.500000  0.150369  0.896354  1
  P  P34  1  0.000000  0.650369  0.103646  1
  P  P35  1  0.000000  0.349631  0.103646  1
