# generated using pymatgen
data_Eu2ErNi7B2
_symmetry_space_group_name_H-M   'P 1'
_cell_length_a   5.08139500
_cell_length_b   5.08139461
_cell_length_c   14.60374100
_cell_angle_alpha   90.00000000
_cell_angle_beta   90.00000000
_cell_angle_gamma   119.99999600
_symmetry_Int_Tables_number   1
_chemical_formula_structural   Eu2ErNi7B2
_chemical_formula_sum   'Eu4 Er2 Ni14 B4'
_cell_volume   326.55824255
_cell_formula_units_Z   2
loop_
 _symmetry_equiv_pos_site_id
 _symmetry_equiv_pos_as_xyz
  1  'x, y, z'
loop_
 _atom_site_type_symbol
 _atom_site_label
 _atom_site_symmetry_multiplicity
 _atom_site_fract_x
 _atom_site_fract_y
 _atom_site_fract_z
 _atom_site_occupancy
  Eu  Eu0  1  0.333333  0.666667  0.467959  1
  Eu  Eu1  1  0.666667  0.333333  0.967959  1
  Eu  Eu2  1  0.666667  0.333333  0.532041  1
  Eu  Eu3  1  0.333333  0.666667  0.032041  1
  Er  Er4  1  0.666667  0.333333  0.750000  1
  Er  Er5  1  0.333333  0.666667  0.250000  1
  Ni  Ni6  1  0.835373  0.164627  0.347239  1
  Ni  Ni7  1  0.835373  0.670745  0.347239  1
  Ni  Ni8  1  0.000000  0.000000  0.000000  1
  Ni  Ni9  1  0.000000  0.000000  0.500000  1
  Ni  Ni10  1  0.835373  0.670745  0.152761  1
  Ni  Ni11  1  0.164627  0.835373  0.652761  1
  Ni  Ni12  1  0.670745  0.835373  0.652761  1
  Ni  Ni13  1  0.329255  0.164627  0.152761  1
  Ni  Ni14  1  0.835373  0.164627  0.152761  1
  Ni  Ni15  1  0.164627  0.329255  0.847239  1
  Ni  Ni16  1  0.164627  0.835373  0.847239  1
  Ni  Ni17  1  0.164627  0.329255  0.652761  1
  Ni  Ni18  1  0.670745  0.835373  0.847239  1
  Ni  Ni19  1  0.329255  0.164627  0.347239  1
  B  B20  1  0.666667  0.333333  0.250000  1
  B  B21  1  0.333333  0.666667  0.750000  1
  B  B22  1  0.000000  0.000000  0.750000  1
  B  B23  1  0.000000  0.000000  0.250000  1
