# generated using pymatgen
data_Nd3Cd3Ag2Hg
_symmetry_space_group_name_H-M   'P 1'
_cell_length_a   8.12003000
_cell_length_b   8.12002928
_cell_length_c   4.02114800
_cell_angle_alpha   90.00000000
_cell_angle_beta   90.00000000
_cell_angle_gamma   119.99999480
_symmetry_Int_Tables_number   1
_chemical_formula_structural   Nd3Cd3Ag2Hg
_chemical_formula_sum   'Nd3 Cd3 Ag2 Hg1'
_cell_volume   229.61271880
_cell_formula_units_Z   1
loop_
 _symmetry_equiv_pos_site_id
 _symmetry_equiv_pos_as_xyz
  1  'x, y, z'
loop_
 _atom_site_type_symbol
 _atom_site_label
 _atom_site_symmetry_multiplicity
 _atom_site_fract_x
 _atom_site_fract_y
 _atom_site_fract_z
 _atom_site_occupancy
  Nd  Nd0  1  0.591312  0.995128  0.000000  1
  Nd  Nd1  1  0.004872  0.596184  0.000000  1
  Nd  Nd2  1  0.403816  0.408688  0.000000  1
  Cd  Cd3  1  0.254149  0.992073  0.500000  1
  Cd  Cd4  1  0.007927  0.262075  0.500000  1
  Cd  Cd5  1  0.737925  0.745851  0.500000  1
  Ag  Ag6  1  0.333333  0.666667  0.500000  1
  Ag  Ag7  1  0.000000  0.000000  0.000000  1
  Hg  Hg8  1  0.666667  0.333333  0.500000  1
