# generated using pymatgen
data_ErTm4Ga2Sb
_symmetry_space_group_name_H-M   'P 1'
_cell_length_a   8.57535807
_cell_length_b   8.59594184
_cell_length_c   6.44834300
_cell_angle_alpha   90.00000000
_cell_angle_beta   90.00000000
_cell_angle_gamma   120.07943879
_symmetry_Int_Tables_number   1
_chemical_formula_structural   ErTm4Ga2Sb
_chemical_formula_sum   'Er2 Tm8 Ga4 Sb2'
_cell_volume   411.31665373
_cell_formula_units_Z   2
loop_
 _symmetry_equiv_pos_site_id
 _symmetry_equiv_pos_as_xyz
  1  'x, y, z'
loop_
 _atom_site_type_symbol
 _atom_site_label
 _atom_site_symmetry_multiplicity
 _atom_site_fract_x
 _atom_site_fract_y
 _atom_site_fract_z
 _atom_site_occupancy
  Er  Er0  1  0.236046  0.249158  0.750000  1
  Er  Er1  1  0.236046  0.986888  0.250000  1
  Tm  Tm2  1  0.986611  0.750489  0.750000  1
  Tm  Tm3  1  0.986611  0.236122  0.250000  1
  Tm  Tm4  1  0.765999  0.766317  0.250000  1
  Tm  Tm5  1  0.765999  0.999682  0.750000  1
  Tm  Tm6  1  0.331946  0.665973  0.500000  1
  Tm  Tm7  1  0.684920  0.342460  0.000000  1
  Tm  Tm8  1  0.684920  0.342460  0.500000  1
  Tm  Tm9  1  0.331946  0.665973  0.000000  1
  Ga  Ga10  1  0.001268  0.601246  0.250000  1
  Ga  Ga11  1  0.001268  0.400021  0.750000  1
  Ga  Ga12  1  0.598205  0.601638  0.750000  1
  Ga  Ga13  1  0.598205  0.996566  0.250000  1
  Sb  Sb14  1  0.395006  0.004105  0.750000  1
  Sb  Sb15  1  0.395006  0.390901  0.250000  1
