# generated using pymatgen
data_Li3Y3Lu2(P3Ir4)4
_symmetry_space_group_name_H-M   'P 1'
_cell_length_a   12.69596900
_cell_length_b   12.69596903
_cell_length_c   3.96777500
_cell_angle_alpha   90.00000000
_cell_angle_beta   90.00000000
_cell_angle_gamma   119.99999732
_symmetry_Int_Tables_number   1
_chemical_formula_structural   Li3Y3Lu2(P3Ir4)4
_chemical_formula_sum   'Li3 Y3 Lu2 P12 Ir16'
_cell_volume   553.87197064
_cell_formula_units_Z   1
loop_
 _symmetry_equiv_pos_site_id
 _symmetry_equiv_pos_as_xyz
  1  'x, y, z'
loop_
 _atom_site_type_symbol
 _atom_site_label
 _atom_site_symmetry_multiplicity
 _atom_site_fract_x
 _atom_site_fract_y
 _atom_site_fract_z
 _atom_site_occupancy
  Li  Li0  1  0.000000  0.441675  0.500000  1
  Li  Li1  1  0.558325  0.558325  0.500000  1
  Li  Li2  1  0.441675  0.000000  0.500000  1
  Y  Y3  1  0.000000  0.809498  0.000000  1
  Y  Y4  1  0.190502  0.190502  0.000000  1
  Y  Y5  1  0.809498  0.000000  0.000000  1
  Lu  Lu6  1  0.333333  0.666667  0.500000  1
  Lu  Lu7  1  0.666667  0.333333  0.500000  1
  P  P8  1  0.000000  0.629646  0.500000  1
  P  P9  1  0.370354  0.370354  0.500000  1
  P  P10  1  0.629646  0.000000  0.500000  1
  P  P11  1  0.515721  0.687684  0.000000  1
  P  P12  1  0.312316  0.828038  0.000000  1
  P  P13  1  0.171962  0.484279  0.000000  1
  P  P14  1  0.484279  0.171962  0.000000  1
  P  P15  1  0.687684  0.515721  0.000000  1
  P  P16  1  0.828038  0.312316  0.000000  1
  P  P17  1  0.000000  0.179921  0.500000  1
  P  P18  1  0.820079  0.820079  0.500000  1
  P  P19  1  0.179921  0.000000  0.500000  1
  Ir  Ir20  1  0.508266  0.867444  0.000000  1
  Ir  Ir21  1  0.132556  0.640823  0.000000  1
  Ir  Ir22  1  0.359177  0.491734  0.000000  1
  Ir  Ir23  1  0.491734  0.359177  0.000000  1
  Ir  Ir24  1  0.867444  0.508266  0.000000  1
  Ir  Ir25  1  0.640823  0.132556  0.000000  1
  Ir  Ir26  1  0.000000  0.280561  0.000000  1
  Ir  Ir27  1  0.719439  0.719439  0.000000  1
  Ir  Ir28  1  0.280561  0.000000  0.000000  1
  Ir  Ir29  1  0.625863  0.806501  0.500000  1
  Ir  Ir30  1  0.193499  0.819362  0.500000  1
  Ir  Ir31  1  0.180638  0.374137  0.500000  1
  Ir  Ir32  1  0.374137  0.180638  0.500000  1
  Ir  Ir33  1  0.806501  0.625863  0.500000  1
  Ir  Ir34  1  0.819362  0.193499  0.500000  1
  Ir  Ir35  1  0.000000  0.000000  0.500000  1
