# generated using pymatgen
data_KMnTe2O7
_symmetry_space_group_name_H-M   'P 1'
_cell_length_a   5.54308000
_cell_length_b   7.26620952
_cell_length_c   8.89914265
_cell_angle_alpha   65.90905612
_cell_angle_beta   89.99995557
_cell_angle_gamma   90.00049909
_symmetry_Int_Tables_number   1
_chemical_formula_structural   KMnTe2O7
_chemical_formula_sum   'K2 Mn2 Te4 O14'
_cell_volume   327.21245257
_cell_formula_units_Z   2
loop_
 _symmetry_equiv_pos_site_id
 _symmetry_equiv_pos_as_xyz
  1  'x, y, z'
loop_
 _atom_site_type_symbol
 _atom_site_label
 _atom_site_symmetry_multiplicity
 _atom_site_fract_x
 _atom_site_fract_y
 _atom_site_fract_z
 _atom_site_occupancy
  K  K0  1  0.749993  0.657655  0.425269  1
  K  K1  1  0.249980  0.082992  0.574701  1
  Mn  Mn2  1  0.749997  0.237647  0.245204  1
  Mn  Mn3  1  0.250010  0.482642  0.754735  1
  Te  Te4  1  0.249998  0.557031  0.142591  1
  Te  Te5  1  0.250000  0.035138  0.146699  1
  Te  Te6  1  0.750003  0.181650  0.853358  1
  Te  Te7  1  0.750004  0.699406  0.857377  1
  O  O8  1  0.000001  0.990960  0.000038  1
  O  O9  1  0.500003  0.990962  0.000038  1
  O  O10  1  0.250000  0.327085  0.023706  1
  O  O11  1  0.249997  0.737867  0.264539  1
  O  O12  1  0.512533  0.419443  0.276903  1
  O  O13  1  0.987458  0.419445  0.276899  1
  O  O14  1  0.998938  0.035964  0.296364  1
  O  O15  1  0.501052  0.035963  0.296367  1
  O  O16  1  0.498953  0.332071  0.703651  1
  O  O17  1  0.001057  0.332075  0.703653  1
  O  O18  1  0.012526  0.696165  0.723074  1
  O  O19  1  0.487499  0.696164  0.723068  1
  O  O20  1  0.750005  0.002179  0.735509  1
  O  O21  1  0.749999  0.350737  0.976256  1
