# generated using pymatgen
data_Na10VGaP6
_symmetry_space_group_name_H-M   'P 1'
_cell_length_a   7.29009300
_cell_length_b   8.06572508
_cell_length_c   15.33312193
_cell_angle_alpha   59.11096798
_cell_angle_beta   90.00000000
_cell_angle_gamma   90.00000000
_symmetry_Int_Tables_number   1
_chemical_formula_structural   Na10VGaP6
_chemical_formula_sum   'Na20 V2 Ga2 P12'
_cell_volume   773.70776915
_cell_formula_units_Z   2
loop_
 _symmetry_equiv_pos_site_id
 _symmetry_equiv_pos_as_xyz
  1  'x, y, z'
loop_
 _atom_site_type_symbol
 _atom_site_label
 _atom_site_symmetry_multiplicity
 _atom_site_fract_x
 _atom_site_fract_y
 _atom_site_fract_z
 _atom_site_occupancy
  Na  Na0  1  0.737979  0.942594  0.245093  1
  Na  Na1  1  0.262021  0.942594  0.745093  1
  Na  Na2  1  0.769413  0.054570  0.758238  1
  Na  Na3  1  0.230587  0.054570  0.258238  1
  Na  Na4  1  0.268493  0.245809  0.419629  1
  Na  Na5  1  0.731507  0.245809  0.919629  1
  Na  Na6  1  0.220552  0.754165  0.579319  1
  Na  Na7  1  0.779448  0.754165  0.079319  1
  Na  Na8  1  0.088915  0.344545  0.582609  1
  Na  Na9  1  0.911085  0.344545  0.082609  1
  Na  Na10  1  0.407836  0.655812  0.418761  1
  Na  Na11  1  0.592164  0.655812  0.918761  1
  Na  Na12  1  0.594591  0.335359  0.242697  1
  Na  Na13  1  0.405409  0.335359  0.742697  1
  Na  Na14  1  0.908219  0.664330  0.759605  1
  Na  Na15  1  0.091781  0.664330  0.259605  1
  Na  Na16  1  0.768930  0.418948  0.409171  1
  Na  Na17  1  0.231070  0.418948  0.909171  1
  Na  Na18  1  0.739211  0.581996  0.589223  1
  Na  Na19  1  0.260789  0.581996  0.089223  1
  V  V20  1  0.617072  0.988907  0.578349  1
  V  V21  1  0.382928  0.988907  0.078349  1
  Ga  Ga22  1  0.889710  0.012544  0.416622  1
  Ga  Ga23  1  0.110290  0.012544  0.916622  1
  P  P24  1  0.981637  0.316690  0.272280  1
  P  P25  1  0.018363  0.316690  0.772280  1
  P  P26  1  0.523840  0.704945  0.719002  1
  P  P27  1  0.476160  0.704945  0.219002  1
  P  P28  1  0.934056  0.019130  0.574178  1
  P  P29  1  0.065944  0.019130  0.074178  1
  P  P30  1  0.546437  0.979221  0.434186  1
  P  P31  1  0.453563  0.979221  0.934186  1
  P  P32  1  0.003520  0.725933  0.421850  1
  P  P33  1  0.996480  0.725933  0.921850  1
  P  P34  1  0.496444  0.254502  0.579189  1
  P  P35  1  0.503556  0.254502  0.079189  1
