# generated using pymatgen
data_LiThFeIr3
_symmetry_space_group_name_H-M   'P 1'
_cell_length_a   5.08717434
_cell_length_b   5.08717419
_cell_length_c   5.08717406
_cell_angle_alpha   64.87976084
_cell_angle_beta   64.87976064
_cell_angle_gamma   64.87975731
_symmetry_Int_Tables_number   1
_chemical_formula_structural   LiThFeIr3
_chemical_formula_sum   'Li1 Th1 Fe1 Ir3'
_cell_volume   103.02285474
_cell_formula_units_Z   1
loop_
 _symmetry_equiv_pos_site_id
 _symmetry_equiv_pos_as_xyz
  1  'x, y, z'
loop_
 _atom_site_type_symbol
 _atom_site_label
 _atom_site_symmetry_multiplicity
 _atom_site_fract_x
 _atom_site_fract_y
 _atom_site_fract_z
 _atom_site_occupancy
  Li  Li0  1  0.259477  0.259477  0.259477  1
  Th  Th1  1  0.003396  0.003396  0.003396  1
  Fe  Fe2  1  0.621946  0.621946  0.621946  1
  Ir  Ir3  1  0.125175  0.620003  0.620003  1
  Ir  Ir4  1  0.620003  0.125175  0.620003  1
  Ir  Ir5  1  0.620003  0.620003  0.125175  1
