# generated using pymatgen
data_TbNd5Al18(Si3Os4)2
_symmetry_space_group_name_H-M   'P 1'
_cell_length_a   8.79357336
_cell_length_b   8.76149536
_cell_length_c   9.65521900
_cell_angle_alpha   90.00000000
_cell_angle_beta   90.00000000
_cell_angle_gamma   120.15414316
_symmetry_Int_Tables_number   1
_chemical_formula_structural   TbNd5Al18(Si3Os4)2
_chemical_formula_sum   'Tb1 Nd5 Al18 Si6 Os8'
_cell_volume   643.22026987
_cell_formula_units_Z   1
loop_
 _symmetry_equiv_pos_site_id
 _symmetry_equiv_pos_as_xyz
  1  'x, y, z'
loop_
 _atom_site_type_symbol
 _atom_site_label
 _atom_site_symmetry_multiplicity
 _atom_site_fract_x
 _atom_site_fract_y
 _atom_site_fract_z
 _atom_site_occupancy
  Tb  Tb0  1  0.802295  0.192371  0.750000  1
  Nd  Nd1  1  0.191247  0.382431  0.250000  1
  Nd  Nd2  1  0.808781  0.617225  0.750000  1
  Nd  Nd3  1  0.614234  0.809524  0.250000  1
  Nd  Nd4  1  0.385952  0.190470  0.750000  1
  Nd  Nd5  1  0.195667  0.809241  0.250000  1
  Al  Al6  1  0.164338  0.330176  0.577630  1
  Al  Al7  1  0.834380  0.668813  0.423523  1
  Al  Al8  1  0.670486  0.835333  0.575827  1
  Al  Al9  1  0.834380  0.668813  0.076477  1
  Al  Al10  1  0.330479  0.165982  0.425403  1
  Al  Al11  1  0.164338  0.330176  0.922370  1
  Al  Al12  1  0.164457  0.834073  0.575337  1
  Al  Al13  1  0.330479  0.165982  0.074597  1
  Al  Al14  1  0.835583  0.165812  0.426660  1
  Al  Al15  1  0.670486  0.835333  0.924173  1
  Al  Al16  1  0.835583  0.165812  0.073340  1
  Al  Al17  1  0.164457  0.834073  0.924663  1
  Al  Al18  1  0.870563  0.431294  0.250000  1
  Al  Al19  1  0.128260  0.566763  0.750000  1
  Al  Al20  1  0.561170  0.431587  0.250000  1
  Al  Al21  1  0.438748  0.568548  0.750000  1
  Al  Al22  1  0.999194  0.998099  0.250000  1
  Al  Al23  1  0.998806  0.003591  0.750000  1
  Si  Si24  1  0.332192  0.663607  0.033951  1
  Si  Si25  1  0.668709  0.335302  0.963946  1
  Si  Si26  1  0.668709  0.335302  0.536054  1
  Si  Si27  1  0.332192  0.663607  0.466049  1
  Si  Si28  1  0.564737  0.128929  0.250000  1
  Si  Si29  1  0.437663  0.872478  0.750000  1
  Os  Os30  1  0.501087  0.000629  0.998847  1
  Os  Os31  1  0.999492  0.499040  0.999120  1
  Os  Os32  1  0.501087  0.000629  0.501153  1
  Os  Os33  1  0.500234  0.499858  0.999696  1
  Os  Os34  1  0.999492  0.499040  0.500880  1
  Os  Os35  1  0.500234  0.499858  0.500304  1
  Os  Os36  1  0.999905  0.000099  0.999828  1
  Os  Os37  1  0.999905  0.000099  0.500172  1
