# generated using pymatgen
data_Cs6NdLuBr12
_symmetry_space_group_name_H-M   'P 1'
_cell_length_a   10.03118648
_cell_length_b   10.01278729
_cell_length_c   8.31285300
_cell_angle_alpha   90.00000000
_cell_angle_beta   90.00000000
_cell_angle_gamma   90.15684549
_symmetry_Int_Tables_number   1
_chemical_formula_structural   Cs6NdLuBr12
_chemical_formula_sum   'Cs6 Nd1 Lu1 Br12'
_cell_volume   834.94096203
_cell_formula_units_Z   1
loop_
 _symmetry_equiv_pos_site_id
 _symmetry_equiv_pos_as_xyz
  1  'x, y, z'
loop_
 _atom_site_type_symbol
 _atom_site_label
 _atom_site_symmetry_multiplicity
 _atom_site_fract_x
 _atom_site_fract_y
 _atom_site_fract_z
 _atom_site_occupancy
  Cs  Cs0  1  0.000000  0.000000  0.500000  1
  Cs  Cs1  1  0.000000  0.000000  0.000000  1
  Cs  Cs2  1  0.237796  0.584498  0.500000  1
  Cs  Cs3  1  0.762204  0.415502  0.500000  1
  Cs  Cs4  1  0.417134  0.232330  0.000000  1
  Cs  Cs5  1  0.582866  0.767670  0.000000  1
  Nd  Nd6  1  0.000000  0.500000  0.000000  1
  Lu  Lu7  1  0.500000  0.000000  0.500000  1
  Br  Br8  1  0.688104  0.056294  0.735817  1
  Br  Br9  1  0.311896  0.943706  0.735817  1
  Br  Br10  1  0.941084  0.697734  0.246904  1
  Br  Br11  1  0.058916  0.302266  0.246904  1
  Br  Br12  1  0.311896  0.943706  0.264183  1
  Br  Br13  1  0.688104  0.056294  0.264183  1
  Br  Br14  1  0.058916  0.302266  0.753096  1
  Br  Br15  1  0.941084  0.697734  0.753096  1
  Br  Br16  1  0.568853  0.734046  0.500000  1
  Br  Br17  1  0.431147  0.265954  0.500000  1
  Br  Br18  1  0.279260  0.571096  0.000000  1
  Br  Br19  1  0.720740  0.428904  0.000000  1
