# generated using pymatgen
data_Ta3AlSiIrC
_symmetry_space_group_name_H-M   'P 1'
_cell_length_a   8.26042764
_cell_length_b   8.26042782
_cell_length_c   8.26042684
_cell_angle_alpha   60.04221453
_cell_angle_beta   60.04221199
_cell_angle_gamma   60.04220968
_symmetry_Int_Tables_number   1
_chemical_formula_structural   Ta3AlSiIrC
_chemical_formula_sum   'Ta12 Al4 Si4 Ir4 C4'
_cell_volume   398.94028784
_cell_formula_units_Z   4
loop_
 _symmetry_equiv_pos_site_id
 _symmetry_equiv_pos_as_xyz
  1  'x, y, z'
loop_
 _atom_site_type_symbol
 _atom_site_label
 _atom_site_symmetry_multiplicity
 _atom_site_fract_x
 _atom_site_fract_y
 _atom_site_fract_z
 _atom_site_occupancy
  Ta  Ta0  1  0.565478  0.934122  0.565478  1
  Ta  Ta1  1  0.315018  0.684789  0.684789  1
  Ta  Ta2  1  0.687280  0.315721  0.315721  1
  Ta  Ta3  1  0.315721  0.687280  0.315721  1
  Ta  Ta4  1  0.684789  0.684789  0.315018  1
  Ta  Ta5  1  0.315721  0.315721  0.687280  1
  Ta  Ta6  1  0.565478  0.565478  0.934122  1
  Ta  Ta7  1  0.934122  0.565478  0.565478  1
  Ta  Ta8  1  0.568432  0.934417  0.934417  1
  Ta  Ta9  1  0.934417  0.934417  0.568432  1
  Ta  Ta10  1  0.684789  0.315018  0.684789  1
  Ta  Ta11  1  0.934417  0.568432  0.934417  1
  Al  Al12  1  0.917311  0.250463  0.917311  1
  Al  Al13  1  0.917311  0.917311  0.250463  1
  Al  Al14  1  0.250463  0.917311  0.917311  1
  Al  Al15  1  0.334194  0.334194  0.334194  1
  Si  Si16  1  0.915431  0.915431  0.915431  1
  Si  Si17  1  0.989992  0.338134  0.338134  1
  Si  Si18  1  0.338134  0.989992  0.338134  1
  Si  Si19  1  0.338134  0.338134  0.989992  1
  Ir  Ir20  1  0.130587  0.130587  0.130587  1
  Ir  Ir21  1  0.619800  0.121973  0.121973  1
  Ir  Ir22  1  0.121973  0.619800  0.121973  1
  Ir  Ir23  1  0.121973  0.121973  0.619800  1
  C  C24  1  0.624824  0.624824  0.624824  1
  C  C25  1  0.124001  0.625104  0.625104  1
  C  C26  1  0.625104  0.124001  0.625104  1
  C  C27  1  0.625104  0.625104  0.124001  1
