# generated using pymatgen
data_Ca(Al3Se5)2
_symmetry_space_group_name_H-M   'P 1'
_cell_length_a   9.76405688
_cell_length_b   9.76405712
_cell_length_c   9.64151370
_cell_angle_alpha   89.60025867
_cell_angle_beta   89.60026148
_cell_angle_gamma   89.52234073
_symmetry_Int_Tables_number   1
_chemical_formula_structural   Ca(Al3Se5)2
_chemical_formula_sum   'Ca2 Al12 Se20'
_cell_volume   919.11483791
_cell_formula_units_Z   2
loop_
 _symmetry_equiv_pos_site_id
 _symmetry_equiv_pos_as_xyz
  1  'x, y, z'
loop_
 _atom_site_type_symbol
 _atom_site_label
 _atom_site_symmetry_multiplicity
 _atom_site_fract_x
 _atom_site_fract_y
 _atom_site_fract_z
 _atom_site_occupancy
  Ca  Ca0  1  0.997729  0.741663  0.747866  1
  Ca  Ca1  1  0.258337  0.002271  0.252134  1
  Al  Al2  1  0.903484  0.000944  0.164829  1
  Al  Al3  1  0.819689  0.618314  0.160858  1
  Al  Al4  1  0.683524  0.904752  0.879702  1
  Al  Al5  1  0.601975  0.909098  0.257905  1
  Al  Al6  1  0.511016  0.578879  0.338256  1
  Al  Al7  1  0.421121  0.488984  0.661744  1
  Al  Al8  1  0.418178  0.866345  0.573677  1
  Al  Al9  1  0.381686  0.180311  0.839142  1
  Al  Al10  1  0.133655  0.581822  0.426323  1
  Al  Al11  1  0.095248  0.316476  0.120298  1
  Al  Al12  1  0.090902  0.398025  0.742095  1
  Al  Al13  1  0.999056  0.096516  0.835171  1
  Se  Se14  1  0.948371  0.498504  0.568074  1
  Se  Se15  1  0.932080  0.319266  0.927454  1
  Se  Se16  1  0.827277  0.816064  0.320212  1
  Se  Se17  1  0.828042  0.993429  0.695176  1
  Se  Se18  1  0.755763  0.671277  0.922649  1
  Se  Se19  1  0.689338  0.438848  0.255658  1
  Se  Se20  1  0.680734  0.067920  0.072546  1
  Se  Se21  1  0.572433  0.671219  0.570992  1
  Se  Se22  1  0.561152  0.310662  0.744342  1
  Se  Se23  1  0.501496  0.051629  0.431926  1
  Se  Se24  1  0.435678  0.928337  0.822018  1
  Se  Se25  1  0.437058  0.751715  0.174683  1
  Se  Se26  1  0.328723  0.244237  0.077351  1
  Se  Se27  1  0.328781  0.427567  0.429008  1
  Se  Se28  1  0.248285  0.562942  0.825317  1
  Se  Se29  1  0.183936  0.172723  0.679788  1
  Se  Se30  1  0.180981  0.819019  0.500000  1
  Se  Se31  1  0.075230  0.924770  0.000000  1
  Se  Se32  1  0.071663  0.564322  0.177982  1
  Se  Se33  1  0.006571  0.171958  0.304824  1
