# generated using pymatgen
data_LaNd7(LuBi)12
_symmetry_space_group_name_H-M   'P 1'
_cell_length_a   8.28353287
_cell_length_b   9.45799800
_cell_length_c   12.22558600
_cell_angle_alpha   90.00000000
_cell_angle_beta   90.02623553
_cell_angle_gamma   90.00000000
_symmetry_Int_Tables_number   1
_chemical_formula_structural   LaNd7(LuBi)12
_chemical_formula_sum   'La1 Nd7 Lu12 Bi12'
_cell_volume   957.82122615
_cell_formula_units_Z   1
loop_
 _symmetry_equiv_pos_site_id
 _symmetry_equiv_pos_as_xyz
  1  'x, y, z'
loop_
 _atom_site_type_symbol
 _atom_site_label
 _atom_site_symmetry_multiplicity
 _atom_site_fract_x
 _atom_site_fract_y
 _atom_site_fract_z
 _atom_site_occupancy
  La  La0  1  0.684604  0.250000  0.721404  1
  Nd  Nd1  1  0.352116  0.250000  0.284014  1
  Nd  Nd2  1  0.647661  0.750000  0.716186  1
  Nd  Nd3  1  0.147513  0.750000  0.783606  1
  Nd  Nd4  1  0.852401  0.250000  0.216102  1
  Nd  Nd5  1  0.184822  0.250000  0.780043  1
  Nd  Nd6  1  0.815401  0.750000  0.220090  1
  Nd  Nd7  1  0.315412  0.750000  0.279406  1
  Lu  Lu8  1  0.023960  0.250000  0.511047  1
  Lu  Lu9  1  0.976489  0.750000  0.489539  1
  Lu  Lu10  1  0.476658  0.750000  0.010337  1
  Lu  Lu11  1  0.522065  0.250000  0.989257  1
  Lu  Lu12  1  0.190657  0.067294  0.057459  1
  Lu  Lu13  1  0.809448  0.932608  0.942766  1
  Lu  Lu14  1  0.309078  0.933396  0.557505  1
  Lu  Lu15  1  0.809448  0.567392  0.942766  1
  Lu  Lu16  1  0.691177  0.066821  0.441985  1
  Lu  Lu17  1  0.190657  0.432706  0.057459  1
  Lu  Lu18  1  0.691177  0.433179  0.441985  1
  Lu  Lu19  1  0.309078  0.566604  0.557505  1
  Bi  Bi20  1  0.401243  0.250000  0.542490  1
  Bi  Bi21  1  0.596712  0.750000  0.456782  1
  Bi  Bi22  1  0.097597  0.750000  0.043059  1
  Bi  Bi23  1  0.902712  0.250000  0.957443  1
  Bi  Bi24  1  0.064542  0.004224  0.333768  1
  Bi  Bi25  1  0.936951  0.994369  0.666432  1
  Bi  Bi26  1  0.434862  0.994614  0.833130  1
  Bi  Bi27  1  0.936951  0.505631  0.666432  1
  Bi  Bi28  1  0.564605  0.004320  0.166552  1
  Bi  Bi29  1  0.064542  0.495776  0.333768  1
  Bi  Bi30  1  0.564605  0.495680  0.166552  1
  Bi  Bi31  1  0.434862  0.505386  0.833130  1
