# generated using pymatgen
data_Y3SiI3
_symmetry_space_group_name_H-M   'P 1'
_cell_length_a   10.52354992
_cell_length_b   10.52355031
_cell_length_c   10.52355000
_cell_angle_alpha   109.47122004
_cell_angle_beta   109.47122080
_cell_angle_gamma   109.47121971
_symmetry_Int_Tables_number   1
_chemical_formula_structural   Y3SiI3
_chemical_formula_sum   'Y12 Si4 I12'
_cell_volume   897.14973330
_cell_formula_units_Z   4
loop_
 _symmetry_equiv_pos_site_id
 _symmetry_equiv_pos_as_xyz
  1  'x, y, z'
loop_
 _atom_site_type_symbol
 _atom_site_label
 _atom_site_symmetry_multiplicity
 _atom_site_fract_x
 _atom_site_fract_y
 _atom_site_fract_z
 _atom_site_occupancy
  Y  Y0  1  0.459845  0.479922  0.229922  1
  Y  Y1  1  0.750000  0.229922  0.270078  1
  Y  Y2  1  0.750000  0.020078  0.479922  1
  Y  Y3  1  0.229922  0.459845  0.479922  1
  Y  Y4  1  0.270078  0.750000  0.229922  1
  Y  Y5  1  0.040155  0.270078  0.020078  1
  Y  Y6  1  0.020078  0.040155  0.270078  1
  Y  Y7  1  0.479922  0.750000  0.020078  1
  Y  Y8  1  0.479922  0.229922  0.459845  1
  Y  Y9  1  0.020078  0.479922  0.750000  1
  Y  Y10  1  0.270078  0.020078  0.040155  1
  Y  Y11  1  0.229922  0.270078  0.750000  1
  Si  Si12  1  0.250000  0.250000  0.250000  1
  Si  Si13  1  0.500000  0.000000  0.250000  1
  Si  Si14  1  0.000000  0.250000  0.500000  1
  Si  Si15  1  0.250000  0.500000  0.000000  1
  I  I16  1  0.250000  0.756800  0.743200  1
  I  I17  1  0.513601  0.506800  0.756800  1
  I  I18  1  0.986399  0.743200  0.993200  1
  I  I19  1  0.743200  0.250000  0.756800  1
  I  I20  1  0.993200  0.986399  0.743200  1
  I  I21  1  0.250000  0.993200  0.506800  1
  I  I22  1  0.756800  0.513601  0.506800  1
  I  I23  1  0.506800  0.250000  0.993200  1
  I  I24  1  0.756800  0.743200  0.250000  1
  I  I25  1  0.743200  0.993200  0.986399  1
  I  I26  1  0.993200  0.506800  0.250000  1
  I  I27  1  0.506800  0.756800  0.513601  1
