# generated using pymatgen
data_Ca6Sc4Ti3(GeO8)3
_symmetry_space_group_name_H-M   'P 1'
_cell_length_a   11.01684340
_cell_length_b   11.01683452
_cell_length_c   11.01683101
_cell_angle_alpha   109.46937175
_cell_angle_beta   109.46938830
_cell_angle_gamma   109.47506860
_symmetry_Int_Tables_number   1
_chemical_formula_structural   Ca6Sc4Ti3(GeO8)3
_chemical_formula_sum   'Ca12 Sc8 Ti6 Ge6 O48'
_cell_volume   1029.31405750
_cell_formula_units_Z   2
loop_
 _symmetry_equiv_pos_site_id
 _symmetry_equiv_pos_as_xyz
  1  'x, y, z'
loop_
 _atom_site_type_symbol
 _atom_site_label
 _atom_site_symmetry_multiplicity
 _atom_site_fract_x
 _atom_site_fract_y
 _atom_site_fract_z
 _atom_site_occupancy
  Ca  Ca0  1  0.373459  0.123459  0.250000  1
  Ca  Ca1  1  0.749276  0.124011  0.374575  1
  Ca  Ca2  1  0.249435  0.374699  0.125426  1
  Ca  Ca3  1  0.124812  0.249332  0.375227  1
  Ca  Ca4  1  0.374107  0.749587  0.124775  1
  Ca  Ca5  1  0.124579  0.374580  0.750002  1
  Ca  Ca6  1  0.625422  0.875420  0.749999  1
  Ca  Ca7  1  0.250415  0.875187  0.624521  1
  Ca  Ca8  1  0.750668  0.625894  0.875482  1
  Ca  Ca9  1  0.875990  0.750563  0.625264  1
  Ca  Ca10  1  0.625299  0.250723  0.874735  1
  Ca  Ca11  1  0.876542  0.626543  0.250000  1
  Sc  Sc12  1  0.001126  0.999984  0.001440  1
  Sc  Sc13  1  0.499785  0.998601  0.998819  1
  Sc  Sc14  1  0.000016  0.501456  0.001145  1
  Sc  Sc15  1  0.000313  0.998873  0.498855  1
  Sc  Sc16  1  0.499036  0.500217  0.998816  1
  Sc  Sc17  1  0.001400  0.500220  0.501185  1
  Sc  Sc18  1  0.498543  0.999688  0.498561  1
  Sc  Sc19  1  0.499779  0.500964  0.501180  1
  Ti  Ti20  1  0.625000  0.374999  0.249999  1
  Ti  Ti21  1  0.749912  0.374765  0.625559  1
  Ti  Ti22  1  0.249206  0.124352  0.874441  1
  Ti  Ti23  1  0.875650  0.250090  0.124855  1
  Ti  Ti24  1  0.625236  0.750795  0.375147  1
  Ti  Ti25  1  0.375001  0.625000  0.750000  1
  Ge  Ge26  1  0.124927  0.749942  0.875494  1
  Ge  Ge27  1  0.750564  0.875073  0.125012  1
  Ge  Ge28  1  0.374450  0.249434  0.624506  1
  Ge  Ge29  1  0.250059  0.625552  0.374984  1
  Ge  Ge30  1  0.874999  0.124999  0.749999  1
  Ge  Ge31  1  0.125000  0.875001  0.250000  1
  O  O32  1  0.413884  0.813812  0.791539  1
  O  O33  1  0.878707  0.400376  0.086151  1
  O  O34  1  0.100425  0.977489  0.684250  1
  O  O35  1  0.522274  0.622343  0.708461  1
  O  O36  1  0.689444  0.086137  0.705597  1
  O  O37  1  0.621735  0.707475  0.521270  1
  O  O38  1  0.621672  0.415190  0.100311  1
  O  O39  1  0.707357  0.520799  0.621038  1
  O  O40  1  0.814880  0.521360  0.399688  1
  O  O41  1  0.982964  0.793427  0.879561  1
  O  O42  1  0.793790  0.880125  0.983291  1
  O  O43  1  0.706547  0.689840  0.086168  1
  O  O44  1  0.413867  0.103406  0.620440  1
  O  O45  1  0.396833  0.810501  0.516708  1
  O  O46  1  0.087778  0.706842  0.690963  1
  O  O47  1  0.103669  0.620379  0.413831  1
  O  O48  1  0.515882  0.396816  0.809039  1
  O  O49  1  0.087228  0.879873  0.396680  1
  O  O50  1  0.983193  0.690548  0.103320  1
  O  O51  1  0.186186  0.477725  0.600070  1
  O  O52  1  0.686206  0.100465  0.978732  1
  O  O53  1  0.793238  0.416174  0.815749  1
  O  O54  1  0.399759  0.086318  0.878961  1
  O  O55  1  0.880541  0.983847  0.794403  1
  O  O56  1  0.584809  0.185121  0.206481  1
  O  O57  1  0.119875  0.603167  0.913668  1
  O  O58  1  0.896591  0.017033  0.310459  1
  O  O59  1  0.478641  0.378328  0.293519  1
  O  O60  1  0.309453  0.912772  0.292644  1
  O  O61  1  0.379622  0.293453  0.483291  1
  O  O62  1  0.377656  0.586117  0.899932  1
  O  O63  1  0.293158  0.484122  0.380936  1
  O  O64  1  0.120128  0.016808  0.207355  1
  O  O65  1  0.603178  0.912223  0.119064  1
  O  O66  1  0.206572  0.586133  0.189536  1
  O  O67  1  0.189501  0.206207  0.586333  1
  O  O68  1  0.310163  0.896332  0.016711  1
  O  O69  1  0.016152  0.310555  0.896692  1
  O  O70  1  0.913862  0.119460  0.603307  1
  O  O71  1  0.479202  0.600241  0.186559  1
  O  O72  1  0.899536  0.378266  0.585741  1
  O  O73  1  0.913681  0.292643  0.313441  1
  O  O74  1  0.599624  0.185775  0.478331  1
  O  O75  1  0.583826  0.899575  0.377063  1
  O  O76  1  0.292525  0.313794  0.914260  1
  O  O77  1  0.207445  0.121292  0.021669  1
  O  O78  1  0.022511  0.206762  0.122937  1
  O  O79  1  0.814225  0.792555  0.413848  1
