# generated using pymatgen
data_La3Co4Cu7(NiB)2
_symmetry_space_group_name_H-M   'P 1'
_cell_length_a   5.10689914
_cell_length_b   5.14628304
_cell_length_c   11.07865532
_cell_angle_alpha   90.00014400
_cell_angle_beta   89.99970977
_cell_angle_gamma   119.74714670
_symmetry_Int_Tables_number   1
_chemical_formula_structural   La3Co4Cu7(NiB)2
_chemical_formula_sum   'La3 Co4 Cu7 Ni2 B2'
_cell_volume   252.79562216
_cell_formula_units_Z   1
loop_
 _symmetry_equiv_pos_site_id
 _symmetry_equiv_pos_as_xyz
  1  'x, y, z'
loop_
 _atom_site_type_symbol
 _atom_site_label
 _atom_site_symmetry_multiplicity
 _atom_site_fract_x
 _atom_site_fract_y
 _atom_site_fract_z
 _atom_site_occupancy
  La  La0  1  0.000154  0.000000  0.001079  1
  La  La1  1  0.000131  0.000000  0.300436  1
  La  La2  1  0.999599  0.000000  0.692164  1
  Co  Co3  1  0.500223  0.000000  0.128691  1
  Co  Co4  1  0.500182  0.500008  0.127649  1
  Co  Co5  1  0.000174  0.499992  0.127649  1
  Co  Co6  1  0.500051  0.000000  0.873280  1
  Cu  Cu7  1  0.500056  0.000000  0.499801  1
  Cu  Cu8  1  0.499981  0.500016  0.499780  1
  Cu  Cu9  1  0.999964  0.499984  0.499780  1
  Cu  Cu10  1  0.333266  0.666355  0.314092  1
  Cu  Cu11  1  0.666911  0.333645  0.314092  1
  Cu  Cu12  1  0.665756  0.332480  0.686106  1
  Cu  Cu13  1  0.333276  0.667520  0.686106  1
  Ni  Ni14  1  0.499884  0.499862  0.871724  1
  Ni  Ni15  1  0.000023  0.500138  0.871724  1
  B  B16  1  0.336330  0.672388  0.002920  1
  B  B17  1  0.663941  0.327612  0.002920  1
