# generated using pymatgen
data_Tb4Sm4Tc(B8Ru)3
_symmetry_space_group_name_H-M   'P 1'
_cell_length_a   3.71825100
_cell_length_b   9.23185975
_cell_length_c   11.63794502
_cell_angle_alpha   89.90819088
_cell_angle_beta   90.00000000
_cell_angle_gamma   90.00000000
_symmetry_Int_Tables_number   1
_chemical_formula_structural   Tb4Sm4Tc(B8Ru)3
_chemical_formula_sum   'Tb4 Sm4 Tc1 B24 Ru3'
_cell_volume   399.48791413
_cell_formula_units_Z   1
loop_
 _symmetry_equiv_pos_site_id
 _symmetry_equiv_pos_as_xyz
  1  'x, y, z'
loop_
 _atom_site_type_symbol
 _atom_site_label
 _atom_site_symmetry_multiplicity
 _atom_site_fract_x
 _atom_site_fract_y
 _atom_site_fract_z
 _atom_site_occupancy
  Tb  Tb0  1  0.000000  0.943312  0.371889  1
  Tb  Tb1  1  0.000000  0.057189  0.628917  1
  Tb  Tb2  1  0.000000  0.444263  0.128564  1
  Tb  Tb3  1  0.000000  0.556678  0.870667  1
  Sm  Sm4  1  0.000000  0.324818  0.413129  1
  Sm  Sm5  1  0.000000  0.676173  0.583923  1
  Sm  Sm6  1  0.000000  0.821744  0.087886  1
  Sm  Sm7  1  0.000000  0.175909  0.914764  1
  Tc  Tc8  1  0.000000  0.638375  0.320523  1
  B  B9  1  0.500000  0.554121  0.431641  1
  B  B10  1  0.500000  0.445284  0.568700  1
  B  B11  1  0.500000  0.054762  0.068710  1
  B  B12  1  0.500000  0.944917  0.931767  1
  B  B13  1  0.500000  0.748049  0.418370  1
  B  B14  1  0.500000  0.252086  0.581616  1
  B  B15  1  0.500000  0.248011  0.081226  1
  B  B16  1  0.500000  0.751715  0.918572  1
  B  B17  1  0.500000  0.790674  0.266911  1
  B  B18  1  0.500000  0.209977  0.733154  1
  B  B19  1  0.500000  0.290074  0.232435  1
  B  B20  1  0.500000  0.710542  0.766894  1
  B  B21  1  0.500000  0.631590  0.186090  1
  B  B22  1  0.500000  0.368122  0.814386  1
  B  B23  1  0.500000  0.131796  0.313794  1
  B  B24  1  0.500000  0.868866  0.685820  1
  B  B25  1  0.500000  0.985082  0.213227  1
  B  B26  1  0.500000  0.014685  0.787439  1
  B  B27  1  0.500000  0.484517  0.286853  1
  B  B28  1  0.500000  0.514399  0.712995  1
  B  B29  1  0.500000  0.606418  0.028763  1
  B  B30  1  0.500000  0.393000  0.970015  1
  B  B31  1  0.500000  0.107230  0.470807  1
  B  B32  1  0.500000  0.894368  0.529985  1
  Ru  Ru33  1  0.000000  0.361250  0.679968  1
  Ru  Ru34  1  0.000000  0.138399  0.179025  1
  Ru  Ru35  1  0.000000  0.861607  0.820575  1
