# generated using pymatgen
data_YEr5Co16(P6Os)2
_symmetry_space_group_name_H-M   'P 1'
_cell_length_a   3.68914000
_cell_length_b   10.44015300
_cell_length_c   12.17435500
_cell_angle_alpha   90.00000000
_cell_angle_beta   90.00000000
_cell_angle_gamma   90.00000000
_symmetry_Int_Tables_number   1
_chemical_formula_structural   YEr5Co16(P6Os)2
_chemical_formula_sum   'Y1 Er5 Co16 P12 Os2'
_cell_volume   468.89754772
_cell_formula_units_Z   1
loop_
 _symmetry_equiv_pos_site_id
 _symmetry_equiv_pos_as_xyz
  1  'x, y, z'
loop_
 _atom_site_type_symbol
 _atom_site_label
 _atom_site_symmetry_multiplicity
 _atom_site_fract_x
 _atom_site_fract_y
 _atom_site_fract_z
 _atom_site_occupancy
  Y  Y0  1  0.500000  0.000000  0.475161  1
  Er  Er1  1  0.000000  0.500000  0.525043  1
  Er  Er2  1  0.500000  0.817374  0.206780  1
  Er  Er3  1  0.500000  0.182626  0.206780  1
  Er  Er4  1  0.000000  0.682496  0.792888  1
  Er  Er5  1  0.000000  0.317504  0.792888  1
  Co  Co6  1  0.500000  0.500000  0.703564  1
  Co  Co7  1  0.000000  0.000000  0.295645  1
  Co  Co8  1  0.000000  0.500000  0.986595  1
  Co  Co9  1  0.500000  0.000000  0.013241  1
  Co  Co10  1  0.500000  0.332546  0.989864  1
  Co  Co11  1  0.500000  0.667454  0.989864  1
  Co  Co12  1  0.000000  0.167702  0.010128  1
  Co  Co13  1  0.000000  0.832298  0.010128  1
  Co  Co14  1  0.500000  0.298236  0.431136  1
  Co  Co15  1  0.500000  0.701764  0.431136  1
  Co  Co16  1  0.000000  0.203205  0.569034  1
  Co  Co17  1  0.000000  0.796795  0.569034  1
  Co  Co18  1  0.500000  0.878763  0.708736  1
  Co  Co19  1  0.500000  0.121237  0.708736  1
  Co  Co20  1  0.000000  0.620879  0.291567  1
  Co  Co21  1  0.000000  0.379121  0.291567  1
  P  P22  1  0.500000  0.500000  0.880160  1
  P  P23  1  0.000000  0.000000  0.119545  1
  P  P24  1  0.500000  0.500000  0.351780  1
  P  P25  1  0.000000  0.000000  0.649169  1
  P  P26  1  0.500000  0.312678  0.616397  1
  P  P27  1  0.500000  0.687322  0.616397  1
  P  P28  1  0.000000  0.188273  0.383198  1
  P  P29  1  0.000000  0.811727  0.383198  1
  P  P30  1  0.500000  0.845781  0.892493  1
  P  P31  1  0.500000  0.154219  0.892493  1
  P  P32  1  0.000000  0.653927  0.107604  1
  P  P33  1  0.000000  0.346073  0.107604  1
  Os  Os34  1  0.500000  0.500000  0.159216  1
  Os  Os35  1  0.000000  0.000000  0.841235  1
