# generated using pymatgen
data_Tb3Nd2P12Ru18Pt
_symmetry_space_group_name_H-M   'P 1'
_cell_length_a   12.62149373
_cell_length_b   12.55388114
_cell_length_c   4.00863200
_cell_angle_alpha   90.00000000
_cell_angle_beta   90.00000000
_cell_angle_gamma   119.82295489
_symmetry_Int_Tables_number   1
_chemical_formula_structural   Tb3Nd2P12Ru18Pt
_chemical_formula_sum   'Tb3 Nd2 P12 Ru18 Pt1'
_cell_volume   551.04570226
_cell_formula_units_Z   1
loop_
 _symmetry_equiv_pos_site_id
 _symmetry_equiv_pos_as_xyz
  1  'x, y, z'
loop_
 _atom_site_type_symbol
 _atom_site_label
 _atom_site_symmetry_multiplicity
 _atom_site_fract_x
 _atom_site_fract_y
 _atom_site_fract_z
 _atom_site_occupancy
  Tb  Tb0  1  0.000000  0.182840  0.500000  1
  Tb  Tb1  1  0.661326  0.329487  0.000000  1
  Tb  Tb2  1  0.338674  0.668162  0.000000  1
  Nd  Nd3  1  0.816056  0.815056  0.500000  1
  Nd  Nd4  1  0.183944  0.999001  0.500000  1
  P  P5  1  0.000000  0.810044  0.000000  1
  P  P6  1  0.184039  0.187291  0.000000  1
  P  P7  1  0.815961  0.003252  0.000000  1
  P  P8  1  0.694501  0.174630  0.500000  1
  P  P9  1  0.816680  0.518102  0.500000  1
  P  P10  1  0.474413  0.304476  0.500000  1
  P  P11  1  0.183320  0.701422  0.500000  1
  P  P12  1  0.525587  0.830061  0.500000  1
  P  P13  1  0.305499  0.480129  0.500000  1
  P  P14  1  0.000000  0.364658  0.000000  1
  P  P15  1  0.624984  0.625951  0.000000  1
  P  P16  1  0.375016  0.000967  0.000000  1
  Ru  Ru17  1  0.443736  0.446597  0.000000  1
  Ru  Ru18  1  0.556264  0.002860  0.000000  1
  Ru  Ru19  1  0.000000  0.707222  0.500000  1
  Ru  Ru20  1  0.282520  0.286023  0.500000  1
  Ru  Ru21  1  0.717480  0.003503  0.500000  1
  Ru  Ru22  1  0.807076  0.187017  0.000000  1
  Ru  Ru23  1  0.814488  0.617309  0.000000  1
  Ru  Ru24  1  0.376521  0.193977  0.000000  1
  Ru  Ru25  1  0.185512  0.802821  0.000000  1
  Ru  Ru26  1  0.623479  0.817454  0.000000  1
  Ru  Ru27  1  0.192924  0.379942  0.000000  1
  Ru  Ru28  1  0.873500  0.368288  0.500000  1
  Ru  Ru29  1  0.628311  0.506751  0.500000  1
  Ru  Ru30  1  0.492620  0.127344  0.500000  1
  Ru  Ru31  1  0.371689  0.878440  0.500000  1
  Ru  Ru32  1  0.507380  0.634724  0.500000  1
  Ru  Ru33  1  0.126500  0.494789  0.500000  1
  Ru  Ru34  1  0.000000  0.999481  0.000000  1
  Pt  Pt35  1  0.000000  0.549933  0.000000  1
