# generated using pymatgen
data_Tb5Dy11MgCd3Pt4
_symmetry_space_group_name_H-M   'P 1'
_cell_length_a   9.71958805
_cell_length_b   9.71837467
_cell_length_c   9.71837469
_cell_angle_alpha   60.05975586
_cell_angle_beta   60.05772048
_cell_angle_gamma   60.05771670
_symmetry_Int_Tables_number   1
_chemical_formula_structural   Tb5Dy11MgCd3Pt4
_chemical_formula_sum   'Tb5 Dy11 Mg1 Cd3 Pt4'
_cell_volume   649.97186876
_cell_formula_units_Z   1
loop_
 _symmetry_equiv_pos_site_id
 _symmetry_equiv_pos_as_xyz
  1  'x, y, z'
loop_
 _atom_site_type_symbol
 _atom_site_label
 _atom_site_symmetry_multiplicity
 _atom_site_fract_x
 _atom_site_fract_y
 _atom_site_fract_z
 _atom_site_occupancy
  Tb  Tb0  1  0.563385  0.936544  0.936544  1
  Tb  Tb1  1  0.566126  0.936032  0.566002  1
  Tb  Tb2  1  0.936552  0.563375  0.936397  1
  Tb  Tb3  1  0.566126  0.566002  0.936032  1
  Tb  Tb4  1  0.936552  0.936397  0.563375  1
  Dy  Dy5  1  0.349653  0.349816  0.349816  1
  Dy  Dy6  1  0.352195  0.352258  0.945352  1
  Dy  Dy7  1  0.352195  0.945352  0.352258  1
  Dy  Dy8  1  0.945351  0.352278  0.352278  1
  Dy  Dy9  1  0.809911  0.191046  0.191046  1
  Dy  Dy10  1  0.188345  0.811739  0.811739  1
  Dy  Dy11  1  0.190933  0.809884  0.191128  1
  Dy  Dy12  1  0.811775  0.188454  0.811651  1
  Dy  Dy13  1  0.190933  0.191128  0.809884  1
  Dy  Dy14  1  0.811775  0.811651  0.188454  1
  Dy  Dy15  1  0.936295  0.565911  0.565911  1
  Mg  Mg16  1  0.576461  0.576387  0.576387  1
  Cd  Cd17  1  0.581352  0.581385  0.254014  1
  Cd  Cd18  1  0.581352  0.254014  0.581385  1
  Cd  Cd19  1  0.253863  0.581387  0.581387  1
  Pt  Pt20  1  0.143757  0.143749  0.143749  1
  Pt  Pt21  1  0.141781  0.141890  0.571511  1
  Pt  Pt22  1  0.141781  0.571511  0.141890  1
  Pt  Pt23  1  0.571549  0.141805  0.141805  1
