# generated using pymatgen
data_Sm8Tm12SnPb15
_symmetry_space_group_name_H-M   'P 1'
_cell_length_a   8.19069700
_cell_length_b   8.32181207
_cell_length_c   15.64285200
_cell_angle_alpha   90.00000000
_cell_angle_beta   90.00000000
_cell_angle_gamma   89.92529759
_symmetry_Int_Tables_number   1
_chemical_formula_structural   Sm8Tm12SnPb15
_chemical_formula_sum   'Sm8 Tm12 Sn1 Pb15'
_cell_volume   1066.23843027
_cell_formula_units_Z   1
loop_
 _symmetry_equiv_pos_site_id
 _symmetry_equiv_pos_as_xyz
  1  'x, y, z'
loop_
 _atom_site_type_symbol
 _atom_site_label
 _atom_site_symmetry_multiplicity
 _atom_site_fract_x
 _atom_site_fract_y
 _atom_site_fract_z
 _atom_site_occupancy
  Sm  Sm0  1  0.521351  0.321986  0.903048  1
  Sm  Sm1  1  0.021145  0.178279  0.596795  1
  Sm  Sm2  1  0.476873  0.678011  0.402132  1
  Sm  Sm3  1  0.980632  0.820087  0.098850  1
  Sm  Sm4  1  0.476873  0.678011  0.097868  1
  Sm  Sm5  1  0.980632  0.820087  0.401150  1
  Sm  Sm6  1  0.521351  0.321986  0.596952  1
  Sm  Sm7  1  0.021145  0.178279  0.903205  1
  Tm  Tm8  1  0.364262  0.838867  0.877352  1
  Tm  Tm9  1  0.864045  0.661168  0.622558  1
  Tm  Tm10  1  0.635590  0.161321  0.376944  1
  Tm  Tm11  1  0.135808  0.340473  0.123302  1
  Tm  Tm12  1  0.635590  0.161321  0.123056  1
  Tm  Tm13  1  0.135808  0.340473  0.376698  1
  Tm  Tm14  1  0.364262  0.838867  0.622648  1
  Tm  Tm15  1  0.864045  0.661168  0.877442  1
  Tm  Tm16  1  0.196093  0.504527  0.750000  1
  Tm  Tm17  1  0.696089  0.995327  0.750000  1
  Tm  Tm18  1  0.806151  0.496669  0.250000  1
  Tm  Tm19  1  0.302193  0.001475  0.250000  1
  Sn  Sn20  1  0.168916  0.648236  0.250000  1
  Pb  Pb21  1  0.295597  0.040117  0.042410  1
  Pb  Pb22  1  0.795377  0.460695  0.457704  1
  Pb  Pb23  1  0.704338  0.960578  0.541989  1
  Pb  Pb24  1  0.204300  0.539597  0.957758  1
  Pb  Pb25  1  0.704338  0.960578  0.958011  1
  Pb  Pb26  1  0.204300  0.539597  0.542242  1
  Pb  Pb27  1  0.295597  0.040117  0.457590  1
  Pb  Pb28  1  0.795377  0.460695  0.042296  1
  Pb  Pb29  1  0.559144  0.626044  0.750000  1
  Pb  Pb30  1  0.059058  0.873871  0.750000  1
  Pb  Pb31  1  0.440120  0.375769  0.250000  1
  Pb  Pb32  1  0.940845  0.126581  0.250000  1
  Pb  Pb33  1  0.333038  0.151190  0.750000  1
  Pb  Pb34  1  0.833132  0.348751  0.750000  1
  Pb  Pb35  1  0.666582  0.849198  0.250000  1
