# generated using pymatgen
data_Ce5Y(Ir7Rh2)2
_symmetry_space_group_name_H-M   'P 1'
_cell_length_a   5.32435000
_cell_length_b   5.32435142
_cell_length_c   17.61501500
_cell_angle_alpha   90.00000000
_cell_angle_beta   90.00000000
_cell_angle_gamma   119.99999117
_symmetry_Int_Tables_number   1
_chemical_formula_structural   Ce5Y(Ir7Rh2)2
_chemical_formula_sum   'Ce5 Y1 Ir14 Rh4'
_cell_volume   432.46104801
_cell_formula_units_Z   1
loop_
 _symmetry_equiv_pos_site_id
 _symmetry_equiv_pos_as_xyz
  1  'x, y, z'
loop_
 _atom_site_type_symbol
 _atom_site_label
 _atom_site_symmetry_multiplicity
 _atom_site_fract_x
 _atom_site_fract_y
 _atom_site_fract_z
 _atom_site_occupancy
  Ce  Ce0  1  0.333333  0.666667  0.958413  1
  Ce  Ce1  1  0.666667  0.333333  0.041906  1
  Ce  Ce2  1  0.666667  0.333333  0.456946  1
  Ce  Ce3  1  0.333333  0.666667  0.750186  1
  Ce  Ce4  1  0.666667  0.333333  0.249449  1
  Y  Y5  1  0.333333  0.666667  0.541388  1
  Ir  Ir6  1  0.167675  0.832325  0.374497  1
  Ir  Ir7  1  0.167675  0.335350  0.374497  1
  Ir  Ir8  1  0.664650  0.832325  0.374497  1
  Ir  Ir9  1  0.832407  0.167593  0.625678  1
  Ir  Ir10  1  0.832407  0.664814  0.625678  1
  Ir  Ir11  1  0.335186  0.167593  0.625678  1
  Ir  Ir12  1  0.832243  0.167757  0.874403  1
  Ir  Ir13  1  0.832243  0.664486  0.874403  1
  Ir  Ir14  1  0.335514  0.167757  0.874403  1
  Ir  Ir15  1  0.167942  0.832058  0.125603  1
  Ir  Ir16  1  0.167942  0.335885  0.125603  1
  Ir  Ir17  1  0.664115  0.832058  0.125603  1
  Ir  Ir18  1  0.000000  0.000000  0.500555  1
  Ir  Ir19  1  0.000000  0.000000  0.000164  1
  Rh  Rh20  1  0.333333  0.666667  0.250085  1
  Rh  Rh21  1  0.666667  0.333333  0.749997  1
  Rh  Rh22  1  0.000000  0.000000  0.250226  1
  Rh  Rh23  1  0.000000  0.000000  0.750144  1
