# generated using pymatgen
data_PrPaF8
_symmetry_space_group_name_H-M   'P 1'
_cell_length_a   8.53048309
_cell_length_b   8.53064627
_cell_length_c   8.48241003
_cell_angle_alpha   63.55629050
_cell_angle_beta   63.54005450
_cell_angle_gamma   80.50597183
_symmetry_Int_Tables_number   1
_chemical_formula_structural   PrPaF8
_chemical_formula_sum   'Pr3 Pa3 F24'
_cell_volume   494.35829521
_cell_formula_units_Z   3
loop_
 _symmetry_equiv_pos_site_id
 _symmetry_equiv_pos_as_xyz
  1  'x, y, z'
loop_
 _atom_site_type_symbol
 _atom_site_label
 _atom_site_symmetry_multiplicity
 _atom_site_fract_x
 _atom_site_fract_y
 _atom_site_fract_z
 _atom_site_occupancy
  Pr  Pr0  1  0.369725  0.228964  0.333096  1
  Pr  Pr1  1  0.222618  0.364388  0.838949  1
  Pr  Pr2  1  0.776518  0.626829  0.168736  1
  Pa  Pa3  1  0.630320  0.775838  0.666812  1
  Pa  Pa4  1  0.785754  0.211160  0.753360  1
  Pa  Pa5  1  0.209701  0.784985  0.262828  1
  F  F6  1  0.314420  0.259780  0.607942  1
  F  F7  1  0.685503  0.746955  0.401971  1
  F  F8  1  0.725913  0.684351  0.885479  1
  F  F9  1  0.265126  0.318863  0.103995  1
  F  F10  1  0.821985  0.942010  0.938221  1
  F  F11  1  0.186637  0.042302  0.053243  1
  F  F12  1  0.045036  0.172179  0.559268  1
  F  F13  1  0.930829  0.825341  0.463300  1
  F  F14  1  0.417712  0.606604  0.741887  1
  F  F15  1  0.603912  0.401408  0.245865  1
  F  F16  1  0.506727  0.986431  0.507995  1
  F  F17  1  0.003303  0.516054  0.986207  1
  F  F18  1  0.517748  0.242471  0.787795  1
  F  F19  1  0.486960  0.760135  0.200922  1
  F  F20  1  0.738135  0.499325  0.715490  1
  F  F21  1  0.253928  0.520849  0.283309  1
  F  F22  1  0.408631  0.807340  0.913377  1
  F  F23  1  0.618031  0.180285  0.054032  1
  F  F24  1  0.180243  0.615091  0.558592  1
  F  F25  1  0.813307  0.388885  0.453463  1
  F  F26  1  0.722830  0.020363  0.649424  1
  F  F27  1  0.264900  0.963216  0.353260  1
  F  F28  1  0.962077  0.276832  0.840495  1
  F  F29  1  0.031471  0.730769  0.170690  1
