# generated using pymatgen
data_Tb14Dy2MgIn3Ru4
_symmetry_space_group_name_H-M   'P 1'
_cell_length_a   9.67927184
_cell_length_b   9.68044407
_cell_length_c   9.70471400
_cell_angle_alpha   59.91702394
_cell_angle_beta   59.91300427
_cell_angle_gamma   59.87089198
_symmetry_Int_Tables_number   1
_chemical_formula_structural   Tb14Dy2MgIn3Ru4
_chemical_formula_sum   'Tb14 Dy2 Mg1 In3 Ru4'
_cell_volume   641.53769155
_cell_formula_units_Z   1
loop_
 _symmetry_equiv_pos_site_id
 _symmetry_equiv_pos_as_xyz
  1  'x, y, z'
loop_
 _atom_site_type_symbol
 _atom_site_label
 _atom_site_symmetry_multiplicity
 _atom_site_fract_x
 _atom_site_fract_y
 _atom_site_fract_z
 _atom_site_occupancy
  Tb  Tb0  1  0.599046  0.210681  0.595137  1
  Tb  Tb1  1  0.206305  0.598445  0.597626  1
  Tb  Tb2  1  0.057254  0.441422  0.443536  1
  Tb  Tb3  1  0.438640  0.060435  0.061043  1
  Tb  Tb4  1  0.438640  0.060435  0.439882  1
  Tb  Tb5  1  0.057254  0.441422  0.057788  1
  Tb  Tb6  1  0.440007  0.439027  0.060483  1
  Tb  Tb7  1  0.058093  0.057288  0.442309  1
  Tb  Tb8  1  0.189553  0.809476  0.809488  1
  Tb  Tb9  1  0.809457  0.190335  0.191085  1
  Tb  Tb10  1  0.809457  0.190335  0.809124  1
  Tb  Tb11  1  0.189553  0.809476  0.191483  1
  Tb  Tb12  1  0.809058  0.809703  0.190620  1
  Tb  Tb13  1  0.191088  0.190794  0.809059  1
  Dy  Dy14  1  0.597437  0.596567  0.595659  1
  Dy  Dy15  1  0.597437  0.596567  0.210337  1
  Mg  Mg16  1  0.520494  0.825690  0.826908  1
  In  In17  1  0.830964  0.832377  0.833039  1
  In  In18  1  0.830964  0.832377  0.503618  1
  In  In19  1  0.830774  0.502816  0.833204  1
  Ru  Ru20  1  0.388282  0.390411  0.387824  1
  Ru  Ru21  1  0.388282  0.390411  0.833481  1
  Ru  Ru22  1  0.390911  0.831156  0.388965  1
  Ru  Ru23  1  0.831046  0.392354  0.388300  1
