# generated using pymatgen
data_HoPa3(Ni2Pb)2
_symmetry_space_group_name_H-M   'P 1'
_cell_length_a   7.56770008
_cell_length_b   7.56769995
_cell_length_c   3.54444500
_cell_angle_alpha   90.00000000
_cell_angle_beta   90.00000000
_cell_angle_gamma   91.14569842
_symmetry_Int_Tables_number   1
_chemical_formula_structural   HoPa3(Ni2Pb)2
_chemical_formula_sum   'Ho1 Pa3 Ni4 Pb2'
_cell_volume   202.95007995
_cell_formula_units_Z   1
loop_
 _symmetry_equiv_pos_site_id
 _symmetry_equiv_pos_as_xyz
  1  'x, y, z'
loop_
 _atom_site_type_symbol
 _atom_site_label
 _atom_site_symmetry_multiplicity
 _atom_site_fract_x
 _atom_site_fract_y
 _atom_site_fract_z
 _atom_site_occupancy
  Ho  Ho0  1  0.829423  0.670577  0.500000  1
  Pa  Pa1  1  0.671942  0.171508  0.500000  1
  Pa  Pa2  1  0.328492  0.828058  0.500000  1
  Pa  Pa3  1  0.168860  0.331140  0.500000  1
  Ni  Ni4  1  0.135577  0.616601  0.000000  1
  Ni  Ni5  1  0.883399  0.364423  0.000000  1
  Ni  Ni6  1  0.607906  0.892094  0.000000  1
  Ni  Ni7  1  0.370262  0.129738  0.000000  1
  Pb  Pb8  1  0.508601  0.504461  0.000000  1
  Pb  Pb9  1  0.995539  0.991399  0.000000  1
