# generated using pymatgen
data_Ho12Er8CoBi8Os3
_symmetry_space_group_name_H-M   'P 1'
_cell_length_a   7.90770540
_cell_length_b   8.97270000
_cell_length_c   12.41211623
_cell_angle_alpha   90.00000000
_cell_angle_beta   89.72176335
_cell_angle_gamma   90.00000000
_symmetry_Int_Tables_number   1
_chemical_formula_structural   Ho12Er8CoBi8Os3
_chemical_formula_sum   'Ho12 Er8 Co1 Bi8 Os3'
_cell_volume   880.67231079
_cell_formula_units_Z   1
loop_
 _symmetry_equiv_pos_site_id
 _symmetry_equiv_pos_as_xyz
  1  'x, y, z'
loop_
 _atom_site_type_symbol
 _atom_site_label
 _atom_site_symmetry_multiplicity
 _atom_site_fract_x
 _atom_site_fract_y
 _atom_site_fract_z
 _atom_site_occupancy
  Ho  Ho0  1  0.344547  0.750000  0.701558  1
  Ho  Ho1  1  0.658042  0.250000  0.292072  1
  Ho  Ho2  1  0.842385  0.250000  0.790952  1
  Ho  Ho3  1  0.156258  0.750000  0.206985  1
  Ho  Ho4  1  0.879381  0.750000  0.806004  1
  Ho  Ho5  1  0.119928  0.250000  0.193554  1
  Ho  Ho6  1  0.378545  0.250000  0.692794  1
  Ho  Ho7  1  0.616306  0.750000  0.313009  1
  Ho  Ho8  1  0.056184  0.750000  0.496768  1
  Ho  Ho9  1  0.944759  0.250000  0.503204  1
  Ho  Ho10  1  0.558086  0.250000  0.003662  1
  Ho  Ho11  1  0.442147  0.750000  0.995629  1
  Er  Er12  1  0.674314  0.542410  0.563428  1
  Er  Er13  1  0.326335  0.460244  0.437090  1
  Er  Er14  1  0.173834  0.457722  0.936211  1
  Er  Er15  1  0.326335  0.039756  0.437090  1
  Er  Er16  1  0.825470  0.543351  0.064320  1
  Er  Er17  1  0.674314  0.957590  0.563428  1
  Er  Er18  1  0.825470  0.956649  0.064320  1
  Er  Er19  1  0.173834  0.042278  0.936211  1
  Co  Co20  1  0.429847  0.750000  0.491340  1
  Bi  Bi21  1  0.569854  0.508659  0.827230  1
  Bi  Bi22  1  0.429898  0.492327  0.173043  1
  Bi  Bi23  1  0.071175  0.492043  0.671941  1
  Bi  Bi24  1  0.429898  0.007673  0.173043  1
  Bi  Bi25  1  0.929661  0.508944  0.328407  1
  Bi  Bi26  1  0.569854  0.991341  0.827230  1
  Bi  Bi27  1  0.929661  0.991056  0.328407  1
  Bi  Bi28  1  0.071175  0.007957  0.671941  1
  Os  Os29  1  0.074854  0.750000  0.989313  1
  Os  Os30  1  0.924309  0.250000  0.009978  1
  Os  Os31  1  0.573339  0.250000  0.509839  1
