# generated using pymatgen
data_Gd2AlIr3
_symmetry_space_group_name_H-M   'P 1'
_cell_length_a   5.10108315
_cell_length_b   5.10108251
_cell_length_c   5.10108200
_cell_angle_alpha   66.12866709
_cell_angle_beta   66.12867026
_cell_angle_gamma   66.12866186
_symmetry_Int_Tables_number   1
_chemical_formula_structural   Gd2AlIr3
_chemical_formula_sum   'Gd2 Al1 Ir3'
_cell_volume   106.29137089
_cell_formula_units_Z   1
loop_
 _symmetry_equiv_pos_site_id
 _symmetry_equiv_pos_as_xyz
  1  'x, y, z'
loop_
 _atom_site_type_symbol
 _atom_site_label
 _atom_site_symmetry_multiplicity
 _atom_site_fract_x
 _atom_site_fract_y
 _atom_site_fract_z
 _atom_site_occupancy
  Gd  Gd0  1  0.251073  0.251073  0.251073  1
  Gd  Gd1  1  0.998926  0.998926  0.998926  1
  Al  Al2  1  0.625000  0.625000  0.625000  1
  Ir  Ir3  1  0.625000  0.125002  0.625000  1
  Ir  Ir4  1  0.125002  0.625000  0.625000  1
  Ir  Ir5  1  0.625000  0.625000  0.125002  1
