# generated using pymatgen
data_Y3Hf7(PaPt5)4
_symmetry_space_group_name_H-M   'P 1'
_cell_length_a   8.28279624
_cell_length_b   8.28279566
_cell_length_c   9.81469900
_cell_angle_alpha   89.98613052
_cell_angle_beta   89.98613052
_cell_angle_gamma   107.17169662
_symmetry_Int_Tables_number   1
_chemical_formula_structural   Y3Hf7(PaPt5)4
_chemical_formula_sum   'Y3 Hf7 Pa4 Pt20'
_cell_volume   643.32016813
_cell_formula_units_Z   1
loop_
 _symmetry_equiv_pos_site_id
 _symmetry_equiv_pos_as_xyz
  1  'x, y, z'
loop_
 _atom_site_type_symbol
 _atom_site_label
 _atom_site_symmetry_multiplicity
 _atom_site_fract_x
 _atom_site_fract_y
 _atom_site_fract_z
 _atom_site_occupancy
  Y  Y0  1  0.697788  0.697788  0.802788  1
  Y  Y1  1  0.195068  0.195068  0.695356  1
  Y  Y2  1  0.805282  0.805282  0.304443  1
  Hf  Hf3  1  0.999968  0.999968  0.004685  1
  Hf  Hf4  1  0.497256  0.497256  0.499992  1
  Hf  Hf5  1  0.005188  0.499424  0.251133  1
  Hf  Hf6  1  0.996046  0.495797  0.750493  1
  Hf  Hf7  1  0.495797  0.996046  0.750493  1
  Hf  Hf8  1  0.499424  0.005188  0.251133  1
  Hf  Hf9  1  0.314570  0.314570  0.186235  1
  Pa  Pa10  1  0.690622  0.311315  0.998777  1
  Pa  Pa11  1  0.311315  0.690622  0.998777  1
  Pa  Pa12  1  0.812013  0.188332  0.499836  1
  Pa  Pa13  1  0.188332  0.812013  0.499836  1
  Pt  Pt14  1  0.850593  0.150851  0.208292  1
  Pt  Pt15  1  0.143086  0.849849  0.796443  1
  Pt  Pt16  1  0.641984  0.347631  0.707522  1
  Pt  Pt17  1  0.640888  0.355544  0.292286  1
  Pt  Pt18  1  0.355544  0.640888  0.292286  1
  Pt  Pt19  1  0.347631  0.641984  0.707522  1
  Pt  Pt20  1  0.849849  0.143086  0.796443  1
  Pt  Pt21  1  0.150851  0.850593  0.208292  1
  Pt  Pt22  1  0.940263  0.643365  0.005171  1
  Pt  Pt23  1  0.065255  0.350198  0.002194  1
  Pt  Pt24  1  0.556101  0.850560  0.502996  1
  Pt  Pt25  1  0.144288  0.440456  0.498870  1
  Pt  Pt26  1  0.440456  0.144288  0.498870  1
  Pt  Pt27  1  0.850560  0.556101  0.502996  1
  Pt  Pt28  1  0.350198  0.065255  0.002194  1
  Pt  Pt29  1  0.643365  0.940263  0.005171  1
  Pt  Pt30  1  0.119425  0.119425  0.380294  1
  Pt  Pt31  1  0.902575  0.902575  0.596523  1
  Pt  Pt32  1  0.396552  0.396552  0.898756  1
  Pt  Pt33  1  0.601867  0.601867  0.102905  1
