# generated using pymatgen
data_Tb2Mn3Ni6P7Ir3
_symmetry_space_group_name_H-M   'P 1'
_cell_length_a   9.21551000
_cell_length_b   9.21550933
_cell_length_c   3.81719900
_cell_angle_alpha   90.00000000
_cell_angle_beta   90.00000000
_cell_angle_gamma   120.00000239
_symmetry_Int_Tables_number   1
_chemical_formula_structural   Tb2Mn3Ni6P7Ir3
_chemical_formula_sum   'Tb2 Mn3 Ni6 P7 Ir3'
_cell_volume   280.74636422
_cell_formula_units_Z   1
loop_
 _symmetry_equiv_pos_site_id
 _symmetry_equiv_pos_as_xyz
  1  'x, y, z'
loop_
 _atom_site_type_symbol
 _atom_site_label
 _atom_site_symmetry_multiplicity
 _atom_site_fract_x
 _atom_site_fract_y
 _atom_site_fract_z
 _atom_site_occupancy
  Tb  Tb0  1  0.666667  0.333333  0.000000  1
  Tb  Tb1  1  0.333333  0.666667  0.500000  1
  Mn  Mn2  1  0.081851  0.878412  0.500000  1
  Mn  Mn3  1  0.796561  0.918149  0.500000  1
  Mn  Mn4  1  0.121588  0.203439  0.500000  1
  Ni  Ni5  1  0.062681  0.631438  0.000000  1
  Ni  Ni6  1  0.568757  0.937319  0.000000  1
  Ni  Ni7  1  0.368562  0.431243  0.000000  1
  Ni  Ni8  1  0.274807  0.118195  0.000000  1
  Ni  Ni9  1  0.843388  0.725193  0.000000  1
  Ni  Ni10  1  0.881805  0.156612  0.000000  1
  P  P11  1  0.292952  0.881185  0.000000  1
  P  P12  1  0.588233  0.707048  0.000000  1
  P  P13  1  0.118815  0.411767  0.000000  1
  P  P14  1  0.400028  0.289383  0.500000  1
  P  P15  1  0.889356  0.599972  0.500000  1
  P  P16  1  0.710617  0.110644  0.500000  1
  P  P17  1  0.000000  0.000000  0.000000  1
  Ir  Ir18  1  0.430008  0.044341  0.500000  1
  Ir  Ir19  1  0.614333  0.569992  0.500000  1
  Ir  Ir20  1  0.955659  0.385667  0.500000  1
