# generated using pymatgen
data_Y10RhPb6Au
_symmetry_space_group_name_H-M   'P 1'
_cell_length_a   9.23857300
_cell_length_b   9.23857283
_cell_length_c   6.84319800
_cell_angle_alpha   90.00000000
_cell_angle_beta   90.00000000
_cell_angle_gamma   119.99999704
_symmetry_Int_Tables_number   1
_chemical_formula_structural   Y10RhPb6Au
_chemical_formula_sum   'Y10 Rh1 Pb6 Au1'
_cell_volume   505.82411695
_cell_formula_units_Z   1
loop_
 _symmetry_equiv_pos_site_id
 _symmetry_equiv_pos_as_xyz
  1  'x, y, z'
loop_
 _atom_site_type_symbol
 _atom_site_label
 _atom_site_symmetry_multiplicity
 _atom_site_fract_x
 _atom_site_fract_y
 _atom_site_fract_z
 _atom_site_occupancy
  Y  Y0  1  0.000000  0.751374  0.767206  1
  Y  Y1  1  0.333333  0.666667  0.500000  1
  Y  Y2  1  0.333333  0.666667  0.000000  1
  Y  Y3  1  0.751374  0.751374  0.232794  1
  Y  Y4  1  0.248626  0.248626  0.767206  1
  Y  Y5  1  0.000000  0.248626  0.232794  1
  Y  Y6  1  0.666667  0.333333  0.500000  1
  Y  Y7  1  0.248626  0.000000  0.232794  1
  Y  Y8  1  0.751374  0.000000  0.767206  1
  Y  Y9  1  0.666667  0.333333  0.000000  1
  Rh  Rh10  1  0.000000  0.000000  0.000000  1
  Pb  Pb11  1  0.396968  0.000000  0.748927  1
  Pb  Pb12  1  0.396968  0.396968  0.251073  1
  Pb  Pb13  1  0.603032  0.603032  0.748927  1
  Pb  Pb14  1  0.000000  0.603032  0.251073  1
  Pb  Pb15  1  0.000000  0.396968  0.748927  1
  Pb  Pb16  1  0.603032  0.000000  0.251073  1
  Au  Au17  1  0.000000  0.000000  0.500000  1
