# generated using pymatgen
data_Tm6AgTe2
_symmetry_space_group_name_H-M   'P 1'
_cell_length_a   3.99438000
_cell_length_b   11.47194800
_cell_length_c   21.74665800
_cell_angle_alpha   90.00000000
_cell_angle_beta   90.00000000
_cell_angle_gamma   90.00000000
_symmetry_Int_Tables_number   1
_chemical_formula_structural   Tm6AgTe2
_chemical_formula_sum   'Tm24 Ag4 Te8'
_cell_volume   996.50406090
_cell_formula_units_Z   4
loop_
 _symmetry_equiv_pos_site_id
 _symmetry_equiv_pos_as_xyz
  1  'x, y, z'
loop_
 _atom_site_type_symbol
 _atom_site_label
 _atom_site_symmetry_multiplicity
 _atom_site_fract_x
 _atom_site_fract_y
 _atom_site_fract_z
 _atom_site_occupancy
  Tm  Tm0  1  0.250000  0.388388  0.988652  1
  Tm  Tm1  1  0.750000  0.611612  0.011348  1
  Tm  Tm2  1  0.750000  0.888388  0.511348  1
  Tm  Tm3  1  0.250000  0.111612  0.488652  1
  Tm  Tm4  1  0.250000  0.930027  0.641810  1
  Tm  Tm5  1  0.750000  0.069973  0.358190  1
  Tm  Tm6  1  0.750000  0.430027  0.858190  1
  Tm  Tm7  1  0.250000  0.569973  0.141810  1
  Tm  Tm8  1  0.250000  0.879372  0.028607  1
  Tm  Tm9  1  0.750000  0.120628  0.971393  1
  Tm  Tm10  1  0.750000  0.379372  0.471393  1
  Tm  Tm11  1  0.250000  0.620628  0.528607  1
  Tm  Tm12  1  0.250000  0.824501  0.391594  1
  Tm  Tm13  1  0.750000  0.175499  0.608406  1
  Tm  Tm14  1  0.750000  0.324501  0.108406  1
  Tm  Tm15  1  0.250000  0.675499  0.891594  1
  Tm  Tm16  1  0.250000  0.534947  0.340237  1
  Tm  Tm17  1  0.750000  0.465053  0.659763  1
  Tm  Tm18  1  0.750000  0.034947  0.159763  1
  Tm  Tm19  1  0.250000  0.965053  0.840237  1
  Tm  Tm20  1  0.250000  0.249278  0.232730  1
  Tm  Tm21  1  0.750000  0.750722  0.767270  1
  Tm  Tm22  1  0.750000  0.749278  0.267270  1
  Tm  Tm23  1  0.250000  0.250722  0.732730  1
  Ag  Ag24  1  0.250000  0.139133  0.075468  1
  Ag  Ag25  1  0.750000  0.860867  0.924532  1
  Ag  Ag26  1  0.750000  0.639133  0.424532  1
  Ag  Ag27  1  0.250000  0.360867  0.575468  1
  Te  Te28  1  0.250000  0.224999  0.872921  1
  Te  Te29  1  0.750000  0.775001  0.127079  1
  Te  Te30  1  0.750000  0.724999  0.627079  1
  Te  Te31  1  0.250000  0.275001  0.372921  1
  Te  Te32  1  0.250000  0.535089  0.763526  1
  Te  Te33  1  0.750000  0.464911  0.236474  1
  Te  Te34  1  0.750000  0.035089  0.736474  1
  Te  Te35  1  0.250000  0.964911  0.263526  1
