# generated using pymatgen
data_Tb6ErMoO12
_symmetry_space_group_name_H-M   'P 1'
_cell_length_a   6.69882172
_cell_length_b   6.69882097
_cell_length_c   6.69882200
_cell_angle_alpha   92.56083376
_cell_angle_beta   92.56081635
_cell_angle_gamma   92.56082173
_symmetry_Int_Tables_number   1
_chemical_formula_structural   Tb6ErMoO12
_chemical_formula_sum   'Tb6 Er1 Mo1 O12'
_cell_volume   299.67593890
_cell_formula_units_Z   1
loop_
 _symmetry_equiv_pos_site_id
 _symmetry_equiv_pos_as_xyz
  1  'x, y, z'
loop_
 _atom_site_type_symbol
 _atom_site_label
 _atom_site_symmetry_multiplicity
 _atom_site_fract_x
 _atom_site_fract_y
 _atom_site_fract_z
 _atom_site_occupancy
  Tb  Tb0  1  0.743772  0.929297  0.438692  1
  Tb  Tb1  1  0.929297  0.438692  0.743772  1
  Tb  Tb2  1  0.438692  0.743772  0.929297  1
  Tb  Tb3  1  0.256228  0.070703  0.561308  1
  Tb  Tb4  1  0.070703  0.561308  0.256228  1
  Tb  Tb5  1  0.561308  0.256228  0.070703  1
  Er  Er6  1  0.000000  0.000000  0.000000  1
  Mo  Mo7  1  0.500000  0.500000  0.500000  1
  O  O8  1  0.594817  0.465201  0.809166  1
  O  O9  1  0.465201  0.809166  0.594817  1
  O  O10  1  0.809166  0.594817  0.465201  1
  O  O11  1  0.405183  0.534799  0.190834  1
  O  O12  1  0.534799  0.190834  0.405183  1
  O  O13  1  0.190834  0.405183  0.534799  1
  O  O14  1  0.068449  0.907981  0.314955  1
  O  O15  1  0.907981  0.314955  0.068449  1
  O  O16  1  0.685045  0.931551  0.092019  1
  O  O17  1  0.092019  0.685045  0.931551  1
  O  O18  1  0.931551  0.092019  0.685045  1
  O  O19  1  0.314955  0.068449  0.907981  1
