# generated using pymatgen
data_Ho5Pt2Rh
_symmetry_space_group_name_H-M   'P 1'
_cell_length_a   11.02174600
_cell_length_b   11.02174600
_cell_length_c   6.31335000
_cell_angle_alpha   90.00000000
_cell_angle_beta   90.00000000
_cell_angle_gamma   90.00000000
_symmetry_Int_Tables_number   1
_chemical_formula_structural   Ho5Pt2Rh
_chemical_formula_sum   'Ho20 Pt8 Rh4'
_cell_volume   766.93871791
_cell_formula_units_Z   4
loop_
 _symmetry_equiv_pos_site_id
 _symmetry_equiv_pos_as_xyz
  1  'x, y, z'
loop_
 _atom_site_type_symbol
 _atom_site_label
 _atom_site_symmetry_multiplicity
 _atom_site_fract_x
 _atom_site_fract_y
 _atom_site_fract_z
 _atom_site_occupancy
  Ho  Ho0  1  0.293792  0.088102  0.374686  1
  Ho  Ho1  1  0.293792  0.911898  0.874686  1
  Ho  Ho2  1  0.706208  0.088102  0.874686  1
  Ho  Ho3  1  0.706208  0.911898  0.374686  1
  Ho  Ho4  1  0.588102  0.793792  0.874686  1
  Ho  Ho5  1  0.588102  0.206208  0.374686  1
  Ho  Ho6  1  0.411898  0.793792  0.374686  1
  Ho  Ho7  1  0.411898  0.206208  0.874686  1
  Ho  Ho8  1  0.206208  0.411898  0.625314  1
  Ho  Ho9  1  0.206208  0.588102  0.125314  1
  Ho  Ho10  1  0.793792  0.411898  0.125314  1
  Ho  Ho11  1  0.793792  0.588102  0.625314  1
  Ho  Ho12  1  0.911898  0.706208  0.125314  1
  Ho  Ho13  1  0.911898  0.293792  0.625314  1
  Ho  Ho14  1  0.088102  0.706208  0.625314  1
  Ho  Ho15  1  0.088102  0.293792  0.125314  1
  Ho  Ho16  1  0.000000  0.000000  0.500000  1
  Ho  Ho17  1  0.000000  0.000000  0.000000  1
  Ho  Ho18  1  0.500000  0.500000  0.000000  1
  Ho  Ho19  1  0.500000  0.500000  0.500000  1
  Pt  Pt20  1  0.845771  0.154229  0.250000  1
  Pt  Pt21  1  0.845771  0.845771  0.750000  1
  Pt  Pt22  1  0.154229  0.154229  0.750000  1
  Pt  Pt23  1  0.154229  0.845771  0.250000  1
  Pt  Pt24  1  0.654229  0.345771  0.750000  1
  Pt  Pt25  1  0.654229  0.654229  0.250000  1
  Pt  Pt26  1  0.345771  0.345771  0.250000  1
  Pt  Pt27  1  0.345771  0.654229  0.750000  1
  Rh  Rh28  1  0.500000  0.000000  0.120545  1
  Rh  Rh29  1  0.500000  0.000000  0.620545  1
  Rh  Rh30  1  0.000000  0.500000  0.879455  1
  Rh  Rh31  1  0.000000  0.500000  0.379455  1
