# generated using pymatgen
data_Y3Pu3Ni20As6P7
_symmetry_space_group_name_H-M   'P 1'
_cell_length_a   12.85586700
_cell_length_b   12.85586776
_cell_length_c   3.82140700
_cell_angle_alpha   90.00000000
_cell_angle_beta   90.00000000
_cell_angle_gamma   120.00000061
_symmetry_Int_Tables_number   1
_chemical_formula_structural   Y3Pu3Ni20As6P7
_chemical_formula_sum   'Y3 Pu3 Ni20 As6 P7'
_cell_volume   546.96141588
_cell_formula_units_Z   1
loop_
 _symmetry_equiv_pos_site_id
 _symmetry_equiv_pos_as_xyz
  1  'x, y, z'
loop_
 _atom_site_type_symbol
 _atom_site_label
 _atom_site_symmetry_multiplicity
 _atom_site_fract_x
 _atom_site_fract_y
 _atom_site_fract_z
 _atom_site_occupancy
  Y  Y0  1  0.526554  0.807754  0.500000  1
  Y  Y1  1  0.281202  0.473446  0.500000  1
  Y  Y2  1  0.192246  0.718798  0.500000  1
  Pu  Pu3  1  0.477040  0.192664  0.000000  1
  Pu  Pu4  1  0.715623  0.522960  0.000000  1
  Pu  Pu5  1  0.807336  0.284377  0.000000  1
  Ni  Ni6  1  0.333333  0.666667  0.000000  1
  Ni  Ni7  1  0.666667  0.333333  0.500000  1
  Ni  Ni8  1  0.192090  0.084767  0.000000  1
  Ni  Ni9  1  0.892677  0.807910  0.000000  1
  Ni  Ni10  1  0.915233  0.107323  0.000000  1
  Ni  Ni11  1  0.859889  0.936987  0.500000  1
  Ni  Ni12  1  0.077097  0.140111  0.500000  1
  Ni  Ni13  1  0.063013  0.922903  0.500000  1
  Ni  Ni14  1  0.443720  0.421776  0.000000  1
  Ni  Ni15  1  0.978055  0.556280  0.000000  1
  Ni  Ni16  1  0.578224  0.021945  0.000000  1
  Ni  Ni17  1  0.553211  0.580698  0.500000  1
  Ni  Ni18  1  0.027487  0.446789  0.500000  1
  Ni  Ni19  1  0.419302  0.972513  0.500000  1
  Ni  Ni20  1  0.076046  0.329991  0.000000  1
  Ni  Ni21  1  0.253944  0.923954  0.000000  1
  Ni  Ni22  1  0.670009  0.746056  0.000000  1
  Ni  Ni23  1  0.930825  0.678670  0.500000  1
  Ni  Ni24  1  0.747844  0.069175  0.500000  1
  Ni  Ni25  1  0.321330  0.252156  0.500000  1
  As  As26  1  0.230588  0.282055  0.000000  1
  As  As27  1  0.051467  0.769412  0.000000  1
  As  As28  1  0.717945  0.948533  0.000000  1
  As  As29  1  0.765734  0.718048  0.500000  1
  As  As30  1  0.952313  0.234266  0.500000  1
  As  As31  1  0.281952  0.047687  0.500000  1
  P  P32  1  0.473240  0.612240  0.000000  1
  P  P33  1  0.139001  0.526760  0.000000  1
  P  P34  1  0.387760  0.860999  0.000000  1
  P  P35  1  0.521284  0.386662  0.500000  1
  P  P36  1  0.865378  0.478716  0.500000  1
  P  P37  1  0.613338  0.134622  0.500000  1
  P  P38  1  0.000000  0.000000  0.000000  1
