# generated using pymatgen
data_LaRe2SiC
_symmetry_space_group_name_H-M   'P 1'
_cell_length_a   5.86710346
_cell_length_b   5.86710331
_cell_length_c   7.42454400
_cell_angle_alpha   90.00000000
_cell_angle_beta   90.00000000
_cell_angle_gamma   139.48478646
_symmetry_Int_Tables_number   1
_chemical_formula_structural   LaRe2SiC
_chemical_formula_sum   'La2 Re4 Si2 C2'
_cell_volume   166.03386037
_cell_formula_units_Z   2
loop_
 _symmetry_equiv_pos_site_id
 _symmetry_equiv_pos_as_xyz
  1  'x, y, z'
loop_
 _atom_site_type_symbol
 _atom_site_label
 _atom_site_symmetry_multiplicity
 _atom_site_fract_x
 _atom_site_fract_y
 _atom_site_fract_z
 _atom_site_occupancy
  La  La0  1  0.543021  0.456979  0.250000  1
  La  La1  1  0.456979  0.543021  0.750000  1
  Re  Re2  1  0.825620  0.174380  0.061382  1
  Re  Re3  1  0.174380  0.825620  0.938618  1
  Re  Re4  1  0.174380  0.825620  0.561382  1
  Re  Re5  1  0.825620  0.174380  0.438618  1
  Si  Si6  1  0.264902  0.735098  0.250000  1
  Si  Si7  1  0.735098  0.264902  0.750000  1
  C  C8  1  0.000000  0.000000  0.000000  1
  C  C9  1  0.000000  0.000000  0.500000  1
