# generated using pymatgen
data_Y3HoGa18(Ir2Pt)2
_symmetry_space_group_name_H-M   'P 1'
_cell_length_a   7.62768740
_cell_length_b   7.62770514
_cell_length_c   9.48376800
_cell_angle_alpha   90.00000000
_cell_angle_beta   90.00000000
_cell_angle_gamma   119.91884496
_symmetry_Int_Tables_number   1
_chemical_formula_structural   Y3HoGa18(Ir2Pt)2
_chemical_formula_sum   'Y3 Ho1 Ga18 Ir4 Pt2'
_cell_volume   478.24772110
_cell_formula_units_Z   1
loop_
 _symmetry_equiv_pos_site_id
 _symmetry_equiv_pos_as_xyz
  1  'x, y, z'
loop_
 _atom_site_type_symbol
 _atom_site_label
 _atom_site_symmetry_multiplicity
 _atom_site_fract_x
 _atom_site_fract_y
 _atom_site_fract_z
 _atom_site_occupancy
  Y  Y0  1  0.996576  0.669826  0.250000  1
  Y  Y1  1  0.003404  0.330178  0.750000  1
  Y  Y2  1  0.669759  0.996559  0.250000  1
  Ho  Ho3  1  0.330235  0.003370  0.750000  1
  Ga  Ga4  1  0.132021  0.131975  0.250000  1
  Ga  Ga5  1  0.868363  0.868045  0.750000  1
  Ga  Ga6  1  0.998440  0.337719  0.081316  1
  Ga  Ga7  1  0.001942  0.662693  0.918384  1
  Ga  Ga8  1  0.001942  0.662693  0.581616  1
  Ga  Ga9  1  0.337699  0.998472  0.418955  1
  Ga  Ga10  1  0.998440  0.337719  0.418684  1
  Ga  Ga11  1  0.661886  0.001558  0.581643  1
  Ga  Ga12  1  0.661886  0.001558  0.918357  1
  Ga  Ga13  1  0.337699  0.998472  0.081045  1
  Ga  Ga14  1  0.335713  0.335347  0.568375  1
  Ga  Ga15  1  0.664267  0.664266  0.431957  1
  Ga  Ga16  1  0.664267  0.664266  0.068043  1
  Ga  Ga17  1  0.335713  0.335347  0.931625  1
  Ga  Ga18  1  0.337143  0.546568  0.250000  1
  Ga  Ga19  1  0.662477  0.453036  0.750000  1
  Ga  Ga20  1  0.546552  0.337110  0.250000  1
  Ga  Ga21  1  0.453460  0.663149  0.750000  1
  Ir  Ir22  1  0.671013  0.328771  0.999864  1
  Ir  Ir23  1  0.328896  0.671242  0.999862  1
  Ir  Ir24  1  0.328896  0.671242  0.500138  1
  Ir  Ir25  1  0.671013  0.328771  0.500136  1
  Pt  Pt26  1  0.000150  0.000024  0.999873  1
  Pt  Pt27  1  0.000150  0.000024  0.500127  1
