# generated using pymatgen
data_DyLu15(ScSb3)4
_symmetry_space_group_name_H-M   'P 1'
_cell_length_a   7.85613206
_cell_length_b   9.08113500
_cell_length_c   11.54785608
_cell_angle_alpha   90.00000000
_cell_angle_beta   90.01374923
_cell_angle_gamma   90.00000000
_symmetry_Int_Tables_number   1
_chemical_formula_structural   DyLu15(ScSb3)4
_chemical_formula_sum   'Dy1 Lu15 Sc4 Sb12'
_cell_volume   823.85400498
_cell_formula_units_Z   1
loop_
 _symmetry_equiv_pos_site_id
 _symmetry_equiv_pos_as_xyz
  1  'x, y, z'
loop_
 _atom_site_type_symbol
 _atom_site_label
 _atom_site_symmetry_multiplicity
 _atom_site_fract_x
 _atom_site_fract_y
 _atom_site_fract_z
 _atom_site_occupancy
  Dy  Dy0  1  0.184609  0.750000  0.721143  1
  Lu  Lu1  1  0.196801  0.562646  0.439601  1
  Lu  Lu2  1  0.696984  0.937429  0.060254  1
  Lu  Lu3  1  0.803409  0.062554  0.560191  1
  Lu  Lu4  1  0.303081  0.437300  0.940013  1
  Lu  Lu5  1  0.803409  0.437446  0.560191  1
  Lu  Lu6  1  0.303081  0.062700  0.940013  1
  Lu  Lu7  1  0.196801  0.937354  0.439601  1
  Lu  Lu8  1  0.696984  0.562571  0.060254  1
  Lu  Lu9  1  0.685070  0.750000  0.779532  1
  Lu  Lu10  1  0.814801  0.250000  0.279601  1
  Lu  Lu11  1  0.314708  0.250000  0.220410  1
  Lu  Lu12  1  0.855536  0.750000  0.284606  1
  Lu  Lu13  1  0.355667  0.750000  0.215328  1
  Lu  Lu14  1  0.144476  0.250000  0.715356  1
  Lu  Lu15  1  0.644432  0.250000  0.784773  1
  Sc  Sc16  1  0.027607  0.750000  0.988990  1
  Sc  Sc17  1  0.528240  0.750000  0.510981  1
  Sc  Sc18  1  0.971693  0.250000  0.011432  1
  Sc  Sc19  1  0.472169  0.250000  0.488633  1
  Sb  Sb20  1  0.932213  0.495747  0.830859  1
  Sb  Sb21  1  0.434151  0.004659  0.669252  1
  Sb  Sb22  1  0.067113  0.996576  0.169416  1
  Sb  Sb23  1  0.566979  0.503467  0.330365  1
  Sb  Sb24  1  0.067113  0.503424  0.169416  1
  Sb  Sb25  1  0.566979  0.996533  0.330365  1
  Sb  Sb26  1  0.932213  0.004253  0.830859  1
  Sb  Sb27  1  0.434151  0.495341  0.669252  1
  Sb  Sb28  1  0.905572  0.750000  0.540030  1
  Sb  Sb29  1  0.407763  0.750000  0.959365  1
  Sb  Sb30  1  0.093131  0.250000  0.458778  1
  Sb  Sb31  1  0.593065  0.250000  0.041136  1
