# generated using pymatgen
data_Nb4Ni2N
_symmetry_space_group_name_H-M   'P 1'
_cell_length_a   8.25394967
_cell_length_b   8.25395082
_cell_length_c   8.25395100
_cell_angle_alpha   60.00000328
_cell_angle_beta   59.99999868
_cell_angle_gamma   60.00000372
_symmetry_Int_Tables_number   1
_chemical_formula_structural   Nb4Ni2N
_chemical_formula_sum   'Nb16 Ni8 N4'
_cell_volume   397.62217828
_cell_formula_units_Z   4
loop_
 _symmetry_equiv_pos_site_id
 _symmetry_equiv_pos_as_xyz
  1  'x, y, z'
loop_
 _atom_site_type_symbol
 _atom_site_label
 _atom_site_symmetry_multiplicity
 _atom_site_fract_x
 _atom_site_fract_y
 _atom_site_fract_z
 _atom_site_occupancy
  Nb  Nb0  1  0.125000  0.625000  0.625000  1
  Nb  Nb1  1  0.625000  0.125000  0.625000  1
  Nb  Nb2  1  0.625000  0.625000  0.125000  1
  Nb  Nb3  1  0.625000  0.625000  0.625000  1
  Nb  Nb4  1  0.817881  0.817881  0.182119  1
  Nb  Nb5  1  0.182119  0.182119  0.817881  1
  Nb  Nb6  1  0.817881  0.182119  0.817881  1
  Nb  Nb7  1  0.182119  0.817881  0.182119  1
  Nb  Nb8  1  0.182119  0.817881  0.817881  1
  Nb  Nb9  1  0.817881  0.182119  0.182119  1
  Nb  Nb10  1  0.432119  0.432119  0.067881  1
  Nb  Nb11  1  0.067881  0.067881  0.432119  1
  Nb  Nb12  1  0.432119  0.067881  0.432119  1
  Nb  Nb13  1  0.067881  0.432119  0.067881  1
  Nb  Nb14  1  0.067881  0.432119  0.432119  1
  Nb  Nb15  1  0.432119  0.067881  0.067881  1
  Ni  Ni16  1  0.739717  0.420095  0.420095  1
  Ni  Ni17  1  0.420095  0.739717  0.420095  1
  Ni  Ni18  1  0.420095  0.420095  0.739717  1
  Ni  Ni19  1  0.420095  0.420095  0.420095  1
  Ni  Ni20  1  0.510283  0.829905  0.829905  1
  Ni  Ni21  1  0.829905  0.510283  0.829905  1
  Ni  Ni22  1  0.829905  0.829905  0.510283  1
  Ni  Ni23  1  0.829905  0.829905  0.829905  1
  N  N24  1  0.625000  0.125000  0.125000  1
  N  N25  1  0.125000  0.625000  0.125000  1
  N  N26  1  0.125000  0.125000  0.625000  1
  N  N27  1  0.125000  0.125000  0.125000  1
