# generated using pymatgen
data_Pr3NdTe4
_symmetry_space_group_name_H-M   'P 1'
_cell_length_a   9.05597584
_cell_length_b   9.05597571
_cell_length_c   9.08765200
_cell_angle_alpha   59.88421768
_cell_angle_beta   59.88421816
_cell_angle_gamma   59.72715481
_symmetry_Int_Tables_number   1
_chemical_formula_structural   Pr3NdTe4
_chemical_formula_sum   'Pr6 Nd2 Te8'
_cell_volume   524.98214638
_cell_formula_units_Z   2
loop_
 _symmetry_equiv_pos_site_id
 _symmetry_equiv_pos_as_xyz
  1  'x, y, z'
loop_
 _atom_site_type_symbol
 _atom_site_label
 _atom_site_symmetry_multiplicity
 _atom_site_fract_x
 _atom_site_fract_y
 _atom_site_fract_z
 _atom_site_occupancy
  Pr  Pr0  1  0.125000  0.625000  0.125000  1
  Pr  Pr1  1  0.625000  0.125000  0.125000  1
  Pr  Pr2  1  0.625000  0.125000  0.625000  1
  Pr  Pr3  1  0.625000  0.625000  0.625000  1
  Pr  Pr4  1  0.125000  0.625000  0.625000  1
  Pr  Pr5  1  0.625000  0.625000  0.125000  1
  Nd  Nd6  1  0.125000  0.125000  0.625000  1
  Nd  Nd7  1  0.125000  0.125000  0.125000  1
  Te  Te8  1  0.373333  0.876799  0.374934  1
  Te  Te9  1  0.876667  0.373201  0.875066  1
  Te  Te10  1  0.875848  0.875848  0.374287  1
  Te  Te11  1  0.875848  0.875848  0.874018  1
  Te  Te12  1  0.876799  0.373333  0.374934  1
  Te  Te13  1  0.374152  0.374152  0.875713  1
  Te  Te14  1  0.374152  0.374152  0.375982  1
  Te  Te15  1  0.373201  0.876667  0.875066  1
