# generated using pymatgen
data_KFeCo(Sb6Os)2
_symmetry_space_group_name_H-M   'P 1'
_cell_length_a   8.11679661
_cell_length_b   8.07908778
_cell_length_c   8.13715583
_cell_angle_alpha   109.47020033
_cell_angle_beta   109.59715544
_cell_angle_gamma   109.47592988
_symmetry_Int_Tables_number   1
_chemical_formula_structural   KFeCo(Sb6Os)2
_chemical_formula_sum   'K1 Fe1 Co1 Sb12 Os2'
_cell_volume   410.11015031
_cell_formula_units_Z   1
loop_
 _symmetry_equiv_pos_site_id
 _symmetry_equiv_pos_as_xyz
  1  'x, y, z'
loop_
 _atom_site_type_symbol
 _atom_site_label
 _atom_site_symmetry_multiplicity
 _atom_site_fract_x
 _atom_site_fract_y
 _atom_site_fract_z
 _atom_site_occupancy
  K  K0  1  0.000000  0.000000  0.000000  1
  Fe  Fe1  1  0.500000  0.000000  0.000000  1
  Co  Co2  1  0.000000  0.000000  0.500000  1
  Sb  Sb3  1  0.845395  0.666845  0.502404  1
  Sb  Sb4  1  0.154605  0.333155  0.497596  1
  Sb  Sb5  1  0.161152  0.662358  0.817512  1
  Sb  Sb6  1  0.838848  0.337642  0.182488  1
  Sb  Sb7  1  0.659375  0.502387  0.843228  1
  Sb  Sb8  1  0.340625  0.497613  0.156772  1
  Sb  Sb9  1  0.665505  0.823337  0.162701  1
  Sb  Sb10  1  0.334495  0.176663  0.837299  1
  Sb  Sb11  1  0.500268  0.844233  0.661931  1
  Sb  Sb12  1  0.499732  0.155767  0.338069  1
  Sb  Sb13  1  0.178477  0.845279  0.343396  1
  Sb  Sb14  1  0.821523  0.154721  0.656604  1
  Os  Os15  1  0.500000  0.500000  0.500000  1
  Os  Os16  1  0.000000  0.500000  0.000000  1
