# generated using pymatgen
data_LiU2F12
_symmetry_space_group_name_H-M   'P 1'
_cell_length_a   5.55027202
_cell_length_b   5.92947519
_cell_length_c   7.95820600
_cell_angle_alpha   95.22122393
_cell_angle_beta   90.68098687
_cell_angle_gamma   90.01492238
_symmetry_Int_Tables_number   1
_chemical_formula_structural   LiU2F12
_chemical_formula_sum   'Li1 U2 F12'
_cell_volume   260.80078228
_cell_formula_units_Z   1
loop_
 _symmetry_equiv_pos_site_id
 _symmetry_equiv_pos_as_xyz
  1  'x, y, z'
loop_
 _atom_site_type_symbol
 _atom_site_label
 _atom_site_symmetry_multiplicity
 _atom_site_fract_x
 _atom_site_fract_y
 _atom_site_fract_z
 _atom_site_occupancy
  Li  Li0  1  0.500000  0.500000  0.000000  1
  U  U1  1  0.000000  0.000000  0.000000  1
  U  U2  1  0.500000  0.500000  0.500000  1
  F  F3  1  0.661819  0.800991  0.569434  1
  F  F4  1  0.203984  0.294358  0.054378  1
  F  F5  1  0.118546  0.989942  0.761089  1
  F  F6  1  0.612655  0.505879  0.248921  1
  F  F7  1  0.196399  0.662238  0.434432  1
  F  F8  1  0.705462  0.200695  0.945146  1
  F  F9  1  0.881454  0.010058  0.238911  1
  F  F10  1  0.387345  0.494121  0.751079  1
  F  F11  1  0.803601  0.337762  0.565568  1
  F  F12  1  0.294538  0.799305  0.054854  1
  F  F13  1  0.338181  0.199009  0.430566  1
  F  F14  1  0.796016  0.705642  0.945622  1
