# generated using pymatgen
data_Nb8SiB4AsW2
_symmetry_space_group_name_H-M   'P 1'
_cell_length_a   7.32146270
_cell_length_b   7.32146291
_cell_length_c   7.32146315
_cell_angle_alpha   129.74663274
_cell_angle_beta   129.74663353
_cell_angle_gamma   73.81214651
_symmetry_Int_Tables_number   1
_chemical_formula_structural   Nb8SiB4AsW2
_chemical_formula_sum   'Nb8 Si1 B4 As1 W2'
_cell_volume   226.32939229
_cell_formula_units_Z   1
loop_
 _symmetry_equiv_pos_site_id
 _symmetry_equiv_pos_as_xyz
  1  'x, y, z'
loop_
 _atom_site_type_symbol
 _atom_site_label
 _atom_site_symmetry_multiplicity
 _atom_site_fract_x
 _atom_site_fract_y
 _atom_site_fract_z
 _atom_site_occupancy
  Nb  Nb0  1  0.803943  0.307205  0.835726  1
  Nb  Nb1  1  0.192795  0.696057  0.164274  1
  Nb  Nb2  1  0.471479  0.968216  0.164274  1
  Nb  Nb3  1  0.307205  0.471479  0.503262  1
  Nb  Nb4  1  0.028521  0.192795  0.496738  1
  Nb  Nb5  1  0.531784  0.028521  0.835726  1
  Nb  Nb6  1  0.696057  0.531784  0.503262  1
  Nb  Nb7  1  0.968216  0.803943  0.496738  1
  Si  Si8  1  0.750000  0.750000  0.000000  1
  B  B9  1  0.117687  0.617687  0.735374  1
  B  B10  1  0.882313  0.382313  0.264626  1
  B  B11  1  0.617687  0.882313  0.500000  1
  B  B12  1  0.382313  0.117687  0.500000  1
  As  As13  1  0.250000  0.250000  0.000000  1
  W  W14  1  0.998644  0.998644  0.000000  1
  W  W15  1  0.501356  0.501356  0.000000  1
