# generated using pymatgen
data_Eu2Al2SiGePt2
_symmetry_space_group_name_H-M   'P 1'
_cell_length_a   9.44125920
_cell_length_b   9.44126001
_cell_length_c   4.09257600
_cell_angle_alpha   90.00000000
_cell_angle_beta   90.00000000
_cell_angle_gamma   152.94333572
_symmetry_Int_Tables_number   1
_chemical_formula_structural   Eu2Al2SiGePt2
_chemical_formula_sum   'Eu2 Al2 Si1 Ge1 Pt2'
_cell_volume   165.93779865
_cell_formula_units_Z   1
loop_
 _symmetry_equiv_pos_site_id
 _symmetry_equiv_pos_as_xyz
  1  'x, y, z'
loop_
 _atom_site_type_symbol
 _atom_site_label
 _atom_site_symmetry_multiplicity
 _atom_site_fract_x
 _atom_site_fract_y
 _atom_site_fract_z
 _atom_site_occupancy
  Eu  Eu0  1  0.599160  0.400840  0.250000  1
  Eu  Eu1  1  0.401075  0.598925  0.750000  1
  Al  Al2  1  0.253048  0.746952  0.250000  1
  Al  Al3  1  0.745437  0.254563  0.750000  1
  Si  Si4  1  0.040594  0.959406  0.750000  1
  Ge  Ge5  1  0.963516  0.036484  0.250000  1
  Pt  Pt6  1  0.825389  0.174611  0.250000  1
  Pt  Pt7  1  0.171782  0.828218  0.750000  1
