# generated using pymatgen
data_RhF10
_symmetry_space_group_name_H-M   'P 1'
_cell_length_a   10.54929775
_cell_length_b   5.16209900
_cell_length_c   6.93686036
_cell_angle_alpha   89.65922118
_cell_angle_beta   90.10544260
_cell_angle_gamma   90.10193675
_symmetry_Int_Tables_number   1
_chemical_formula_structural   RhF10
_chemical_formula_sum   'Rh2 F20'
_cell_volume   377.74935831
_cell_formula_units_Z   2
loop_
 _symmetry_equiv_pos_site_id
 _symmetry_equiv_pos_as_xyz
  1  'x, y, z'
loop_
 _atom_site_type_symbol
 _atom_site_label
 _atom_site_symmetry_multiplicity
 _atom_site_fract_x
 _atom_site_fract_y
 _atom_site_fract_z
 _atom_site_occupancy
  Rh  Rh0  1  0.500000  0.500000  0.000000  1
  Rh  Rh1  1  0.000000  0.500000  0.500000  1
  F  F2  1  0.856142  0.781223  0.975777  1
  F  F3  1  0.358052  0.219129  0.523684  1
  F  F4  1  0.143858  0.218777  0.024223  1
  F  F5  1  0.641948  0.780871  0.476316  1
  F  F6  1  0.852785  0.004547  0.095483  1
  F  F7  1  0.353137  0.996199  0.403623  1
  F  F8  1  0.147215  0.995453  0.904517  1
  F  F9  1  0.646863  0.003801  0.596377  1
  F  F10  1  0.072052  0.641507  0.276705  1
  F  F11  1  0.572985  0.361396  0.223846  1
  F  F12  1  0.927948  0.358493  0.723295  1
  F  F13  1  0.427015  0.638604  0.776154  1
  F  F14  1  0.862499  0.378006  0.355481  1
  F  F15  1  0.362281  0.619734  0.144009  1
  F  F16  1  0.137501  0.621994  0.644519  1
  F  F17  1  0.637719  0.380266  0.855991  1
  F  F18  1  0.087024  0.191177  0.455595  1
  F  F19  1  0.587026  0.809584  0.043888  1
  F  F20  1  0.412974  0.190416  0.956112  1
  F  F21  1  0.912976  0.808823  0.544405  1
