# generated using pymatgen
data_Cr2FeSb12Pt
_symmetry_space_group_name_H-M   'P 1'
_cell_length_a   8.11593659
_cell_length_b   8.14032049
_cell_length_c   9.44548659
_cell_angle_alpha   55.14742662
_cell_angle_beta   54.97013937
_cell_angle_gamma   70.71424952
_symmetry_Int_Tables_number   1
_chemical_formula_structural   Cr2FeSb12Pt
_chemical_formula_sum   'Cr2 Fe1 Sb12 Pt1'
_cell_volume   419.32700023
_cell_formula_units_Z   1
loop_
 _symmetry_equiv_pos_site_id
 _symmetry_equiv_pos_as_xyz
  1  'x, y, z'
loop_
 _atom_site_type_symbol
 _atom_site_label
 _atom_site_symmetry_multiplicity
 _atom_site_fract_x
 _atom_site_fract_y
 _atom_site_fract_z
 _atom_site_occupancy
  Cr  Cr0  1  0.000000  0.500000  0.000000  1
  Cr  Cr1  1  0.500000  0.000000  0.000000  1
  Fe  Fe2  1  0.000000  0.500000  0.500000  1
  Sb  Sb3  1  0.676664  0.655253  0.488160  1
  Sb  Sb4  1  0.323336  0.344747  0.511840  1
  Sb  Sb5  1  0.652637  0.653294  0.192726  1
  Sb  Sb6  1  0.347363  0.346706  0.807274  1
  Sb  Sb7  1  0.150170  0.847461  0.655024  1
  Sb  Sb8  1  0.849830  0.152539  0.344976  1
  Sb  Sb9  1  0.853274  0.166940  0.654778  1
  Sb  Sb10  1  0.146726  0.833060  0.345222  1
  Sb  Sb11  1  0.822427  0.491849  0.831192  1
  Sb  Sb12  1  0.177573  0.508151  0.168808  1
  Sb  Sb13  1  0.502769  0.194254  0.152183  1
  Sb  Sb14  1  0.497231  0.805746  0.847817  1
  Pt  Pt15  1  0.500000  0.000000  0.500000  1
