# generated using pymatgen
data_Rb2BaNp2O7
_symmetry_space_group_name_H-M   'P 1'
_cell_length_a   4.28545229
_cell_length_b   4.28545251
_cell_length_c   12.21163600
_cell_angle_alpha   99.93965964
_cell_angle_beta   99.93966016
_cell_angle_gamma   89.93236584
_symmetry_Int_Tables_number   1
_chemical_formula_structural   Rb2BaNp2O7
_chemical_formula_sum   'Rb2 Ba1 Np2 O7'
_cell_volume   217.49133269
_cell_formula_units_Z   1
loop_
 _symmetry_equiv_pos_site_id
 _symmetry_equiv_pos_as_xyz
  1  'x, y, z'
loop_
 _atom_site_type_symbol
 _atom_site_label
 _atom_site_symmetry_multiplicity
 _atom_site_fract_x
 _atom_site_fract_y
 _atom_site_fract_z
 _atom_site_occupancy
  Rb  Rb0  1  0.192964  0.192964  0.386726  1
  Rb  Rb1  1  0.807036  0.807036  0.613274  1
  Ba  Ba2  1  0.000000  0.000000  0.000000  1
  Np  Np3  1  0.593711  0.593711  0.188733  1
  Np  Np4  1  0.406289  0.406289  0.811267  1
  O  O5  1  0.500001  0.500001  0.000000  1
  O  O6  1  0.585783  0.085608  0.172572  1
  O  O7  1  0.085608  0.585783  0.172572  1
  O  O8  1  0.677613  0.677613  0.357756  1
  O  O9  1  0.322387  0.322387  0.642245  1
  O  O10  1  0.914394  0.414218  0.827427  1
  O  O11  1  0.414218  0.914394  0.827427  1
