# generated using pymatgen
data_Ho2Lu2VB12Rh
_symmetry_space_group_name_H-M   'P 1'
_cell_length_a   3.57437800
_cell_length_b   9.10794522
_cell_length_c   11.51232321
_cell_angle_alpha   90.29652727
_cell_angle_beta   90.00000000
_cell_angle_gamma   90.00000000
_symmetry_Int_Tables_number   1
_chemical_formula_structural   Ho2Lu2VB12Rh
_chemical_formula_sum   'Ho4 Lu4 V2 B24 Rh2'
_cell_volume   374.78141456
_cell_formula_units_Z   2
loop_
 _symmetry_equiv_pos_site_id
 _symmetry_equiv_pos_as_xyz
  1  'x, y, z'
loop_
 _atom_site_type_symbol
 _atom_site_label
 _atom_site_symmetry_multiplicity
 _atom_site_fract_x
 _atom_site_fract_y
 _atom_site_fract_z
 _atom_site_occupancy
  Ho  Ho0  1  0.500000  0.318379  0.411900  1
  Ho  Ho1  1  0.500000  0.681621  0.588100  1
  Ho  Ho2  1  0.500000  0.174583  0.916603  1
  Ho  Ho3  1  0.500000  0.825417  0.083397  1
  Lu  Lu4  1  0.500000  0.441982  0.127222  1
  Lu  Lu5  1  0.500000  0.558018  0.872778  1
  Lu  Lu6  1  0.500000  0.054210  0.628728  1
  Lu  Lu7  1  0.500000  0.945790  0.371272  1
  V  V8  1  0.500000  0.140041  0.181894  1
  V  V9  1  0.500000  0.859959  0.818106  1
  B  B10  1  0.000000  0.103897  0.472438  1
  B  B11  1  0.000000  0.896103  0.527562  1
  B  B12  1  0.000000  0.396531  0.971098  1
  B  B13  1  0.000000  0.603469  0.028902  1
  B  B14  1  0.000000  0.131498  0.316689  1
  B  B15  1  0.000000  0.868502  0.683311  1
  B  B16  1  0.000000  0.368884  0.816077  1
  B  B17  1  0.000000  0.631116  0.183923  1
  B  B18  1  0.000000  0.052566  0.066947  1
  B  B19  1  0.000000  0.947434  0.933053  1
  B  B20  1  0.000000  0.445873  0.566397  1
  B  B21  1  0.000000  0.554127  0.433603  1
  B  B22  1  0.000000  0.481801  0.287242  1
  B  B23  1  0.000000  0.518199  0.712758  1
  B  B24  1  0.000000  0.019655  0.786823  1
  B  B25  1  0.000000  0.980345  0.213177  1
  B  B26  1  0.000000  0.249891  0.080413  1
  B  B27  1  0.000000  0.750109  0.919587  1
  B  B28  1  0.000000  0.248751  0.579987  1
  B  B29  1  0.000000  0.751249  0.420013  1
  B  B30  1  0.000000  0.295089  0.235566  1
  B  B31  1  0.000000  0.704911  0.764434  1
  B  B32  1  0.000000  0.207001  0.735333  1
  B  B33  1  0.000000  0.792999  0.264667  1
  Rh  Rh34  1  0.500000  0.360930  0.679245  1
  Rh  Rh35  1  0.500000  0.639070  0.320755  1
