# generated using pymatgen
data_Nd2Tc5(PIr)7
_symmetry_space_group_name_H-M   'P 1'
_cell_length_a   9.56639228
_cell_length_b   9.52406894
_cell_length_c   4.03045600
_cell_angle_alpha   90.00000000
_cell_angle_beta   90.00000000
_cell_angle_gamma   120.21686320
_symmetry_Int_Tables_number   1
_chemical_formula_structural   Nd2Tc5(PIr)7
_chemical_formula_sum   'Nd2 Tc5 P7 Ir7'
_cell_volume   317.32357102
_cell_formula_units_Z   1
loop_
 _symmetry_equiv_pos_site_id
 _symmetry_equiv_pos_as_xyz
  1  'x, y, z'
loop_
 _atom_site_type_symbol
 _atom_site_label
 _atom_site_symmetry_multiplicity
 _atom_site_fract_x
 _atom_site_fract_y
 _atom_site_fract_z
 _atom_site_occupancy
  Nd  Nd0  1  0.663900  0.331417  0.000000  1
  Nd  Nd1  1  0.334234  0.664814  0.500000  1
  Tc  Tc2  1  0.264522  0.102000  0.000000  1
  Tc  Tc3  1  0.843014  0.730538  0.000000  1
  Tc  Tc4  1  0.888994  0.165908  0.000000  1
  Tc  Tc5  1  0.783735  0.911212  0.500000  1
  Tc  Tc6  1  0.127389  0.221440  0.500000  1
  P  P7  1  0.307370  0.886808  0.000000  1
  P  P8  1  0.588231  0.699767  0.000000  1
  P  P9  1  0.117269  0.415197  0.000000  1
  P  P10  1  0.395466  0.278628  0.500000  1
  P  P11  1  0.874605  0.597125  0.500000  1
  P  P12  1  0.721205  0.119496  0.500000  1
  P  P13  1  0.995755  0.005291  0.000000  1
  Ir  Ir14  1  0.071289  0.637047  0.000000  1
  Ir  Ir15  1  0.568666  0.931251  0.000000  1
  Ir  Ir16  1  0.365871  0.431927  0.000000  1
  Ir  Ir17  1  0.444315  0.052706  0.500000  1
  Ir  Ir18  1  0.608325  0.556060  0.500000  1
  Ir  Ir19  1  0.946686  0.396807  0.500000  1
  Ir  Ir20  1  0.089162  0.864561  0.500000  1
