# generated using pymatgen
data_Ti4AlSiRh10
_symmetry_space_group_name_H-M   'P 1'
_cell_length_a   4.00191800
_cell_length_b   5.38198726
_cell_length_c   10.56247253
_cell_angle_alpha   90.03584766
_cell_angle_beta   90.00000000
_cell_angle_gamma   90.00000000
_symmetry_Int_Tables_number   1
_chemical_formula_structural   Ti4AlSiRh10
_chemical_formula_sum   'Ti4 Al1 Si1 Rh10'
_cell_volume   227.49735842
_cell_formula_units_Z   1
loop_
 _symmetry_equiv_pos_site_id
 _symmetry_equiv_pos_as_xyz
  1  'x, y, z'
loop_
 _atom_site_type_symbol
 _atom_site_label
 _atom_site_symmetry_multiplicity
 _atom_site_fract_x
 _atom_site_fract_y
 _atom_site_fract_z
 _atom_site_occupancy
  Ti  Ti0  1  0.500000  0.324680  0.139341  1
  Ti  Ti1  1  0.500000  0.675320  0.860659  1
  Ti  Ti2  1  0.500000  0.828223  0.358886  1
  Ti  Ti3  1  0.500000  0.171777  0.641114  1
  Al  Al4  1  0.000000  0.000000  0.000000  1
  Si  Si5  1  0.000000  0.500000  0.500000  1
  Rh  Rh6  1  0.000000  0.000000  0.500000  1
  Rh  Rh7  1  0.000000  0.500000  0.000000  1
  Rh  Rh8  1  0.000000  0.078111  0.244366  1
  Rh  Rh9  1  0.000000  0.921889  0.755634  1
  Rh  Rh10  1  0.000000  0.576831  0.260327  1
  Rh  Rh11  1  0.000000  0.423169  0.739673  1
  Rh  Rh12  1  0.500000  0.318786  0.396241  1
  Rh  Rh13  1  0.500000  0.681214  0.603759  1
  Rh  Rh14  1  0.500000  0.811048  0.110010  1
  Rh  Rh15  1  0.500000  0.188952  0.889990  1
