# generated using pymatgen
data_Eu4CdRh
_symmetry_space_group_name_H-M   'P 1'
_cell_length_a   10.23617647
_cell_length_b   10.23617639
_cell_length_c   10.23617600
_cell_angle_alpha   60.00000126
_cell_angle_beta   60.00000153
_cell_angle_gamma   59.99999888
_symmetry_Int_Tables_number   1
_chemical_formula_structural   Eu4CdRh
_chemical_formula_sum   'Eu16 Cd4 Rh4'
_cell_volume   758.39991864
_cell_formula_units_Z   4
loop_
 _symmetry_equiv_pos_site_id
 _symmetry_equiv_pos_as_xyz
  1  'x, y, z'
loop_
 _atom_site_type_symbol
 _atom_site_label
 _atom_site_symmetry_multiplicity
 _atom_site_fract_x
 _atom_site_fract_y
 _atom_site_fract_z
 _atom_site_occupancy
  Eu  Eu0  1  0.284897  0.905034  0.905034  1
  Eu  Eu1  1  0.694640  0.305360  0.694640  1
  Eu  Eu2  1  0.305360  0.694640  0.305360  1
  Eu  Eu3  1  0.058721  0.441279  0.441279  1
  Eu  Eu4  1  0.694640  0.305360  0.305360  1
  Eu  Eu5  1  0.441279  0.058721  0.441279  1
  Eu  Eu6  1  0.441279  0.058721  0.058721  1
  Eu  Eu7  1  0.905034  0.905034  0.905034  1
  Eu  Eu8  1  0.058721  0.441279  0.058721  1
  Eu  Eu9  1  0.905034  0.284897  0.905034  1
  Eu  Eu10  1  0.305360  0.694640  0.694640  1
  Eu  Eu11  1  0.905034  0.905034  0.284897  1
  Eu  Eu12  1  0.441279  0.441279  0.058721  1
  Eu  Eu13  1  0.305360  0.305360  0.694640  1
  Eu  Eu14  1  0.694640  0.694640  0.305360  1
  Eu  Eu15  1  0.058721  0.058721  0.441279  1
  Cd  Cd16  1  0.986715  0.671095  0.671095  1
  Cd  Cd17  1  0.671095  0.986715  0.671095  1
  Cd  Cd18  1  0.671095  0.671095  0.986715  1
  Cd  Cd19  1  0.671095  0.671095  0.671095  1
  Rh  Rh20  1  0.111868  0.111868  0.664396  1
  Rh  Rh21  1  0.111868  0.664396  0.111868  1
  Rh  Rh22  1  0.111868  0.111868  0.111868  1
  Rh  Rh23  1  0.664396  0.111868  0.111868  1
