# generated using pymatgen
data_YEr5OsRh
_symmetry_space_group_name_H-M   'P 1'
_cell_length_a   6.35957000
_cell_length_b   7.28968900
_cell_length_c   9.03041800
_cell_angle_alpha   90.00000000
_cell_angle_beta   90.00000000
_cell_angle_gamma   90.00000000
_symmetry_Int_Tables_number   1
_chemical_formula_structural   YEr5OsRh
_chemical_formula_sum   'Y2 Er10 Os2 Rh2'
_cell_volume   418.64374407
_cell_formula_units_Z   2
loop_
 _symmetry_equiv_pos_site_id
 _symmetry_equiv_pos_as_xyz
  1  'x, y, z'
loop_
 _atom_site_type_symbol
 _atom_site_label
 _atom_site_symmetry_multiplicity
 _atom_site_fract_x
 _atom_site_fract_y
 _atom_site_fract_z
 _atom_site_occupancy
  Y  Y0  1  0.872416  0.537678  0.250000  1
  Y  Y1  1  0.627584  0.037678  0.250000  1
  Er  Er2  1  0.333998  0.675806  0.058759  1
  Er  Er3  1  0.166002  0.175806  0.441241  1
  Er  Er4  1  0.673917  0.322880  0.567017  1
  Er  Er5  1  0.826083  0.822880  0.932983  1
  Er  Er6  1  0.673917  0.322880  0.932983  1
  Er  Er7  1  0.826083  0.822880  0.567017  1
  Er  Er8  1  0.333998  0.675806  0.441241  1
  Er  Er9  1  0.166002  0.175806  0.058759  1
  Er  Er10  1  0.126833  0.463815  0.750000  1
  Er  Er11  1  0.373167  0.963815  0.750000  1
  Os  Os12  1  0.964626  0.114973  0.750000  1
  Os  Os13  1  0.535374  0.614973  0.750000  1
  Rh  Rh14  1  0.046528  0.886162  0.250000  1
  Rh  Rh15  1  0.453472  0.386162  0.250000  1
