# generated using pymatgen
data_Tb4Dy9Y3(Tl3Co)2
_symmetry_space_group_name_H-M   'P 1'
_cell_length_a   10.38311501
_cell_length_b   10.38310318
_cell_length_c   7.11781100
_cell_angle_alpha   90.00194335
_cell_angle_beta   89.99832166
_cell_angle_gamma   120.00544216
_symmetry_Int_Tables_number   1
_chemical_formula_structural   Tb4Dy9Y3(Tl3Co)2
_chemical_formula_sum   'Tb4 Dy9 Y3 Tl6 Co2'
_cell_volume   664.52006529
_cell_formula_units_Z   1
loop_
 _symmetry_equiv_pos_site_id
 _symmetry_equiv_pos_as_xyz
  1  'x, y, z'
loop_
 _atom_site_type_symbol
 _atom_site_label
 _atom_site_symmetry_multiplicity
 _atom_site_fract_x
 _atom_site_fract_y
 _atom_site_fract_z
 _atom_site_occupancy
  Tb  Tb0  1  0.462837  0.537163  0.482164  1
  Tb  Tb1  1  0.074158  0.537095  0.482033  1
  Tb  Tb2  1  0.462906  0.925844  0.482034  1
  Tb  Tb3  1  0.536964  0.463038  0.982441  1
  Dy  Dy4  1  0.925866  0.462894  0.982159  1
  Dy  Dy5  1  0.537106  0.074131  0.982159  1
  Dy  Dy6  1  0.821801  0.178200  0.278055  1
  Dy  Dy7  1  0.356282  0.178009  0.278250  1
  Dy  Dy8  1  0.821990  0.643717  0.278255  1
  Dy  Dy9  1  0.178110  0.821890  0.778794  1
  Dy  Dy10  1  0.643927  0.822161  0.778621  1
  Dy  Dy11  1  0.177838  0.356071  0.778621  1
  Dy  Dy12  1  0.333234  0.666768  0.089703  1
  Y  Y13  1  0.666773  0.333225  0.591041  1
  Y  Y14  1  0.000026  0.999976  0.495977  1
  Y  Y15  1  0.999974  0.000024  0.996190  1
  Tl  Tl16  1  0.163021  0.836980  0.231777  1
  Tl  Tl17  1  0.673970  0.836992  0.231954  1
  Tl  Tl18  1  0.163009  0.326033  0.231953  1
  Tl  Tl19  1  0.836861  0.163139  0.732233  1
  Tl  Tl20  1  0.326039  0.162917  0.732010  1
  Tl  Tl21  1  0.837082  0.673960  0.732011  1
  Co  Co22  1  0.333324  0.666676  0.709685  1
  Co  Co23  1  0.666901  0.333099  0.206434  1
