# generated using pymatgen
data_Pr3NdZrP12Ru19
_symmetry_space_group_name_H-M   'P 1'
_cell_length_a   12.60866400
_cell_length_b   12.60866371
_cell_length_c   4.00903600
_cell_angle_alpha   90.00000000
_cell_angle_beta   90.00000000
_cell_angle_gamma   120.00000075
_symmetry_Int_Tables_number   1
_chemical_formula_structural   Pr3NdZrP12Ru19
_chemical_formula_sum   'Pr3 Nd1 Zr1 P12 Ru19'
_cell_volume   551.96141320
_cell_formula_units_Z   1
loop_
 _symmetry_equiv_pos_site_id
 _symmetry_equiv_pos_as_xyz
  1  'x, y, z'
loop_
 _atom_site_type_symbol
 _atom_site_label
 _atom_site_symmetry_multiplicity
 _atom_site_fract_x
 _atom_site_fract_y
 _atom_site_fract_z
 _atom_site_occupancy
  Pr  Pr0  1  0.815056  0.000658  0.500000  1
  Pr  Pr1  1  0.999342  0.814398  0.500000  1
  Pr  Pr2  1  0.185602  0.184944  0.500000  1
  Nd  Nd3  1  0.666667  0.333333  0.000000  1
  Zr  Zr4  1  0.333333  0.666667  0.000000  1
  P  P5  1  0.187227  0.997455  0.000000  1
  P  P6  1  0.002545  0.189773  0.000000  1
  P  P7  1  0.810227  0.812773  0.000000  1
  P  P8  1  0.519297  0.697133  0.500000  1
  P  P9  1  0.302867  0.822163  0.500000  1
  P  P10  1  0.177837  0.480703  0.500000  1
  P  P11  1  0.476200  0.170745  0.500000  1
  P  P12  1  0.694545  0.523800  0.500000  1
  P  P13  1  0.829255  0.305455  0.500000  1
  P  P14  1  0.626449  0.001485  0.000000  1
  P  P15  1  0.998515  0.624965  0.000000  1
  P  P16  1  0.375035  0.373551  0.000000  1
  Ru  Ru17  1  0.445329  0.998681  0.000000  1
  Ru  Ru18  1  0.001319  0.446648  0.000000  1
  Ru  Ru19  1  0.553352  0.554671  0.000000  1
  Ru  Ru20  1  0.285740  0.997035  0.500000  1
  Ru  Ru21  1  0.002965  0.288706  0.500000  1
  Ru  Ru22  1  0.711294  0.714260  0.500000  1
  Ru  Ru23  1  0.615670  0.804052  0.000000  1
  Ru  Ru24  1  0.195948  0.811618  0.000000  1
  Ru  Ru25  1  0.188382  0.384330  0.000000  1
  Ru  Ru26  1  0.378774  0.182628  0.000000  1
  Ru  Ru27  1  0.803855  0.621226  0.000000  1
  Ru  Ru28  1  0.817372  0.196145  0.000000  1
  Ru  Ru29  1  0.500918  0.870695  0.500000  1
  Ru  Ru30  1  0.129305  0.630223  0.500000  1
  Ru  Ru31  1  0.369777  0.499082  0.500000  1
  Ru  Ru32  1  0.490125  0.367339  0.500000  1
  Ru  Ru33  1  0.877214  0.509875  0.500000  1
  Ru  Ru34  1  0.632661  0.122786  0.500000  1
  Ru  Ru35  1  0.000000  0.000000  0.000000  1
