# generated using pymatgen
data_La6Al7Si4Ge
_symmetry_space_group_name_H-M   'P 1'
_cell_length_a   4.29134926
_cell_length_b   4.40330318
_cell_length_c   22.51840744
_cell_angle_alpha   84.38915455
_cell_angle_beta   84.53224758
_cell_angle_gamma   89.99999891
_symmetry_Int_Tables_number   1
_chemical_formula_structural   La6Al7Si4Ge
_chemical_formula_sum   'La6 Al7 Si4 Ge1'
_cell_volume   421.52624574
_cell_formula_units_Z   1
loop_
 _symmetry_equiv_pos_site_id
 _symmetry_equiv_pos_as_xyz
  1  'x, y, z'
loop_
 _atom_site_type_symbol
 _atom_site_label
 _atom_site_symmetry_multiplicity
 _atom_site_fract_x
 _atom_site_fract_y
 _atom_site_fract_z
 _atom_site_occupancy
  La  La0  1  0.957834  0.707834  0.084330  1
  La  La1  1  0.291761  0.041761  0.416478  1
  La  La2  1  0.623229  0.373229  0.753541  1
  La  La3  1  0.376190  0.626190  0.247621  1
  La  La4  1  0.710533  0.960533  0.578933  1
  La  La5  1  0.040587  0.290587  0.918825  1
  Al  Al6  1  0.152853  0.902853  0.694294  1
  Al  Al7  1  0.431068  0.181068  0.137865  1
  Al  Al8  1  0.764227  0.514227  0.471548  1
  Al  Al9  1  0.096063  0.846063  0.807874  1
  Al  Al10  1  0.848046  0.098046  0.303907  1
  Al  Al11  1  0.181493  0.431493  0.637015  1
  Al  Al12  1  0.512822  0.762822  0.974357  1
  Si  Si13  1  0.902879  0.152879  0.194244  1
  Si  Si14  1  0.236558  0.486558  0.526883  1
  Si  Si15  1  0.567739  0.817739  0.864519  1
  Si  Si16  1  0.486029  0.236029  0.027940  1
  Ge  Ge17  1  0.820087  0.570087  0.359825  1
