# generated using pymatgen
data_TbY3(Ni5C3)2
_symmetry_space_group_name_H-M   'P 1'
_cell_length_a   8.22360434
_cell_length_b   8.22404134
_cell_length_c   3.83283000
_cell_angle_alpha   90.00000000
_cell_angle_beta   90.00000000
_cell_angle_gamma   90.03275907
_symmetry_Int_Tables_number   1
_chemical_formula_structural   TbY3(Ni5C3)2
_chemical_formula_sum   'Tb1 Y3 Ni10 C6'
_cell_volume   259.21908753
_cell_formula_units_Z   1
loop_
 _symmetry_equiv_pos_site_id
 _symmetry_equiv_pos_as_xyz
  1  'x, y, z'
loop_
 _atom_site_type_symbol
 _atom_site_label
 _atom_site_symmetry_multiplicity
 _atom_site_fract_x
 _atom_site_fract_y
 _atom_site_fract_z
 _atom_site_occupancy
  Tb  Tb0  1  0.343736  0.843759  0.000000  1
  Y  Y1  1  0.655652  0.155606  0.000000  1
  Y  Y2  1  0.155450  0.344285  0.000000  1
  Y  Y3  1  0.844356  0.655546  0.000000  1
  Ni  Ni4  1  0.578028  0.712260  0.500000  1
  Ni  Ni5  1  0.421873  0.287989  0.500000  1
  Ni  Ni6  1  0.921967  0.212226  0.500000  1
  Ni  Ni7  1  0.078030  0.787872  0.500000  1
  Ni  Ni8  1  0.712219  0.422009  0.500000  1
  Ni  Ni9  1  0.287855  0.577984  0.500000  1
  Ni  Ni10  1  0.212284  0.078020  0.500000  1
  Ni  Ni11  1  0.788022  0.921857  0.500000  1
  Ni  Ni12  1  0.499605  0.500001  0.000000  1
  Ni  Ni13  1  0.999974  0.999693  0.000000  1
  C  C14  1  0.500176  0.500047  0.500000  1
  C  C15  1  0.000071  0.000188  0.500000  1
  C  C16  1  0.058995  0.558961  0.500000  1
  C  C17  1  0.941120  0.441169  0.500000  1
  C  C18  1  0.441442  0.059155  0.500000  1
  C  C19  1  0.559144  0.941372  0.500000  1
