# generated using pymatgen
data_Sr3LuCrO6
_symmetry_space_group_name_H-M   'P 1'
_cell_length_a   6.81743204
_cell_length_b   6.81748584
_cell_length_c   6.81743179
_cell_angle_alpha   92.58041229
_cell_angle_beta   92.57951551
_cell_angle_gamma   92.58086578
_symmetry_Int_Tables_number   1
_chemical_formula_structural   Sr3LuCrO6
_chemical_formula_sum   'Sr6 Lu2 Cr2 O12'
_cell_volume   315.86513065
_cell_formula_units_Z   2
loop_
 _symmetry_equiv_pos_site_id
 _symmetry_equiv_pos_as_xyz
  1  'x, y, z'
loop_
 _atom_site_type_symbol
 _atom_site_label
 _atom_site_symmetry_multiplicity
 _atom_site_fract_x
 _atom_site_fract_y
 _atom_site_fract_z
 _atom_site_occupancy
  Sr  Sr0  1  0.614722  0.885278  0.249988  1
  Sr  Sr1  1  0.885255  0.249989  0.614731  1
  Sr  Sr2  1  0.250005  0.614736  0.885276  1
  Sr  Sr3  1  0.114730  0.749999  0.385262  1
  Sr  Sr4  1  0.749991  0.385271  0.114712  1
  Sr  Sr5  1  0.385282  0.114718  0.750005  1
  Lu  Lu6  1  0.249994  0.250013  0.249986  1
  Lu  Lu7  1  0.749993  0.750016  0.750030  1
  Cr  Cr8  1  0.499926  0.499943  0.500002  1
  Cr  Cr9  1  0.000125  0.000048  0.000011  1
  O  O10  1  0.538764  0.213973  0.407893  1
  O  O11  1  0.213960  0.407891  0.538809  1
  O  O12  1  0.407860  0.538798  0.213988  1
  O  O13  1  0.038817  0.907886  0.713968  1
  O  O14  1  0.907899  0.713985  0.038804  1
  O  O15  1  0.713994  0.038791  0.907885  1
  O  O16  1  0.461213  0.786003  0.592111  1
  O  O17  1  0.786008  0.592095  0.461186  1
  O  O18  1  0.592116  0.461197  0.786009  1
  O  O19  1  0.961194  0.092121  0.286031  1
  O  O20  1  0.092113  0.286036  0.961198  1
  O  O21  1  0.286038  0.961217  0.092113  1
