# generated using pymatgen
data_AcNiH6
_symmetry_space_group_name_H-M   'P 1'
_cell_length_a   4.73611035
_cell_length_b   4.73611221
_cell_length_c   4.73703373
_cell_angle_alpha   59.13483332
_cell_angle_beta   59.13485075
_cell_angle_gamma   59.13114663
_symmetry_Int_Tables_number   1
_chemical_formula_structural   AcNiH6
_chemical_formula_sum   'Ac1 Ni1 H6'
_cell_volume   73.65009918
_cell_formula_units_Z   1
loop_
 _symmetry_equiv_pos_site_id
 _symmetry_equiv_pos_as_xyz
  1  'x, y, z'
loop_
 _atom_site_type_symbol
 _atom_site_label
 _atom_site_symmetry_multiplicity
 _atom_site_fract_x
 _atom_site_fract_y
 _atom_site_fract_z
 _atom_site_occupancy
  Ac  Ac0  1  0.500000  0.500000  0.500000  1
  Ni  Ni1  1  0.000000  0.000000  0.000000  1
  H  H2  1  0.602614  0.092671  0.092570  1
  H  H3  1  0.092671  0.602614  0.092570  1
  H  H4  1  0.907458  0.907458  0.397259  1
  H  H5  1  0.092542  0.092542  0.602740  1
  H  H6  1  0.907329  0.397385  0.907430  1
  H  H7  1  0.397385  0.907329  0.907430  1
