# generated using pymatgen
data_CaLu(Si2Rh3)2
_symmetry_space_group_name_H-M   'P 1'
_cell_length_a   6.63441446
_cell_length_b   6.63441351
_cell_length_c   6.63441391
_cell_angle_alpha   130.13236118
_cell_angle_beta   114.88893325
_cell_angle_gamma   86.24925277
_symmetry_Int_Tables_number   1
_chemical_formula_structural   CaLu(Si2Rh3)2
_chemical_formula_sum   'Ca1 Lu1 Si4 Rh6'
_cell_volume   193.40145962
_cell_formula_units_Z   1
loop_
 _symmetry_equiv_pos_site_id
 _symmetry_equiv_pos_as_xyz
  1  'x, y, z'
loop_
 _atom_site_type_symbol
 _atom_site_label
 _atom_site_symmetry_multiplicity
 _atom_site_fract_x
 _atom_site_fract_y
 _atom_site_fract_z
 _atom_site_occupancy
  Ca  Ca0  1  0.750000  0.033698  0.283698  1
  Lu  Lu1  1  0.250000  0.944952  0.694952  1
  Si  Si2  1  0.580172  0.384043  0.803870  1
  Si  Si3  1  0.919828  0.723697  0.803870  1
  Si  Si4  1  0.424406  0.617800  0.193395  1
  Si  Si5  1  0.075594  0.268989  0.193395  1
  Rh  Rh6  1  0.217132  0.508434  0.719289  1
  Rh  Rh7  1  0.789145  0.508434  0.291302  1
  Rh  Rh8  1  0.493653  0.502819  0.496472  1
  Rh  Rh9  1  0.006347  0.502819  0.009168  1
  Rh  Rh10  1  0.710855  0.002157  0.719289  1
  Rh  Rh11  1  0.282868  0.002157  0.291302  1
