# generated using pymatgen
data_Ho4Co3Os5
_symmetry_space_group_name_H-M   'P 1'
_cell_length_a   5.24248768
_cell_length_b   5.24248744
_cell_length_c   8.68289700
_cell_angle_alpha   90.00000000
_cell_angle_beta   90.00000000
_cell_angle_gamma   121.04666189
_symmetry_Int_Tables_number   1
_chemical_formula_structural   Ho4Co3Os5
_chemical_formula_sum   'Ho4 Co3 Os5'
_cell_volume   204.45246299
_cell_formula_units_Z   1
loop_
 _symmetry_equiv_pos_site_id
 _symmetry_equiv_pos_as_xyz
  1  'x, y, z'
loop_
 _atom_site_type_symbol
 _atom_site_label
 _atom_site_symmetry_multiplicity
 _atom_site_fract_x
 _atom_site_fract_y
 _atom_site_fract_z
 _atom_site_occupancy
  Ho  Ho0  1  0.333391  0.666609  0.431742  1
  Ho  Ho1  1  0.667203  0.332797  0.563727  1
  Ho  Ho2  1  0.667203  0.332797  0.936273  1
  Ho  Ho3  1  0.333391  0.666609  0.068258  1
  Co  Co4  1  0.004496  0.995504  0.500230  1
  Co  Co5  1  0.004496  0.995504  0.999770  1
  Co  Co6  1  0.831095  0.168905  0.250000  1
  Os  Os7  1  0.827000  0.665702  0.250000  1
  Os  Os8  1  0.334298  0.173000  0.250000  1
  Os  Os9  1  0.166783  0.833217  0.750000  1
  Os  Os10  1  0.168333  0.337689  0.750000  1
  Os  Os11  1  0.662311  0.831667  0.750000  1
