# generated using pymatgen
data_YEr9Os4
_symmetry_space_group_name_H-M   'P 1'
_cell_length_a   6.30841397
_cell_length_b   7.32851763
_cell_length_c   8.36401188
_cell_angle_alpha   96.89663164
_cell_angle_beta   112.24522053
_cell_angle_gamma   90.14121287
_symmetry_Int_Tables_number   1
_chemical_formula_structural   YEr9Os4
_chemical_formula_sum   'Y1 Er9 Os4'
_cell_volume   354.82642592
_cell_formula_units_Z   1
loop_
 _symmetry_equiv_pos_site_id
 _symmetry_equiv_pos_as_xyz
  1  'x, y, z'
loop_
 _atom_site_type_symbol
 _atom_site_label
 _atom_site_symmetry_multiplicity
 _atom_site_fract_x
 _atom_site_fract_y
 _atom_site_fract_z
 _atom_site_occupancy
  Y  Y0  1  0.791643  0.583064  0.815884  1
  Er  Er1  1  0.976332  0.916146  0.183404  1
  Er  Er2  1  0.207530  0.415934  0.183961  1
  Er  Er3  1  0.024219  0.084100  0.817155  1
  Er  Er4  1  0.202937  0.683234  0.564233  1
  Er  Er5  1  0.639441  0.817435  0.435687  1
  Er  Er6  1  0.796633  0.316352  0.435139  1
  Er  Er7  1  0.359976  0.182766  0.563747  1
  Er  Er8  1  0.420793  0.750044  0.000100  1
  Er  Er9  1  0.579273  0.250009  0.000682  1
  Os  Os10  1  0.601584  0.924229  0.780119  1
  Os  Os11  1  0.822487  0.577998  0.220242  1
  Os  Os12  1  0.396845  0.077326  0.219528  1
  Os  Os13  1  0.180305  0.421362  0.780116  1
