# generated using pymatgen
data_Lu4InSiPt4Rh7
_symmetry_space_group_name_H-M   'P 1'
_cell_length_a   7.17236351
_cell_length_b   7.14716142
_cell_length_c   7.17236400
_cell_angle_alpha   107.33461980
_cell_angle_beta   108.70870445
_cell_angle_gamma   112.56220866
_symmetry_Int_Tables_number   1
_chemical_formula_structural   Lu4InSiPt4Rh7
_chemical_formula_sum   'Lu4 In1 Si1 Pt4 Rh7'
_cell_volume   281.88249468
_cell_formula_units_Z   1
loop_
 _symmetry_equiv_pos_site_id
 _symmetry_equiv_pos_as_xyz
  1  'x, y, z'
loop_
 _atom_site_type_symbol
 _atom_site_label
 _atom_site_symmetry_multiplicity
 _atom_site_fract_x
 _atom_site_fract_y
 _atom_site_fract_z
 _atom_site_occupancy
  Lu  Lu0  1  0.007023  0.986554  0.497902  1
  Lu  Lu1  1  0.017239  0.513652  0.025106  1
  Lu  Lu2  1  0.488652  0.986554  0.979532  1
  Lu  Lu3  1  0.488546  0.513652  0.496413  1
  In  In4  1  0.749264  0.249186  0.499922  1
  Si  Si5  1  0.999990  0.000134  0.000144  1
  Pt  Pt6  1  0.747429  0.493921  0.253109  1
  Pt  Pt7  1  0.506791  0.254227  0.747437  1
  Pt  Pt8  1  0.240811  0.493921  0.746493  1
  Pt  Pt9  1  0.249528  0.750085  0.500557  1
  Rh  Rh10  1  0.506745  0.759711  0.252965  1
  Rh  Rh11  1  0.718334  0.718764  0.000430  1
  Rh  Rh12  1  0.278724  0.008155  0.272262  1
  Rh  Rh13  1  0.991223  0.260879  0.269655  1
  Rh  Rh14  1  0.281638  0.279925  0.998288  1
  Rh  Rh15  1  0.735893  0.008155  0.729431  1
  Rh  Rh16  1  0.992169  0.722526  0.730357  1
