# generated using pymatgen
data_Ho3In3CoAg2
_symmetry_space_group_name_H-M   'P 1'
_cell_length_a   7.98098700
_cell_length_b   7.98098683
_cell_length_c   3.63926400
_cell_angle_alpha   90.00000000
_cell_angle_beta   90.00000000
_cell_angle_gamma   119.99999769
_symmetry_Int_Tables_number   1
_chemical_formula_structural   Ho3In3CoAg2
_chemical_formula_sum   'Ho3 In3 Co1 Ag2'
_cell_volume   200.75085358
_cell_formula_units_Z   1
loop_
 _symmetry_equiv_pos_site_id
 _symmetry_equiv_pos_as_xyz
  1  'x, y, z'
loop_
 _atom_site_type_symbol
 _atom_site_label
 _atom_site_symmetry_multiplicity
 _atom_site_fract_x
 _atom_site_fract_y
 _atom_site_fract_z
 _atom_site_occupancy
  Ho  Ho0  1  0.577446  0.617971  0.000000  1
  Ho  Ho1  1  0.382029  0.959475  0.000000  1
  Ho  Ho2  1  0.040525  0.422554  0.000000  1
  In  In3  1  0.992784  0.718547  0.500000  1
  In  In4  1  0.281453  0.274237  0.500000  1
  In  In5  1  0.725763  0.007216  0.500000  1
  Co  Co6  1  0.333333  0.666667  0.500000  1
  Ag  Ag7  1  0.000000  0.000000  0.000000  1
  Ag  Ag8  1  0.666667  0.333333  0.500000  1
