# generated using pymatgen
data_Er12TcIrRu2
_symmetry_space_group_name_H-M   'P 1'
_cell_length_a   6.24372382
_cell_length_b   7.29414722
_cell_length_c   9.03314000
_cell_angle_alpha   90.00000000
_cell_angle_beta   90.00000000
_cell_angle_gamma   90.04350267
_symmetry_Int_Tables_number   1
_chemical_formula_structural   Er12TcIrRu2
_chemical_formula_sum   'Er12 Tc1 Ir1 Ru2'
_cell_volume   411.39293133
_cell_formula_units_Z   1
loop_
 _symmetry_equiv_pos_site_id
 _symmetry_equiv_pos_as_xyz
  1  'x, y, z'
loop_
 _atom_site_type_symbol
 _atom_site_label
 _atom_site_symmetry_multiplicity
 _atom_site_fract_x
 _atom_site_fract_y
 _atom_site_fract_z
 _atom_site_occupancy
  Er  Er0  1  0.331579  0.676655  0.064604  1
  Er  Er1  1  0.166947  0.176840  0.435608  1
  Er  Er2  1  0.665883  0.322522  0.560766  1
  Er  Er3  1  0.832477  0.823837  0.937071  1
  Er  Er4  1  0.665883  0.322522  0.939234  1
  Er  Er5  1  0.832477  0.823837  0.562929  1
  Er  Er6  1  0.331579  0.676655  0.435396  1
  Er  Er7  1  0.166947  0.176840  0.064392  1
  Er  Er8  1  0.873332  0.540636  0.250000  1
  Er  Er9  1  0.629739  0.037975  0.250000  1
  Er  Er10  1  0.132284  0.458669  0.750000  1
  Er  Er11  1  0.367318  0.961867  0.750000  1
  Tc  Tc12  1  0.463265  0.385658  0.250000  1
  Ir  Ir13  1  0.542621  0.616688  0.750000  1
  Ru  Ru14  1  0.037548  0.884163  0.250000  1
  Ru  Ru15  1  0.960119  0.114637  0.750000  1
