# generated using pymatgen
data_Nd2Al9Ir2Pt
_symmetry_space_group_name_H-M   'P 1'
_cell_length_a   7.63827404
_cell_length_b   7.63827398
_cell_length_c   9.59773845
_cell_angle_alpha   89.96830159
_cell_angle_beta   89.96830374
_cell_angle_gamma   119.60940815
_symmetry_Int_Tables_number   1
_chemical_formula_structural   Nd2Al9Ir2Pt
_chemical_formula_sum   'Nd4 Al18 Ir4 Pt2'
_cell_volume   486.83932406
_cell_formula_units_Z   2
loop_
 _symmetry_equiv_pos_site_id
 _symmetry_equiv_pos_as_xyz
  1  'x, y, z'
loop_
 _atom_site_type_symbol
 _atom_site_label
 _atom_site_symmetry_multiplicity
 _atom_site_fract_x
 _atom_site_fract_y
 _atom_site_fract_z
 _atom_site_occupancy
  Nd  Nd0  1  0.995241  0.669287  0.250146  1
  Nd  Nd1  1  0.004759  0.330713  0.749854  1
  Nd  Nd2  1  0.669287  0.995241  0.250146  1
  Nd  Nd3  1  0.330713  0.004759  0.749854  1
  Al  Al4  1  0.128442  0.128442  0.250802  1
  Al  Al5  1  0.871558  0.871558  0.749198  1
  Al  Al6  1  0.002576  0.331052  0.075529  1
  Al  Al7  1  0.997424  0.668948  0.924471  1
  Al  Al8  1  0.998877  0.665486  0.572406  1
  Al  Al9  1  0.334514  0.001123  0.427594  1
  Al  Al10  1  0.001123  0.334514  0.427594  1
  Al  Al11  1  0.665486  0.998877  0.572406  1
  Al  Al12  1  0.668948  0.997424  0.924471  1
  Al  Al13  1  0.331052  0.002576  0.075529  1
  Al  Al14  1  0.333377  0.333377  0.547209  1
  Al  Al15  1  0.666623  0.666623  0.452791  1
  Al  Al16  1  0.667800  0.667800  0.053755  1
  Al  Al17  1  0.332200  0.332200  0.946245  1
  Al  Al18  1  0.340150  0.544946  0.253537  1
  Al  Al19  1  0.659850  0.455054  0.746463  1
  Al  Al20  1  0.544946  0.340150  0.253537  1
  Al  Al21  1  0.455054  0.659850  0.746463  1
  Ir  Ir22  1  0.328841  0.671159  0.500000  1
  Ir  Ir23  1  0.671159  0.328841  0.500000  1
  Ir  Ir24  1  0.000000  0.000000  0.000000  1
  Ir  Ir25  1  0.000000  0.000000  0.500000  1
  Pt  Pt26  1  0.671358  0.328642  0.000000  1
  Pt  Pt27  1  0.328642  0.671358  0.000000  1
