# generated using pymatgen
data_Li4CaSb4Pb3
_symmetry_space_group_name_H-M   'P 1'
_cell_length_a   4.76615900
_cell_length_b   7.71835009
_cell_length_c   8.48623389
_cell_angle_alpha   90.59056688
_cell_angle_beta   90.00000000
_cell_angle_gamma   90.00000000
_symmetry_Int_Tables_number   1
_chemical_formula_structural   Li4CaSb4Pb3
_chemical_formula_sum   'Li4 Ca1 Sb4 Pb3'
_cell_volume   312.16551629
_cell_formula_units_Z   1
loop_
 _symmetry_equiv_pos_site_id
 _symmetry_equiv_pos_as_xyz
  1  'x, y, z'
loop_
 _atom_site_type_symbol
 _atom_site_label
 _atom_site_symmetry_multiplicity
 _atom_site_fract_x
 _atom_site_fract_y
 _atom_site_fract_z
 _atom_site_occupancy
  Li  Li0  1  0.750000  0.849869  0.432379  1
  Li  Li1  1  0.250000  0.150086  0.579064  1
  Li  Li2  1  0.250000  0.644461  0.924302  1
  Li  Li3  1  0.750000  0.359464  0.073985  1
  Ca  Ca4  1  0.250000  0.012343  0.200583  1
  Sb  Sb5  1  0.750000  0.742604  0.100154  1
  Sb  Sb6  1  0.250000  0.262459  0.902721  1
  Sb  Sb7  1  0.750000  0.225739  0.396994  1
  Sb  Sb8  1  0.250000  0.764457  0.589909  1
  Pb  Pb9  1  0.750000  0.486463  0.692576  1
  Pb  Pb10  1  0.750000  0.992044  0.808546  1
  Pb  Pb11  1  0.250000  0.510010  0.298787  1
