# generated using pymatgen
data_Tb5MnFeB6
_symmetry_space_group_name_H-M   'P 1'
_cell_length_a   5.42540700
_cell_length_b   5.42540667
_cell_length_c   8.33832616
_cell_angle_alpha   71.01445569
_cell_angle_beta   71.01445969
_cell_angle_gamma   60.00000527
_symmetry_Int_Tables_number   1
_chemical_formula_structural   Tb5MnFeB6
_chemical_formula_sum   'Tb5 Mn1 Fe1 B6'
_cell_volume   196.98838801
_cell_formula_units_Z   1
loop_
 _symmetry_equiv_pos_site_id
 _symmetry_equiv_pos_as_xyz
  1  'x, y, z'
loop_
 _atom_site_type_symbol
 _atom_site_label
 _atom_site_symmetry_multiplicity
 _atom_site_fract_x
 _atom_site_fract_y
 _atom_site_fract_z
 _atom_site_occupancy
  Tb  Tb0  1  0.001036  0.001036  0.996893  1
  Tb  Tb1  1  0.748422  0.748422  0.754736  1
  Tb  Tb2  1  0.251222  0.251222  0.246334  1
  Tb  Tb3  1  0.583469  0.583469  0.249592  1
  Tb  Tb4  1  0.416192  0.416192  0.751425  1
  Mn  Mn5  1  0.883499  0.883499  0.349504  1
  Fe  Fe6  1  0.117379  0.117379  0.647863  1
  B  B7  1  0.499695  0.166734  0.500609  1
  B  B8  1  0.832962  0.499695  0.500609  1
  B  B9  1  0.166734  0.832962  0.500609  1
  B  B10  1  0.166734  0.499695  0.500609  1
  B  B11  1  0.832962  0.166734  0.500609  1
  B  B12  1  0.499695  0.832962  0.500609  1
