# generated using pymatgen
data_Zr2ScUN4
_symmetry_space_group_name_H-M   'P 1'
_cell_length_a   5.68309252
_cell_length_b   5.68309213
_cell_length_c   5.68309224
_cell_angle_alpha   131.37183320
_cell_angle_beta   131.37182277
_cell_angle_gamma   71.22298608
_symmetry_Int_Tables_number   1
_chemical_formula_structural   Zr2ScUN4
_chemical_formula_sum   'Zr2 Sc1 U1 N4'
_cell_volume   101.19029816
_cell_formula_units_Z   1
loop_
 _symmetry_equiv_pos_site_id
 _symmetry_equiv_pos_as_xyz
  1  'x, y, z'
loop_
 _atom_site_type_symbol
 _atom_site_label
 _atom_site_symmetry_multiplicity
 _atom_site_fract_x
 _atom_site_fract_y
 _atom_site_fract_z
 _atom_site_occupancy
  Zr  Zr0  1  0.000000  0.000000  0.000000  1
  Zr  Zr1  1  0.750000  0.250000  0.500000  1
  Sc  Sc2  1  0.500000  0.500000  0.000000  1
  U  U3  1  0.250000  0.750000  0.500000  1
  N  N4  1  0.746704  0.746704  0.000000  1
  N  N5  1  0.253296  0.253296  0.000000  1
  N  N6  1  0.005964  0.505964  0.500000  1
  N  N7  1  0.494036  0.994036  0.500000  1
