# generated using pymatgen
data_Ho5Lu5AlSb5
_symmetry_space_group_name_H-M   'P 1'
_cell_length_a   8.81323300
_cell_length_b   8.81723661
_cell_length_c   6.27739200
_cell_angle_alpha   90.00000000
_cell_angle_beta   90.00000000
_cell_angle_gamma   119.98498449
_symmetry_Int_Tables_number   1
_chemical_formula_structural   Ho5Lu5AlSb5
_chemical_formula_sum   'Ho5 Lu5 Al1 Sb5'
_cell_volume   422.51615603
_cell_formula_units_Z   1
loop_
 _symmetry_equiv_pos_site_id
 _symmetry_equiv_pos_as_xyz
  1  'x, y, z'
loop_
 _atom_site_type_symbol
 _atom_site_label
 _atom_site_symmetry_multiplicity
 _atom_site_fract_x
 _atom_site_fract_y
 _atom_site_fract_z
 _atom_site_occupancy
  Ho  Ho0  1  0.755178  0.756276  0.250000  1
  Ho  Ho1  1  0.998903  0.243724  0.250000  1
  Ho  Ho2  1  0.009575  0.763585  0.750000  1
  Ho  Ho3  1  0.245990  0.236415  0.750000  1
  Ho  Ho4  1  0.242523  0.000000  0.250000  1
  Lu  Lu5  1  0.334962  0.673822  0.998240  1
  Lu  Lu6  1  0.661141  0.326178  0.501760  1
  Lu  Lu7  1  0.661141  0.326178  0.998240  1
  Lu  Lu8  1  0.334962  0.673822  0.501760  1
  Lu  Lu9  1  0.752090  0.000000  0.750000  1
  Al  Al10  1  0.398701  0.000000  0.750000  1
  Sb  Sb11  1  0.390537  0.393826  0.250000  1
  Sb  Sb12  1  0.996711  0.606174  0.250000  1
  Sb  Sb13  1  0.001100  0.390368  0.750000  1
  Sb  Sb14  1  0.610732  0.609632  0.750000  1
  Sb  Sb15  1  0.605752  0.000000  0.250000  1
