# generated using pymatgen
data_YbEu(Zn9Cu2)2
_symmetry_space_group_name_H-M   'P 1'
_cell_length_a   8.21265012
_cell_length_b   8.21265059
_cell_length_c   8.21264948
_cell_angle_alpha   99.59128097
_cell_angle_beta   99.59127877
_cell_angle_gamma   131.81769289
_symmetry_Int_Tables_number   1
_chemical_formula_structural   YbEu(Zn9Cu2)2
_chemical_formula_sum   'Yb1 Eu1 Zn18 Cu4'
_cell_volume   376.86478275
_cell_formula_units_Z   1
loop_
 _symmetry_equiv_pos_site_id
 _symmetry_equiv_pos_as_xyz
  1  'x, y, z'
loop_
 _atom_site_type_symbol
 _atom_site_label
 _atom_site_symmetry_multiplicity
 _atom_site_fract_x
 _atom_site_fract_y
 _atom_site_fract_z
 _atom_site_occupancy
  Yb  Yb0  1  0.000000  0.000000  0.000000  1
  Eu  Eu1  1  0.250000  0.750000  0.500000  1
  Zn  Zn2  1  0.750000  0.250000  0.500000  1
  Zn  Zn3  1  0.500000  0.500000  0.000000  1
  Zn  Zn4  1  0.187296  0.512543  0.082212  1
  Zn  Zn5  1  0.187296  0.105084  0.674755  1
  Zn  Zn6  1  0.764030  0.937728  0.582582  1
  Zn  Zn7  1  0.764030  0.181448  0.826302  1
  Zn  Zn8  1  0.430331  0.512543  0.325245  1
  Zn  Zn9  1  0.430331  0.105084  0.917788  1
  Zn  Zn10  1  0.355145  0.937728  0.173698  1
  Zn  Zn11  1  0.355145  0.181448  0.417418  1
  Zn  Zn12  1  0.062272  0.235970  0.417418  1
  Zn  Zn13  1  0.062272  0.644855  0.826302  1
  Zn  Zn14  1  0.487457  0.812704  0.917788  1
  Zn  Zn15  1  0.487457  0.569669  0.674755  1
  Zn  Zn16  1  0.818552  0.235970  0.173698  1
  Zn  Zn17  1  0.818552  0.644855  0.582582  1
  Zn  Zn18  1  0.894916  0.812704  0.325245  1
  Zn  Zn19  1  0.894916  0.569669  0.082212  1
  Cu  Cu20  1  0.125669  0.374693  0.750977  1
  Cu  Cu21  1  0.625307  0.874331  0.249023  1
  Cu  Cu22  1  0.625307  0.376284  0.750977  1
  Cu  Cu23  1  0.623716  0.374693  0.249023  1
