# generated using pymatgen
data_Ho2Er8In3Hg5Pd4
_symmetry_space_group_name_H-M   'P 1'
_cell_length_a   3.60972700
_cell_length_b   7.92267499
_cell_length_c   18.24679057
_cell_angle_alpha   89.71374556
_cell_angle_beta   90.00000000
_cell_angle_gamma   90.00000000
_symmetry_Int_Tables_number   1
_chemical_formula_structural   Ho2Er8In3Hg5Pd4
_chemical_formula_sum   'Ho2 Er8 In3 Hg5 Pd4'
_cell_volume   521.82786367
_cell_formula_units_Z   1
loop_
 _symmetry_equiv_pos_site_id
 _symmetry_equiv_pos_as_xyz
  1  'x, y, z'
loop_
 _atom_site_type_symbol
 _atom_site_label
 _atom_site_symmetry_multiplicity
 _atom_site_fract_x
 _atom_site_fract_y
 _atom_site_fract_z
 _atom_site_occupancy
  Ho  Ho0  1  0.000000  0.497456  0.501509  1
  Ho  Ho1  1  0.000000  0.001038  0.000570  1
  Er  Er2  1  0.000000  0.745613  0.284481  1
  Er  Er3  1  0.000000  0.265225  0.712311  1
  Er  Er4  1  0.000000  0.753415  0.782792  1
  Er  Er5  1  0.000000  0.246564  0.216244  1
  Er  Er6  1  0.000000  0.611644  0.083586  1
  Er  Er7  1  0.000000  0.387311  0.916357  1
  Er  Er8  1  0.000000  0.883219  0.585315  1
  Er  Er9  1  0.000000  0.108316  0.416933  1
  In  In10  1  0.500000  0.420031  0.351738  1
  In  In11  1  0.500000  0.921623  0.149589  1
  In  In12  1  0.500000  0.079155  0.849305  1
  Hg  Hg13  1  0.500000  0.713033  0.934208  1
  Hg  Hg14  1  0.500000  0.287938  0.066399  1
  Hg  Hg15  1  0.500000  0.784790  0.434181  1
  Hg  Hg16  1  0.500000  0.205332  0.564068  1
  Hg  Hg17  1  0.500000  0.581634  0.647957  1
  Pd  Pd18  1  0.500000  0.534486  0.198016  1
  Pd  Pd19  1  0.500000  0.465538  0.803738  1
  Pd  Pd20  1  0.500000  0.972945  0.698013  1
  Pd  Pd21  1  0.500000  0.033694  0.302689  1
