# generated using pymatgen
data_DyEr3(B6Rh)2
_symmetry_space_group_name_H-M   'P 1'
_cell_length_a   3.64445900
_cell_length_b   9.14907101
_cell_length_c   11.48184401
_cell_angle_alpha   90.00420503
_cell_angle_beta   90.00000000
_cell_angle_gamma   90.00000000
_symmetry_Int_Tables_number   1
_chemical_formula_structural   DyEr3(B6Rh)2
_chemical_formula_sum   'Dy2 Er6 B24 Rh4'
_cell_volume   382.84387915
_cell_formula_units_Z   2
loop_
 _symmetry_equiv_pos_site_id
 _symmetry_equiv_pos_as_xyz
  1  'x, y, z'
loop_
 _atom_site_type_symbol
 _atom_site_label
 _atom_site_symmetry_multiplicity
 _atom_site_fract_x
 _atom_site_fract_y
 _atom_site_fract_z
 _atom_site_occupancy
  Dy  Dy0  1  0.500000  0.322191  0.413723  1
  Dy  Dy1  1  0.500000  0.677809  0.586277  1
  Er  Er2  1  0.500000  0.177899  0.913877  1
  Er  Er3  1  0.500000  0.822101  0.086123  1
  Er  Er4  1  0.500000  0.444134  0.126558  1
  Er  Er5  1  0.500000  0.555866  0.873442  1
  Er  Er6  1  0.500000  0.055790  0.627123  1
  Er  Er7  1  0.500000  0.944210  0.372877  1
  B  B8  1  0.000000  0.108334  0.470694  1
  B  B9  1  0.000000  0.891666  0.529306  1
  B  B10  1  0.000000  0.390174  0.970312  1
  B  B11  1  0.000000  0.609826  0.029688  1
  B  B12  1  0.000000  0.132761  0.316122  1
  B  B13  1  0.000000  0.867239  0.683878  1
  B  B14  1  0.000000  0.366783  0.816686  1
  B  B15  1  0.000000  0.633217  0.183314  1
  B  B16  1  0.000000  0.053932  0.065124  1
  B  B17  1  0.000000  0.946068  0.934876  1
  B  B18  1  0.000000  0.445831  0.565780  1
  B  B19  1  0.000000  0.554169  0.434220  1
  B  B20  1  0.000000  0.483052  0.286332  1
  B  B21  1  0.000000  0.516948  0.713668  1
  B  B22  1  0.000000  0.017370  0.787069  1
  B  B23  1  0.000000  0.982630  0.212931  1
  B  B24  1  0.000000  0.249369  0.079201  1
  B  B25  1  0.000000  0.750631  0.920799  1
  B  B26  1  0.000000  0.250192  0.579946  1
  B  B27  1  0.000000  0.749808  0.420054  1
  B  B28  1  0.000000  0.294029  0.235561  1
  B  B29  1  0.000000  0.705971  0.764439  1
  B  B30  1  0.000000  0.205530  0.736532  1
  B  B31  1  0.000000  0.794470  0.263468  1
  Rh  Rh32  1  0.500000  0.139244  0.178753  1
  Rh  Rh33  1  0.500000  0.860756  0.821247  1
  Rh  Rh34  1  0.500000  0.359822  0.679843  1
  Rh  Rh35  1  0.500000  0.640178  0.320157  1
