# generated using pymatgen
data_Ho4ErRe2BC6
_symmetry_space_group_name_H-M   'P 1'
_cell_length_a   8.29215784
_cell_length_b   8.29215783
_cell_length_c   3.40205100
_cell_angle_alpha   90.00000000
_cell_angle_beta   90.00000000
_cell_angle_gamma   122.31740279
_symmetry_Int_Tables_number   1
_chemical_formula_structural   Ho4ErRe2BC6
_chemical_formula_sum   'Ho4 Er1 Re2 B1 C6'
_cell_volume   197.68958065
_cell_formula_units_Z   1
loop_
 _symmetry_equiv_pos_site_id
 _symmetry_equiv_pos_as_xyz
  1  'x, y, z'
loop_
 _atom_site_type_symbol
 _atom_site_label
 _atom_site_symmetry_multiplicity
 _atom_site_fract_x
 _atom_site_fract_y
 _atom_site_fract_z
 _atom_site_occupancy
  Ho  Ho0  1  0.078105  0.329940  0.500000  1
  Ho  Ho1  1  0.921895  0.670060  0.500000  1
  Ho  Ho2  1  0.670060  0.921895  0.500000  1
  Ho  Ho3  1  0.329940  0.078105  0.500000  1
  Er  Er4  1  0.500000  0.500000  0.000000  1
  Re  Re5  1  0.714478  0.285522  0.000000  1
  Re  Re6  1  0.285522  0.714478  0.000000  1
  B  B7  1  0.000000  0.000000  0.000000  1
  C  C8  1  0.626872  0.373128  0.500000  1
  C  C9  1  0.373128  0.626872  0.500000  1
  C  C10  1  0.183203  0.183203  0.000000  1
  C  C11  1  0.816797  0.816797  0.000000  1
  C  C12  1  0.000000  0.500000  0.000000  1
  C  C13  1  0.500000  0.000000  0.000000  1
