# generated using pymatgen
data_Sm11Gd5(C2Cl3)4
_symmetry_space_group_name_H-M   'P 1'
_cell_length_a   3.72908400
_cell_length_b   10.78684503
_cell_length_c   20.24108778
_cell_angle_alpha   90.04909905
_cell_angle_beta   90.00000000
_cell_angle_gamma   90.00000000
_symmetry_Int_Tables_number   1
_chemical_formula_structural   Sm11Gd5(C2Cl3)4
_chemical_formula_sum   'Sm11 Gd5 C8 Cl12'
_cell_volume   814.19849379
_cell_formula_units_Z   1
loop_
 _symmetry_equiv_pos_site_id
 _symmetry_equiv_pos_as_xyz
  1  'x, y, z'
loop_
 _atom_site_type_symbol
 _atom_site_label
 _atom_site_symmetry_multiplicity
 _atom_site_fract_x
 _atom_site_fract_y
 _atom_site_fract_z
 _atom_site_occupancy
  Sm  Sm0  1  0.250000  0.140045  0.572906  1
  Sm  Sm1  1  0.250000  0.639268  0.927252  1
  Sm  Sm2  1  0.750000  0.859922  0.427182  1
  Sm  Sm3  1  0.750000  0.359064  0.072529  1
  Sm  Sm4  1  0.250000  0.638155  0.755550  1
  Sm  Sm5  1  0.250000  0.138136  0.744952  1
  Sm  Sm6  1  0.750000  0.361900  0.244635  1
  Sm  Sm7  1  0.750000  0.862453  0.255068  1
  Sm  Sm8  1  0.250000  0.101774  0.332800  1
  Sm  Sm9  1  0.250000  0.601255  0.167090  1
  Sm  Sm10  1  0.750000  0.898538  0.667595  1
  Gd  Gd11  1  0.750000  0.399728  0.831663  1
  Gd  Gd12  1  0.250000  0.123120  0.165022  1
  Gd  Gd13  1  0.250000  0.624756  0.334808  1
  Gd  Gd14  1  0.750000  0.876802  0.835670  1
  Gd  Gd15  1  0.750000  0.376122  0.665072  1
  C  C16  1  0.250000  0.861801  0.347786  1
  C  C17  1  0.250000  0.362012  0.151896  1
  C  C18  1  0.750000  0.138314  0.652339  1
  C  C19  1  0.750000  0.636157  0.847966  1
  C  C20  1  0.250000  0.389129  0.750543  1
  C  C21  1  0.250000  0.887908  0.751169  1
  C  C22  1  0.750000  0.611817  0.250289  1
  C  C23  1  0.750000  0.111591  0.249412  1
  Cl  Cl24  1  0.250000  0.378366  0.951053  1
  Cl  Cl25  1  0.250000  0.878685  0.547719  1
  Cl  Cl26  1  0.750000  0.620560  0.047890  1
  Cl  Cl27  1  0.750000  0.121101  0.451912  1
  Cl  Cl28  1  0.250000  0.888775  0.942979  1
  Cl  Cl29  1  0.250000  0.389412  0.557712  1
  Cl  Cl30  1  0.750000  0.109994  0.057945  1
  Cl  Cl31  1  0.750000  0.610653  0.441844  1
  Cl  Cl32  1  0.250000  0.362725  0.353814  1
  Cl  Cl33  1  0.250000  0.862112  0.145799  1
  Cl  Cl34  1  0.750000  0.637733  0.645725  1
  Cl  Cl35  1  0.750000  0.140117  0.854416  1
