# generated using pymatgen
data_Dy4Er2CoTe2
_symmetry_space_group_name_H-M   'P 1'
_cell_length_a   8.31643700
_cell_length_b   8.35494714
_cell_length_c   3.91988800
_cell_angle_alpha   90.00000000
_cell_angle_beta   90.00000000
_cell_angle_gamma   119.84764755
_symmetry_Int_Tables_number   1
_chemical_formula_structural   Dy4Er2CoTe2
_chemical_formula_sum   'Dy4 Er2 Co1 Te2'
_cell_volume   236.23812365
_cell_formula_units_Z   1
loop_
 _symmetry_equiv_pos_site_id
 _symmetry_equiv_pos_as_xyz
  1  'x, y, z'
loop_
 _atom_site_type_symbol
 _atom_site_label
 _atom_site_symmetry_multiplicity
 _atom_site_fract_x
 _atom_site_fract_y
 _atom_site_fract_z
 _atom_site_occupancy
  Dy  Dy0  1  0.999895  0.399414  0.500000  1
  Dy  Dy1  1  0.600481  0.600586  0.500000  1
  Dy  Dy2  1  0.397622  0.000000  0.500000  1
  Dy  Dy3  1  0.764706  0.000000  0.000000  1
  Er  Er4  1  0.999622  0.765667  0.000000  1
  Er  Er5  1  0.233955  0.234333  0.000000  1
  Co  Co6  1  0.004440  0.000000  0.500000  1
  Te  Te7  1  0.332307  0.665337  0.000000  1
  Te  Te8  1  0.666971  0.334663  0.000000  1
