# generated using pymatgen
data_ZnNi3(SeO4)4
_symmetry_space_group_name_H-M   'P 1'
_cell_length_a   4.97796592
_cell_length_b   6.73455404
_cell_length_c   9.10467600
_cell_angle_alpha   90.04180025
_cell_angle_beta   89.80944623
_cell_angle_gamma   90.78926584
_symmetry_Int_Tables_number   1
_chemical_formula_structural   ZnNi3(SeO4)4
_chemical_formula_sum   'Zn1 Ni3 Se4 O16'
_cell_volume   305.19790388
_cell_formula_units_Z   1
loop_
 _symmetry_equiv_pos_site_id
 _symmetry_equiv_pos_as_xyz
  1  'x, y, z'
loop_
 _atom_site_type_symbol
 _atom_site_label
 _atom_site_symmetry_multiplicity
 _atom_site_fract_x
 _atom_site_fract_y
 _atom_site_fract_z
 _atom_site_occupancy
  Zn  Zn0  1  0.500000  0.500000  0.500000  1
  Ni  Ni1  1  0.000000  0.000000  0.000000  1
  Ni  Ni2  1  0.000000  0.500000  0.000000  1
  Ni  Ni3  1  0.500000  0.000000  0.500000  1
  Se  Se4  1  0.472666  0.249589  0.178166  1
  Se  Se5  1  0.972754  0.754012  0.319192  1
  Se  Se6  1  0.027246  0.245988  0.680808  1
  Se  Se7  1  0.527334  0.750411  0.821834  1
  O  O8  1  0.327329  0.039754  0.122528  1
  O  O9  1  0.795485  0.251904  0.119278  1
  O  O10  1  0.327004  0.458074  0.125788  1
  O  O11  1  0.934951  0.749306  0.132672  1
  O  O12  1  0.437559  0.246893  0.365061  1
  O  O13  1  0.294619  0.758796  0.376585  1
  O  O14  1  0.825441  0.961297  0.372764  1
  O  O15  1  0.828750  0.542926  0.375485  1
  O  O16  1  0.174559  0.038703  0.627236  1
  O  O17  1  0.705381  0.241204  0.623415  1
  O  O18  1  0.171250  0.457074  0.624515  1
  O  O19  1  0.562441  0.753107  0.634939  1
  O  O20  1  0.065049  0.250694  0.867328  1
  O  O21  1  0.672996  0.541926  0.874212  1
  O  O22  1  0.204515  0.748096  0.880722  1
  O  O23  1  0.672671  0.960246  0.877472  1
