# generated using pymatgen
data_Co2Re5Ru
_symmetry_space_group_name_H-M   'P 1'
_cell_length_a   5.39900800
_cell_length_b   5.40781396
_cell_length_c   4.34221700
_cell_angle_alpha   90.00000000
_cell_angle_beta   90.00000000
_cell_angle_gamma   119.94616053
_symmetry_Int_Tables_number   1
_chemical_formula_structural   Co2Re5Ru
_chemical_formula_sum   'Co2 Re5 Ru1'
_cell_volume   109.85333035
_cell_formula_units_Z   1
loop_
 _symmetry_equiv_pos_site_id
 _symmetry_equiv_pos_as_xyz
  1  'x, y, z'
loop_
 _atom_site_type_symbol
 _atom_site_label
 _atom_site_symmetry_multiplicity
 _atom_site_fract_x
 _atom_site_fract_y
 _atom_site_fract_z
 _atom_site_occupancy
  Co  Co0  1  0.331532  0.663064  0.750000  1
  Co  Co1  1  0.663451  0.326901  0.250000  1
  Re  Re2  1  0.665598  0.833794  0.250000  1
  Re  Re3  1  0.168194  0.833794  0.250000  1
  Re  Re4  1  0.834935  0.669869  0.750000  1
  Re  Re5  1  0.333937  0.168308  0.750000  1
  Re  Re6  1  0.834372  0.168308  0.750000  1
  Ru  Ru7  1  0.167981  0.335963  0.250000  1
