# generated using pymatgen
data_Ge(S8Br)3
_symmetry_space_group_name_H-M   'P 1'
_cell_length_a   15.06320523
_cell_length_b   15.06320543
_cell_length_c   15.06320500
_cell_angle_alpha   118.68813182
_cell_angle_beta   118.68812984
_cell_angle_gamma   118.68812954
_symmetry_Int_Tables_number   1
_chemical_formula_structural   Ge(S8Br)3
_chemical_formula_sum   'Ge1 S24 Br3'
_cell_volume   1010.65310435
_cell_formula_units_Z   1
loop_
 _symmetry_equiv_pos_site_id
 _symmetry_equiv_pos_as_xyz
  1  'x, y, z'
loop_
 _atom_site_type_symbol
 _atom_site_label
 _atom_site_symmetry_multiplicity
 _atom_site_fract_x
 _atom_site_fract_y
 _atom_site_fract_z
 _atom_site_occupancy
  Ge  Ge0  1  0.819616  0.819616  0.819616  1
  S  S1  1  0.803003  0.520764  0.520764  1
  S  S2  1  0.520764  0.520764  0.803003  1
  S  S3  1  0.520764  0.803003  0.520764  1
  S  S4  1  0.246221  0.375736  0.635659  1
  S  S5  1  0.351264  0.951329  0.351264  1
  S  S6  1  0.351264  0.351264  0.951329  1
  S  S7  1  0.951329  0.351264  0.351264  1
  S  S8  1  0.127791  0.741377  0.257690  1
  S  S9  1  0.257690  0.127791  0.741377  1
  S  S10  1  0.741377  0.257690  0.127791  1
  S  S11  1  0.741377  0.127791  0.257690  1
  S  S12  1  0.257690  0.741377  0.127791  1
  S  S13  1  0.127791  0.257690  0.741377  1
  S  S14  1  0.346485  0.879054  0.529320  1
  S  S15  1  0.529320  0.346485  0.879054  1
  S  S16  1  0.879054  0.529320  0.346485  1
  S  S17  1  0.879054  0.346485  0.529320  1
  S  S18  1  0.529320  0.879054  0.346485  1
  S  S19  1  0.346485  0.529320  0.879054  1
  S  S20  1  0.246221  0.635659  0.375736  1
  S  S21  1  0.375736  0.246221  0.635659  1
  S  S22  1  0.635659  0.375736  0.246221  1
  S  S23  1  0.635659  0.246221  0.375736  1
  S  S24  1  0.375736  0.635659  0.246221  1
  Br  Br25  1  0.877411  0.025608  0.025608  1
  Br  Br26  1  0.025608  0.025608  0.877411  1
  Br  Br27  1  0.025608  0.877411  0.025608  1
