# generated using pymatgen
data_Ca2P7Ir5Ru7
_symmetry_space_group_name_H-M   'P 1'
_cell_length_a   9.57831200
_cell_length_b   9.55776045
_cell_length_c   3.92788000
_cell_angle_alpha   90.00000000
_cell_angle_beta   90.00000000
_cell_angle_gamma   119.74932698
_symmetry_Int_Tables_number   1
_chemical_formula_structural   Ca2P7Ir5Ru7
_chemical_formula_sum   'Ca2 P7 Ir5 Ru7'
_cell_volume   312.19463550
_cell_formula_units_Z   1
loop_
 _symmetry_equiv_pos_site_id
 _symmetry_equiv_pos_as_xyz
  1  'x, y, z'
loop_
 _atom_site_type_symbol
 _atom_site_label
 _atom_site_symmetry_multiplicity
 _atom_site_fract_x
 _atom_site_fract_y
 _atom_site_fract_z
 _atom_site_occupancy
  Ca  Ca0  1  0.000674  0.998770  0.000000  1
  Ca  Ca1  1  0.332350  0.667410  0.500000  1
  P  P2  1  0.786005  0.732670  0.500000  1
  P  P3  1  0.267647  0.046603  0.500000  1
  P  P4  1  0.948733  0.210612  0.500000  1
  P  P5  1  0.668145  0.332109  0.000000  1
  P  P6  1  0.084357  0.636677  0.000000  1
  P  P7  1  0.367853  0.451203  0.000000  1
  P  P8  1  0.546178  0.919941  0.000000  1
  Ir  Ir9  1  0.102184  0.401786  0.000000  1
  Ir  Ir10  1  0.597162  0.702622  0.000000  1
  Ir  Ir11  1  0.056574  0.773610  0.500000  1
  Ir  Ir12  1  0.220318  0.275401  0.500000  1
  Ir  Ir13  1  0.721420  0.940941  0.500000  1
  Ru  Ru14  1  0.298819  0.905007  0.000000  1
  Ru  Ru15  1  0.824373  0.601118  0.000000  1
  Ru  Ru16  1  0.399907  0.228503  0.000000  1
  Ru  Ru17  1  0.776759  0.170071  0.000000  1
  Ru  Ru18  1  0.887516  0.417785  0.500000  1
  Ru  Ru19  1  0.572913  0.468028  0.500000  1
  Ru  Ru20  1  0.540118  0.119131  0.500000  1
