# generated using pymatgen
data_BaP3Pd5
_symmetry_space_group_name_H-M   'P 1'
_cell_length_a   6.70791001
_cell_length_b   6.70790972
_cell_length_c   12.84258300
_cell_angle_alpha   90.00000000
_cell_angle_beta   90.00000000
_cell_angle_gamma   146.02913307
_symmetry_Int_Tables_number   1
_chemical_formula_structural   BaP3Pd5
_chemical_formula_sum   'Ba2 P6 Pd10'
_cell_volume   322.89468998
_cell_formula_units_Z   2
loop_
 _symmetry_equiv_pos_site_id
 _symmetry_equiv_pos_as_xyz
  1  'x, y, z'
loop_
 _atom_site_type_symbol
 _atom_site_label
 _atom_site_symmetry_multiplicity
 _atom_site_fract_x
 _atom_site_fract_y
 _atom_site_fract_z
 _atom_site_occupancy
  Ba  Ba0  1  0.154729  0.845271  0.250000  1
  Ba  Ba1  1  0.845271  0.154729  0.750000  1
  P  P2  1  0.876761  0.123239  0.250000  1
  P  P3  1  0.123239  0.876761  0.750000  1
  P  P4  1  0.385037  0.614963  0.963876  1
  P  P5  1  0.614963  0.385037  0.036124  1
  P  P6  1  0.614963  0.385037  0.463876  1
  P  P7  1  0.385037  0.614963  0.536124  1
  Pd  Pd8  1  0.441926  0.558074  0.354769  1
  Pd  Pd9  1  0.441926  0.558074  0.145231  1
  Pd  Pd10  1  0.792389  0.207611  0.071277  1
  Pd  Pd11  1  0.207611  0.792389  0.928723  1
  Pd  Pd12  1  0.207611  0.792389  0.571277  1
  Pd  Pd13  1  0.792389  0.207611  0.428723  1
  Pd  Pd14  1  0.000000  0.000000  0.500000  1
  Pd  Pd15  1  0.000000  0.000000  0.000000  1
  Pd  Pd16  1  0.558074  0.441926  0.854769  1
  Pd  Pd17  1  0.558074  0.441926  0.645231  1
