# generated using pymatgen
data_Ba3Tc4(P3Pt)2
_symmetry_space_group_name_H-M   'P 1'
_cell_length_a   8.97463306
_cell_length_b   8.97441846
_cell_length_c   8.97442345
_cell_angle_alpha   153.42813535
_cell_angle_beta   92.40317771
_cell_angle_gamma   93.65186540
_symmetry_Int_Tables_number   1
_chemical_formula_structural   Ba3Tc4(P3Pt)2
_chemical_formula_sum   'Ba3 Tc4 P6 Pt2'
_cell_volume   314.65691564
_cell_formula_units_Z   1
loop_
 _symmetry_equiv_pos_site_id
 _symmetry_equiv_pos_as_xyz
  1  'x, y, z'
loop_
 _atom_site_type_symbol
 _atom_site_label
 _atom_site_symmetry_multiplicity
 _atom_site_fract_x
 _atom_site_fract_y
 _atom_site_fract_z
 _atom_site_occupancy
  Ba  Ba0  1  0.332949  0.332967  0.999983  1
  Ba  Ba1  1  0.666671  0.666645  0.000025  1
  Ba  Ba2  1  0.000339  0.000336  0.999999  1
  Tc  Tc3  1  0.582137  0.830700  0.751436  1
  Tc  Tc4  1  0.253940  0.502662  0.751276  1
  Tc  Tc5  1  0.751398  0.502669  0.248729  1
  Tc  Tc6  1  0.079257  0.830703  0.248555  1
  P  P7  1  0.317562  0.666740  0.650823  1
  P  P8  1  0.685497  0.340269  0.345230  1
  P  P9  1  0.995025  0.340258  0.654766  1
  P  P10  1  0.338074  0.992962  0.345112  1
  P  P11  1  0.015927  0.666742  0.349185  1
  P  P12  1  0.647857  0.992977  0.654881  1
  Pt  Pt13  1  0.415322  0.166683  0.248639  1
  Pt  Pt14  1  0.918046  0.166685  0.751360  1
