# generated using pymatgen
data_La2(SeO4)3
_symmetry_space_group_name_H-M   'P 1'
_cell_length_a   10.39978900
_cell_length_b   10.39978890
_cell_length_c   10.39978945
_cell_angle_alpha   57.87362036
_cell_angle_beta   57.87361971
_cell_angle_gamma   57.87361795
_symmetry_Int_Tables_number   1
_chemical_formula_structural   La2(SeO4)3
_chemical_formula_sum   'La4 Se6 O24'
_cell_volume   756.52967726
_cell_formula_units_Z   2
loop_
 _symmetry_equiv_pos_site_id
 _symmetry_equiv_pos_as_xyz
  1  'x, y, z'
loop_
 _atom_site_type_symbol
 _atom_site_label
 _atom_site_symmetry_multiplicity
 _atom_site_fract_x
 _atom_site_fract_y
 _atom_site_fract_z
 _atom_site_occupancy
  La  La0  1  0.644015  0.644015  0.644015  1
  La  La1  1  0.144015  0.144015  0.144015  1
  La  La2  1  0.855985  0.855985  0.855985  1
  La  La3  1  0.355985  0.355985  0.355985  1
  Se  Se4  1  0.250000  0.536932  0.963068  1
  Se  Se5  1  0.463068  0.036932  0.750000  1
  Se  Se6  1  0.036932  0.750000  0.463068  1
  Se  Se7  1  0.963068  0.250000  0.536932  1
  Se  Se8  1  0.536932  0.963068  0.250000  1
  Se  Se9  1  0.750000  0.463068  0.036932  1
  O  O10  1  0.007569  0.774158  0.623931  1
  O  O11  1  0.774158  0.623931  0.007569  1
  O  O12  1  0.412149  0.564415  0.799129  1
  O  O13  1  0.274158  0.507569  0.123931  1
  O  O14  1  0.623931  0.007569  0.774158  1
  O  O15  1  0.492431  0.876069  0.725842  1
  O  O16  1  0.200871  0.587851  0.435585  1
  O  O17  1  0.087851  0.700871  0.935585  1
  O  O18  1  0.299129  0.064415  0.912149  1
  O  O19  1  0.435585  0.200871  0.587851  1
  O  O20  1  0.064415  0.912149  0.299129  1
  O  O21  1  0.876069  0.725842  0.492431  1
  O  O22  1  0.123931  0.274158  0.507569  1
  O  O23  1  0.935585  0.087851  0.700871  1
  O  O24  1  0.564415  0.799129  0.412149  1
  O  O25  1  0.700871  0.935585  0.087851  1
  O  O26  1  0.912149  0.299129  0.064415  1
  O  O27  1  0.799129  0.412149  0.564415  1
  O  O28  1  0.507569  0.123931  0.274158  1
  O  O29  1  0.376069  0.992431  0.225842  1
  O  O30  1  0.725842  0.492431  0.876069  1
  O  O31  1  0.587851  0.435585  0.200871  1
  O  O32  1  0.225842  0.376069  0.992431  1
  O  O33  1  0.992431  0.225842  0.376069  1
