# generated using pymatgen
data_Hf3Sc(SiRh5)2
_symmetry_space_group_name_H-M   'P 1'
_cell_length_a   4.05855700
_cell_length_b   5.53165759
_cell_length_c   10.82360505
_cell_angle_alpha   90.11078500
_cell_angle_beta   90.00000000
_cell_angle_gamma   90.00000000
_symmetry_Int_Tables_number   1
_chemical_formula_structural   Hf3Sc(SiRh5)2
_chemical_formula_sum   'Hf3 Sc1 Si2 Rh10'
_cell_volume   242.99540647
_cell_formula_units_Z   1
loop_
 _symmetry_equiv_pos_site_id
 _symmetry_equiv_pos_as_xyz
  1  'x, y, z'
loop_
 _atom_site_type_symbol
 _atom_site_label
 _atom_site_symmetry_multiplicity
 _atom_site_fract_x
 _atom_site_fract_y
 _atom_site_fract_z
 _atom_site_occupancy
  Hf  Hf0  1  0.500000  0.825655  0.361229  1
  Hf  Hf1  1  0.500000  0.675205  0.856925  1
  Hf  Hf2  1  0.500000  0.325025  0.140737  1
  Sc  Sc3  1  0.500000  0.175455  0.640419  1
  Si  Si4  1  0.000000  0.496118  0.501440  1
  Si  Si5  1  0.000000  0.000018  0.999703  1
  Rh  Rh6  1  0.500000  0.179822  0.898053  1
  Rh  Rh7  1  0.500000  0.820121  0.102704  1
  Rh  Rh8  1  0.500000  0.679083  0.602440  1
  Rh  Rh9  1  0.500000  0.320851  0.396251  1
  Rh  Rh10  1  0.000000  0.429445  0.740905  1
  Rh  Rh11  1  0.000000  0.571397  0.258980  1
  Rh  Rh12  1  0.000000  0.000766  0.500193  1
  Rh  Rh13  1  0.000000  0.500387  0.999791  1
  Rh  Rh14  1  0.000000  0.070915  0.240873  1
  Rh  Rh15  1  0.000000  0.929737  0.759356  1
