# generated using pymatgen
data_Li8Tb6Ho2Sn7Bi
_symmetry_space_group_name_H-M   'P 1'
_cell_length_a   9.42307702
_cell_length_b   9.42327047
_cell_length_c   7.30639802
_cell_angle_alpha   90.09956755
_cell_angle_beta   89.99386393
_cell_angle_gamma   120.00117009
_symmetry_Int_Tables_number   1
_chemical_formula_structural   Li8Tb6Ho2Sn7Bi
_chemical_formula_sum   'Li8 Tb6 Ho2 Sn7 Bi1'
_cell_volume   561.85262127
_cell_formula_units_Z   1
loop_
 _symmetry_equiv_pos_site_id
 _symmetry_equiv_pos_as_xyz
  1  'x, y, z'
loop_
 _atom_site_type_symbol
 _atom_site_label
 _atom_site_symmetry_multiplicity
 _atom_site_fract_x
 _atom_site_fract_y
 _atom_site_fract_z
 _atom_site_occupancy
  Li  Li0  1  0.166359  0.332755  0.284333  1
  Li  Li1  1  0.167844  0.833949  0.288445  1
  Li  Li2  1  0.666049  0.833999  0.288398  1
  Li  Li3  1  0.833697  0.667267  0.786581  1
  Li  Li4  1  0.829345  0.164617  0.791523  1
  Li  Li5  1  0.335340  0.164524  0.791508  1
  Li  Li6  1  0.335357  0.670752  0.670397  1
  Li  Li7  1  0.665989  0.332098  0.172913  1
  Tb  Tb8  1  0.512418  0.024727  0.494032  1
  Tb  Tb9  1  0.516716  0.490874  0.491267  1
  Tb  Tb10  1  0.974293  0.490872  0.491144  1
  Tb  Tb11  1  0.487654  0.975332  0.994749  1
  Tb  Tb12  1  0.493418  0.514221  0.996513  1
  Tb  Tb13  1  0.020713  0.514182  0.996421  1
  Ho  Ho14  1  0.997352  0.994729  0.496992  1
  Ho  Ho15  1  0.997708  0.995374  0.002269  1
  Sn  Sn16  1  0.166143  0.833520  0.730031  1
  Sn  Sn17  1  0.667414  0.833423  0.730047  1
  Sn  Sn18  1  0.833894  0.667640  0.231019  1
  Sn  Sn19  1  0.834688  0.166841  0.229915  1
  Sn  Sn20  1  0.332177  0.166800  0.229740  1
  Sn  Sn21  1  0.332359  0.665208  0.260345  1
  Sn  Sn22  1  0.666977  0.333927  0.761155  1
  Bi  Bi23  1  0.166098  0.332371  0.732234  1
