# generated using pymatgen
data_LiYb3(SnPd5)2
_symmetry_space_group_name_H-M   'P 1'
_cell_length_a   4.31828700
_cell_length_b   5.72507116
_cell_length_c   11.21848600
_cell_angle_alpha   90.49673694
_cell_angle_beta   90.00000000
_cell_angle_gamma   90.00000000
_symmetry_Int_Tables_number   1
_chemical_formula_structural   LiYb3(SnPd5)2
_chemical_formula_sum   'Li1 Yb3 Sn2 Pd10'
_cell_volume   277.33860087
_cell_formula_units_Z   1
loop_
 _symmetry_equiv_pos_site_id
 _symmetry_equiv_pos_as_xyz
  1  'x, y, z'
loop_
 _atom_site_type_symbol
 _atom_site_label
 _atom_site_symmetry_multiplicity
 _atom_site_fract_x
 _atom_site_fract_y
 _atom_site_fract_z
 _atom_site_occupancy
  Li  Li0  1  0.500000  0.176811  0.140134  1
  Yb  Yb1  1  0.500000  0.821665  0.864637  1
  Yb  Yb2  1  0.500000  0.319457  0.640387  1
  Yb  Yb3  1  0.500000  0.677326  0.354618  1
  Sn  Sn4  1  0.000000  0.001705  0.496013  1
  Sn  Sn5  1  0.000000  0.494830  0.006838  1
  Pd  Pd6  1  0.500000  0.189183  0.380427  1
  Pd  Pd7  1  0.500000  0.808554  0.610742  1
  Pd  Pd8  1  0.500000  0.309159  0.893764  1
  Pd  Pd9  1  0.500000  0.703262  0.110832  1
  Pd  Pd10  1  0.000000  0.421438  0.243297  1
  Pd  Pd11  1  0.000000  0.566964  0.755637  1
  Pd  Pd12  1  0.000000  0.066058  0.747906  1
  Pd  Pd13  1  0.000000  0.933970  0.250306  1
  Pd  Pd14  1  0.000000  0.008888  0.006025  1
  Pd  Pd15  1  0.000000  0.500731  0.498437  1
