# generated using pymatgen
data_Tb3Dy3(Tm2Pb3)2
_symmetry_space_group_name_H-M   'P 1'
_cell_length_a   6.57668100
_cell_length_b   9.05068566
_cell_length_c   9.05188901
_cell_angle_alpha   119.99560155
_cell_angle_beta   90.00003642
_cell_angle_gamma   89.99992313
_symmetry_Int_Tables_number   1
_chemical_formula_structural   Tb3Dy3(Tm2Pb3)2
_chemical_formula_sum   'Tb3 Dy3 Tm4 Pb6'
_cell_volume   466.63505146
_cell_formula_units_Z   1
loop_
 _symmetry_equiv_pos_site_id
 _symmetry_equiv_pos_as_xyz
  1  'x, y, z'
loop_
 _atom_site_type_symbol
 _atom_site_label
 _atom_site_symmetry_multiplicity
 _atom_site_fract_x
 _atom_site_fract_y
 _atom_site_fract_z
 _atom_site_occupancy
  Tb  Tb0  1  0.750007  0.238702  0.000000  1
  Tb  Tb1  1  0.749997  0.761236  0.761289  1
  Tb  Tb2  1  0.749997  0.999947  0.238711  1
  Dy  Dy3  1  0.250004  0.761328  0.000000  1
  Dy  Dy4  1  0.249998  0.238733  0.238680  1
  Dy  Dy5  1  0.249998  0.000053  0.761320  1
  Tm  Tm6  1  0.499967  0.333339  0.666727  1
  Tm  Tm7  1  0.499967  0.666612  0.333273  1
  Tm  Tm8  1  0.000029  0.666661  0.333274  1
  Tm  Tm9  1  0.000029  0.333387  0.666726  1
  Pb  Pb10  1  0.749997  0.605055  0.000000  1
  Pb  Pb11  1  0.750004  0.394897  0.394849  1
  Pb  Pb12  1  0.750004  0.000047  0.605151  1
  Pb  Pb13  1  0.249995  0.394841  0.000000  1
  Pb  Pb14  1  0.250004  0.605207  0.605253  1
  Pb  Pb15  1  0.250004  0.999953  0.394747  1
