# generated using pymatgen
data_CsIF8
_symmetry_space_group_name_H-M   'P 1'
_cell_length_a   8.03351600
_cell_length_b   8.03351600
_cell_length_c   5.33109300
_cell_angle_alpha   90.00000000
_cell_angle_beta   90.00000000
_cell_angle_gamma   90.00000000
_symmetry_Int_Tables_number   1
_chemical_formula_structural   CsIF8
_chemical_formula_sum   'Cs2 I2 F16'
_cell_volume   344.05477114
_cell_formula_units_Z   2
loop_
 _symmetry_equiv_pos_site_id
 _symmetry_equiv_pos_as_xyz
  1  'x, y, z'
loop_
 _atom_site_type_symbol
 _atom_site_label
 _atom_site_symmetry_multiplicity
 _atom_site_fract_x
 _atom_site_fract_y
 _atom_site_fract_z
 _atom_site_occupancy
  Cs  Cs0  1  0.000000  0.000000  0.500000  1
  Cs  Cs1  1  0.500000  0.500000  0.500000  1
  I  I2  1  0.000000  0.500000  0.107594  1
  I  I3  1  0.500000  0.000000  0.892406  1
  F  F4  1  0.703978  0.000000  0.086540  1
  F  F5  1  0.296022  0.000000  0.086540  1
  F  F6  1  0.500000  0.203978  0.086540  1
  F  F7  1  0.500000  0.796022  0.086540  1
  F  F8  1  0.856163  0.356163  0.308021  1
  F  F9  1  0.856163  0.643837  0.308021  1
  F  F10  1  0.143837  0.356163  0.308021  1
  F  F11  1  0.143837  0.643837  0.308021  1
  F  F12  1  0.643837  0.856163  0.691979  1
  F  F13  1  0.356163  0.143837  0.691979  1
  F  F14  1  0.356163  0.856163  0.691979  1
  F  F15  1  0.643837  0.143837  0.691979  1
  F  F16  1  0.000000  0.296022  0.913460  1
  F  F17  1  0.796022  0.500000  0.913460  1
  F  F18  1  0.203978  0.500000  0.913460  1
  F  F19  1  0.000000  0.703978  0.913460  1
