# generated using pymatgen
data_Tb2Th2CdHgPd4
_symmetry_space_group_name_H-M   'P 1'
_cell_length_a   3.79576100
_cell_length_b   7.84681674
_cell_length_c   7.84444715
_cell_angle_alpha   91.28595931
_cell_angle_beta   90.00000000
_cell_angle_gamma   90.00000000
_symmetry_Int_Tables_number   1
_chemical_formula_structural   Tb2Th2CdHgPd4
_chemical_formula_sum   'Tb2 Th2 Cd1 Hg1 Pd4'
_cell_volume   233.58519586
_cell_formula_units_Z   1
loop_
 _symmetry_equiv_pos_site_id
 _symmetry_equiv_pos_as_xyz
  1  'x, y, z'
loop_
 _atom_site_type_symbol
 _atom_site_label
 _atom_site_symmetry_multiplicity
 _atom_site_fract_x
 _atom_site_fract_y
 _atom_site_fract_z
 _atom_site_occupancy
  Tb  Tb0  1  0.500000  0.327231  0.171026  1
  Tb  Tb1  1  0.500000  0.672769  0.828974  1
  Th  Th2  1  0.500000  0.173483  0.675847  1
  Th  Th3  1  0.500000  0.826517  0.324153  1
  Cd  Cd4  1  0.000000  0.500000  0.500000  1
  Hg  Hg5  1  0.000000  0.000000  0.000000  1
  Pd  Pd6  1  0.000000  0.627075  0.129332  1
  Pd  Pd7  1  0.000000  0.372925  0.870668  1
  Pd  Pd8  1  0.000000  0.872169  0.625554  1
  Pd  Pd9  1  0.000000  0.127831  0.374446  1
