# generated using pymatgen
data_YbY3(SiAu2)8
_symmetry_space_group_name_H-M   'P 1'
_cell_length_a   4.41998900
_cell_length_b   4.42993500
_cell_length_c   26.97448300
_cell_angle_alpha   90.00000000
_cell_angle_beta   90.00000000
_cell_angle_gamma   90.00000000
_symmetry_Int_Tables_number   1
_chemical_formula_structural   YbY3(SiAu2)8
_chemical_formula_sum   'Yb1 Y3 Si8 Au16'
_cell_volume   528.16749761
_cell_formula_units_Z   1
loop_
 _symmetry_equiv_pos_site_id
 _symmetry_equiv_pos_as_xyz
  1  'x, y, z'
loop_
 _atom_site_type_symbol
 _atom_site_label
 _atom_site_symmetry_multiplicity
 _atom_site_fract_x
 _atom_site_fract_y
 _atom_site_fract_z
 _atom_site_occupancy
  Yb  Yb0  1  0.000000  0.500000  0.749372  1
  Y  Y1  1  0.500000  0.000000  0.250575  1
  Y  Y2  1  0.500000  0.500000  0.000124  1
  Y  Y3  1  0.500000  0.500000  0.499906  1
  Si  Si4  1  0.000000  0.000000  0.956604  1
  Si  Si5  1  0.000000  0.000000  0.456887  1
  Si  Si6  1  0.500000  0.000000  0.793342  1
  Si  Si7  1  0.500000  0.000000  0.705502  1
  Si  Si8  1  0.000000  0.500000  0.207173  1
  Si  Si9  1  0.000000  0.500000  0.293941  1
  Si  Si10  1  0.000000  0.000000  0.043260  1
  Si  Si11  1  0.000000  0.000000  0.543288  1
  Au  Au12  1  0.500000  0.000000  0.085939  1
  Au  Au13  1  0.500000  0.500000  0.663487  1
  Au  Au14  1  0.500000  0.500000  0.835420  1
  Au  Au15  1  0.000000  0.500000  0.085422  1
  Au  Au16  1  0.500000  0.000000  0.914276  1
  Au  Au17  1  0.000000  0.000000  0.664342  1
  Au  Au18  1  0.000000  0.500000  0.415094  1
  Au  Au19  1  0.500000  0.500000  0.336829  1
  Au  Au20  1  0.500000  0.000000  0.414561  1
  Au  Au21  1  0.000000  0.000000  0.335712  1
  Au  Au22  1  0.000000  0.000000  0.165253  1
  Au  Au23  1  0.500000  0.000000  0.585240  1
  Au  Au24  1  0.000000  0.000000  0.834677  1
  Au  Au25  1  0.500000  0.500000  0.164199  1
  Au  Au26  1  0.000000  0.500000  0.584996  1
  Au  Au27  1  0.000000  0.500000  0.914580  1
