# generated using pymatgen
data_Dy3Er5Tc3B24Ir
_symmetry_space_group_name_H-M   'P 1'
_cell_length_a   3.66070300
_cell_length_b   9.13421656
_cell_length_c   11.52199963
_cell_angle_alpha   90.09653507
_cell_angle_beta   90.00000000
_cell_angle_gamma   90.00000000
_symmetry_Int_Tables_number   1
_chemical_formula_structural   Dy3Er5Tc3B24Ir
_chemical_formula_sum   'Dy3 Er5 Tc3 B24 Ir1'
_cell_volume   385.26808994
_cell_formula_units_Z   1
loop_
 _symmetry_equiv_pos_site_id
 _symmetry_equiv_pos_as_xyz
  1  'x, y, z'
loop_
 _atom_site_type_symbol
 _atom_site_label
 _atom_site_symmetry_multiplicity
 _atom_site_fract_x
 _atom_site_fract_y
 _atom_site_fract_z
 _atom_site_occupancy
  Dy  Dy0  1  0.500000  0.318485  0.415845  1
  Dy  Dy1  1  0.500000  0.678277  0.590976  1
  Dy  Dy2  1  0.500000  0.177189  0.912828  1
  Er  Er3  1  0.500000  0.827347  0.080943  1
  Er  Er4  1  0.500000  0.440525  0.128533  1
  Er  Er5  1  0.500000  0.557207  0.871271  1
  Er  Er6  1  0.500000  0.056258  0.629830  1
  Er  Er7  1  0.500000  0.944387  0.369801  1
  Tc  Tc8  1  0.500000  0.138283  0.180334  1
  Tc  Tc9  1  0.500000  0.861446  0.820770  1
  Tc  Tc10  1  0.500000  0.362375  0.678163  1
  B  B11  1  0.000000  0.100937  0.471533  1
  B  B12  1  0.000000  0.896169  0.527906  1
  B  B13  1  0.000000  0.397711  0.972073  1
  B  B14  1  0.000000  0.603775  0.029239  1
  B  B15  1  0.000000  0.130386  0.314949  1
  B  B16  1  0.000000  0.868655  0.685363  1
  B  B17  1  0.000000  0.369608  0.814500  1
  B  B18  1  0.000000  0.631642  0.183798  1
  B  B19  1  0.000000  0.053246  0.066745  1
  B  B20  1  0.000000  0.946904  0.932828  1
  B  B21  1  0.000000  0.446347  0.566841  1
  B  B22  1  0.000000  0.554028  0.433523  1
  B  B23  1  0.000000  0.482872  0.287508  1
  B  B24  1  0.000000  0.518086  0.712618  1
  B  B25  1  0.000000  0.017405  0.787114  1
  B  B26  1  0.000000  0.982334  0.211809  1
  B  B27  1  0.000000  0.249134  0.081472  1
  B  B28  1  0.000000  0.751504  0.919286  1
  B  B29  1  0.000000  0.249963  0.581229  1
  B  B30  1  0.000000  0.749496  0.419633  1
  B  B31  1  0.000000  0.291586  0.235218  1
  B  B32  1  0.000000  0.708155  0.766051  1
  B  B33  1  0.000000  0.208475  0.734353  1
  B  B34  1  0.000000  0.791560  0.264466  1
  Ir  Ir35  1  0.500000  0.638246  0.320654  1
