# generated using pymatgen
data_La2Tb2Zn10SiSn
_symmetry_space_group_name_H-M   'P 1'
_cell_length_a   8.42706368
_cell_length_b   8.42706380
_cell_length_c   8.94080500
_cell_angle_alpha   90.00000000
_cell_angle_beta   90.00000000
_cell_angle_gamma   149.51884208
_symmetry_Int_Tables_number   1
_chemical_formula_structural   La2Tb2Zn10SiSn
_chemical_formula_sum   'La2 Tb2 Zn10 Si1 Sn1'
_cell_volume   322.07387832
_cell_formula_units_Z   1
loop_
 _symmetry_equiv_pos_site_id
 _symmetry_equiv_pos_as_xyz
  1  'x, y, z'
loop_
 _atom_site_type_symbol
 _atom_site_label
 _atom_site_symmetry_multiplicity
 _atom_site_fract_x
 _atom_site_fract_y
 _atom_site_fract_z
 _atom_site_occupancy
  La  La0  1  0.001000  0.999000  0.487536  1
  La  La1  1  0.001000  0.999000  0.012464  1
  Tb  Tb2  1  0.203586  0.796414  0.250000  1
  Tb  Tb3  1  0.793406  0.206594  0.750000  1
  Zn  Zn4  1  0.812320  0.187680  0.390393  1
  Zn  Zn5  1  0.186745  0.813255  0.607760  1
  Zn  Zn6  1  0.812320  0.187680  0.109607  1
  Zn  Zn7  1  0.186745  0.813255  0.892240  1
  Zn  Zn8  1  0.652763  0.347237  0.473864  1
  Zn  Zn9  1  0.342176  0.657824  0.514674  1
  Zn  Zn10  1  0.652763  0.347237  0.026136  1
  Zn  Zn11  1  0.342176  0.657824  0.985326  1
  Zn  Zn12  1  0.405103  0.594897  0.250000  1
  Zn  Zn13  1  0.604820  0.395180  0.750000  1
  Si  Si14  1  0.561526  0.438474  0.250000  1
  Sn  Sn15  1  0.441551  0.558449  0.750000  1
