# generated using pymatgen
data_Tm2HfZrF14
_symmetry_space_group_name_H-M   'P 1'
_cell_length_a   5.68167010
_cell_length_b   6.01344975
_cell_length_c   8.21902887
_cell_angle_alpha   102.59139435
_cell_angle_beta   90.00255261
_cell_angle_gamma   90.01965994
_symmetry_Int_Tables_number   1
_chemical_formula_structural   Tm2HfZrF14
_chemical_formula_sum   'Tm2 Hf1 Zr1 F14'
_cell_volume   274.06118352
_cell_formula_units_Z   1
loop_
 _symmetry_equiv_pos_site_id
 _symmetry_equiv_pos_as_xyz
  1  'x, y, z'
loop_
 _atom_site_type_symbol
 _atom_site_label
 _atom_site_symmetry_multiplicity
 _atom_site_fract_x
 _atom_site_fract_y
 _atom_site_fract_z
 _atom_site_occupancy
  Tm  Tm0  1  0.697550  0.654139  0.684302  1
  Tm  Tm1  1  0.197849  0.346191  0.317105  1
  Hf  Hf2  1  0.207614  0.187484  0.775953  1
  Zr  Zr3  1  0.707358  0.811346  0.224326  1
  F  F4  1  0.894671  0.458984  0.479233  1
  F  F5  1  0.395535  0.542860  0.521121  1
  F  F6  1  0.430419  0.925249  0.767027  1
  F  F7  1  0.931634  0.078611  0.232101  1
  F  F8  1  0.949197  0.952799  0.758386  1
  F  F9  1  0.445115  0.049470  0.241797  1
  F  F10  1  0.990747  0.453806  0.787448  1
  F  F11  1  0.490325  0.539008  0.211517  1
  F  F12  1  0.699414  0.754076  0.971653  1
  F  F13  1  0.199581  0.244566  0.024445  1
  F  F14  1  0.705454  0.863281  0.477759  1
  F  F15  1  0.205489  0.138669  0.525946  1
  F  F16  1  0.498984  0.381863  0.781072  1
  F  F17  1  0.005786  0.617598  0.218811  1
