# generated using pymatgen
data_Co8Si4Mo9W3C4
_symmetry_space_group_name_H-M   'P 1'
_cell_length_a   7.84514127
_cell_length_b   7.84514169
_cell_length_c   7.84112951
_cell_angle_alpha   59.98307297
_cell_angle_beta   59.98307556
_cell_angle_gamma   60.00000777
_symmetry_Int_Tables_number   1
_chemical_formula_structural   Co8Si4Mo9W3C4
_chemical_formula_sum   'Co8 Si4 Mo9 W3 C4'
_cell_volume   341.15682258
_cell_formula_units_Z   1
loop_
 _symmetry_equiv_pos_site_id
 _symmetry_equiv_pos_as_xyz
  1  'x, y, z'
loop_
 _atom_site_type_symbol
 _atom_site_label
 _atom_site_symmetry_multiplicity
 _atom_site_fract_x
 _atom_site_fract_y
 _atom_site_fract_z
 _atom_site_occupancy
  Co  Co0  1  0.917502  0.245892  0.919105  1
  Co  Co1  1  0.245892  0.917502  0.919105  1
  Co  Co2  1  0.918214  0.918214  0.245358  1
  Co  Co3  1  0.006430  0.331924  0.329722  1
  Co  Co4  1  0.331924  0.006430  0.329722  1
  Co  Co5  1  0.917502  0.917502  0.919105  1
  Co  Co6  1  0.331924  0.331924  0.329722  1
  Co  Co7  1  0.331702  0.331702  0.004893  1
  Si  Si8  1  0.625826  0.124483  0.125208  1
  Si  Si9  1  0.124897  0.124897  0.625310  1
  Si  Si10  1  0.124483  0.625826  0.125208  1
  Si  Si11  1  0.124483  0.124483  0.125208  1
  Mo  Mo12  1  0.554374  0.945409  0.554808  1
  Mo  Mo13  1  0.695968  0.304520  0.694993  1
  Mo  Mo14  1  0.694517  0.694517  0.306196  1
  Mo  Mo15  1  0.304520  0.304520  0.694993  1
  Mo  Mo16  1  0.694517  0.304770  0.306196  1
  Mo  Mo17  1  0.304520  0.695968  0.694993  1
  Mo  Mo18  1  0.945409  0.554374  0.554808  1
  Mo  Mo19  1  0.945409  0.945409  0.554808  1
  Mo  Mo20  1  0.304770  0.694517  0.306196  1
  W  W21  1  0.554496  0.554496  0.944659  1
  W  W22  1  0.946349  0.554496  0.944659  1
  W  W23  1  0.554496  0.946349  0.944659  1
  C  C24  1  0.624973  0.624973  0.625177  1
  C  C25  1  0.124876  0.624973  0.625177  1
  C  C26  1  0.624973  0.124876  0.625177  1
  C  C27  1  0.625055  0.625055  0.124834  1
