# generated using pymatgen
data_Tb15Tm(InRu)4
_symmetry_space_group_name_H-M   'P 1'
_cell_length_a   9.68236644
_cell_length_b   9.68236675
_cell_length_c   9.69723100
_cell_angle_alpha   59.94919998
_cell_angle_beta   59.94919892
_cell_angle_gamma   59.81505655
_symmetry_Int_Tables_number   1
_chemical_formula_structural   Tb15Tm(InRu)4
_chemical_formula_sum   'Tb15 Tm1 In4 Ru4'
_cell_volume   641.43421408
_cell_formula_units_Z   1
loop_
 _symmetry_equiv_pos_site_id
 _symmetry_equiv_pos_as_xyz
  1  'x, y, z'
loop_
 _atom_site_type_symbol
 _atom_site_label
 _atom_site_symmetry_multiplicity
 _atom_site_fract_x
 _atom_site_fract_y
 _atom_site_fract_z
 _atom_site_occupancy
  Tb  Tb0  1  0.809344  0.190995  0.808480  1
  Tb  Tb1  1  0.192250  0.192250  0.807750  1
  Tb  Tb2  1  0.651471  0.043377  0.652576  1
  Tb  Tb3  1  0.057760  0.057760  0.442240  1
  Tb  Tb4  1  0.441221  0.441221  0.058779  1
  Tb  Tb5  1  0.652210  0.652210  0.651648  1
  Tb  Tb6  1  0.809344  0.190995  0.191180  1
  Tb  Tb7  1  0.190995  0.809344  0.808480  1
  Tb  Tb8  1  0.043377  0.651471  0.652576  1
  Tb  Tb9  1  0.442772  0.058092  0.058011  1
  Tb  Tb10  1  0.442772  0.058092  0.441124  1
  Tb  Tb11  1  0.058092  0.442772  0.058011  1
  Tb  Tb12  1  0.652210  0.652210  0.043933  1
  Tb  Tb13  1  0.190995  0.809344  0.191180  1
  Tb  Tb14  1  0.058092  0.442772  0.441124  1
  Tm  Tm15  1  0.808163  0.808163  0.191837  1
  In  In16  1  0.417938  0.417938  0.417634  1
  In  In17  1  0.417938  0.417938  0.746489  1
  In  In18  1  0.418333  0.747295  0.417185  1
  In  In19  1  0.747295  0.418333  0.417185  1
  Ru  Ru20  1  0.859784  0.416941  0.861638  1
  Ru  Ru21  1  0.860351  0.860351  0.863509  1
  Ru  Ru22  1  0.860351  0.860351  0.415791  1
  Ru  Ru23  1  0.416941  0.859784  0.861638  1
