# generated using pymatgen
data_Tb2Er5Co6Sn22Pd
_symmetry_space_group_name_H-M   'P 1'
_cell_length_a   9.64878727
_cell_length_b   9.66256956
_cell_length_c   9.87467170
_cell_angle_alpha   90.00000208
_cell_angle_beta   90.07339779
_cell_angle_gamma   120.04726910
_symmetry_Int_Tables_number   1
_chemical_formula_structural   Tb2Er5Co6Sn22Pd
_chemical_formula_sum   'Tb2 Er5 Co6 Sn22 Pd1'
_cell_volume   796.91339801
_cell_formula_units_Z   1
loop_
 _symmetry_equiv_pos_site_id
 _symmetry_equiv_pos_as_xyz
  1  'x, y, z'
loop_
 _atom_site_type_symbol
 _atom_site_label
 _atom_site_symmetry_multiplicity
 _atom_site_fract_x
 _atom_site_fract_y
 _atom_site_fract_z
 _atom_site_occupancy
  Tb  Tb0  1  0.000634  0.000317  0.000181  1
  Tb  Tb1  1  0.958945  0.479472  0.692827  1
  Er  Er2  1  0.480351  0.519466  0.306723  1
  Er  Er3  1  0.519712  0.480704  0.693080  1
  Er  Er4  1  0.480351  0.960885  0.306723  1
  Er  Er5  1  0.519712  0.039009  0.693080  1
  Er  Er6  1  0.038747  0.519373  0.306797  1
  Co  Co7  1  0.831432  0.168817  0.197085  1
  Co  Co8  1  0.169170  0.831977  0.803000  1
  Co  Co9  1  0.831432  0.662615  0.197085  1
  Co  Co10  1  0.169170  0.337193  0.803000  1
  Co  Co11  1  0.337814  0.168907  0.197462  1
  Co  Co12  1  0.661759  0.830879  0.802730  1
  Sn  Sn13  1  0.346621  0.000112  0.000187  1
  Sn  Sn14  1  0.653714  0.999906  0.999931  1
  Sn  Sn15  1  0.999965  0.346527  0.000055  1
  Sn  Sn16  1  0.999965  0.653438  0.000055  1
  Sn  Sn17  1  0.653714  0.653808  0.999931  1
  Sn  Sn18  1  0.346621  0.346510  0.000187  1
  Sn  Sn19  1  0.333246  0.666624  0.816887  1
  Sn  Sn20  1  0.666918  0.333458  0.183457  1
  Sn  Sn21  1  0.784032  0.214096  0.453998  1
  Sn  Sn22  1  0.216410  0.785892  0.545096  1
  Sn  Sn23  1  0.784032  0.569936  0.453998  1
  Sn  Sn24  1  0.216410  0.430518  0.545096  1
  Sn  Sn25  1  0.431012  0.215506  0.454897  1
  Sn  Sn26  1  0.569629  0.784814  0.545055  1
  Sn  Sn27  1  0.332899  0.666450  0.123951  1
  Sn  Sn28  1  0.663779  0.331889  0.877795  1
  Sn  Sn29  1  0.111904  0.888449  0.283134  1
  Sn  Sn30  1  0.888529  0.110744  0.716734  1
  Sn  Sn31  1  0.111904  0.223457  0.283134  1
  Sn  Sn32  1  0.888529  0.777784  0.716734  1
  Sn  Sn33  1  0.776654  0.888327  0.282982  1
  Sn  Sn34  1  0.224092  0.112045  0.716987  1
  Pd  Pd35  1  0.000192  0.000096  0.499947  1
