# generated using pymatgen
data_YSiTc4Ge
_symmetry_space_group_name_H-M   'P 1'
_cell_length_a   7.40860299
_cell_length_b   7.40860299
_cell_length_c   4.17770700
_cell_angle_alpha   90.00000000
_cell_angle_beta   90.00000000
_cell_angle_gamma   90.64672486
_symmetry_Int_Tables_number   1
_chemical_formula_structural   YSiTc4Ge
_chemical_formula_sum   'Y2 Si2 Tc8 Ge2'
_cell_volume   229.28886054
_cell_formula_units_Z   2
loop_
 _symmetry_equiv_pos_site_id
 _symmetry_equiv_pos_as_xyz
  1  'x, y, z'
loop_
 _atom_site_type_symbol
 _atom_site_label
 _atom_site_symmetry_multiplicity
 _atom_site_fract_x
 _atom_site_fract_y
 _atom_site_fract_z
 _atom_site_occupancy
  Y  Y0  1  0.500000  0.500000  0.000000  1
  Y  Y1  1  0.000000  0.000000  0.500000  1
  Si  Si2  1  0.206480  0.793520  0.000000  1
  Si  Si3  1  0.793520  0.206480  0.000000  1
  Tc  Tc4  1  0.599990  0.153185  0.500000  1
  Tc  Tc5  1  0.400010  0.846815  0.500000  1
  Tc  Tc6  1  0.089008  0.346471  0.000000  1
  Tc  Tc7  1  0.910992  0.653529  0.000000  1
  Tc  Tc8  1  0.153185  0.599990  0.500000  1
  Tc  Tc9  1  0.846815  0.400010  0.500000  1
  Tc  Tc10  1  0.346471  0.089008  0.000000  1
  Tc  Tc11  1  0.653529  0.910992  0.000000  1
  Ge  Ge12  1  0.708698  0.708698  0.500000  1
  Ge  Ge13  1  0.291302  0.291302  0.500000  1
