# generated using pymatgen
data_Ti8Al14SiIr3Pt4
_symmetry_space_group_name_H-M   'P 1'
_cell_length_a   8.66952922
_cell_length_b   8.67269635
_cell_length_c   8.68694600
_cell_angle_alpha   120.03845366
_cell_angle_beta   119.84040111
_cell_angle_gamma   90.08843762
_symmetry_Int_Tables_number   1
_chemical_formula_structural   Ti8Al14SiIr3Pt4
_chemical_formula_sum   'Ti8 Al14 Si1 Ir3 Pt4'
_cell_volume   462.33819422
_cell_formula_units_Z   1
loop_
 _symmetry_equiv_pos_site_id
 _symmetry_equiv_pos_as_xyz
  1  'x, y, z'
loop_
 _atom_site_type_symbol
 _atom_site_label
 _atom_site_symmetry_multiplicity
 _atom_site_fract_x
 _atom_site_fract_y
 _atom_site_fract_z
 _atom_site_occupancy
  Ti  Ti0  1  0.795599  0.297843  0.091160  1
  Ti  Ti1  1  0.206909  0.296259  0.502119  1
  Ti  Ti2  1  0.203749  0.704954  0.500459  1
  Ti  Ti3  1  0.204864  0.704220  0.907394  1
  Ti  Ti4  1  0.797541  0.705889  0.500389  1
  Ti  Ti5  1  0.793438  0.293796  0.501074  1
  Ti  Ti6  1  0.380034  0.120513  0.739773  1
  Ti  Ti7  1  0.374352  0.638316  0.255917  1
  Al  Al8  1  0.156281  0.340219  0.181206  1
  Al  Al9  1  0.159250  0.979903  0.819852  1
  Al  Al10  1  0.156943  0.339708  0.817198  1
  Al  Al11  1  0.521680  0.340055  0.181219  1
  Al  Al12  1  0.843658  0.658753  0.818269  1
  Al  Al13  1  0.843621  0.026005  0.182843  1
  Al  Al14  1  0.842219  0.658045  0.180192  1
  Al  Al15  1  0.478344  0.658862  0.817872  1
  Al  Al16  1  0.374598  0.117543  0.258545  1
  Al  Al17  1  0.859911  0.122908  0.745540  1
  Al  Al18  1  0.620756  0.879661  0.260087  1
  Al  Al19  1  0.625003  0.361627  0.743447  1
  Al  Al20  1  0.626297  0.881427  0.743470  1
  Al  Al21  1  0.136484  0.877351  0.253250  1
  Si  Si22  1  0.998817  0.497980  0.499444  1
  Ir  Ir23  1  0.001441  0.500333  0.000582  1
  Ir  Ir24  1  0.001022  0.000288  0.999220  1
  Ir  Ir25  1  0.497959  0.998220  0.499687  1
  Pt  Pt26  1  0.997475  0.998679  0.497533  1
  Pt  Pt27  1  0.501038  0.999180  0.001518  1
  Pt  Pt28  1  0.500579  0.501923  0.000993  1
  Pt  Pt29  1  0.500138  0.499537  0.499750  1
