# generated using pymatgen
data_Tc2MoS4
_symmetry_space_group_name_H-M   'P 1'
_cell_length_a   6.50525456
_cell_length_b   6.50190131
_cell_length_c   6.51472322
_cell_angle_alpha   92.86242530
_cell_angle_beta   93.59234617
_cell_angle_gamma   93.34537408
_symmetry_Int_Tables_number   1
_chemical_formula_structural   Tc2MoS4
_chemical_formula_sum   'Tc4 Mo2 S8'
_cell_volume   274.14259536
_cell_formula_units_Z   2
loop_
 _symmetry_equiv_pos_site_id
 _symmetry_equiv_pos_as_xyz
  1  'x, y, z'
loop_
 _atom_site_type_symbol
 _atom_site_label
 _atom_site_symmetry_multiplicity
 _atom_site_fract_x
 _atom_site_fract_y
 _atom_site_fract_z
 _atom_site_occupancy
  Tc  Tc0  1  0.551058  0.411217  0.232084  1
  Tc  Tc1  1  0.769294  0.451424  0.591082  1
  Tc  Tc2  1  0.588907  0.769974  0.448584  1
  Tc  Tc3  1  0.450121  0.590747  0.770175  1
  Mo  Mo4  1  0.228310  0.548248  0.408549  1
  Mo  Mo5  1  0.410011  0.229429  0.551971  1
  S  S6  1  0.377803  0.721434  0.127025  1
  S  S7  1  0.128434  0.376676  0.727145  1
  S  S8  1  0.727195  0.131988  0.377025  1
  S  S9  1  0.622745  0.281166  0.874068  1
  S  S10  1  0.866339  0.622296  0.279129  1
  S  S11  1  0.280716  0.869090  0.619878  1
  S  S12  1  0.223619  0.219691  0.217856  1
  S  S13  1  0.775450  0.776620  0.775431  1
