# generated using pymatgen
data_La3SnAs5Rh9
_symmetry_space_group_name_H-M   'P 1'
_cell_length_a   4.11393300
_cell_length_b   8.63101262
_cell_length_c   10.07859015
_cell_angle_alpha   107.20713309
_cell_angle_beta   90.00000000
_cell_angle_gamma   103.78757113
_symmetry_Int_Tables_number   1
_chemical_formula_structural   La3SnAs5Rh9
_chemical_formula_sum   'La3 Sn1 As5 Rh9'
_cell_volume   331.03707524
_cell_formula_units_Z   1
loop_
 _symmetry_equiv_pos_site_id
 _symmetry_equiv_pos_as_xyz
  1  'x, y, z'
loop_
 _atom_site_type_symbol
 _atom_site_label
 _atom_site_symmetry_multiplicity
 _atom_site_fract_x
 _atom_site_fract_y
 _atom_site_fract_z
 _atom_site_occupancy
  La  La0  1  0.843360  0.686719  0.301958  1
  La  La1  1  0.150224  0.300450  0.690314  1
  La  La2  1  0.005642  0.011284  0.001168  1
  Sn  Sn3  1  0.802414  0.604826  0.872805  1
  As  As4  1  0.197117  0.394236  0.130300  1
  As  As5  1  0.535123  0.070246  0.775812  1
  As  As6  1  0.464352  0.928704  0.226102  1
  As  As7  1  0.637627  0.275253  0.454846  1
  As  As8  1  0.362086  0.724173  0.544236  1
  Rh  Rh9  1  0.955619  0.911238  0.665583  1
  Rh  Rh10  1  0.045842  0.091685  0.330513  1
  Rh  Rh11  1  0.781418  0.562836  0.595580  1
  Rh  Rh12  1  0.219550  0.439101  0.393824  1
  Rh  Rh13  1  0.379749  0.759499  0.789924  1
  Rh  Rh14  1  0.626219  0.252439  0.212533  1
  Rh  Rh15  1  0.499795  0.999590  0.498425  1
  Rh  Rh16  1  0.669989  0.339978  0.964166  1
  Rh  Rh17  1  0.323873  0.647746  0.051910  1
