# generated using pymatgen
data_Tb6HoRe6(MoN8)3
_symmetry_space_group_name_H-M   'P 1'
_cell_length_a   11.12082050
_cell_length_b   11.12082019
_cell_length_c   11.28862700
_cell_angle_alpha   109.77717555
_cell_angle_beta   109.77717498
_cell_angle_gamma   109.16353646
_symmetry_Int_Tables_number   1
_chemical_formula_structural   Tb6HoRe6(MoN8)3
_chemical_formula_sum   'Tb12 Ho2 Re12 Mo6 N48'
_cell_volume   1070.62925852
_cell_formula_units_Z   2
loop_
 _symmetry_equiv_pos_site_id
 _symmetry_equiv_pos_as_xyz
  1  'x, y, z'
loop_
 _atom_site_type_symbol
 _atom_site_label
 _atom_site_symmetry_multiplicity
 _atom_site_fract_x
 _atom_site_fract_y
 _atom_site_fract_z
 _atom_site_occupancy
  Tb  Tb0  1  0.251573  0.375787  0.125787  1
  Tb  Tb1  1  0.371790  0.743580  0.121791  1
  Tb  Tb2  1  0.371790  0.128210  0.250000  1
  Tb  Tb3  1  0.875788  0.624213  0.250000  1
  Tb  Tb4  1  0.756420  0.128211  0.378210  1
  Tb  Tb5  1  0.124213  0.248427  0.374213  1
  Tb  Tb6  1  0.875787  0.751573  0.625787  1
  Tb  Tb7  1  0.243580  0.871791  0.621790  1
  Tb  Tb8  1  0.124214  0.375787  0.750000  1
  Tb  Tb9  1  0.628210  0.871790  0.750000  1
  Tb  Tb10  1  0.628210  0.256420  0.878211  1
  Tb  Tb11  1  0.748427  0.624213  0.874213  1
  Ho  Ho12  1  0.500001  0.000000  0.000000  1
  Ho  Ho13  1  0.500000  0.000000  0.500000  1
  Re  Re14  1  0.878272  0.253688  0.126085  1
  Re  Re15  1  0.753689  0.875417  0.127604  1
  Re  Re16  1  0.624583  0.378272  0.252187  1
  Re  Re17  1  0.121728  0.875417  0.247812  1
  Re  Re18  1  0.246311  0.621728  0.373915  1
  Re  Re19  1  0.624583  0.746311  0.372396  1
  Re  Re20  1  0.375417  0.253689  0.627604  1
  Re  Re21  1  0.753689  0.378272  0.626085  1
  Re  Re22  1  0.878272  0.124583  0.752187  1
  Re  Re23  1  0.375417  0.621728  0.747813  1
  Re  Re24  1  0.246310  0.124583  0.872396  1
  Re  Re25  1  0.121728  0.746311  0.873915  1
  Mo  Mo26  1  0.000000  0.000000  0.000000  1
  Mo  Mo27  1  0.000000  0.500001  0.000000  1
  Mo  Mo28  1  0.500000  0.500000  0.000000  1
  Mo  Mo29  1  0.000000  0.000000  0.500001  1
  Mo  Mo30  1  0.000000  0.500000  0.500000  1
  Mo  Mo31  1  0.500001  0.500001  0.500001  1
  N  N32  1  0.303125  0.897120  0.025447  1
  N  N33  1  0.203821  0.118016  0.018315  1
  N  N34  1  0.885832  0.404107  0.088177  1
  N  N35  1  0.703719  0.684488  0.084829  1
  N  N36  1  0.618015  0.414195  0.099700  1
  N  N37  1  0.980768  0.684488  0.099659  1
  N  N38  1  0.602879  0.906004  0.128327  1
  N  N39  1  0.019232  0.203720  0.118892  1
  N  N40  1  0.203820  0.585805  0.185506  1
  N  N41  1  0.481723  0.595893  0.184070  1
  N  N42  1  0.114169  0.018277  0.202346  1
  N  N43  1  0.593995  0.196875  0.222322  1
  N  N44  1  0.481723  0.385832  0.297655  1
  N  N45  1  0.303125  0.906005  0.277678  1
  N  N46  1  0.904107  0.018276  0.315930  1
  N  N47  1  0.914195  0.296180  0.314494  1
  N  N48  1  0.296281  0.480768  0.381109  1
  N  N49  1  0.593995  0.897121  0.371673  1
  N  N50  1  0.815512  0.519232  0.400341  1
  N  N51  1  0.085805  0.881985  0.400299  1
  N  N52  1  0.095892  0.614168  0.411823  1
  N  N53  1  0.815511  0.796281  0.415171  1
  N  N54  1  0.602880  0.196875  0.474552  1
  N  N55  1  0.381985  0.296180  0.481685  1
  N  N56  1  0.618015  0.703820  0.518314  1
  N  N57  1  0.397121  0.803126  0.525448  1
  N  N58  1  0.184489  0.203719  0.584829  1
  N  N59  1  0.904108  0.385832  0.588177  1
  N  N60  1  0.914194  0.118015  0.599700  1
  N  N61  1  0.184489  0.480768  0.599660  1
  N  N62  1  0.406005  0.102879  0.628327  1
  N  N63  1  0.703719  0.519231  0.618891  1
  N  N64  1  0.085805  0.703820  0.685505  1
  N  N65  1  0.095892  0.981723  0.684069  1
  N  N66  1  0.696874  0.093995  0.722322  1
  N  N67  1  0.518276  0.614168  0.702345  1
  N  N68  1  0.406005  0.803125  0.777678  1
  N  N69  1  0.885832  0.981724  0.797655  1
  N  N70  1  0.518277  0.404108  0.815931  1
  N  N71  1  0.796180  0.414195  0.814494  1
  N  N72  1  0.397120  0.093995  0.871673  1
  N  N73  1  0.980769  0.796281  0.881109  1
  N  N74  1  0.019231  0.315511  0.900340  1
  N  N75  1  0.381985  0.585805  0.900300  1
  N  N76  1  0.296281  0.315511  0.915171  1
  N  N77  1  0.114168  0.595892  0.911822  1
  N  N78  1  0.696874  0.102879  0.974552  1
  N  N79  1  0.796180  0.881985  0.981686  1
