# generated using pymatgen
data_Dy8Th4Tc3Os
_symmetry_space_group_name_H-M   'P 1'
_cell_length_a   6.38843097
_cell_length_b   7.31733062
_cell_length_c   9.54374000
_cell_angle_alpha   90.00000000
_cell_angle_beta   90.00000000
_cell_angle_gamma   89.87911702
_symmetry_Int_Tables_number   1
_chemical_formula_structural   Dy8Th4Tc3Os
_chemical_formula_sum   'Dy8 Th4 Tc3 Os1'
_cell_volume   446.13317343
_cell_formula_units_Z   1
loop_
 _symmetry_equiv_pos_site_id
 _symmetry_equiv_pos_as_xyz
  1  'x, y, z'
loop_
 _atom_site_type_symbol
 _atom_site_label
 _atom_site_symmetry_multiplicity
 _atom_site_fract_x
 _atom_site_fract_y
 _atom_site_fract_z
 _atom_site_occupancy
  Dy  Dy0  1  0.330723  0.674321  0.066441  1
  Dy  Dy1  1  0.167136  0.174943  0.432309  1
  Dy  Dy2  1  0.665358  0.326887  0.567002  1
  Dy  Dy3  1  0.831762  0.824531  0.932393  1
  Dy  Dy4  1  0.665358  0.326887  0.932998  1
  Dy  Dy5  1  0.831762  0.824531  0.567607  1
  Dy  Dy6  1  0.330723  0.674321  0.433559  1
  Dy  Dy7  1  0.167136  0.174943  0.067691  1
  Th  Th8  1  0.854228  0.550263  0.250000  1
  Th  Th9  1  0.643207  0.048412  0.250000  1
  Th  Th10  1  0.145638  0.448492  0.750000  1
  Th  Th11  1  0.351479  0.953605  0.750000  1
  Tc  Tc12  1  0.016779  0.871341  0.250000  1
  Tc  Tc13  1  0.483119  0.371552  0.250000  1
  Tc  Tc14  1  0.981759  0.129475  0.750000  1
  Os  Os15  1  0.533830  0.625499  0.750000  1
