# generated using pymatgen
data_Eu2Mn(Co3P2)3
_symmetry_space_group_name_H-M   'P 1'
_cell_length_a   3.67154400
_cell_length_b   10.40066700
_cell_length_c   11.94037300
_cell_angle_alpha   90.00000000
_cell_angle_beta   90.00000000
_cell_angle_gamma   90.00000000
_symmetry_Int_Tables_number   1
_chemical_formula_structural   Eu2Mn(Co3P2)3
_chemical_formula_sum   'Eu4 Mn2 Co18 P12'
_cell_volume   455.96113141
_cell_formula_units_Z   2
loop_
 _symmetry_equiv_pos_site_id
 _symmetry_equiv_pos_as_xyz
  1  'x, y, z'
loop_
 _atom_site_type_symbol
 _atom_site_label
 _atom_site_symmetry_multiplicity
 _atom_site_fract_x
 _atom_site_fract_y
 _atom_site_fract_z
 _atom_site_occupancy
  Eu  Eu0  1  0.250000  0.582098  0.702961  1
  Eu  Eu1  1  0.250000  0.917902  0.202961  1
  Eu  Eu2  1  0.750000  0.417492  0.296443  1
  Eu  Eu3  1  0.750000  0.082508  0.796443  1
  Mn  Mn4  1  0.250000  0.707751  0.987352  1
  Mn  Mn5  1  0.250000  0.792249  0.487352  1
  Co  Co6  1  0.750000  0.291855  0.012648  1
  Co  Co7  1  0.750000  0.208145  0.512648  1
  Co  Co8  1  0.250000  0.404936  0.489999  1
  Co  Co9  1  0.250000  0.095064  0.989999  1
  Co  Co10  1  0.750000  0.594450  0.510918  1
  Co  Co11  1  0.750000  0.905550  0.010918  1
  Co  Co12  1  0.250000  0.220429  0.174792  1
  Co  Co13  1  0.250000  0.279571  0.674792  1
  Co  Co14  1  0.750000  0.779512  0.825065  1
  Co  Co15  1  0.750000  0.720488  0.325065  1
  Co  Co16  1  0.250000  0.881184  0.697194  1
  Co  Co17  1  0.250000  0.618816  0.197194  1
  Co  Co18  1  0.750000  0.119735  0.302999  1
  Co  Co19  1  0.750000  0.380265  0.802999  1
  Co  Co20  1  0.250000  0.463483  0.934701  1
  Co  Co21  1  0.250000  0.036517  0.434701  1
  Co  Co22  1  0.750000  0.533034  0.065505  1
  Co  Co23  1  0.750000  0.966966  0.565505  1
  P  P24  1  0.250000  0.419616  0.112517  1
  P  P25  1  0.250000  0.080384  0.612517  1
  P  P26  1  0.750000  0.579246  0.887228  1
  P  P27  1  0.750000  0.920754  0.387228  1
  P  P28  1  0.250000  0.270897  0.866981  1
  P  P29  1  0.250000  0.229103  0.366981  1
  P  P30  1  0.750000  0.726686  0.133273  1
  P  P31  1  0.750000  0.773314  0.633273  1
  P  P32  1  0.250000  0.601625  0.392257  1
  P  P33  1  0.250000  0.898375  0.892257  1
  P  P34  1  0.750000  0.394348  0.607170  1
  P  P35  1  0.750000  0.105652  0.107170  1
