# generated using pymatgen
data_Y15Tm5Bi12
_symmetry_space_group_name_H-M   'P 1'
_cell_length_a   8.25323568
_cell_length_b   9.51854827
_cell_length_c   12.07126370
_cell_angle_alpha   90.00720122
_cell_angle_beta   90.03829778
_cell_angle_gamma   90.02641312
_symmetry_Int_Tables_number   1
_chemical_formula_structural   Y15Tm5Bi12
_chemical_formula_sum   'Y15 Tm5 Bi12'
_cell_volume   948.30393869
_cell_formula_units_Z   1
loop_
 _symmetry_equiv_pos_site_id
 _symmetry_equiv_pos_as_xyz
  1  'x, y, z'
loop_
 _atom_site_type_symbol
 _atom_site_label
 _atom_site_symmetry_multiplicity
 _atom_site_fract_x
 _atom_site_fract_y
 _atom_site_fract_z
 _atom_site_occupancy
  Y  Y0  1  0.186201  0.749962  0.719128  1
  Y  Y1  1  0.686507  0.749949  0.780993  1
  Y  Y2  1  0.813609  0.250012  0.280921  1
  Y  Y3  1  0.313736  0.250261  0.218903  1
  Y  Y4  1  0.805999  0.062819  0.559930  1
  Y  Y5  1  0.693885  0.937237  0.059869  1
  Y  Y6  1  0.194124  0.562683  0.440033  1
  Y  Y7  1  0.693974  0.562592  0.059891  1
  Y  Y8  1  0.194067  0.937301  0.440027  1
  Y  Y9  1  0.305812  0.063454  0.940120  1
  Y  Y10  1  0.805953  0.437166  0.559952  1
  Y  Y11  1  0.354377  0.750103  0.215223  1
  Y  Y12  1  0.854133  0.750010  0.284893  1
  Y  Y13  1  0.645487  0.250426  0.785079  1
  Y  Y14  1  0.146327  0.250543  0.715478  1
  Tm  Tm15  1  0.026543  0.749870  0.988938  1
  Tm  Tm16  1  0.526252  0.750099  0.511012  1
  Tm  Tm17  1  0.974528  0.250464  0.010928  1
  Tm  Tm18  1  0.473727  0.250000  0.488960  1
  Tm  Tm19  1  0.305721  0.435524  0.940019  1
  Bi  Bi20  1  0.433870  0.003695  0.672915  1
  Bi  Bi21  1  0.934244  0.496497  0.827267  1
  Bi  Bi22  1  0.565961  0.503649  0.326992  1
  Bi  Bi23  1  0.066095  0.996449  0.172849  1
  Bi  Bi24  1  0.566041  0.996449  0.327068  1
  Bi  Bi25  1  0.066071  0.503713  0.172677  1
  Bi  Bi26  1  0.433736  0.496435  0.673112  1
  Bi  Bi27  1  0.933968  0.003709  0.827196  1
  Bi  Bi28  1  0.408197  0.748476  0.958060  1
  Bi  Bi29  1  0.908766  0.749986  0.541722  1
  Bi  Bi30  1  0.590857  0.250498  0.041500  1
  Bi  Bi31  1  0.091233  0.249970  0.458345  1
