# generated using pymatgen
data_LaTm20Fe8Sn7C12
_symmetry_space_group_name_H-M   'P 1'
_cell_length_a   10.92090374
_cell_length_b   10.92090406
_cell_length_c   10.92090400
_cell_angle_alpha   60.00000017
_cell_angle_beta   59.99999922
_cell_angle_gamma   60.00000218
_symmetry_Int_Tables_number   1
_chemical_formula_structural   LaTm20Fe8Sn7C12
_chemical_formula_sum   'La1 Tm20 Fe8 Sn7 C12'
_cell_volume   921.00241257
_cell_formula_units_Z   1
loop_
 _symmetry_equiv_pos_site_id
 _symmetry_equiv_pos_as_xyz
  1  'x, y, z'
loop_
 _atom_site_type_symbol
 _atom_site_label
 _atom_site_symmetry_multiplicity
 _atom_site_fract_x
 _atom_site_fract_y
 _atom_site_fract_z
 _atom_site_occupancy
  La  La0  1  0.500000  0.500000  0.500000  1
  Tm  Tm1  1  0.637415  0.637415  0.087753  1
  Tm  Tm2  1  0.362585  0.912247  0.362585  1
  Tm  Tm3  1  0.637415  0.087753  0.637415  1
  Tm  Tm4  1  0.661668  0.000000  0.000000  1
  Tm  Tm5  1  0.000000  0.661668  0.000000  1
  Tm  Tm6  1  0.000000  0.661668  0.338332  1
  Tm  Tm7  1  0.338332  0.000000  0.661668  1
  Tm  Tm8  1  0.362585  0.362585  0.362585  1
  Tm  Tm9  1  0.087753  0.637415  0.637415  1
  Tm  Tm10  1  0.000000  0.000000  0.661668  1
  Tm  Tm11  1  0.661668  0.000000  0.338332  1
  Tm  Tm12  1  0.000000  0.000000  0.338332  1
  Tm  Tm13  1  0.661668  0.338332  0.000000  1
  Tm  Tm14  1  0.637415  0.637415  0.637415  1
  Tm  Tm15  1  0.338332  0.661668  0.000000  1
  Tm  Tm16  1  0.000000  0.338332  0.661668  1
  Tm  Tm17  1  0.338332  0.000000  0.000000  1
  Tm  Tm18  1  0.362585  0.362585  0.912247  1
  Tm  Tm19  1  0.000000  0.338332  0.000000  1
  Tm  Tm20  1  0.912247  0.362585  0.362585  1
  Fe  Fe21  1  0.190532  0.190532  0.428404  1
  Fe  Fe22  1  0.809468  0.809468  0.571597  1
  Fe  Fe23  1  0.809468  0.571597  0.809468  1
  Fe  Fe24  1  0.809468  0.809468  0.809468  1
  Fe  Fe25  1  0.428404  0.190532  0.190532  1
  Fe  Fe26  1  0.190532  0.190532  0.190532  1
  Fe  Fe27  1  0.190532  0.428404  0.190532  1
  Fe  Fe28  1  0.571597  0.809468  0.809468  1
  Sn  Sn29  1  0.286898  0.713102  0.286898  1
  Sn  Sn30  1  0.713102  0.286898  0.286898  1
  Sn  Sn31  1  0.713102  0.286898  0.713102  1
  Sn  Sn32  1  0.286898  0.713102  0.713102  1
  Sn  Sn33  1  0.000000  0.000000  0.000000  1
  Sn  Sn34  1  0.713102  0.713102  0.286898  1
  Sn  Sn35  1  0.286898  0.286898  0.713102  1
  C  C36  1  0.603861  0.896139  0.896139  1
  C  C37  1  0.103861  0.396139  0.396139  1
  C  C38  1  0.603861  0.896139  0.603861  1
  C  C39  1  0.396139  0.396139  0.103861  1
  C  C40  1  0.603861  0.603861  0.896139  1
  C  C41  1  0.396139  0.103861  0.396139  1
  C  C42  1  0.103861  0.396139  0.103861  1
  C  C43  1  0.896139  0.896139  0.603861  1
  C  C44  1  0.896139  0.603861  0.896139  1
  C  C45  1  0.896139  0.603861  0.603861  1
  C  C46  1  0.103861  0.103861  0.396139  1
  C  C47  1  0.396139  0.103861  0.103861  1
