# generated using pymatgen
data_Na6TlInCl12
_symmetry_space_group_name_H-M   'P 1'
_cell_length_a   6.98987400
_cell_length_b   6.98987361
_cell_length_c   12.55789800
_cell_angle_alpha   90.00000000
_cell_angle_beta   90.00000000
_cell_angle_gamma   120.00000186
_symmetry_Int_Tables_number   1
_chemical_formula_structural   Na6TlInCl12
_chemical_formula_sum   'Na6 Tl1 In1 Cl12'
_cell_volume   531.35680243
_cell_formula_units_Z   1
loop_
 _symmetry_equiv_pos_site_id
 _symmetry_equiv_pos_as_xyz
  1  'x, y, z'
loop_
 _atom_site_type_symbol
 _atom_site_label
 _atom_site_symmetry_multiplicity
 _atom_site_fract_x
 _atom_site_fract_y
 _atom_site_fract_z
 _atom_site_occupancy
  Na  Na0  1  0.333333  0.666667  0.040325  1
  Na  Na1  1  0.333333  0.666667  0.459675  1
  Na  Na2  1  0.000000  0.000000  0.750000  1
  Na  Na3  1  0.000000  0.000000  0.250000  1
  Na  Na4  1  0.666667  0.333333  0.959518  1
  Na  Na5  1  0.666667  0.333333  0.540482  1
  Tl  Tl6  1  0.333333  0.666667  0.750000  1
  In  In7  1  0.666667  0.333333  0.250000  1
  Cl  Cl8  1  0.364843  0.047949  0.128771  1
  Cl  Cl9  1  0.952051  0.316897  0.128771  1
  Cl  Cl10  1  0.683103  0.635157  0.128771  1
  Cl  Cl11  1  0.642863  0.682543  0.626010  1
  Cl  Cl12  1  0.317457  0.960320  0.626010  1
  Cl  Cl13  1  0.642863  0.960320  0.873990  1
  Cl  Cl14  1  0.317457  0.357137  0.873990  1
  Cl  Cl15  1  0.039680  0.682543  0.873990  1
  Cl  Cl16  1  0.364843  0.316897  0.371229  1
  Cl  Cl17  1  0.952051  0.635157  0.371229  1
  Cl  Cl18  1  0.039680  0.357137  0.626010  1
  Cl  Cl19  1  0.683103  0.047949  0.371229  1
