# generated using pymatgen
data_LiScTi2(SbPt)4
_symmetry_space_group_name_H-M   'P 1'
_cell_length_a   6.26991137
_cell_length_b   6.26991069
_cell_length_c   7.68466266
_cell_angle_alpha   65.92391141
_cell_angle_beta   65.92390163
_cell_angle_gamma   90.00001349
_symmetry_Int_Tables_number   1
_chemical_formula_structural   LiScTi2(SbPt)4
_chemical_formula_sum   'Li1 Sc1 Ti2 Sb4 Pt4'
_cell_volume   246.75200732
_cell_formula_units_Z   1
loop_
 _symmetry_equiv_pos_site_id
 _symmetry_equiv_pos_as_xyz
  1  'x, y, z'
loop_
 _atom_site_type_symbol
 _atom_site_label
 _atom_site_symmetry_multiplicity
 _atom_site_fract_x
 _atom_site_fract_y
 _atom_site_fract_z
 _atom_site_occupancy
  Li  Li0  1  0.000000  0.000000  0.000000  1
  Sc  Sc1  1  0.249998  0.750000  0.500001  1
  Ti  Ti2  1  0.500000  0.500000  0.000000  1
  Ti  Ti3  1  0.750000  0.250002  0.500001  1
  Sb  Sb4  1  0.496739  0.996741  0.006518  1
  Sb  Sb5  1  0.760268  0.760268  0.479465  1
  Sb  Sb6  1  0.239733  0.239733  0.520536  1
  Sb  Sb7  1  0.003258  0.503260  0.993481  1
  Pt  Pt8  1  0.128585  0.144454  0.254415  1
  Pt  Pt9  1  0.616999  0.601131  0.254416  1
  Pt  Pt10  1  0.855548  0.383003  0.745583  1
  Pt  Pt11  1  0.398870  0.871415  0.745585  1
