# generated using pymatgen
data_Tb19Nd(Sn5Bi3)2
_symmetry_space_group_name_H-M   'P 1'
_cell_length_a   8.22812767
_cell_length_b   8.24509072
_cell_length_c   15.66642818
_cell_angle_alpha   89.97163438
_cell_angle_beta   89.84341963
_cell_angle_gamma   90.23833257
_symmetry_Int_Tables_number   1
_chemical_formula_structural   Tb19Nd(Sn5Bi3)2
_chemical_formula_sum   'Tb19 Nd1 Sn10 Bi6'
_cell_volume   1062.82317990
_cell_formula_units_Z   1
loop_
 _symmetry_equiv_pos_site_id
 _symmetry_equiv_pos_as_xyz
  1  'x, y, z'
loop_
 _atom_site_type_symbol
 _atom_site_label
 _atom_site_symmetry_multiplicity
 _atom_site_fract_x
 _atom_site_fract_y
 _atom_site_fract_z
 _atom_site_occupancy
  Tb  Tb0  1  0.057384  0.166881  0.390607  1
  Tb  Tb1  1  0.394118  0.838017  0.120720  1
  Tb  Tb2  1  0.115028  0.333714  0.622993  1
  Tb  Tb3  1  0.450232  0.675014  0.889671  1
  Tb  Tb4  1  0.886438  0.666939  0.122364  1
  Tb  Tb5  1  0.110253  0.337960  0.877012  1
  Tb  Tb6  1  0.220456  0.497896  0.249227  1
  Tb  Tb7  1  0.720200  0.999723  0.246362  1
  Tb  Tb8  1  0.446259  0.676600  0.610943  1
  Tb  Tb9  1  0.279891  0.000289  0.746829  1
  Tb  Tb10  1  0.607297  0.161456  0.622200  1
  Tb  Tb11  1  0.779674  0.502094  0.749996  1
  Tb  Tb12  1  0.888993  0.661638  0.376779  1
  Tb  Tb13  1  0.047041  0.166871  0.108611  1
  Tb  Tb14  1  0.941856  0.833014  0.890758  1
  Tb  Tb15  1  0.613210  0.159906  0.879410  1
  Tb  Tb16  1  0.554560  0.323643  0.111293  1
  Tb  Tb17  1  0.386469  0.840050  0.379136  1
  Tb  Tb18  1  0.954152  0.832276  0.609623  1
  Nd  Nd19  1  0.546464  0.321961  0.392660  1
  Sn  Sn20  1  0.644837  0.859151  0.749795  1
  Sn  Sn21  1  0.858074  0.357474  0.250099  1
  Sn  Sn22  1  0.585289  0.626965  0.250692  1
  Sn  Sn23  1  0.415120  0.374380  0.751853  1
  Sn  Sn24  1  0.143142  0.643111  0.751126  1
  Sn  Sn25  1  0.912339  0.127919  0.750164  1
  Sn  Sn26  1  0.271602  0.023167  0.544127  1
  Sn  Sn27  1  0.729501  0.978454  0.043975  1
  Sn  Sn28  1  0.352792  0.139005  0.247838  1
  Sn  Sn29  1  0.087834  0.871796  0.249548  1
  Bi  Bi30  1  0.772155  0.482597  0.546028  1
  Bi  Bi31  1  0.731828  0.975225  0.456175  1
  Bi  Bi32  1  0.225059  0.523951  0.456645  1
  Bi  Bi33  1  0.269600  0.021250  0.955096  1
  Bi  Bi34  1  0.770118  0.480300  0.955954  1
  Bi  Bi35  1  0.230735  0.519312  0.043695  1
