# generated using pymatgen
data_Ca2Zn19Au3
_symmetry_space_group_name_H-M   'P 1'
_cell_length_a   8.40442905
_cell_length_b   8.41508082
_cell_length_c   8.41774099
_cell_angle_alpha   99.83912259
_cell_angle_beta   99.38566844
_cell_angle_gamma   131.55610801
_symmetry_Int_Tables_number   1
_chemical_formula_structural   Ca2Zn19Au3
_chemical_formula_sum   'Ca2 Zn19 Au3'
_cell_volume   406.92208163
_cell_formula_units_Z   1
loop_
 _symmetry_equiv_pos_site_id
 _symmetry_equiv_pos_as_xyz
  1  'x, y, z'
loop_
 _atom_site_type_symbol
 _atom_site_label
 _atom_site_symmetry_multiplicity
 _atom_site_fract_x
 _atom_site_fract_y
 _atom_site_fract_z
 _atom_site_occupancy
  Ca  Ca0  1  0.501833  0.500412  0.999830  1
  Ca  Ca1  1  0.749950  0.251054  0.500433  1
  Zn  Zn2  1  0.845402  0.431741  0.174161  1
  Zn  Zn3  1  0.257199  0.672887  0.826921  1
  Zn  Zn4  1  0.677014  0.005555  0.085661  1
  Zn  Zn5  1  0.401669  0.074573  0.083679  1
  Zn  Zn6  1  0.995171  0.321686  0.915207  1
  Zn  Zn7  1  0.564041  0.150935  0.826735  1
  Zn  Zn8  1  0.327809  0.745372  0.172674  1
  Zn  Zn9  1  0.323926  0.151466  0.583505  1
  Zn  Zn10  1  0.405120  0.317566  0.327922  1
  Zn  Zn11  1  0.995452  0.077800  0.672375  1
  Zn  Zn12  1  0.572966  0.744582  0.414423  1
  Zn  Zn13  1  0.848407  0.675669  0.416341  1
  Zn  Zn14  1  0.254923  0.426500  0.585407  1
  Zn  Zn15  1  0.680238  0.594386  0.669899  1
  Zn  Zn16  1  0.922174  0.004784  0.327846  1
  Zn  Zn17  1  0.126898  0.877704  0.253040  1
  Zn  Zn18  1  0.127255  0.878834  0.748336  1
  Zn  Zn19  1  0.249790  0.750455  0.499909  1
  Zn  Zn20  1  0.000151  0.999474  0.000064  1
  Au  Au21  1  0.921557  0.596974  0.915545  1
  Au  Au22  1  0.125485  0.374519  0.250295  1
  Au  Au23  1  0.625574  0.875072  0.749794  1
