# generated using pymatgen
data_Ho4TmBi2Rh
_symmetry_space_group_name_H-M   'P 1'
_cell_length_a   7.96741539
_cell_length_b   8.98008523
_cell_length_c   12.43697707
_cell_angle_alpha   89.97376453
_cell_angle_beta   90.08877209
_cell_angle_gamma   89.99901627
_symmetry_Int_Tables_number   1
_chemical_formula_structural   Ho4TmBi2Rh
_chemical_formula_sum   'Ho16 Tm4 Bi8 Rh4'
_cell_volume   889.84053520
_cell_formula_units_Z   4
loop_
 _symmetry_equiv_pos_site_id
 _symmetry_equiv_pos_as_xyz
  1  'x, y, z'
loop_
 _atom_site_type_symbol
 _atom_site_label
 _atom_site_symmetry_multiplicity
 _atom_site_fract_x
 _atom_site_fract_y
 _atom_site_fract_z
 _atom_site_occupancy
  Ho  Ho0  1  0.839890  0.750238  0.793636  1
  Ho  Ho1  1  0.160492  0.249894  0.206444  1
  Ho  Ho2  1  0.339962  0.249759  0.706156  1
  Ho  Ho3  1  0.659744  0.750096  0.293894  1
  Ho  Ho4  1  0.374741  0.750136  0.690313  1
  Ho  Ho5  1  0.624682  0.249732  0.309683  1
  Ho  Ho6  1  0.875178  0.249864  0.809212  1
  Ho  Ho7  1  0.125395  0.750276  0.190763  1
  Ho  Ho8  1  0.952508  0.750317  0.501616  1
  Ho  Ho9  1  0.048371  0.249750  0.498293  1
  Ho  Ho10  1  0.451945  0.249636  0.998415  1
  Ho  Ho11  1  0.547287  0.750288  0.001495  1
  Ho  Ho12  1  0.823119  0.042354  0.066316  1
  Ho  Ho13  1  0.676710  0.457886  0.566193  1
  Ho  Ho14  1  0.822707  0.457849  0.066363  1
  Ho  Ho15  1  0.177143  0.542304  0.933604  1
  Tm  Tm16  1  0.675263  0.042328  0.565959  1
  Tm  Tm17  1  0.324822  0.957441  0.434020  1
  Tm  Tm18  1  0.175585  0.957417  0.933870  1
  Tm  Tm19  1  0.324566  0.542428  0.433980  1
  Bi  Bi20  1  0.567094  0.491941  0.826157  1
  Bi  Bi21  1  0.432798  0.508162  0.174012  1
  Bi  Bi22  1  0.066868  0.508157  0.673831  1
  Bi  Bi23  1  0.432963  0.991813  0.174059  1
  Bi  Bi24  1  0.933472  0.492001  0.326337  1
  Bi  Bi25  1  0.566697  0.008053  0.826094  1
  Bi  Bi26  1  0.933607  0.008023  0.326328  1
  Bi  Bi27  1  0.066477  0.991878  0.673815  1
  Rh  Rh28  1  0.571095  0.750730  0.508777  1
  Rh  Rh29  1  0.427280  0.249385  0.490793  1
  Rh  Rh30  1  0.073164  0.249245  0.990541  1
  Rh  Rh31  1  0.928372  0.750621  0.009033  1
