# generated using pymatgen
data_ErHfB6Ru
_symmetry_space_group_name_H-M   'P 1'
_cell_length_a   3.53595000
_cell_length_b   8.99232500
_cell_length_c   11.34456100
_cell_angle_alpha   90.00000000
_cell_angle_beta   90.00000000
_cell_angle_gamma   90.00000000
_symmetry_Int_Tables_number   1
_chemical_formula_structural   ErHfB6Ru
_chemical_formula_sum   'Er4 Hf4 B24 Ru4'
_cell_volume   360.71633079
_cell_formula_units_Z   4
loop_
 _symmetry_equiv_pos_site_id
 _symmetry_equiv_pos_as_xyz
  1  'x, y, z'
loop_
 _atom_site_type_symbol
 _atom_site_label
 _atom_site_symmetry_multiplicity
 _atom_site_fract_x
 _atom_site_fract_y
 _atom_site_fract_z
 _atom_site_occupancy
  Er  Er0  1  0.000000  0.321397  0.413725  1
  Er  Er1  1  0.000000  0.678603  0.586275  1
  Er  Er2  1  0.000000  0.821397  0.086275  1
  Er  Er3  1  0.000000  0.178603  0.913725  1
  Hf  Hf4  1  0.000000  0.944798  0.373956  1
  Hf  Hf5  1  0.000000  0.055202  0.626044  1
  Hf  Hf6  1  0.000000  0.444798  0.126044  1
  Hf  Hf7  1  0.000000  0.555202  0.873956  1
  B  B8  1  0.500000  0.554342  0.434192  1
  B  B9  1  0.500000  0.445658  0.565808  1
  B  B10  1  0.500000  0.054342  0.065808  1
  B  B11  1  0.500000  0.945658  0.934192  1
  B  B12  1  0.500000  0.752288  0.419190  1
  B  B13  1  0.500000  0.247712  0.580810  1
  B  B14  1  0.500000  0.252288  0.080810  1
  B  B15  1  0.500000  0.747712  0.919190  1
  B  B16  1  0.500000  0.795198  0.263607  1
  B  B17  1  0.500000  0.204802  0.736393  1
  B  B18  1  0.500000  0.295198  0.236393  1
  B  B19  1  0.500000  0.704802  0.763607  1
  B  B20  1  0.500000  0.630064  0.182449  1
  B  B21  1  0.500000  0.369936  0.817551  1
  B  B22  1  0.500000  0.130064  0.317551  1
  B  B23  1  0.500000  0.869936  0.682449  1
  B  B24  1  0.500000  0.981547  0.213055  1
  B  B25  1  0.500000  0.018453  0.786945  1
  B  B26  1  0.500000  0.481547  0.286945  1
  B  B27  1  0.500000  0.518453  0.713055  1
  B  B28  1  0.500000  0.601365  0.027395  1
  B  B29  1  0.500000  0.398635  0.972605  1
  B  B30  1  0.500000  0.101365  0.472605  1
  B  B31  1  0.500000  0.898635  0.527395  1
  Ru  Ru32  1  0.000000  0.642208  0.318899  1
  Ru  Ru33  1  0.000000  0.357792  0.681101  1
  Ru  Ru34  1  0.000000  0.142208  0.181101  1
  Ru  Ru35  1  0.000000  0.857792  0.818899  1
