# generated using pymatgen
data_EuTl(PO3)3
_symmetry_space_group_name_H-M   'P 1'
_cell_length_a   7.08820400
_cell_length_b   7.08820510
_cell_length_c   10.81504900
_cell_angle_alpha   90.00000000
_cell_angle_beta   90.00000000
_cell_angle_gamma   119.99999487
_symmetry_Int_Tables_number   1
_chemical_formula_structural   EuTl(PO3)3
_chemical_formula_sum   'Eu2 Tl2 P6 O18'
_cell_volume   470.57801040
_cell_formula_units_Z   2
loop_
 _symmetry_equiv_pos_site_id
 _symmetry_equiv_pos_as_xyz
  1  'x, y, z'
loop_
 _atom_site_type_symbol
 _atom_site_label
 _atom_site_symmetry_multiplicity
 _atom_site_fract_x
 _atom_site_fract_y
 _atom_site_fract_z
 _atom_site_occupancy
  Eu  Eu0  1  0.333330  0.666666  0.500002  1
  Eu  Eu1  1  0.333330  0.666666  0.999998  1
  Tl  Tl2  1  0.666679  0.333342  0.500003  1
  Tl  Tl3  1  0.666679  0.333342  0.999997  1
  P  P4  1  0.739807  0.774824  0.250000  1
  P  P5  1  0.225219  0.964988  0.250000  1
  P  P6  1  0.035026  0.260188  0.250000  1
  P  P7  1  0.035013  0.774812  0.750000  1
  P  P8  1  0.225200  0.260217  0.750000  1
  P  P9  1  0.739811  0.964972  0.750000  1
  O  O10  1  0.049147  0.375258  0.369148  1
  O  O11  1  0.624734  0.950852  0.630850  1
  O  O12  1  0.624737  0.673886  0.369145  1
  O  O13  1  0.326107  0.950851  0.369134  1
  O  O14  1  0.624737  0.673886  0.130855  1
  O  O15  1  0.326107  0.950851  0.130866  1
  O  O16  1  0.049147  0.375258  0.130852  1
  O  O17  1  0.326105  0.375254  0.869135  1
  O  O18  1  0.049147  0.673894  0.869139  1
  O  O19  1  0.049147  0.673894  0.630861  1
  O  O20  1  0.809896  0.780132  0.750000  1
  O  O21  1  0.970218  0.190102  0.750000  1
  O  O22  1  0.219882  0.029790  0.750000  1
  O  O23  1  0.219869  0.190101  0.250000  1
  O  O24  1  0.970188  0.780105  0.250000  1
  O  O25  1  0.809896  0.029767  0.250000  1
  O  O26  1  0.624734  0.950852  0.869150  1
  O  O27  1  0.326105  0.375254  0.630865  1
