# generated using pymatgen
data_Dy7YRe(B8Os)3
_symmetry_space_group_name_H-M   'P 1'
_cell_length_a   3.66792700
_cell_length_b   9.16753036
_cell_length_c   11.55166801
_cell_angle_alpha   90.08003047
_cell_angle_beta   90.00000000
_cell_angle_gamma   90.00000000
_symmetry_Int_Tables_number   1
_chemical_formula_structural   Dy7YRe(B8Os)3
_chemical_formula_sum   'Dy7 Y1 Re1 B24 Os3'
_cell_volume   388.43407014
_cell_formula_units_Z   1
loop_
 _symmetry_equiv_pos_site_id
 _symmetry_equiv_pos_as_xyz
  1  'x, y, z'
loop_
 _atom_site_type_symbol
 _atom_site_label
 _atom_site_symmetry_multiplicity
 _atom_site_fract_x
 _atom_site_fract_y
 _atom_site_fract_z
 _atom_site_occupancy
  Dy  Dy0  1  0.000000  0.679768  0.588215  1
  Dy  Dy1  1  0.000000  0.822930  0.083741  1
  Dy  Dy2  1  0.000000  0.176261  0.913083  1
  Dy  Dy3  1  0.000000  0.943173  0.371930  1
  Dy  Dy4  1  0.000000  0.056029  0.627683  1
  Dy  Dy5  1  0.000000  0.442854  0.127723  1
  Dy  Dy6  1  0.000000  0.556626  0.872864  1
  Y  Y7  1  0.000000  0.322627  0.414644  1
  Re  Re8  1  0.000000  0.862899  0.821735  1
  B  B9  1  0.500000  0.553815  0.433192  1
  B  B10  1  0.500000  0.446691  0.567382  1
  B  B11  1  0.500000  0.053371  0.067337  1
  B  B12  1  0.500000  0.947282  0.933062  1
  B  B13  1  0.500000  0.747886  0.419461  1
  B  B14  1  0.500000  0.252255  0.580561  1
  B  B15  1  0.500000  0.247510  0.080599  1
  B  B16  1  0.500000  0.752111  0.919346  1
  B  B17  1  0.500000  0.790156  0.266464  1
  B  B18  1  0.500000  0.209430  0.732870  1
  B  B19  1  0.500000  0.290537  0.233402  1
  B  B20  1  0.500000  0.708786  0.766460  1
  B  B21  1  0.500000  0.631294  0.185769  1
  B  B22  1  0.500000  0.368227  0.813915  1
  B  B23  1  0.500000  0.131705  0.314278  1
  B  B24  1  0.500000  0.868409  0.685857  1
  B  B25  1  0.500000  0.983495  0.212667  1
  B  B26  1  0.500000  0.017403  0.787173  1
  B  B27  1  0.500000  0.483387  0.287652  1
  B  B28  1  0.500000  0.516767  0.712963  1
  B  B29  1  0.500000  0.606917  0.030455  1
  B  B30  1  0.500000  0.391461  0.970179  1
  B  B31  1  0.500000  0.108153  0.469572  1
  B  B32  1  0.500000  0.892329  0.529435  1
  Os  Os33  1  0.000000  0.637097  0.321654  1
  Os  Os34  1  0.000000  0.363087  0.677975  1
  Os  Os35  1  0.000000  0.137270  0.178700  1
