# generated using pymatgen
data_TbNd4DyRuBr10
_symmetry_space_group_name_H-M   'P 1'
_cell_length_a   7.54307793
_cell_length_b   9.52296525
_cell_length_c   9.48643847
_cell_angle_alpha   108.97405302
_cell_angle_beta   95.87617915
_cell_angle_gamma   105.89390924
_symmetry_Int_Tables_number   1
_chemical_formula_structural   TbNd4DyRuBr10
_chemical_formula_sum   'Tb1 Nd4 Dy1 Ru1 Br10'
_cell_volume   605.89162453
_cell_formula_units_Z   1
loop_
 _symmetry_equiv_pos_site_id
 _symmetry_equiv_pos_as_xyz
  1  'x, y, z'
loop_
 _atom_site_type_symbol
 _atom_site_label
 _atom_site_symmetry_multiplicity
 _atom_site_fract_x
 _atom_site_fract_y
 _atom_site_fract_z
 _atom_site_occupancy
  Tb  Tb0  1  0.634074  0.862468  0.819097  1
  Nd  Nd1  1  0.125921  0.043880  0.752816  1
  Nd  Nd2  1  0.874371  0.956210  0.247275  1
  Nd  Nd3  1  0.975295  0.296769  0.095486  1
  Nd  Nd4  1  0.024902  0.703252  0.904592  1
  Dy  Dy5  1  0.365177  0.137531  0.180708  1
  Ru  Ru6  1  0.000404  0.000141  0.000171  1
  Br  Br7  1  0.549301  0.170237  0.919940  1
  Br  Br8  1  0.450688  0.830175  0.080576  1
  Br  Br9  1  0.365076  0.447890  0.273157  1
  Br  Br10  1  0.635139  0.551487  0.726750  1
  Br  Br11  1  0.260464  0.086881  0.450109  1
  Br  Br12  1  0.739861  0.913252  0.549562  1
  Br  Br13  1  0.781062  0.257560  0.349447  1
  Br  Br14  1  0.218281  0.742279  0.650324  1
  Br  Br15  1  0.088656  0.365370  0.826106  1
  Br  Br16  1  0.911331  0.634620  0.173885  1
