# generated using pymatgen
data_Tb4Lu4B24Rh3W
_symmetry_space_group_name_H-M   'P 1'
_cell_length_a   3.63512800
_cell_length_b   9.13338007
_cell_length_c   11.52183238
_cell_angle_alpha   90.22113785
_cell_angle_beta   90.00000000
_cell_angle_gamma   90.00000000
_symmetry_Int_Tables_number   1
_chemical_formula_structural   Tb4Lu4B24Rh3W
_chemical_formula_sum   'Tb4 Lu4 B24 Rh3 W1'
_cell_volume   382.53357230
_cell_formula_units_Z   1
loop_
 _symmetry_equiv_pos_site_id
 _symmetry_equiv_pos_as_xyz
  1  'x, y, z'
loop_
 _atom_site_type_symbol
 _atom_site_label
 _atom_site_symmetry_multiplicity
 _atom_site_fract_x
 _atom_site_fract_y
 _atom_site_fract_z
 _atom_site_occupancy
  Tb  Tb0  1  0.500000  0.319801  0.411694  1
  Tb  Tb1  1  0.500000  0.677356  0.584866  1
  Tb  Tb2  1  0.500000  0.178585  0.916414  1
  Tb  Tb3  1  0.500000  0.822863  0.086325  1
  Lu  Lu4  1  0.500000  0.445535  0.125854  1
  Lu  Lu5  1  0.500000  0.556560  0.871897  1
  Lu  Lu6  1  0.500000  0.055686  0.628731  1
  Lu  Lu7  1  0.500000  0.945137  0.374124  1
  B  B8  1  0.000000  0.103221  0.473980  1
  B  B9  1  0.000000  0.895954  0.529116  1
  B  B10  1  0.000000  0.398676  0.970486  1
  B  B11  1  0.000000  0.604400  0.027297  1
  B  B12  1  0.000000  0.131259  0.317982  1
  B  B13  1  0.000000  0.867505  0.683066  1
  B  B14  1  0.000000  0.369153  0.816865  1
  B  B15  1  0.000000  0.631930  0.183172  1
  B  B16  1  0.000000  0.052243  0.064964  1
  B  B17  1  0.000000  0.945206  0.932423  1
  B  B18  1  0.000000  0.444503  0.566462  1
  B  B19  1  0.000000  0.554161  0.433352  1
  B  B20  1  0.000000  0.483980  0.286714  1
  B  B21  1  0.000000  0.516720  0.713331  1
  B  B22  1  0.000000  0.016471  0.786290  1
  B  B23  1  0.000000  0.979869  0.214841  1
  B  B24  1  0.000000  0.253337  0.079110  1
  B  B25  1  0.000000  0.749595  0.918774  1
  B  B26  1  0.000000  0.248740  0.580456  1
  B  B27  1  0.000000  0.750564  0.419866  1
  B  B28  1  0.000000  0.296603  0.235953  1
  B  B29  1  0.000000  0.705617  0.763934  1
  B  B30  1  0.000000  0.207192  0.735923  1
  B  B31  1  0.000000  0.792621  0.265898  1
  Rh  Rh32  1  0.500000  0.859783  0.819437  1
  Rh  Rh33  1  0.500000  0.359852  0.680635  1
  Rh  Rh34  1  0.500000  0.640153  0.319672  1
  W  W35  1  0.500000  0.139166  0.180094  1
