# generated using pymatgen
data_YMg3P7N12
_symmetry_space_group_name_H-M   'P 1'
_cell_length_a   7.32821644
_cell_length_b   7.32821694
_cell_length_c   7.32821694
_cell_angle_alpha   109.50017688
_cell_angle_beta   109.50017663
_cell_angle_gamma   109.50016119
_symmetry_Int_Tables_number   1
_chemical_formula_structural   YMg3P7N12
_chemical_formula_sum   'Y1 Mg3 P7 N12'
_cell_volume   302.62628418
_cell_formula_units_Z   1
loop_
 _symmetry_equiv_pos_site_id
 _symmetry_equiv_pos_as_xyz
  1  'x, y, z'
loop_
 _atom_site_type_symbol
 _atom_site_label
 _atom_site_symmetry_multiplicity
 _atom_site_fract_x
 _atom_site_fract_y
 _atom_site_fract_z
 _atom_site_occupancy
  Y  Y0  1  0.330143  0.330143  0.330143  1
  Mg  Mg1  1  0.001309  0.653895  0.001309  1
  Mg  Mg2  1  0.653895  0.001309  0.001309  1
  Mg  Mg3  1  0.001309  0.001309  0.653895  1
  P  P4  1  0.504538  0.251457  0.756141  1
  P  P5  1  0.504538  0.756141  0.251457  1
  P  P6  1  0.756141  0.251457  0.504538  1
  P  P7  1  0.251457  0.504538  0.756141  1
  P  P8  1  0.756141  0.504538  0.251457  1
  P  P9  1  0.251457  0.756141  0.504538  1
  P  P10  1  0.969948  0.969948  0.969948  1
  N  N11  1  0.002517  0.726654  0.432405  1
  N  N12  1  0.281747  0.704892  0.281747  1
  N  N13  1  0.281689  0.572949  0.572949  1
  N  N14  1  0.572949  0.572949  0.281689  1
  N  N15  1  0.572949  0.281689  0.572949  1
  N  N16  1  0.726654  0.002517  0.432405  1
  N  N17  1  0.432405  0.002517  0.726654  1
  N  N18  1  0.726654  0.432405  0.002517  1
  N  N19  1  0.281747  0.281747  0.704892  1
  N  N20  1  0.704892  0.281747  0.281747  1
  N  N21  1  0.002517  0.432405  0.726654  1
  N  N22  1  0.432405  0.726654  0.002517  1
