# generated using pymatgen
data_HoU3Ge6Ru7
_symmetry_space_group_name_H-M   'P 1'
_cell_length_a   7.22610348
_cell_length_b   7.15534845
_cell_length_c   7.22610301
_cell_angle_alpha   109.27299621
_cell_angle_beta   109.66871238
_cell_angle_gamma   109.27298851
_symmetry_Int_Tables_number   1
_chemical_formula_structural   HoU3Ge6Ru7
_chemical_formula_sum   'Ho1 U3 Ge6 Ru7'
_cell_volume   288.31940608
_cell_formula_units_Z   1
loop_
 _symmetry_equiv_pos_site_id
 _symmetry_equiv_pos_as_xyz
  1  'x, y, z'
loop_
 _atom_site_type_symbol
 _atom_site_label
 _atom_site_symmetry_multiplicity
 _atom_site_fract_x
 _atom_site_fract_y
 _atom_site_fract_z
 _atom_site_occupancy
  Ho  Ho0  1  0.000000  0.500000  0.000000  1
  U  U1  1  0.000000  0.000000  0.500000  1
  U  U2  1  0.500000  0.000000  0.000000  1
  U  U3  1  0.500000  0.500000  0.500000  1
  Ge  Ge4  1  0.691651  0.688583  0.000000  1
  Ge  Ge5  1  0.308349  0.996933  0.308349  1
  Ge  Ge6  1  0.000000  0.311417  0.308349  1
  Ge  Ge7  1  0.308349  0.311417  0.000000  1
  Ge  Ge8  1  0.691651  0.003067  0.691651  1
  Ge  Ge9  1  0.000000  0.688583  0.691651  1
  Ru  Ru10  1  0.745488  0.245488  0.490976  1
  Ru  Ru11  1  0.745488  0.500000  0.254512  1
  Ru  Ru12  1  0.490976  0.245488  0.745488  1
  Ru  Ru13  1  0.254512  0.500000  0.745488  1
  Ru  Ru14  1  0.254512  0.754512  0.509024  1
  Ru  Ru15  1  0.509024  0.754512  0.254512  1
  Ru  Ru16  1  0.000000  0.000000  0.000000  1
