# generated using pymatgen
data_Dy3Ho13(ZnCo)4
_symmetry_space_group_name_H-M   'P 1'
_cell_length_a   9.28585725
_cell_length_b   9.28716338
_cell_length_c   9.28716400
_cell_angle_alpha   59.99999778
_cell_angle_beta   59.99534477
_cell_angle_gamma   59.99534739
_symmetry_Int_Tables_number   1
_chemical_formula_structural   Dy3Ho13(ZnCo)4
_chemical_formula_sum   'Dy3 Ho13 Zn4 Co4'
_cell_volume   566.29489261
_cell_formula_units_Z   1
loop_
 _symmetry_equiv_pos_site_id
 _symmetry_equiv_pos_as_xyz
  1  'x, y, z'
loop_
 _atom_site_type_symbol
 _atom_site_label
 _atom_site_symmetry_multiplicity
 _atom_site_fract_x
 _atom_site_fract_y
 _atom_site_fract_z
 _atom_site_occupancy
  Dy  Dy0  1  0.350057  0.350192  0.350192  1
  Dy  Dy1  1  0.350057  0.350192  0.949559  1
  Dy  Dy2  1  0.350057  0.949559  0.350192  1
  Ho  Ho3  1  0.949680  0.350107  0.350107  1
  Ho  Ho4  1  0.809660  0.190422  0.190422  1
  Ho  Ho5  1  0.190391  0.809606  0.809606  1
  Ho  Ho6  1  0.190391  0.809606  0.190397  1
  Ho  Ho7  1  0.809660  0.190422  0.809496  1
  Ho  Ho8  1  0.190391  0.190397  0.809606  1
  Ho  Ho9  1  0.809660  0.809496  0.190422  1
  Ho  Ho10  1  0.937759  0.562243  0.562243  1
  Ho  Ho11  1  0.562304  0.937701  0.937701  1
  Ho  Ho12  1  0.562304  0.937701  0.562294  1
  Ho  Ho13  1  0.937759  0.562243  0.937755  1
  Ho  Ho14  1  0.562304  0.562294  0.937701  1
  Ho  Ho15  1  0.937759  0.937755  0.562243  1
  Zn  Zn16  1  0.577787  0.577678  0.577678  1
  Zn  Zn17  1  0.577787  0.577678  0.266857  1
  Zn  Zn18  1  0.577787  0.266857  0.577678  1
  Zn  Zn19  1  0.266835  0.577722  0.577722  1
  Co  Co20  1  0.141473  0.141754  0.141754  1
  Co  Co21  1  0.141473  0.141754  0.575021  1
  Co  Co22  1  0.141473  0.575021  0.141754  1
  Co  Co23  1  0.575194  0.141602  0.141602  1
