# generated using pymatgen
data_Dy3YErTm3(ReC2)4
_symmetry_space_group_name_H-M   'P 1'
_cell_length_a   5.08047100
_cell_length_b   6.56931609
_cell_length_c   9.80079611
_cell_angle_alpha   89.98197536
_cell_angle_beta   90.00000000
_cell_angle_gamma   90.00000000
_symmetry_Int_Tables_number   1
_chemical_formula_structural   Dy3YErTm3(ReC2)4
_chemical_formula_sum   'Dy3 Y1 Er1 Tm3 Re4 C8'
_cell_volume   327.10370899
_cell_formula_units_Z   1
loop_
 _symmetry_equiv_pos_site_id
 _symmetry_equiv_pos_as_xyz
  1  'x, y, z'
loop_
 _atom_site_type_symbol
 _atom_site_label
 _atom_site_symmetry_multiplicity
 _atom_site_fract_x
 _atom_site_fract_y
 _atom_site_fract_z
 _atom_site_occupancy
  Dy  Dy0  1  0.250000  0.965197  0.285189  1
  Dy  Dy1  1  0.750000  0.534714  0.784707  1
  Dy  Dy2  1  0.750000  0.034589  0.714709  1
  Y  Y3  1  0.250000  0.465326  0.215291  1
  Er  Er4  1  0.750000  0.176236  0.057445  1
  Tm  Tm5  1  0.250000  0.824556  0.942138  1
  Tm  Tm6  1  0.250000  0.324670  0.557673  1
  Tm  Tm7  1  0.750000  0.675587  0.442463  1
  Re  Re8  1  0.250000  0.280392  0.866578  1
  Re  Re9  1  0.250000  0.780528  0.632741  1
  Re  Re10  1  0.750000  0.719554  0.133096  1
  Re  Re11  1  0.750000  0.219419  0.367623  1
  C  C12  1  0.250000  0.048494  0.739936  1
  C  C13  1  0.250000  0.548763  0.759619  1
  C  C14  1  0.750000  0.951101  0.260193  1
  C  C15  1  0.750000  0.451642  0.240909  1
  C  C16  1  0.250000  0.672802  0.449733  1
  C  C17  1  0.250000  0.172511  0.049589  1
  C  C18  1  0.750000  0.327516  0.550597  1
  C  C19  1  0.750000  0.826403  0.949769  1
