# generated using pymatgen
data_Er10Tm2Tc3Ni
_symmetry_space_group_name_H-M   'P 1'
_cell_length_a   6.21886861
_cell_length_b   7.28183808
_cell_length_c   9.08790459
_cell_angle_alpha   89.99354194
_cell_angle_beta   89.95922580
_cell_angle_gamma   90.20298384
_symmetry_Int_Tables_number   1
_chemical_formula_structural   Er10Tm2Tc3Ni
_chemical_formula_sum   'Er10 Tm2 Tc3 Ni1'
_cell_volume   411.54120052
_cell_formula_units_Z   1
loop_
 _symmetry_equiv_pos_site_id
 _symmetry_equiv_pos_as_xyz
  1  'x, y, z'
loop_
 _atom_site_type_symbol
 _atom_site_label
 _atom_site_symmetry_multiplicity
 _atom_site_fract_x
 _atom_site_fract_y
 _atom_site_fract_z
 _atom_site_occupancy
  Er  Er0  1  0.665792  0.322961  0.562335  1
  Er  Er1  1  0.834836  0.823458  0.938937  1
  Er  Er2  1  0.665641  0.323123  0.937620  1
  Er  Er3  1  0.834962  0.823588  0.561097  1
  Er  Er4  1  0.329336  0.677728  0.433564  1
  Er  Er5  1  0.163206  0.176745  0.062534  1
  Er  Er6  1  0.872289  0.540280  0.250022  1
  Er  Er7  1  0.623467  0.039431  0.250001  1
  Er  Er8  1  0.140146  0.457947  0.750020  1
  Er  Er9  1  0.373549  0.957669  0.749960  1
  Tm  Tm10  1  0.329421  0.677594  0.066491  1
  Tm  Tm11  1  0.163150  0.176661  0.437497  1
  Tc  Tc12  1  0.037541  0.885508  0.249966  1
  Tc  Tc13  1  0.460772  0.387878  0.250008  1
  Tc  Tc14  1  0.961529  0.113825  0.749858  1
  Ni  Ni15  1  0.544361  0.615605  0.750089  1
