# generated using pymatgen
data_LaCeZn4Os
_symmetry_space_group_name_H-M   'P 1'
_cell_length_a   7.18298000
_cell_length_b   7.18298000
_cell_length_c   5.29905700
_cell_angle_alpha   90.00000000
_cell_angle_beta   90.00000000
_cell_angle_gamma   90.00000000
_symmetry_Int_Tables_number   1
_chemical_formula_structural   LaCeZn4Os
_chemical_formula_sum   'La2 Ce2 Zn8 Os2'
_cell_volume   273.40591463
_cell_formula_units_Z   2
loop_
 _symmetry_equiv_pos_site_id
 _symmetry_equiv_pos_as_xyz
  1  'x, y, z'
loop_
 _atom_site_type_symbol
 _atom_site_label
 _atom_site_symmetry_multiplicity
 _atom_site_fract_x
 _atom_site_fract_y
 _atom_site_fract_z
 _atom_site_occupancy
  La  La0  1  0.000000  0.500000  0.775433  1
  La  La1  1  0.500000  0.000000  0.224567  1
  Ce  Ce2  1  0.000000  0.000000  0.000000  1
  Ce  Ce3  1  0.500000  0.500000  0.000000  1
  Zn  Zn4  1  0.185753  0.685753  0.290670  1
  Zn  Zn5  1  0.814247  0.685753  0.290670  1
  Zn  Zn6  1  0.814247  0.314247  0.290670  1
  Zn  Zn7  1  0.314247  0.185753  0.709330  1
  Zn  Zn8  1  0.185753  0.314247  0.290670  1
  Zn  Zn9  1  0.685753  0.185753  0.709330  1
  Zn  Zn10  1  0.685753  0.814247  0.709330  1
  Zn  Zn11  1  0.314247  0.814247  0.709330  1
  Os  Os12  1  0.500000  0.500000  0.500000  1
  Os  Os13  1  0.000000  0.000000  0.500000  1
