# generated using pymatgen
data_Lu2Ge(PRh2)6
_symmetry_space_group_name_H-M   'P 1'
_cell_length_a   9.66611600
_cell_length_b   9.66611462
_cell_length_c   3.85132200
_cell_angle_alpha   90.00000000
_cell_angle_beta   90.00000000
_cell_angle_gamma   119.99999787
_symmetry_Int_Tables_number   1
_chemical_formula_structural   Lu2Ge(PRh2)6
_chemical_formula_sum   'Lu2 Ge1 P6 Rh12'
_cell_volume   311.63369925
_cell_formula_units_Z   1
loop_
 _symmetry_equiv_pos_site_id
 _symmetry_equiv_pos_as_xyz
  1  'x, y, z'
loop_
 _atom_site_type_symbol
 _atom_site_label
 _atom_site_symmetry_multiplicity
 _atom_site_fract_x
 _atom_site_fract_y
 _atom_site_fract_z
 _atom_site_occupancy
  Lu  Lu0  1  0.333333  0.666667  0.748328  1
  Lu  Lu1  1  0.666667  0.333333  0.251672  1
  Ge  Ge2  1  0.000000  0.000000  0.500000  1
  P  P3  1  0.404951  0.285956  0.751218  1
  P  P4  1  0.714044  0.118996  0.751218  1
  P  P5  1  0.881004  0.595049  0.751218  1
  P  P6  1  0.595049  0.714044  0.248782  1
  P  P7  1  0.285956  0.881004  0.248782  1
  P  P8  1  0.118996  0.404951  0.248782  1
  Rh  Rh9  1  0.454058  0.069838  0.750706  1
  Rh  Rh10  1  0.930162  0.384219  0.750706  1
  Rh  Rh11  1  0.615781  0.545942  0.750706  1
  Rh  Rh12  1  0.545942  0.930162  0.249294  1
  Rh  Rh13  1  0.069838  0.615781  0.249294  1
  Rh  Rh14  1  0.384219  0.454058  0.249294  1
  Rh  Rh15  1  0.155593  0.275658  0.750970  1
  Rh  Rh16  1  0.724342  0.879936  0.750970  1
  Rh  Rh17  1  0.120064  0.844407  0.750970  1
  Rh  Rh18  1  0.844407  0.724342  0.249030  1
  Rh  Rh19  1  0.275658  0.120064  0.249030  1
  Rh  Rh20  1  0.879936  0.155593  0.249030  1
