# generated using pymatgen
data_HoTmTcC2
_symmetry_space_group_name_H-M   'P 1'
_cell_length_a   5.04046500
_cell_length_b   6.54387500
_cell_length_c   9.77584600
_cell_angle_alpha   90.00000000
_cell_angle_beta   90.00000000
_cell_angle_gamma   90.00000000
_symmetry_Int_Tables_number   1
_chemical_formula_structural   HoTmTcC2
_chemical_formula_sum   'Ho4 Tm4 Tc4 C8'
_cell_volume   322.44819473
_cell_formula_units_Z   4
loop_
 _symmetry_equiv_pos_site_id
 _symmetry_equiv_pos_as_xyz
  1  'x, y, z'
loop_
 _atom_site_type_symbol
 _atom_site_label
 _atom_site_symmetry_multiplicity
 _atom_site_fract_x
 _atom_site_fract_y
 _atom_site_fract_z
 _atom_site_occupancy
  Ho  Ho0  1  0.250000  0.533169  0.215790  1
  Ho  Ho1  1  0.750000  0.466831  0.784210  1
  Ho  Ho2  1  0.750000  0.966831  0.715790  1
  Ho  Ho3  1  0.250000  0.033169  0.284210  1
  Tm  Tm4  1  0.250000  0.675406  0.558610  1
  Tm  Tm5  1  0.750000  0.324594  0.441390  1
  Tm  Tm6  1  0.750000  0.824594  0.058610  1
  Tm  Tm7  1  0.250000  0.175406  0.941390  1
  Tc  Tc8  1  0.250000  0.719203  0.867205  1
  Tc  Tc9  1  0.750000  0.280797  0.132795  1
  Tc  Tc10  1  0.750000  0.780797  0.367205  1
  Tc  Tc11  1  0.250000  0.219203  0.632795  1
  C  C12  1  0.250000  0.451320  0.759201  1
  C  C13  1  0.750000  0.548680  0.240799  1
  C  C14  1  0.750000  0.048680  0.259201  1
  C  C15  1  0.250000  0.951320  0.740799  1
  C  C16  1  0.250000  0.825335  0.050688  1
  C  C17  1  0.750000  0.174665  0.949312  1
  C  C18  1  0.750000  0.674665  0.550688  1
  C  C19  1  0.250000  0.325335  0.449312  1
