# generated using pymatgen
data_Nd2HfInIr2
_symmetry_space_group_name_H-M   'P 1'
_cell_length_a   4.57974900
_cell_length_b   7.25540231
_cell_length_c   8.41581218
_cell_angle_alpha   86.58810581
_cell_angle_beta   90.00000000
_cell_angle_gamma   90.00000000
_symmetry_Int_Tables_number   1
_chemical_formula_structural   Nd2HfInIr2
_chemical_formula_sum   'Nd4 Hf2 In2 Ir4'
_cell_volume   279.14428304
_cell_formula_units_Z   2
loop_
 _symmetry_equiv_pos_site_id
 _symmetry_equiv_pos_as_xyz
  1  'x, y, z'
loop_
 _atom_site_type_symbol
 _atom_site_label
 _atom_site_symmetry_multiplicity
 _atom_site_fract_x
 _atom_site_fract_y
 _atom_site_fract_z
 _atom_site_occupancy
  Nd  Nd0  1  0.250000  0.522010  0.166445  1
  Nd  Nd1  1  0.750000  0.477990  0.833555  1
  Nd  Nd2  1  0.750000  0.967612  0.691125  1
  Nd  Nd3  1  0.250000  0.032388  0.308875  1
  Hf  Hf4  1  0.250000  0.632013  0.572105  1
  Hf  Hf5  1  0.750000  0.367987  0.427895  1
  In  In6  1  0.750000  0.848353  0.074915  1
  In  In7  1  0.250000  0.151647  0.925085  1
  Ir  Ir8  1  0.250000  0.760067  0.868472  1
  Ir  Ir9  1  0.750000  0.239933  0.131528  1
  Ir  Ir10  1  0.750000  0.728680  0.412087  1
  Ir  Ir11  1  0.250000  0.271320  0.587913  1
