# generated using pymatgen
data_Y8Er11TmBi12
_symmetry_space_group_name_H-M   'P 1'
_cell_length_a   8.23802422
_cell_length_b   9.46953700
_cell_length_c   12.05698032
_cell_angle_alpha   90.00000000
_cell_angle_beta   90.02638990
_cell_angle_gamma   90.00000000
_symmetry_Int_Tables_number   1
_chemical_formula_structural   Y8Er11TmBi12
_chemical_formula_sum   'Y8 Er11 Tm1 Bi12'
_cell_volume   940.56825237
_cell_formula_units_Z   1
loop_
 _symmetry_equiv_pos_site_id
 _symmetry_equiv_pos_as_xyz
  1  'x, y, z'
loop_
 _atom_site_type_symbol
 _atom_site_label
 _atom_site_symmetry_multiplicity
 _atom_site_fract_x
 _atom_site_fract_y
 _atom_site_fract_z
 _atom_site_occupancy
  Y  Y0  1  0.186497  0.750000  0.718796  1
  Y  Y1  1  0.686311  0.750000  0.781282  1
  Y  Y2  1  0.813630  0.250000  0.281231  1
  Y  Y3  1  0.313601  0.250000  0.218697  1
  Y  Y4  1  0.353616  0.750000  0.215640  1
  Y  Y5  1  0.853839  0.750000  0.284161  1
  Y  Y6  1  0.646129  0.250000  0.784284  1
  Y  Y7  1  0.146250  0.250000  0.715722  1
  Er  Er8  1  0.525897  0.750000  0.511051  1
  Er  Er9  1  0.974191  0.250000  0.011009  1
  Er  Er10  1  0.474087  0.250000  0.489011  1
  Er  Er11  1  0.306434  0.435748  0.940145  1
  Er  Er12  1  0.806473  0.064206  0.559902  1
  Er  Er13  1  0.693626  0.935779  0.059892  1
  Er  Er14  1  0.193523  0.564232  0.440083  1
  Er  Er15  1  0.693626  0.564221  0.059892  1
  Er  Er16  1  0.193523  0.935768  0.440083  1
  Er  Er17  1  0.306434  0.064252  0.940145  1
  Er  Er18  1  0.806473  0.435794  0.559902  1
  Tm  Tm19  1  0.025431  0.750000  0.989061  1
  Bi  Bi20  1  0.433872  0.003845  0.673017  1
  Bi  Bi21  1  0.934004  0.496433  0.827293  1
  Bi  Bi22  1  0.566223  0.503896  0.326984  1
  Bi  Bi23  1  0.066252  0.995874  0.172732  1
  Bi  Bi24  1  0.566223  0.996104  0.326984  1
  Bi  Bi25  1  0.066252  0.504126  0.172732  1
  Bi  Bi26  1  0.433872  0.496155  0.673017  1
  Bi  Bi27  1  0.934004  0.003567  0.827293  1
  Bi  Bi28  1  0.407588  0.750000  0.958053  1
  Bi  Bi29  1  0.908054  0.750000  0.541921  1
  Bi  Bi30  1  0.592022  0.250000  0.042012  1
  Bi  Bi31  1  0.092041  0.250000  0.457971  1
