# generated using pymatgen
data_Dy15Ho5(Bi2Os)4
_symmetry_space_group_name_H-M   'P 1'
_cell_length_a   7.95450303
_cell_length_b   9.03642816
_cell_length_c   12.50403021
_cell_angle_alpha   90.02004476
_cell_angle_beta   89.99425230
_cell_angle_gamma   90.00803878
_symmetry_Int_Tables_number   1
_chemical_formula_structural   Dy15Ho5(Bi2Os)4
_chemical_formula_sum   'Dy15 Ho5 Bi8 Os4'
_cell_volume   898.79331384
_cell_formula_units_Z   1
loop_
 _symmetry_equiv_pos_site_id
 _symmetry_equiv_pos_as_xyz
  1  'x, y, z'
loop_
 _atom_site_type_symbol
 _atom_site_label
 _atom_site_symmetry_multiplicity
 _atom_site_fract_x
 _atom_site_fract_y
 _atom_site_fract_z
 _atom_site_occupancy
  Dy  Dy0  1  0.839612  0.749916  0.792093  1
  Dy  Dy1  1  0.160311  0.250046  0.207908  1
  Dy  Dy2  1  0.339608  0.250080  0.707942  1
  Dy  Dy3  1  0.660411  0.749928  0.292029  1
  Dy  Dy4  1  0.374943  0.749845  0.690574  1
  Dy  Dy5  1  0.625055  0.250145  0.309413  1
  Dy  Dy6  1  0.874926  0.250085  0.809494  1
  Dy  Dy7  1  0.124942  0.749887  0.190527  1
  Dy  Dy8  1  0.943664  0.749864  0.504366  1
  Dy  Dy9  1  0.056297  0.250125  0.495619  1
  Dy  Dy10  1  0.443759  0.250086  0.995622  1
  Dy  Dy11  1  0.556416  0.749944  0.004404  1
  Dy  Dy12  1  0.674049  0.041406  0.564779  1
  Dy  Dy13  1  0.325959  0.958583  0.435215  1
  Dy  Dy14  1  0.173891  0.958636  0.935282  1
  Ho  Ho15  1  0.326587  0.541389  0.435347  1
  Ho  Ho16  1  0.826381  0.041439  0.064743  1
  Ho  Ho17  1  0.673447  0.458666  0.564652  1
  Ho  Ho18  1  0.826589  0.458589  0.064677  1
  Ho  Ho19  1  0.173475  0.541345  0.935305  1
  Bi  Bi20  1  0.566287  0.493319  0.827404  1
  Bi  Bi21  1  0.433709  0.506663  0.172600  1
  Bi  Bi22  1  0.066275  0.506664  0.672604  1
  Bi  Bi23  1  0.433729  0.993325  0.172568  1
  Bi  Bi24  1  0.933727  0.493330  0.327397  1
  Bi  Bi25  1  0.566392  0.006696  0.827390  1
  Bi  Bi26  1  0.933560  0.006698  0.327333  1
  Bi  Bi27  1  0.066411  0.993304  0.672624  1
  Os  Os28  1  0.575321  0.749669  0.509632  1
  Os  Os29  1  0.424679  0.250345  0.490382  1
  Os  Os30  1  0.075018  0.250147  0.990439  1
  Os  Os31  1  0.924569  0.749835  0.009637  1
