# generated using pymatgen
data_TbHo(BiO4)2
_symmetry_space_group_name_H-M   'P 1'
_cell_length_a   5.53120372
_cell_length_b   7.87083178
_cell_length_c   7.83455777
_cell_angle_alpha   82.99086216
_cell_angle_beta   90.48772153
_cell_angle_gamma   92.36575942
_symmetry_Int_Tables_number   1
_chemical_formula_structural   TbHo(BiO4)2
_chemical_formula_sum   'Tb2 Ho2 Bi4 O16'
_cell_volume   338.23923928
_cell_formula_units_Z   2
loop_
 _symmetry_equiv_pos_site_id
 _symmetry_equiv_pos_as_xyz
  1  'x, y, z'
loop_
 _atom_site_type_symbol
 _atom_site_label
 _atom_site_symmetry_multiplicity
 _atom_site_fract_x
 _atom_site_fract_y
 _atom_site_fract_z
 _atom_site_occupancy
  Tb  Tb0  1  0.255036  0.124718  0.621004  1
  Tb  Tb1  1  0.744964  0.875282  0.378996  1
  Ho  Ho2  1  0.216526  0.151903  0.115533  1
  Ho  Ho3  1  0.783474  0.848097  0.884467  1
  Bi  Bi4  1  0.239717  0.663645  0.182682  1
  Bi  Bi5  1  0.760283  0.336355  0.817318  1
  Bi  Bi6  1  0.724508  0.336973  0.319703  1
  Bi  Bi7  1  0.275492  0.663027  0.680297  1
  O  O8  1  0.090584  0.419579  0.676838  1
  O  O9  1  0.909417  0.580421  0.323162  1
  O  O10  1  0.583440  0.320658  0.571779  1
  O  O11  1  0.416560  0.679342  0.428221  1
  O  O12  1  0.898611  0.328241  0.073401  1
  O  O13  1  0.101389  0.671759  0.926599  1
  O  O14  1  0.393283  0.418094  0.186821  1
  O  O15  1  0.606717  0.581906  0.813179  1
  O  O16  1  0.034500  0.894003  0.167406  1
  O  O17  1  0.965500  0.105997  0.832594  1
  O  O18  1  0.500151  0.103432  0.322827  1
  O  O19  1  0.499849  0.896568  0.677173  1
  O  O20  1  0.453910  0.181275  0.886634  1
  O  O21  1  0.546090  0.818725  0.113366  1
  O  O22  1  0.994134  0.156954  0.387126  1
  O  O23  1  0.005866  0.843046  0.612874  1
