# generated using pymatgen
data_BaAcCuS3
_symmetry_space_group_name_H-M   'P 1'
_cell_length_a   4.24677200
_cell_length_b   7.11680903
_cell_length_c   11.21204300
_cell_angle_alpha   90.00000000
_cell_angle_beta   90.00000000
_cell_angle_gamma   72.64074716
_symmetry_Int_Tables_number   1
_chemical_formula_structural   BaAcCuS3
_chemical_formula_sum   'Ba2 Ac2 Cu2 S6'
_cell_volume   323.43234461
_cell_formula_units_Z   2
loop_
 _symmetry_equiv_pos_site_id
 _symmetry_equiv_pos_as_xyz
  1  'x, y, z'
loop_
 _atom_site_type_symbol
 _atom_site_label
 _atom_site_symmetry_multiplicity
 _atom_site_fract_x
 _atom_site_fract_y
 _atom_site_fract_z
 _atom_site_occupancy
  Ba  Ba0  1  0.744928  0.510144  0.250000  1
  Ba  Ba1  1  0.255071  0.489856  0.750000  1
  Ac  Ac2  1  0.000000  0.000000  0.000000  1
  Ac  Ac3  1  0.000000  0.000000  0.500000  1
  Cu  Cu4  1  0.464255  0.071487  0.250000  1
  Cu  Cu5  1  0.535743  0.928513  0.750000  1
  S  S6  1  0.362578  0.274843  0.081987  1
  S  S7  1  0.068242  0.863515  0.250000  1
  S  S8  1  0.362578  0.274843  0.418013  1
  S  S9  1  0.637421  0.725157  0.581988  1
  S  S10  1  0.931756  0.136485  0.750000  1
  S  S11  1  0.637421  0.725157  0.918013  1
