# generated using pymatgen
data_YTm3Co4(P3Rh4)4
_symmetry_space_group_name_H-M   'P 1'
_cell_length_a   3.83940400
_cell_length_b   10.74854932
_cell_length_c   12.39090898
_cell_angle_alpha   90.23891320
_cell_angle_beta   90.00000000
_cell_angle_gamma   90.00000000
_symmetry_Int_Tables_number   1
_chemical_formula_structural   YTm3Co4(P3Rh4)4
_chemical_formula_sum   'Y1 Tm3 Co4 P12 Rh16'
_cell_volume   511.34387434
_cell_formula_units_Z   1
loop_
 _symmetry_equiv_pos_site_id
 _symmetry_equiv_pos_as_xyz
  1  'x, y, z'
loop_
 _atom_site_type_symbol
 _atom_site_label
 _atom_site_symmetry_multiplicity
 _atom_site_fract_x
 _atom_site_fract_y
 _atom_site_fract_z
 _atom_site_occupancy
  Y  Y0  1  0.250000  0.585128  0.708410  1
  Tm  Tm1  1  0.250000  0.915095  0.207965  1
  Tm  Tm2  1  0.750000  0.084980  0.791959  1
  Tm  Tm3  1  0.750000  0.414938  0.291844  1
  Co  Co4  1  0.250000  0.036086  0.433365  1
  Co  Co5  1  0.750000  0.964741  0.566146  1
  Co  Co6  1  0.750000  0.535755  0.067024  1
  Co  Co7  1  0.250000  0.463537  0.934684  1
  P  P8  1  0.250000  0.076106  0.606184  1
  P  P9  1  0.750000  0.924269  0.393476  1
  P  P10  1  0.750000  0.575933  0.894734  1
  P  P11  1  0.250000  0.423645  0.106796  1
  P  P12  1  0.250000  0.228624  0.371967  1
  P  P13  1  0.750000  0.772121  0.626936  1
  P  P14  1  0.750000  0.728918  0.127837  1
  P  P15  1  0.250000  0.270998  0.871998  1
  P  P16  1  0.250000  0.901177  0.887439  1
  P  P17  1  0.750000  0.098581  0.112461  1
  P  P18  1  0.750000  0.400685  0.612154  1
  P  P19  1  0.250000  0.598504  0.387633  1
  Rh  Rh20  1  0.250000  0.783894  0.487085  1
  Rh  Rh21  1  0.750000  0.216309  0.512008  1
  Rh  Rh22  1  0.750000  0.283678  0.013565  1
  Rh  Rh23  1  0.250000  0.716396  0.987719  1
  Rh  Rh24  1  0.250000  0.091769  0.978441  1
  Rh  Rh25  1  0.750000  0.908373  0.021540  1
  Rh  Rh26  1  0.750000  0.591514  0.519242  1
  Rh  Rh27  1  0.250000  0.408024  0.478425  1
  Rh  Rh28  1  0.250000  0.272058  0.678121  1
  Rh  Rh29  1  0.750000  0.728756  0.320917  1
  Rh  Rh30  1  0.750000  0.773315  0.822302  1
  Rh  Rh31  1  0.250000  0.227871  0.178624  1
  Rh  Rh32  1  0.250000  0.612451  0.199385  1
  Rh  Rh33  1  0.750000  0.385613  0.801967  1
  Rh  Rh34  1  0.750000  0.112557  0.300801  1
  Rh  Rh35  1  0.250000  0.887600  0.698848  1
