# generated using pymatgen
data_Li2Ce(ThSi2)3
_symmetry_space_group_name_H-M   'P 1'
_cell_length_a   8.18906900
_cell_length_b   8.18906943
_cell_length_c   4.21266800
_cell_angle_alpha   90.00000000
_cell_angle_beta   90.00000000
_cell_angle_gamma   120.00000229
_symmetry_Int_Tables_number   1
_chemical_formula_structural   Li2Ce(ThSi2)3
_chemical_formula_sum   'Li2 Ce1 Th3 Si6'
_cell_volume   244.65660187
_cell_formula_units_Z   1
loop_
 _symmetry_equiv_pos_site_id
 _symmetry_equiv_pos_as_xyz
  1  'x, y, z'
loop_
 _atom_site_type_symbol
 _atom_site_label
 _atom_site_symmetry_multiplicity
 _atom_site_fract_x
 _atom_site_fract_y
 _atom_site_fract_z
 _atom_site_occupancy
  Li  Li0  1  0.333333  0.666667  0.500000  1
  Li  Li1  1  0.666667  0.333333  0.500000  1
  Ce  Ce2  1  0.000000  0.000000  0.000000  1
  Th  Th3  1  0.500000  0.500000  0.000000  1
  Th  Th4  1  0.000000  0.500000  0.000000  1
  Th  Th5  1  0.500000  0.000000  0.000000  1
  Si  Si6  1  0.833949  0.667898  0.500000  1
  Si  Si7  1  0.166051  0.833949  0.500000  1
  Si  Si8  1  0.667898  0.833949  0.500000  1
  Si  Si9  1  0.166051  0.332102  0.500000  1
  Si  Si10  1  0.833949  0.166051  0.500000  1
  Si  Si11  1  0.332102  0.166051  0.500000  1
