# generated using pymatgen
data_YUS6
_symmetry_space_group_name_H-M   'P 1'
_cell_length_a   3.94515000
_cell_length_b   5.40000260
_cell_length_c   9.48709682
_cell_angle_alpha   82.71455072
_cell_angle_beta   90.00000000
_cell_angle_gamma   90.00000000
_symmetry_Int_Tables_number   1
_chemical_formula_structural   YUS6
_chemical_formula_sum   'Y1 U1 S6'
_cell_volume   200.47969526
_cell_formula_units_Z   1
loop_
 _symmetry_equiv_pos_site_id
 _symmetry_equiv_pos_as_xyz
  1  'x, y, z'
loop_
 _atom_site_type_symbol
 _atom_site_label
 _atom_site_symmetry_multiplicity
 _atom_site_fract_x
 _atom_site_fract_y
 _atom_site_fract_z
 _atom_site_occupancy
  Y  Y0  1  0.250000  0.717430  0.146440  1
  U  U1  1  0.750000  0.279978  0.865143  1
  S  S2  1  0.250000  0.129445  0.691458  1
  S  S3  1  0.750000  0.872926  0.314763  1
  S  S4  1  0.750000  0.486542  0.314697  1
  S  S5  1  0.250000  0.508253  0.691694  1
  S  S6  1  0.750000  0.767262  0.922584  1
  S  S7  1  0.250000  0.238163  0.053221  1
