# generated using pymatgen
data_Er4V3ReB16
_symmetry_space_group_name_H-M   'P 1'
_cell_length_a   3.48702600
_cell_length_b   5.97218301
_cell_length_c   11.55634802
_cell_angle_alpha   90.00713861
_cell_angle_beta   90.00000000
_cell_angle_gamma   90.00000000
_symmetry_Int_Tables_number   1
_chemical_formula_structural   Er4V3ReB16
_chemical_formula_sum   'Er4 V3 Re1 B16'
_cell_volume   240.66276511
_cell_formula_units_Z   1
loop_
 _symmetry_equiv_pos_site_id
 _symmetry_equiv_pos_as_xyz
  1  'x, y, z'
loop_
 _atom_site_type_symbol
 _atom_site_label
 _atom_site_symmetry_multiplicity
 _atom_site_fract_x
 _atom_site_fract_y
 _atom_site_fract_z
 _atom_site_occupancy
  Er  Er0  1  0.500000  0.123269  0.850515  1
  Er  Er1  1  0.500000  0.875679  0.150792  1
  Er  Er2  1  0.500000  0.627145  0.652099  1
  Er  Er3  1  0.500000  0.374743  0.348642  1
  V  V4  1  0.500000  0.871554  0.417357  1
  V  V5  1  0.500000  0.627174  0.916165  1
  V  V6  1  0.500000  0.373056  0.082669  1
  Re  Re7  1  0.500000  0.128533  0.583548  1
  B  B8  1  0.000000  0.286245  0.685442  1
  B  B9  1  0.000000  0.714004  0.314285  1
  B  B10  1  0.000000  0.786306  0.814325  1
  B  B11  1  0.000000  0.213153  0.185712  1
  B  B12  1  0.000000  0.365854  0.531545  1
  B  B13  1  0.000000  0.634545  0.467431  1
  B  B14  1  0.000000  0.864845  0.967530  1
  B  B15  1  0.000000  0.134934  0.032623  1
  B  B16  1  0.000000  0.022333  0.306910  1
  B  B17  1  0.000000  0.976735  0.693105  1
  B  B18  1  0.000000  0.523217  0.192945  1
  B  B19  1  0.000000  0.476699  0.807081  1
  B  B20  1  0.000000  0.114392  0.451951  1
  B  B21  1  0.000000  0.885222  0.547325  1
  B  B22  1  0.000000  0.615357  0.047786  1
  B  B23  1  0.000000  0.385007  0.952218  1
