# generated using pymatgen
data_Pr3InPt2RhPb2
_symmetry_space_group_name_H-M   'P 1'
_cell_length_a   7.90807007
_cell_length_b   7.90807089
_cell_length_c   4.04459900
_cell_angle_alpha   90.00000000
_cell_angle_beta   90.00000000
_cell_angle_gamma   120.00630658
_symmetry_Int_Tables_number   1
_chemical_formula_structural   Pr3InPt2RhPb2
_chemical_formula_sum   'Pr3 In1 Pt2 Rh1 Pb2'
_cell_volume   219.03804856
_cell_formula_units_Z   1
loop_
 _symmetry_equiv_pos_site_id
 _symmetry_equiv_pos_as_xyz
  1  'x, y, z'
loop_
 _atom_site_type_symbol
 _atom_site_label
 _atom_site_symmetry_multiplicity
 _atom_site_fract_x
 _atom_site_fract_y
 _atom_site_fract_z
 _atom_site_occupancy
  Pr  Pr0  1  0.591802  0.995894  0.000000  1
  Pr  Pr1  1  0.995894  0.591802  0.000000  1
  Pr  Pr2  1  0.411467  0.411467  0.000000  1
  In  In3  1  0.745913  0.745913  0.500000  1
  Pt  Pt4  1  0.342818  0.669013  0.500000  1
  Pt  Pt5  1  0.669013  0.342818  0.500000  1
  Rh  Rh6  1  0.993006  0.993006  0.000000  1
  Pb  Pb7  1  0.251532  0.998555  0.500000  1
  Pb  Pb8  1  0.998555  0.251532  0.500000  1
