# generated using pymatgen
data_Dy20Si12S
_symmetry_space_group_name_H-M   'P 1'
_cell_length_a   14.74020500
_cell_length_b   6.38638847
_cell_length_c   8.45575712
_cell_angle_alpha   89.92803878
_cell_angle_beta   90.00000000
_cell_angle_gamma   90.00000000
_symmetry_Int_Tables_number   1
_chemical_formula_structural   Dy20Si12S
_chemical_formula_sum   'Dy20 Si12 S1'
_cell_volume   795.99623379
_cell_formula_units_Z   1
loop_
 _symmetry_equiv_pos_site_id
 _symmetry_equiv_pos_as_xyz
  1  'x, y, z'
loop_
 _atom_site_type_symbol
 _atom_site_label
 _atom_site_symmetry_multiplicity
 _atom_site_fract_x
 _atom_site_fract_y
 _atom_site_fract_z
 _atom_site_occupancy
  Dy  Dy0  1  0.666466  0.500000  0.500000  1
  Dy  Dy1  1  0.168205  0.500000  0.000000  1
  Dy  Dy2  1  0.831795  0.500000  0.000000  1
  Dy  Dy3  1  0.333534  0.500000  0.500000  1
  Dy  Dy4  1  0.832097  0.000000  0.000000  1
  Dy  Dy5  1  0.335307  0.000000  0.500000  1
  Dy  Dy6  1  0.664693  0.000000  0.500000  1
  Dy  Dy7  1  0.167903  0.000000  0.000000  1
  Dy  Dy8  1  0.500000  0.251812  0.755701  1
  Dy  Dy9  1  0.000000  0.247068  0.248389  1
  Dy  Dy10  1  0.620027  0.250220  0.122511  1
  Dy  Dy11  1  0.125597  0.243442  0.626641  1
  Dy  Dy12  1  0.874403  0.243442  0.626641  1
  Dy  Dy13  1  0.379973  0.250220  0.122511  1
  Dy  Dy14  1  0.000000  0.752932  0.751611  1
  Dy  Dy15  1  0.500000  0.748188  0.244299  1
  Dy  Dy16  1  0.874403  0.756558  0.373359  1
  Dy  Dy17  1  0.379973  0.749780  0.877489  1
  Dy  Dy18  1  0.620027  0.749780  0.877489  1
  Dy  Dy19  1  0.125597  0.756558  0.373359  1
  Si  Si20  1  0.000000  0.247811  0.895675  1
  Si  Si21  1  0.500000  0.252385  0.394888  1
  Si  Si22  1  0.800942  0.246196  0.301863  1
  Si  Si23  1  0.303740  0.248570  0.803103  1
  Si  Si24  1  0.696260  0.248570  0.803103  1
  Si  Si25  1  0.199058  0.246196  0.301863  1
  Si  Si26  1  0.500000  0.747615  0.605112  1
  Si  Si27  1  0.000000  0.752189  0.104325  1
  Si  Si28  1  0.696260  0.751430  0.196897  1
  Si  Si29  1  0.199058  0.753804  0.698137  1
  Si  Si30  1  0.800942  0.753804  0.698137  1
  Si  Si31  1  0.303740  0.751430  0.196897  1
  S  S32  1  0.000000  0.500000  0.500000  1
