# generated using pymatgen
data_Er5Tm5(Bi2Os)2
_symmetry_space_group_name_H-M   'P 1'
_cell_length_a   7.86352236
_cell_length_b   8.98354800
_cell_length_c   12.42563021
_cell_angle_alpha   90.00000000
_cell_angle_beta   89.92264747
_cell_angle_gamma   90.00000000
_symmetry_Int_Tables_number   1
_chemical_formula_structural   Er5Tm5(Bi2Os)2
_chemical_formula_sum   'Er10 Tm10 Bi8 Os4'
_cell_volume   877.77467642
_cell_formula_units_Z   2
loop_
 _symmetry_equiv_pos_site_id
 _symmetry_equiv_pos_as_xyz
  1  'x, y, z'
loop_
 _atom_site_type_symbol
 _atom_site_label
 _atom_site_symmetry_multiplicity
 _atom_site_fract_x
 _atom_site_fract_y
 _atom_site_fract_z
 _atom_site_occupancy
  Er  Er0  1  0.158555  0.250000  0.791849  1
  Er  Er1  1  0.841445  0.750000  0.208151  1
  Er  Er2  1  0.123339  0.750000  0.809990  1
  Er  Er3  1  0.876661  0.250000  0.190010  1
  Er  Er4  1  0.623653  0.250000  0.689920  1
  Er  Er5  1  0.376347  0.750000  0.310080  1
  Er  Er6  1  0.557616  0.750000  0.995649  1
  Er  Er7  1  0.442384  0.250000  0.004351  1
  Er  Er8  1  0.057646  0.250000  0.504482  1
  Er  Er9  1  0.942354  0.750000  0.495518  1
  Tm  Tm10  1  0.657557  0.750000  0.706960  1
  Tm  Tm11  1  0.342443  0.250000  0.293040  1
  Tm  Tm12  1  0.826871  0.459392  0.935277  1
  Tm  Tm13  1  0.173129  0.540608  0.064723  1
  Tm  Tm14  1  0.326832  0.540876  0.564741  1
  Tm  Tm15  1  0.173129  0.959392  0.064723  1
  Tm  Tm16  1  0.673168  0.459124  0.435259  1
  Tm  Tm17  1  0.826871  0.040608  0.935277  1
  Tm  Tm18  1  0.673168  0.040876  0.435259  1
  Tm  Tm19  1  0.326832  0.959124  0.564741  1
  Bi  Bi20  1  0.933288  0.006089  0.672498  1
  Bi  Bi21  1  0.066712  0.993911  0.327502  1
  Bi  Bi22  1  0.434098  0.993253  0.827446  1
  Bi  Bi23  1  0.066712  0.506089  0.327502  1
  Bi  Bi24  1  0.565902  0.006747  0.172554  1
  Bi  Bi25  1  0.933288  0.493911  0.672498  1
  Bi  Bi26  1  0.565902  0.493253  0.172554  1
  Bi  Bi27  1  0.434098  0.506747  0.827446  1
  Os  Os28  1  0.927695  0.750000  0.992035  1
  Os  Os29  1  0.072305  0.250000  0.007965  1
  Os  Os30  1  0.427358  0.250000  0.508236  1
  Os  Os31  1  0.572642  0.750000  0.491764  1
