# generated using pymatgen
data_La2HoTm(ZnGe)4
_symmetry_space_group_name_H-M   'P 1'
_cell_length_a   4.30323000
_cell_length_b   4.30323093
_cell_length_c   16.13794600
_cell_angle_alpha   90.00000000
_cell_angle_beta   90.00000000
_cell_angle_gamma   120.00000819
_symmetry_Int_Tables_number   1
_chemical_formula_structural   La2HoTm(ZnGe)4
_chemical_formula_sum   'La2 Ho1 Tm1 Zn4 Ge4'
_cell_volume   258.80226090
_cell_formula_units_Z   1
loop_
 _symmetry_equiv_pos_site_id
 _symmetry_equiv_pos_as_xyz
  1  'x, y, z'
loop_
 _atom_site_type_symbol
 _atom_site_label
 _atom_site_symmetry_multiplicity
 _atom_site_fract_x
 _atom_site_fract_y
 _atom_site_fract_z
 _atom_site_occupancy
  La  La0  1  0.000000  0.000000  0.999825  1
  La  La1  1  0.000000  0.000000  0.500175  1
  Ho  Ho2  1  0.000000  0.000000  0.250000  1
  Tm  Tm3  1  0.000000  0.000000  0.750000  1
  Zn  Zn4  1  0.333333  0.666667  0.156728  1
  Zn  Zn5  1  0.666667  0.333333  0.842827  1
  Zn  Zn6  1  0.666667  0.333333  0.657173  1
  Zn  Zn7  1  0.333333  0.666667  0.343272  1
  Ge  Ge8  1  0.333333  0.666667  0.619693  1
  Ge  Ge9  1  0.666667  0.333333  0.380426  1
  Ge  Ge10  1  0.666667  0.333333  0.119574  1
  Ge  Ge11  1  0.333333  0.666667  0.880307  1
