# generated using pymatgen
data_Tb11Sc(Si3Ir)4
_symmetry_space_group_name_H-M   'P 1'
_cell_length_a   4.22991900
_cell_length_b   10.67735270
_cell_length_c   12.31181694
_cell_angle_alpha   89.80635938
_cell_angle_beta   90.00000000
_cell_angle_gamma   90.00000000
_symmetry_Int_Tables_number   1
_chemical_formula_structural   Tb11Sc(Si3Ir)4
_chemical_formula_sum   'Tb11 Sc1 Si12 Ir4'
_cell_volume   556.05187449
_cell_formula_units_Z   1
loop_
 _symmetry_equiv_pos_site_id
 _symmetry_equiv_pos_as_xyz
  1  'x, y, z'
loop_
 _atom_site_type_symbol
 _atom_site_label
 _atom_site_symmetry_multiplicity
 _atom_site_fract_x
 _atom_site_fract_y
 _atom_site_fract_z
 _atom_site_occupancy
  Tb  Tb0  1  0.250000  0.881668  0.018940  1
  Tb  Tb1  1  0.250000  0.618772  0.520096  1
  Tb  Tb2  1  0.750000  0.119669  0.976938  1
  Tb  Tb3  1  0.750000  0.377259  0.481863  1
  Tb  Tb4  1  0.250000  0.921037  0.603966  1
  Tb  Tb5  1  0.250000  0.581403  0.103621  1
  Tb  Tb6  1  0.750000  0.081131  0.398643  1
  Tb  Tb7  1  0.750000  0.417287  0.895054  1
  Tb  Tb8  1  0.250000  0.658707  0.800995  1
  Tb  Tb9  1  0.250000  0.842392  0.301412  1
  Tb  Tb10  1  0.750000  0.340201  0.198687  1
  Sc  Sc11  1  0.750000  0.160919  0.702028  1
  Si  Si12  1  0.250000  0.013205  0.818750  1
  Si  Si13  1  0.250000  0.489307  0.321330  1
  Si  Si14  1  0.750000  0.991656  0.179104  1
  Si  Si15  1  0.750000  0.510291  0.678566  1
  Si  Si16  1  0.250000  0.243599  0.835741  1
  Si  Si17  1  0.250000  0.252747  0.342415  1
  Si  Si18  1  0.750000  0.754467  0.159296  1
  Si  Si19  1  0.750000  0.746170  0.658705  1
  Si  Si20  1  0.250000  0.198732  0.552649  1
  Si  Si21  1  0.250000  0.297311  0.041596  1
  Si  Si22  1  0.750000  0.797508  0.457292  1
  Si  Si23  1  0.750000  0.702757  0.956058  1
  Ir  Ir24  1  0.250000  0.387406  0.681165  1
  Ir  Ir25  1  0.250000  0.111269  0.181543  1
  Ir  Ir26  1  0.750000  0.610658  0.318545  1
  Ir  Ir27  1  0.750000  0.892469  0.814999  1
