# generated using pymatgen
data_Tb2Cr2Fe10P7
_symmetry_space_group_name_H-M   'P 1'
_cell_length_a   9.00271304
_cell_length_b   9.04000827
_cell_length_c   3.64525500
_cell_angle_alpha   90.00000000
_cell_angle_beta   90.00000000
_cell_angle_gamma   120.09585274
_symmetry_Int_Tables_number   1
_chemical_formula_structural   Tb2Cr2Fe10P7
_chemical_formula_sum   'Tb2 Cr2 Fe10 P7'
_cell_volume   256.67318256
_cell_formula_units_Z   1
loop_
 _symmetry_equiv_pos_site_id
 _symmetry_equiv_pos_as_xyz
  1  'x, y, z'
loop_
 _atom_site_type_symbol
 _atom_site_label
 _atom_site_symmetry_multiplicity
 _atom_site_fract_x
 _atom_site_fract_y
 _atom_site_fract_z
 _atom_site_occupancy
  Tb  Tb0  1  0.668654  0.334222  0.000000  1
  Tb  Tb1  1  0.332274  0.665338  0.500000  1
  Cr  Cr2  1  0.782209  0.897185  0.500000  1
  Cr  Cr3  1  0.115811  0.215720  0.500000  1
  Fe  Fe4  1  0.055669  0.630565  0.000000  1
  Fe  Fe5  1  0.571979  0.945571  0.000000  1
  Fe  Fe6  1  0.374396  0.427462  0.000000  1
  Fe  Fe7  1  0.274464  0.117941  0.000000  1
  Fe  Fe8  1  0.846240  0.725935  0.000000  1
  Fe  Fe9  1  0.880603  0.153108  0.000000  1
  Fe  Fe10  1  0.433077  0.048163  0.500000  1
  Fe  Fe11  1  0.614780  0.567519  0.500000  1
  Fe  Fe12  1  0.951478  0.385636  0.500000  1
  Fe  Fe13  1  0.095233  0.881716  0.500000  1
  P  P14  1  0.295192  0.886393  0.000000  1
  P  P15  1  0.590004  0.703132  0.000000  1
  P  P16  1  0.110021  0.410024  0.000000  1
  P  P17  1  0.404643  0.288900  0.500000  1
  P  P18  1  0.890307  0.600842  0.500000  1
  P  P19  1  0.712648  0.116101  0.500000  1
  P  P20  1  0.000317  0.998526  0.000000  1
