# generated using pymatgen
data_TbHo3(ErGa5)2
_symmetry_space_group_name_H-M   'P 1'
_cell_length_a   6.08300910
_cell_length_b   9.62932017
_cell_length_c   11.48336600
_cell_angle_alpha   90.00000000
_cell_angle_beta   90.00000000
_cell_angle_gamma   89.97880148
_symmetry_Int_Tables_number   1
_chemical_formula_structural   TbHo3(ErGa5)2
_chemical_formula_sum   'Tb2 Ho6 Er4 Ga20'
_cell_volume   672.64089901
_cell_formula_units_Z   2
loop_
 _symmetry_equiv_pos_site_id
 _symmetry_equiv_pos_as_xyz
  1  'x, y, z'
loop_
 _atom_site_type_symbol
 _atom_site_label
 _atom_site_symmetry_multiplicity
 _atom_site_fract_x
 _atom_site_fract_y
 _atom_site_fract_z
 _atom_site_occupancy
  Tb  Tb0  1  0.890501  0.509779  0.351761  1
  Tb  Tb1  1  0.609499  0.990221  0.851761  1
  Ho  Ho2  1  0.109497  0.009711  0.648169  1
  Ho  Ho3  1  0.390503  0.490289  0.148169  1
  Ho  Ho4  1  0.109521  0.490252  0.648512  1
  Ho  Ho5  1  0.390479  0.009748  0.148512  1
  Ho  Ho6  1  0.890607  0.990313  0.351693  1
  Ho  Ho7  1  0.609393  0.509687  0.851693  1
  Er  Er8  1  0.848444  0.749913  0.074248  1
  Er  Er9  1  0.651556  0.750087  0.574248  1
  Er  Er10  1  0.151270  0.249988  0.925778  1
  Er  Er11  1  0.348730  0.250012  0.425778  1
  Ga  Ga12  1  0.874852  0.052911  0.090596  1
  Ga  Ga13  1  0.625148  0.447089  0.590596  1
  Ga  Ga14  1  0.125202  0.552831  0.909545  1
  Ga  Ga15  1  0.374798  0.947169  0.409545  1
  Ga  Ga16  1  0.124833  0.947036  0.909628  1
  Ga  Ga17  1  0.375167  0.552964  0.409628  1
  Ga  Ga18  1  0.874761  0.447060  0.090152  1
  Ga  Ga19  1  0.625239  0.052940  0.590152  1
  Ga  Ga20  1  0.173361  0.750230  0.251409  1
  Ga  Ga21  1  0.326639  0.749770  0.751409  1
  Ga  Ga22  1  0.827095  0.250270  0.748327  1
  Ga  Ga23  1  0.672905  0.249730  0.248327  1
  Ga  Ga24  1  0.372625  0.749875  0.005228  1
  Ga  Ga25  1  0.127375  0.750125  0.505228  1
  Ga  Ga26  1  0.627281  0.250350  0.995110  1
  Ga  Ga27  1  0.872719  0.249650  0.495110  1
  Ga  Ga28  1  0.602978  0.750401  0.299220  1
  Ga  Ga29  1  0.897022  0.749599  0.799220  1
  Ga  Ga30  1  0.396511  0.250068  0.700623  1
  Ga  Ga31  1  0.103489  0.249932  0.200623  1
