# generated using pymatgen
data_Li(CrTe2)3
_symmetry_space_group_name_H-M   'P 1'
_cell_length_a   6.74843000
_cell_length_b   6.74843066
_cell_length_c   12.92063800
_cell_angle_alpha   90.00000000
_cell_angle_beta   90.00000000
_cell_angle_gamma   120.00000657
_symmetry_Int_Tables_number   1
_chemical_formula_structural   Li(CrTe2)3
_chemical_formula_sum   'Li2 Cr6 Te12'
_cell_volume   509.58906383
_cell_formula_units_Z   2
loop_
 _symmetry_equiv_pos_site_id
 _symmetry_equiv_pos_as_xyz
  1  'x, y, z'
loop_
 _atom_site_type_symbol
 _atom_site_label
 _atom_site_symmetry_multiplicity
 _atom_site_fract_x
 _atom_site_fract_y
 _atom_site_fract_z
 _atom_site_occupancy
  Li  Li0  1  0.333333  0.666667  0.250000  1
  Li  Li1  1  0.666667  0.333333  0.750000  1
  Cr  Cr2  1  0.000000  0.000000  0.000000  1
  Cr  Cr3  1  0.000000  0.000000  0.500000  1
  Cr  Cr4  1  0.333333  0.666667  0.001778  1
  Cr  Cr5  1  0.333333  0.666667  0.498222  1
  Cr  Cr6  1  0.666667  0.333333  0.998222  1
  Cr  Cr7  1  0.666667  0.333333  0.501778  1
  Te  Te8  1  0.334032  0.006680  0.382150  1
  Te  Te9  1  0.993320  0.327352  0.382150  1
  Te  Te10  1  0.672648  0.665968  0.382150  1
  Te  Te11  1  0.993320  0.665968  0.117850  1
  Te  Te12  1  0.672648  0.006680  0.117850  1
  Te  Te13  1  0.334032  0.327352  0.117850  1
  Te  Te14  1  0.665968  0.993320  0.617850  1
  Te  Te15  1  0.006680  0.672648  0.617850  1
  Te  Te16  1  0.327352  0.334032  0.617850  1
  Te  Te17  1  0.006680  0.334032  0.882150  1
  Te  Te18  1  0.327352  0.993320  0.882150  1
  Te  Te19  1  0.665968  0.672648  0.882150  1
