# generated using pymatgen
data_Rb2Cu3MoF12
_symmetry_space_group_name_H-M   'P 1'
_cell_length_a   6.97135900
_cell_length_b   8.07232958
_cell_length_c   12.30211329
_cell_angle_alpha   58.86843434
_cell_angle_beta   90.00000000
_cell_angle_gamma   90.00000000
_symmetry_Int_Tables_number   1
_chemical_formula_structural   Rb2Cu3MoF12
_chemical_formula_sum   'Rb4 Cu6 Mo2 F24'
_cell_volume   592.59895614
_cell_formula_units_Z   2
loop_
 _symmetry_equiv_pos_site_id
 _symmetry_equiv_pos_as_xyz
  1  'x, y, z'
loop_
 _atom_site_type_symbol
 _atom_site_label
 _atom_site_symmetry_multiplicity
 _atom_site_fract_x
 _atom_site_fract_y
 _atom_site_fract_z
 _atom_site_occupancy
  Rb  Rb0  1  0.507655  0.316003  0.398432  1
  Rb  Rb1  1  0.992345  0.316003  0.898432  1
  Rb  Rb2  1  0.492345  0.683997  0.601568  1
  Rb  Rb3  1  0.007655  0.683997  0.101568  1
  Cu  Cu4  1  0.500000  0.000000  0.000000  1
  Cu  Cu5  1  0.000000  0.000000  0.500000  1
  Cu  Cu6  1  0.715694  0.980333  0.261595  1
  Cu  Cu7  1  0.784306  0.980333  0.761595  1
  Cu  Cu8  1  0.284306  0.019667  0.738405  1
  Cu  Cu9  1  0.215694  0.019667  0.238405  1
  Mo  Mo10  1  0.500000  0.500000  0.000000  1
  Mo  Mo11  1  0.000000  0.500000  0.500000  1
  F  F12  1  0.667716  0.891561  0.145896  1
  F  F13  1  0.832284  0.891561  0.645896  1
  F  F14  1  0.332284  0.108439  0.854104  1
  F  F15  1  0.167716  0.108439  0.354104  1
  F  F16  1  0.228035  0.987753  0.596515  1
  F  F17  1  0.271965  0.987753  0.096515  1
  F  F18  1  0.771965  0.012247  0.403485  1
  F  F19  1  0.728035  0.012247  0.903485  1
  F  F20  1  0.455683  0.922748  0.323829  1
  F  F21  1  0.044317  0.922748  0.823829  1
  F  F22  1  0.544317  0.077252  0.676171  1
  F  F23  1  0.955683  0.077252  0.176171  1
  F  F24  1  0.878194  0.330328  0.667557  1
  F  F25  1  0.621806  0.330328  0.167557  1
  F  F26  1  0.121806  0.669672  0.332443  1
  F  F27  1  0.378194  0.669672  0.832443  1
  F  F28  1  0.248078  0.371230  0.069086  1
  F  F29  1  0.251922  0.371230  0.569086  1
  F  F30  1  0.751922  0.628770  0.930914  1
  F  F31  1  0.748078  0.628770  0.430914  1
  F  F32  1  0.579952  0.318831  0.939444  1
  F  F33  1  0.920048  0.318831  0.439444  1
  F  F34  1  0.420048  0.681169  0.060556  1
  F  F35  1  0.079952  0.681169  0.560556  1
