# generated using pymatgen
data_Gd5TcRuO12
_symmetry_space_group_name_H-M   'P 1'
_cell_length_a   6.94491306
_cell_length_b   6.94491315
_cell_length_c   7.61745623
_cell_angle_alpha   73.87044762
_cell_angle_beta   73.87045649
_cell_angle_gamma   48.74260108
_symmetry_Int_Tables_number   1
_chemical_formula_structural   Gd5TcRuO12
_chemical_formula_sum   'Gd5 Tc1 Ru1 O12'
_cell_volume   263.03844481
_cell_formula_units_Z   1
loop_
 _symmetry_equiv_pos_site_id
 _symmetry_equiv_pos_as_xyz
  1  'x, y, z'
loop_
 _atom_site_type_symbol
 _atom_site_label
 _atom_site_symmetry_multiplicity
 _atom_site_fract_x
 _atom_site_fract_y
 _atom_site_fract_z
 _atom_site_occupancy
  Gd  Gd0  1  0.297578  0.311854  0.356747  1
  Gd  Gd1  1  0.688146  0.702422  0.643253  1
  Gd  Gd2  1  0.683480  0.689232  0.170894  1
  Gd  Gd3  1  0.310768  0.316520  0.829106  1
  Gd  Gd4  1  0.995603  0.004397  0.500000  1
  Tc  Tc5  1  0.791306  0.208694  0.000000  1
  Ru  Ru6  1  0.226589  0.773411  0.000000  1
  O  O7  1  0.091248  0.597252  0.577299  1
  O  O8  1  0.000330  0.998709  0.200091  1
  O  O9  1  0.402748  0.908752  0.422701  1
  O  O10  1  0.503031  0.494213  0.172761  1
  O  O11  1  0.087403  0.579834  0.082167  1
  O  O12  1  0.897559  0.407540  0.426595  1
  O  O13  1  0.001291  0.999670  0.799909  1
  O  O14  1  0.592460  0.102440  0.573405  1
  O  O15  1  0.505787  0.496969  0.827239  1
  O  O16  1  0.592452  0.087946  0.080818  1
  O  O17  1  0.420166  0.912597  0.917833  1
  O  O18  1  0.912054  0.407548  0.919182  1
