# generated using pymatgen
data_Y3Er13(TmIr3)4
_symmetry_space_group_name_H-M   'P 1'
_cell_length_a   10.84336753
_cell_length_b   10.84181018
_cell_length_c   6.33991400
_cell_angle_alpha   89.99631128
_cell_angle_beta   90.01783332
_cell_angle_gamma   89.99022444
_symmetry_Int_Tables_number   1
_chemical_formula_structural   Y3Er13(TmIr3)4
_chemical_formula_sum   'Y3 Er13 Tm4 Ir12'
_cell_volume   745.33122476
_cell_formula_units_Z   1
loop_
 _symmetry_equiv_pos_site_id
 _symmetry_equiv_pos_as_xyz
  1  'x, y, z'
loop_
 _atom_site_type_symbol
 _atom_site_label
 _atom_site_symmetry_multiplicity
 _atom_site_fract_x
 _atom_site_fract_y
 _atom_site_fract_z
 _atom_site_occupancy
  Y  Y0  1  0.290423  0.087757  0.377006  1
  Y  Y1  1  0.290555  0.912289  0.876969  1
  Y  Y2  1  0.709531  0.087671  0.876855  1
  Er  Er3  1  0.708793  0.912106  0.377692  1
  Er  Er4  1  0.587787  0.790977  0.877490  1
  Er  Er5  1  0.587683  0.208924  0.377636  1
  Er  Er6  1  0.412620  0.790882  0.377608  1
  Er  Er7  1  0.412383  0.209010  0.877712  1
  Er  Er8  1  0.208725  0.412481  0.622220  1
  Er  Er9  1  0.208731  0.587562  0.122186  1
  Er  Er10  1  0.791255  0.412481  0.122285  1
  Er  Er11  1  0.791261  0.587590  0.622157  1
  Er  Er12  1  0.912474  0.708794  0.122272  1
  Er  Er13  1  0.912742  0.291566  0.622140  1
  Er  Er14  1  0.087302  0.708472  0.622255  1
  Er  Er15  1  0.087259  0.291531  0.122212  1
  Tm  Tm16  1  0.999646  0.999850  0.500412  1
  Tm  Tm17  1  0.999925  0.999939  0.000539  1
  Tm  Tm18  1  0.500085  0.500084  0.999975  1
  Tm  Tm19  1  0.500067  0.500051  0.499915  1
  Ir  Ir20  1  0.847803  0.153188  0.252103  1
  Ir  Ir21  1  0.847623  0.846337  0.749432  1
  Ir  Ir22  1  0.151567  0.153998  0.751651  1
  Ir  Ir23  1  0.151644  0.846004  0.251486  1
  Ir  Ir24  1  0.652638  0.348339  0.749289  1
  Ir  Ir25  1  0.652813  0.652874  0.249958  1
  Ir  Ir26  1  0.347334  0.348335  0.249238  1
  Ir  Ir27  1  0.347364  0.651731  0.749295  1
  Ir  Ir28  1  0.500969  0.999547  0.124280  1
  Ir  Ir29  1  0.501060  0.999519  0.621925  1
  Ir  Ir30  1  0.999965  0.500011  0.876898  1
  Ir  Ir31  1  0.999972  0.500098  0.376905  1
