# generated using pymatgen
data_Tm2ZrSnIr2
_symmetry_space_group_name_H-M   'P 1'
_cell_length_a   4.36109700
_cell_length_b   7.05286200
_cell_length_c   8.39521000
_cell_angle_alpha   90.00000000
_cell_angle_beta   90.00000000
_cell_angle_gamma   90.00000000
_symmetry_Int_Tables_number   1
_chemical_formula_structural   Tm2ZrSnIr2
_chemical_formula_sum   'Tm4 Zr2 Sn2 Ir4'
_cell_volume   258.22167675
_cell_formula_units_Z   2
loop_
 _symmetry_equiv_pos_site_id
 _symmetry_equiv_pos_as_xyz
  1  'x, y, z'
loop_
 _atom_site_type_symbol
 _atom_site_label
 _atom_site_symmetry_multiplicity
 _atom_site_fract_x
 _atom_site_fract_y
 _atom_site_fract_z
 _atom_site_occupancy
  Tm  Tm0  1  0.250000  0.032670  0.332378  1
  Tm  Tm1  1  0.250000  0.532670  0.167622  1
  Tm  Tm2  1  0.750000  0.970544  0.677520  1
  Tm  Tm3  1  0.750000  0.470544  0.822480  1
  Zr  Zr4  1  0.250000  0.131637  0.939177  1
  Zr  Zr5  1  0.250000  0.631637  0.560823  1
  Sn  Sn6  1  0.750000  0.855298  0.071560  1
  Sn  Sn7  1  0.750000  0.355298  0.428440  1
  Ir  Ir8  1  0.250000  0.258076  0.633932  1
  Ir  Ir9  1  0.250000  0.758076  0.866068  1
  Ir  Ir10  1  0.750000  0.751777  0.392202  1
  Ir  Ir11  1  0.750000  0.251777  0.107798  1
