# generated using pymatgen
data_Li4Ca2LaYbSi8
_symmetry_space_group_name_H-M   'P 1'
_cell_length_a   3.84214100
_cell_length_b   7.88997211
_cell_length_c   10.64898568
_cell_angle_alpha   89.91692342
_cell_angle_beta   90.00000000
_cell_angle_gamma   90.00000000
_symmetry_Int_Tables_number   1
_chemical_formula_structural   Li4Ca2LaYbSi8
_chemical_formula_sum   'Li4 Ca2 La1 Yb1 Si8'
_cell_volume   322.81711606
_cell_formula_units_Z   1
loop_
 _symmetry_equiv_pos_site_id
 _symmetry_equiv_pos_as_xyz
  1  'x, y, z'
loop_
 _atom_site_type_symbol
 _atom_site_label
 _atom_site_symmetry_multiplicity
 _atom_site_fract_x
 _atom_site_fract_y
 _atom_site_fract_z
 _atom_site_occupancy
  Li  Li0  1  0.250000  0.998819  0.387917  1
  Li  Li1  1  0.750000  0.999917  0.610019  1
  Li  Li2  1  0.250000  0.498614  0.111611  1
  Li  Li3  1  0.750000  0.504425  0.888717  1
  Ca  Ca4  1  0.250000  0.635198  0.635881  1
  Ca  Ca5  1  0.750000  0.365913  0.364418  1
  La  La6  1  0.250000  0.133032  0.865627  1
  Yb  Yb7  1  0.750000  0.866135  0.135142  1
  Si  Si8  1  0.750000  0.268869  0.070050  1
  Si  Si9  1  0.250000  0.732448  0.933696  1
  Si  Si10  1  0.750000  0.767601  0.431290  1
  Si  Si11  1  0.250000  0.231197  0.567191  1
  Si  Si12  1  0.750000  0.832284  0.825303  1
  Si  Si13  1  0.250000  0.163582  0.174748  1
  Si  Si14  1  0.750000  0.334065  0.674369  1
  Si  Si15  1  0.250000  0.667903  0.324020  1
