# generated using pymatgen
data_La4NbMo3O14
_symmetry_space_group_name_H-M   'P 1'
_cell_length_a   7.52716739
_cell_length_b   7.65308498
_cell_length_c   7.52716800
_cell_angle_alpha   60.54278793
_cell_angle_beta   59.99999731
_cell_angle_gamma   60.54278881
_symmetry_Int_Tables_number   1
_chemical_formula_structural   La4NbMo3O14
_chemical_formula_sum   'La4 Nb1 Mo3 O14'
_cell_volume   309.10033070
_cell_formula_units_Z   1
loop_
 _symmetry_equiv_pos_site_id
 _symmetry_equiv_pos_as_xyz
  1  'x, y, z'
loop_
 _atom_site_type_symbol
 _atom_site_label
 _atom_site_symmetry_multiplicity
 _atom_site_fract_x
 _atom_site_fract_y
 _atom_site_fract_z
 _atom_site_occupancy
  La  La0  1  0.625000  0.125000  0.125000  1
  La  La1  1  0.125000  0.625000  0.125000  1
  La  La2  1  0.125000  0.125000  0.625000  1
  La  La3  1  0.125000  0.125000  0.125000  1
  Nb  Nb4  1  0.625000  0.125000  0.625000  1
  Mo  Mo5  1  0.125000  0.625000  0.625000  1
  Mo  Mo6  1  0.625000  0.625000  0.125000  1
  Mo  Mo7  1  0.625000  0.625000  0.625000  1
  O  O8  1  0.249345  0.251965  0.249345  1
  O  O9  1  0.000655  0.998035  0.000655  1
  O  O10  1  0.701675  0.718330  0.289997  1
  O  O11  1  0.304065  0.292648  0.701645  1
  O  O12  1  0.701645  0.292648  0.701645  1
  O  O13  1  0.289997  0.718330  0.289997  1
  O  O14  1  0.289997  0.718330  0.701675  1
  O  O15  1  0.701645  0.292648  0.304065  1
  O  O16  1  0.548325  0.531670  0.960003  1
  O  O17  1  0.945935  0.957352  0.548355  1
  O  O18  1  0.548355  0.957352  0.548355  1
  O  O19  1  0.960003  0.531670  0.960003  1
  O  O20  1  0.960003  0.531670  0.548325  1
  O  O21  1  0.548355  0.957352  0.945935  1
