# generated using pymatgen
data_LaNd7(DyIr2)2
_symmetry_space_group_name_H-M   'P 1'
_cell_length_a   6.67459279
_cell_length_b   7.27074626
_cell_length_c   8.93814550
_cell_angle_alpha   96.37790016
_cell_angle_beta   111.73859984
_cell_angle_gamma   89.60777206
_symmetry_Int_Tables_number   1
_chemical_formula_structural   LaNd7(DyIr2)2
_chemical_formula_sum   'La1 Nd7 Dy2 Ir4'
_cell_volume   400.14380899
_cell_formula_units_Z   1
loop_
 _symmetry_equiv_pos_site_id
 _symmetry_equiv_pos_as_xyz
  1  'x, y, z'
loop_
 _atom_site_type_symbol
 _atom_site_label
 _atom_site_symmetry_multiplicity
 _atom_site_fract_x
 _atom_site_fract_y
 _atom_site_fract_z
 _atom_site_occupancy
  La  La0  1  0.794525  0.081692  0.816132  1
  Nd  Nd1  1  0.976219  0.422771  0.182534  1
  Nd  Nd2  1  0.207753  0.921203  0.184305  1
  Nd  Nd3  1  0.025628  0.578349  0.819389  1
  Nd  Nd4  1  0.211967  0.187067  0.565983  1
  Nd  Nd5  1  0.646062  0.313196  0.430527  1
  Nd  Nd6  1  0.784744  0.812781  0.431313  1
  Nd  Nd7  1  0.352415  0.686407  0.568315  1
  Dy  Dy8  1  0.436116  0.251151  0.001304  1
  Dy  Dy9  1  0.563724  0.748683  0.000032  1
  Ir  Ir10  1  0.600385  0.426926  0.787440  1
  Ir  Ir11  1  0.812189  0.070669  0.214213  1
  Ir  Ir12  1  0.401247  0.570385  0.212549  1
  Ir  Ir13  1  0.187026  0.928722  0.785963  1
