# generated using pymatgen
data_HoEr5Nb2(Co4P3)4
_symmetry_space_group_name_H-M   'P 1'
_cell_length_a   3.69444900
_cell_length_b   10.60517100
_cell_length_c   12.29283000
_cell_angle_alpha   90.00000000
_cell_angle_beta   90.00000000
_cell_angle_gamma   90.00000000
_symmetry_Int_Tables_number   1
_chemical_formula_structural   HoEr5Nb2(Co4P3)4
_chemical_formula_sum   'Ho1 Er5 Nb2 Co16 P12'
_cell_volume   481.63631728
_cell_formula_units_Z   1
loop_
 _symmetry_equiv_pos_site_id
 _symmetry_equiv_pos_as_xyz
  1  'x, y, z'
loop_
 _atom_site_type_symbol
 _atom_site_label
 _atom_site_symmetry_multiplicity
 _atom_site_fract_x
 _atom_site_fract_y
 _atom_site_fract_z
 _atom_site_occupancy
  Ho  Ho0  1  0.500000  0.000000  0.473485  1
  Er  Er1  1  0.000000  0.500000  0.526428  1
  Er  Er2  1  0.500000  0.820294  0.205244  1
  Er  Er3  1  0.500000  0.179706  0.205244  1
  Er  Er4  1  0.000000  0.679695  0.794708  1
  Er  Er5  1  0.000000  0.320305  0.794708  1
  Nb  Nb6  1  0.500000  0.500000  0.157036  1
  Nb  Nb7  1  0.000000  0.000000  0.843033  1
  Co  Co8  1  0.000000  0.500000  0.985409  1
  Co  Co9  1  0.500000  0.000000  0.014603  1
  Co  Co10  1  0.500000  0.295391  0.432454  1
  Co  Co11  1  0.500000  0.704609  0.432454  1
  Co  Co12  1  0.000000  0.204794  0.567592  1
  Co  Co13  1  0.000000  0.795206  0.567592  1
  Co  Co14  1  0.500000  0.876898  0.704498  1
  Co  Co15  1  0.500000  0.123102  0.704498  1
  Co  Co16  1  0.000000  0.623072  0.295556  1
  Co  Co17  1  0.000000  0.376928  0.295556  1
  Co  Co18  1  0.500000  0.332437  0.991343  1
  Co  Co19  1  0.500000  0.667563  0.991343  1
  Co  Co20  1  0.000000  0.167579  0.008670  1
  Co  Co21  1  0.000000  0.832421  0.008670  1
  Co  Co22  1  0.500000  0.500000  0.701747  1
  Co  Co23  1  0.000000  0.000000  0.298024  1
  P  P24  1  0.500000  0.311651  0.615833  1
  P  P25  1  0.500000  0.688349  0.615833  1
  P  P26  1  0.000000  0.188546  0.384104  1
  P  P27  1  0.000000  0.811454  0.384104  1
  P  P28  1  0.500000  0.500000  0.881176  1
  P  P29  1  0.000000  0.000000  0.118804  1
  P  P30  1  0.500000  0.840906  0.892828  1
  P  P31  1  0.500000  0.159094  0.892828  1
  P  P32  1  0.000000  0.659093  0.107179  1
  P  P33  1  0.000000  0.340907  0.107179  1
  P  P34  1  0.500000  0.500000  0.356483  1
  P  P35  1  0.000000  0.000000  0.643757  1
