# generated using pymatgen
data_TbY4(CoO6)2
_symmetry_space_group_name_H-M   'P 1'
_cell_length_a   6.77197860
_cell_length_b   6.77197930
_cell_length_c   7.21414073
_cell_angle_alpha   74.57177167
_cell_angle_beta   74.57176469
_cell_angle_gamma   50.46446175
_symmetry_Int_Tables_number   1
_chemical_formula_structural   TbY4(CoO6)2
_chemical_formula_sum   'Tb1 Y4 Co2 O12'
_cell_volume   243.86889892
_cell_formula_units_Z   1
loop_
 _symmetry_equiv_pos_site_id
 _symmetry_equiv_pos_as_xyz
  1  'x, y, z'
loop_
 _atom_site_type_symbol
 _atom_site_label
 _atom_site_symmetry_multiplicity
 _atom_site_fract_x
 _atom_site_fract_y
 _atom_site_fract_z
 _atom_site_occupancy
  Tb  Tb0  1  0.000000  0.000000  0.000000  1
  Y  Y1  1  0.692273  0.692273  0.664584  1
  Y  Y2  1  0.693813  0.693813  0.144011  1
  Y  Y3  1  0.306187  0.306187  0.855989  1
  Y  Y4  1  0.307727  0.307727  0.335416  1
  Co  Co5  1  0.244226  0.755774  0.500000  1
  Co  Co6  1  0.755774  0.244226  0.500000  1
  O  O7  1  0.402457  0.903081  0.923356  1
  O  O8  1  0.583237  0.099330  0.578642  1
  O  O9  1  0.900670  0.416763  0.421358  1
  O  O10  1  0.096919  0.597543  0.076644  1
  O  O11  1  0.000296  0.000296  0.329598  1
  O  O12  1  0.500016  0.500016  0.673986  1
  O  O13  1  0.903081  0.402457  0.923356  1
  O  O14  1  0.099330  0.583237  0.578642  1
  O  O15  1  0.416763  0.900670  0.421358  1
  O  O16  1  0.597543  0.096919  0.076644  1
  O  O17  1  0.499984  0.499984  0.326014  1
  O  O18  1  0.999704  0.999704  0.670402  1
