# generated using pymatgen
data_Li2Dy5P12Ir17
_symmetry_space_group_name_H-M   'P 1'
_cell_length_a   12.66453800
_cell_length_b   12.77667636
_cell_length_c   3.95767400
_cell_angle_alpha   90.00000000
_cell_angle_beta   90.00000000
_cell_angle_gamma   119.71008795
_symmetry_Int_Tables_number   1
_chemical_formula_structural   Li2Dy5P12Ir17
_chemical_formula_sum   'Li2 Dy5 P12 Ir17'
_cell_volume   556.21054866
_cell_formula_units_Z   1
loop_
 _symmetry_equiv_pos_site_id
 _symmetry_equiv_pos_as_xyz
  1  'x, y, z'
loop_
 _atom_site_type_symbol
 _atom_site_label
 _atom_site_symmetry_multiplicity
 _atom_site_fract_x
 _atom_site_fract_y
 _atom_site_fract_z
 _atom_site_occupancy
  Li  Li0  1  0.999838  0.442367  0.500000  1
  Li  Li1  1  0.557471  0.557633  0.500000  1
  Dy  Dy2  1  0.332519  0.662599  0.500000  1
  Dy  Dy3  1  0.669921  0.337401  0.500000  1
  Dy  Dy4  1  0.001630  0.809308  0.000000  1
  Dy  Dy5  1  0.192322  0.190692  0.000000  1
  Dy  Dy6  1  0.811355  0.000000  0.000000  1
  P  P7  1  0.999390  0.630572  0.500000  1
  P  P8  1  0.368818  0.369428  0.500000  1
  P  P9  1  0.639829  0.000000  0.500000  1
  P  P10  1  0.513272  0.683026  0.000000  1
  P  P11  1  0.307579  0.823438  0.000000  1
  P  P12  1  0.166931  0.480101  0.000000  1
  P  P13  1  0.484141  0.176562  0.000000  1
  P  P14  1  0.686830  0.519899  0.000000  1
  P  P15  1  0.830246  0.316974  0.000000  1
  P  P16  1  0.997672  0.178080  0.500000  1
  P  P17  1  0.819592  0.821920  0.500000  1
  P  P18  1  0.178312  0.000000  0.500000  1
  Ir  Ir19  1  0.503748  0.865196  0.000000  1
  Ir  Ir20  1  0.129708  0.639178  0.000000  1
  Ir  Ir21  1  0.355964  0.487548  0.000000  1
  Ir  Ir22  1  0.490531  0.360822  0.000000  1
  Ir  Ir23  1  0.868417  0.512452  0.000000  1
  Ir  Ir24  1  0.638553  0.134804  0.000000  1
  Ir  Ir25  1  0.459134  0.000000  0.500000  1
  Ir  Ir26  1  0.996383  0.277859  0.000000  1
  Ir  Ir27  1  0.718525  0.722141  0.000000  1
  Ir  Ir28  1  0.286895  0.000000  0.000000  1
  Ir  Ir29  1  0.622046  0.806848  0.500000  1
  Ir  Ir30  1  0.199354  0.823482  0.500000  1
  Ir  Ir31  1  0.176993  0.370506  0.500000  1
  Ir  Ir32  1  0.375873  0.176518  0.500000  1
  Ir  Ir33  1  0.806487  0.629494  0.500000  1
  Ir  Ir34  1  0.815199  0.193152  0.500000  1
  Ir  Ir35  1  0.998520  0.000000  0.500000  1
