# generated using pymatgen
data_LuSc9GaSb5
_symmetry_space_group_name_H-M   'P 1'
_cell_length_a   8.43075307
_cell_length_b   8.43196156
_cell_length_c   5.98928700
_cell_angle_alpha   90.00000000
_cell_angle_beta   90.00000000
_cell_angle_gamma   120.26325163
_symmetry_Int_Tables_number   1
_chemical_formula_structural   LuSc9GaSb5
_chemical_formula_sum   'Lu1 Sc9 Ga1 Sb5'
_cell_volume   367.74143683
_cell_formula_units_Z   1
loop_
 _symmetry_equiv_pos_site_id
 _symmetry_equiv_pos_as_xyz
  1  'x, y, z'
loop_
 _atom_site_type_symbol
 _atom_site_label
 _atom_site_symmetry_multiplicity
 _atom_site_fract_x
 _atom_site_fract_y
 _atom_site_fract_z
 _atom_site_occupancy
  Lu  Lu0  1  0.242511  0.229982  0.750000  1
  Sc  Sc1  1  0.334959  0.674751  0.997708  1
  Sc  Sc2  1  0.660882  0.325978  0.501784  1
  Sc  Sc3  1  0.660882  0.325978  0.998216  1
  Sc  Sc4  1  0.334959  0.674751  0.502292  1
  Sc  Sc5  1  0.243028  0.999643  0.250000  1
  Sc  Sc6  1  0.012314  0.765466  0.750000  1
  Sc  Sc7  1  0.998040  0.242333  0.250000  1
  Sc  Sc8  1  0.757582  0.759222  0.250000  1
  Sc  Sc9  1  0.750922  0.000147  0.750000  1
  Ga  Ga10  1  0.396097  0.996998  0.750000  1
  Sb  Sb11  1  0.607591  0.999919  0.250000  1
  Sb  Sb12  1  0.614874  0.613007  0.750000  1
  Sb  Sb13  1  0.998932  0.390889  0.750000  1
  Sb  Sb14  1  0.997072  0.608696  0.250000  1
  Sb  Sb15  1  0.389358  0.392240  0.250000  1
