# generated using pymatgen
data_Sm6UO12
_symmetry_space_group_name_H-M   'P 1'
_cell_length_a   6.72869896
_cell_length_b   6.72869825
_cell_length_c   6.72869927
_cell_angle_alpha   98.84287057
_cell_angle_beta   98.84286722
_cell_angle_gamma   98.84287098
_symmetry_Int_Tables_number   1
_chemical_formula_structural   Sm6UO12
_chemical_formula_sum   'Sm6 U1 O12'
_cell_volume   292.49678042
_cell_formula_units_Z   1
loop_
 _symmetry_equiv_pos_site_id
 _symmetry_equiv_pos_as_xyz
  1  'x, y, z'
loop_
 _atom_site_type_symbol
 _atom_site_label
 _atom_site_symmetry_multiplicity
 _atom_site_fract_x
 _atom_site_fract_y
 _atom_site_fract_z
 _atom_site_occupancy
  Sm  Sm0  1  0.316915  0.610356  0.145667  1
  Sm  Sm1  1  0.610356  0.145667  0.316915  1
  Sm  Sm2  1  0.389644  0.854333  0.683085  1
  Sm  Sm3  1  0.683085  0.389644  0.854333  1
  Sm  Sm4  1  0.854333  0.683085  0.389644  1
  Sm  Sm5  1  0.145667  0.316915  0.610356  1
  U  U6  1  0.000000  0.000000  0.000000  1
  O  O7  1  0.434158  0.177462  0.589815  1
  O  O8  1  0.927995  0.696489  0.045562  1
  O  O9  1  0.177462  0.589815  0.434158  1
  O  O10  1  0.822538  0.410185  0.565842  1
  O  O11  1  0.565842  0.822538  0.410185  1
  O  O12  1  0.589815  0.434158  0.177462  1
  O  O13  1  0.410185  0.565842  0.822538  1
  O  O14  1  0.954438  0.072005  0.303511  1
  O  O15  1  0.045562  0.927995  0.696489  1
  O  O16  1  0.696489  0.045562  0.927995  1
  O  O17  1  0.072005  0.303511  0.954438  1
  O  O18  1  0.303511  0.954438  0.072005  1
