# generated using pymatgen
data_TbDy9(SnBi2)2
_symmetry_space_group_name_H-M   'P 1'
_cell_length_a   9.10567212
_cell_length_b   9.07574109
_cell_length_c   6.45284900
_cell_angle_alpha   89.98131963
_cell_angle_beta   90.00931263
_cell_angle_gamma   119.89132532
_symmetry_Int_Tables_number   1
_chemical_formula_structural   TbDy9(SnBi2)2
_chemical_formula_sum   'Tb1 Dy9 Sn2 Bi4'
_cell_volume   462.32860256
_cell_formula_units_Z   1
loop_
 _symmetry_equiv_pos_site_id
 _symmetry_equiv_pos_as_xyz
  1  'x, y, z'
loop_
 _atom_site_type_symbol
 _atom_site_label
 _atom_site_symmetry_multiplicity
 _atom_site_fract_x
 _atom_site_fract_y
 _atom_site_fract_z
 _atom_site_occupancy
  Tb  Tb0  1  0.340173  0.670087  0.500000  1
  Dy  Dy1  1  0.994420  0.758458  0.750051  1
  Dy  Dy2  1  0.994420  0.235961  0.249949  1
  Dy  Dy3  1  0.756870  0.761770  0.249941  1
  Dy  Dy4  1  0.756870  0.995100  0.750059  1
  Dy  Dy5  1  0.245108  0.245079  0.750141  1
  Dy  Dy6  1  0.245108  0.000029  0.249859  1
  Dy  Dy7  1  0.664906  0.332453  0.000000  1
  Dy  Dy8  1  0.664894  0.332446  0.500000  1
  Dy  Dy9  1  0.340236  0.670118  0.000000  1
  Sn  Sn10  1  0.608833  0.606460  0.750206  1
  Sn  Sn11  1  0.608833  0.002374  0.249794  1
  Bi  Bi12  1  0.388922  0.999144  0.750061  1
  Bi  Bi13  1  0.388922  0.389779  0.249939  1
  Bi  Bi14  1  0.000743  0.609168  0.249904  1
  Bi  Bi15  1  0.000743  0.391574  0.750096  1
