# generated using pymatgen
data_ErTm(MgIn2)2
_symmetry_space_group_name_H-M   'P 1'
_cell_length_a   6.42813483
_cell_length_b   6.42813396
_cell_length_c   9.24667400
_cell_angle_alpha   90.00000000
_cell_angle_beta   90.00000000
_cell_angle_gamma   92.09615806
_symmetry_Int_Tables_number   1
_chemical_formula_structural   ErTm(MgIn2)2
_chemical_formula_sum   'Er2 Tm2 Mg4 In8'
_cell_volume   381.82533030
_cell_formula_units_Z   2
loop_
 _symmetry_equiv_pos_site_id
 _symmetry_equiv_pos_as_xyz
  1  'x, y, z'
loop_
 _atom_site_type_symbol
 _atom_site_label
 _atom_site_symmetry_multiplicity
 _atom_site_fract_x
 _atom_site_fract_y
 _atom_site_fract_z
 _atom_site_occupancy
  Er  Er0  1  0.505894  0.505894  0.250000  1
  Er  Er1  1  0.494106  0.494106  0.750000  1
  Tm  Tm2  1  0.995532  0.995532  0.250000  1
  Tm  Tm3  1  0.004468  0.004468  0.750000  1
  Mg  Mg4  1  0.248880  0.751120  0.500000  1
  Mg  Mg5  1  0.248880  0.751120  0.000000  1
  Mg  Mg6  1  0.751120  0.248880  0.500000  1
  Mg  Mg7  1  0.751120  0.248880  0.000000  1
  In  In8  1  0.250249  0.250249  0.004354  1
  In  In9  1  0.749751  0.749751  0.995646  1
  In  In10  1  0.250249  0.250249  0.495646  1
  In  In11  1  0.749751  0.749751  0.504354  1
  In  In12  1  0.497525  0.005575  0.250000  1
  In  In13  1  0.994425  0.502475  0.750000  1
  In  In14  1  0.502475  0.994425  0.750000  1
  In  In15  1  0.005575  0.497525  0.250000  1
