# generated using pymatgen
data_Ba3Tl10Cd
_symmetry_space_group_name_H-M   'P 1'
_cell_length_a   9.90891214
_cell_length_b   9.90891213
_cell_length_c   9.90891212
_cell_angle_alpha   148.20472046
_cell_angle_beta   109.73662494
_cell_angle_gamma   79.18531002
_symmetry_Int_Tables_number   1
_chemical_formula_structural   Ba3Tl10Cd
_chemical_formula_sum   'Ba3 Tl10 Cd1'
_cell_volume   472.71627450
_cell_formula_units_Z   1
loop_
 _symmetry_equiv_pos_site_id
 _symmetry_equiv_pos_as_xyz
  1  'x, y, z'
loop_
 _atom_site_type_symbol
 _atom_site_label
 _atom_site_symmetry_multiplicity
 _atom_site_fract_x
 _atom_site_fract_y
 _atom_site_fract_z
 _atom_site_occupancy
  Ba  Ba0  1  0.000000  0.000000  0.000000  1
  Ba  Ba1  1  0.704267  0.704267  0.000000  1
  Ba  Ba2  1  0.295733  0.295733  0.000000  1
  Tl  Tl3  1  0.140369  0.857838  0.282530  1
  Tl  Tl4  1  0.859631  0.142162  0.717470  1
  Tl  Tl5  1  0.424692  0.142162  0.282530  1
  Tl  Tl6  1  0.575308  0.857838  0.717470  1
  Tl  Tl7  1  0.018481  0.655558  0.362924  1
  Tl  Tl8  1  0.981519  0.344442  0.637076  1
  Tl  Tl9  1  0.707366  0.344442  0.362924  1
  Tl  Tl10  1  0.292634  0.655558  0.637076  1
  Tl  Tl11  1  0.670757  0.500000  0.170757  1
  Tl  Tl12  1  0.329243  0.500000  0.829243  1
  Cd  Cd13  1  0.500000  0.000000  0.500000  1
