# generated using pymatgen
data_Na3GdBrCl5
_symmetry_space_group_name_H-M   'P 1'
_cell_length_a   7.62747560
_cell_length_b   7.72392951
_cell_length_c   7.58822470
_cell_angle_alpha   55.79965456
_cell_angle_beta   56.10133450
_cell_angle_gamma   55.07655853
_symmetry_Int_Tables_number   1
_chemical_formula_structural   Na3GdBrCl5
_chemical_formula_sum   'Na3 Gd1 Br1 Cl5'
_cell_volume   284.22164711
_cell_formula_units_Z   1
loop_
 _symmetry_equiv_pos_site_id
 _symmetry_equiv_pos_as_xyz
  1  'x, y, z'
loop_
 _atom_site_type_symbol
 _atom_site_label
 _atom_site_symmetry_multiplicity
 _atom_site_fract_x
 _atom_site_fract_y
 _atom_site_fract_z
 _atom_site_occupancy
  Na  Na0  1  0.700227  0.677119  0.688273  1
  Na  Na1  1  0.492954  0.502504  0.481423  1
  Na  Na2  1  0.189247  0.197548  0.198220  1
  Gd  Gd3  1  0.988335  0.992840  0.001848  1
  Br  Br4  1  0.386053  0.094246  0.778893  1
  Cl  Cl5  1  0.616103  0.888890  0.263518  1
  Cl  Cl6  1  0.259314  0.620735  0.891400  1
  Cl  Cl7  1  0.887501  0.263371  0.618012  1
  Cl  Cl8  1  0.090236  0.785459  0.378592  1
  Cl  Cl9  1  0.784831  0.372091  0.094620  1
