# generated using pymatgen
data_Dy4Tm6Os3Ru
_symmetry_space_group_name_H-M   'P 1'
_cell_length_a   6.30232645
_cell_length_b   7.31468734
_cell_length_c   8.36506826
_cell_angle_alpha   96.95148737
_cell_angle_beta   112.20370483
_cell_angle_gamma   90.03102230
_symmetry_Int_Tables_number   1
_chemical_formula_structural   Dy4Tm6Os3Ru
_chemical_formula_sum   'Dy4 Tm6 Os3 Ru1'
_cell_volume   353.95607770
_cell_formula_units_Z   1
loop_
 _symmetry_equiv_pos_site_id
 _symmetry_equiv_pos_as_xyz
  1  'x, y, z'
loop_
 _atom_site_type_symbol
 _atom_site_label
 _atom_site_symmetry_multiplicity
 _atom_site_fract_x
 _atom_site_fract_y
 _atom_site_fract_z
 _atom_site_occupancy
  Dy  Dy0  1  0.792053  0.082998  0.815077  1
  Dy  Dy1  1  0.974985  0.417150  0.184399  1
  Dy  Dy2  1  0.210096  0.917595  0.187555  1
  Dy  Dy3  1  0.024907  0.584114  0.815946  1
  Tm  Tm4  1  0.202923  0.182983  0.565122  1
  Tm  Tm5  1  0.639271  0.317401  0.435714  1
  Tm  Tm6  1  0.795279  0.816277  0.433891  1
  Tm  Tm7  1  0.361724  0.681721  0.563821  1
  Tm  Tm8  1  0.421538  0.249838  0.000160  1
  Tm  Tm9  1  0.579488  0.750172  0.000475  1
  Os  Os10  1  0.599957  0.422888  0.779778  1
  Os  Os11  1  0.819690  0.077225  0.220498  1
  Os  Os12  1  0.399854  0.577142  0.219389  1
  Ru  Ru13  1  0.178236  0.922496  0.778177  1
