# generated using pymatgen
data_Cs4K8Bi3SbTe12
_symmetry_space_group_name_H-M   'P 1'
_cell_length_a   10.85121575
_cell_length_b   10.85121575
_cell_length_c   10.85121575
_cell_angle_alpha   90.28455989
_cell_angle_beta   89.71544011
_cell_angle_gamma   90.28455989
_symmetry_Int_Tables_number   1
_chemical_formula_structural   Cs4K8Bi3SbTe12
_chemical_formula_sum   'Cs4 K8 Bi3 Sb1 Te12'
_cell_volume   1277.67141765
_cell_formula_units_Z   1
loop_
 _symmetry_equiv_pos_site_id
 _symmetry_equiv_pos_as_xyz
  1  'x, y, z'
loop_
 _atom_site_type_symbol
 _atom_site_label
 _atom_site_symmetry_multiplicity
 _atom_site_fract_x
 _atom_site_fract_y
 _atom_site_fract_z
 _atom_site_occupancy
  Cs  Cs0  1  0.577533  0.575522  0.574320  1
  Cs  Cs1  1  0.924478  0.425680  0.077533  1
  Cs  Cs2  1  0.074320  0.922467  0.424478  1
  Cs  Cs3  1  0.424414  0.075586  0.924414  1
  K  K4  1  0.320077  0.319356  0.319204  1
  K  K5  1  0.180644  0.680796  0.820077  1
  K  K6  1  0.819204  0.179923  0.680644  1
  K  K7  1  0.680766  0.819234  0.180766  1
  K  K8  1  0.815187  0.815273  0.814528  1
  K  K9  1  0.684727  0.185472  0.315187  1
  K  K10  1  0.314528  0.684813  0.184727  1
  K  K11  1  0.185417  0.314583  0.685417  1
  Bi  Bi12  1  0.028521  0.028794  0.027679  1
  Bi  Bi13  1  0.471206  0.972321  0.528521  1
  Bi  Bi14  1  0.527679  0.471479  0.971206  1
  Sb  Sb15  1  0.974941  0.525059  0.474941  1
  Te  Te16  1  0.223757  0.597610  0.497357  1
  Te  Te17  1  0.497152  0.229284  0.600874  1
  Te  Te18  1  0.599375  0.497273  0.227477  1
  Te  Te19  1  0.902390  0.502643  0.723757  1
  Te  Te20  1  0.997357  0.276243  0.402390  1
  Te  Te21  1  0.399398  0.996859  0.271992  1
  Te  Te22  1  0.002727  0.772523  0.099375  1
  Te  Te23  1  0.503141  0.728008  0.899398  1
  Te  Te24  1  0.100874  0.002848  0.770716  1
  Te  Te25  1  0.727477  0.900625  0.502727  1
  Te  Te26  1  0.771992  0.100602  0.003141  1
  Te  Te27  1  0.270716  0.399126  0.997152  1
