# generated using pymatgen
data_Ba7Zn4(FeO3)7
_symmetry_space_group_name_H-M   'P 1'
_cell_length_a   11.05811334
_cell_length_b   11.08834908
_cell_length_c   12.05201285
_cell_angle_alpha   89.92626125
_cell_angle_beta   90.24054229
_cell_angle_gamma   119.80588828
_symmetry_Int_Tables_number   1
_chemical_formula_structural   Ba7Zn4(FeO3)7
_chemical_formula_sum   'Ba14 Zn8 Fe14 O42'
_cell_volume   1282.27239661
_cell_formula_units_Z   2
loop_
 _symmetry_equiv_pos_site_id
 _symmetry_equiv_pos_as_xyz
  1  'x, y, z'
loop_
 _atom_site_type_symbol
 _atom_site_label
 _atom_site_symmetry_multiplicity
 _atom_site_fract_x
 _atom_site_fract_y
 _atom_site_fract_z
 _atom_site_occupancy
  Ba  Ba0  1  0.666290  0.326837  0.596510  1
  Ba  Ba1  1  0.329328  0.666810  0.093255  1
  Ba  Ba2  1  0.270455  0.139098  0.036688  1
  Ba  Ba3  1  0.390146  0.195042  0.363615  1
  Ba  Ba4  1  0.801858  0.609182  0.363488  1
  Ba  Ba5  1  0.873910  0.729938  0.040424  1
  Ba  Ba6  1  0.129851  0.862391  0.538933  1
  Ba  Ba7  1  0.807121  0.196403  0.362533  1
  Ba  Ba8  1  0.195855  0.808846  0.860509  1
  Ba  Ba9  1  0.860669  0.128566  0.035911  1
  Ba  Ba10  1  0.193526  0.387586  0.862108  1
  Ba  Ba11  1  0.141455  0.268710  0.541524  1
  Ba  Ba12  1  0.611123  0.804546  0.864548  1
  Ba  Ba13  1  0.733404  0.876478  0.542523  1
  Zn  Zn14  1  0.336858  0.172023  0.719837  1
  Zn  Zn15  1  0.529555  0.520931  0.112459  1
  Zn  Zn16  1  0.479149  0.009158  0.107564  1
  Zn  Zn17  1  0.835918  0.659403  0.723594  1
  Zn  Zn18  1  0.987368  0.466788  0.110536  1
  Zn  Zn19  1  0.008263  0.478193  0.607644  1
  Zn  Zn20  1  0.466398  0.991847  0.609483  1
  Zn  Zn21  1  0.441587  0.571794  0.371229  1
  Fe  Fe22  1  0.570378  0.440321  0.868697  1
  Fe  Fe23  1  0.561949  0.130286  0.865092  1
  Fe  Fe24  1  0.665758  0.332097  0.193411  1
  Fe  Fe25  1  0.999720  0.997619  0.796863  1
  Fe  Fe26  1  0.871653  0.430881  0.866425  1
  Fe  Fe27  1  0.830856  0.166160  0.718082  1
  Fe  Fe28  1  0.166733  0.829296  0.217835  1
  Fe  Fe29  1  0.132475  0.564739  0.365397  1
  Fe  Fe30  1  0.428837  0.870004  0.369495  1
  Fe  Fe31  1  0.330706  0.665194  0.693577  1
  Fe  Fe32  1  0.180020  0.343771  0.222756  1
  Fe  Fe33  1  0.656752  0.834857  0.224455  1
  Fe  Fe34  1  0.524590  0.530462  0.612351  1
  Fe  Fe35  1  0.996370  0.998390  0.296182  1
  O  O36  1  0.161271  0.162492  0.238797  1
  O  O37  1  0.434305  0.417204  0.974206  1
  O  O38  1  0.480014  0.386885  0.723580  1
  O  O39  1  0.381895  0.115483  0.578237  1
  O  O40  1  0.374519  0.089842  0.854129  1
  O  O41  1  0.487443  0.180640  0.159958  1
  O  O42  1  0.713338  0.626923  0.855944  1
  O  O43  1  0.720791  0.612210  0.582551  1
  O  O44  1  0.693748  0.511339  0.159993  1
  O  O45  1  0.667329  0.333926  0.884746  1
  O  O46  1  0.666590  0.332048  0.356545  1
  O  O47  1  0.587702  0.018859  0.972475  1
  O  O48  1  0.615957  0.098721  0.722407  1
  O  O49  1  0.988649  0.832194  0.245647  1
  O  O50  1  0.006862  0.840268  0.738037  1
  O  O51  1  0.898622  0.515533  0.722736  1
  O  O52  1  0.816372  0.303079  0.158976  1
  O  O53  1  0.983788  0.566982  0.973805  1
  O  O54  1  0.018608  0.586435  0.471185  1
  O  O55  1  0.885598  0.271003  0.576285  1
  O  O56  1  0.918345  0.289208  0.857273  1
  O  O57  1  0.099360  0.615231  0.221439  1
  O  O58  1  0.272929  0.883077  0.077265  1
  O  O59  1  0.289939  0.920297  0.355453  1
  O  O60  1  0.834311  0.002483  0.237097  1
  O  O61  1  0.305260  0.816268  0.658368  1
  O  O62  1  0.092312  0.373434  0.349376  1
  O  O63  1  0.114688  0.377658  0.086630  1
  O  O64  1  0.182055  0.487134  0.659547  1
  O  O65  1  0.331579  0.670085  0.387501  1
  O  O66  1  0.002189  0.996589  0.954087  1
  O  O67  1  0.333414  0.666019  0.855408  1
  O  O68  1  0.568242  0.981400  0.474470  1
  O  O69  1  0.519827  0.897763  0.224177  1
  O  O70  1  0.156221  0.165680  0.741394  1
  O  O71  1  0.375724  0.476064  0.222315  1
  O  O72  1  0.511032  0.687573  0.659098  1
  O  O73  1  0.421111  0.434311  0.484414  1
  O  O74  1  0.618310  0.734545  0.088197  1
  O  O75  1  0.636549  0.727113  0.350884  1
  O  O76  1  0.829329  0.987452  0.746954  1
  O  O77  1  0.996986  0.003905  0.451683  1
