# generated using pymatgen
data_Er(Ti3Pb2)2
_symmetry_space_group_name_H-M   'P 1'
_cell_length_a   8.46999598
_cell_length_b   8.46999623
_cell_length_c   8.46999499
_cell_angle_alpha   40.39217162
_cell_angle_beta   40.39216990
_cell_angle_gamma   40.39217403
_symmetry_Int_Tables_number   1
_chemical_formula_structural   Er(Ti3Pb2)2
_chemical_formula_sum   'Er1 Ti6 Pb4'
_cell_volume   230.08450289
_cell_formula_units_Z   1
loop_
 _symmetry_equiv_pos_site_id
 _symmetry_equiv_pos_as_xyz
  1  'x, y, z'
loop_
 _atom_site_type_symbol
 _atom_site_label
 _atom_site_symmetry_multiplicity
 _atom_site_fract_x
 _atom_site_fract_y
 _atom_site_fract_z
 _atom_site_occupancy
  Er  Er0  1  0.000000  0.000000  0.000000  1
  Ti  Ti1  1  0.600512  0.600512  0.118663  1
  Ti  Ti2  1  0.881337  0.399488  0.399488  1
  Ti  Ti3  1  0.399488  0.881337  0.399488  1
  Ti  Ti4  1  0.600512  0.118663  0.600512  1
  Ti  Ti5  1  0.118663  0.600512  0.600512  1
  Ti  Ti6  1  0.399488  0.399488  0.881337  1
  Pb  Pb7  1  0.126321  0.126321  0.126321  1
  Pb  Pb8  1  0.331716  0.331716  0.331716  1
  Pb  Pb9  1  0.668284  0.668284  0.668284  1
  Pb  Pb10  1  0.873679  0.873679  0.873679  1
