# generated using pymatgen
data_Nb12Al4Zn3CuN4
_symmetry_space_group_name_H-M   'P 1'
_cell_length_a   7.04368054
_cell_length_b   7.04368054
_cell_length_c   7.04368054
_cell_angle_alpha   89.93122784
_cell_angle_beta   89.93122784
_cell_angle_gamma   89.93122784
_symmetry_Int_Tables_number   1
_chemical_formula_structural   Nb12Al4Zn3CuN4
_chemical_formula_sum   'Nb12 Al4 Zn3 Cu1 N4'
_cell_volume   349.46043522
_cell_formula_units_Z   1
loop_
 _symmetry_equiv_pos_site_id
 _symmetry_equiv_pos_as_xyz
  1  'x, y, z'
loop_
 _atom_site_type_symbol
 _atom_site_label
 _atom_site_symmetry_multiplicity
 _atom_site_fract_x
 _atom_site_fract_y
 _atom_site_fract_z
 _atom_site_occupancy
  Nb  Nb0  1  0.793188  0.955657  0.373197  1
  Nb  Nb1  1  0.706793  0.043618  0.873892  1
  Nb  Nb2  1  0.206944  0.456048  0.125829  1
  Nb  Nb3  1  0.293268  0.544068  0.626559  1
  Nb  Nb4  1  0.955657  0.373197  0.793188  1
  Nb  Nb5  1  0.043618  0.873892  0.706793  1
  Nb  Nb6  1  0.456048  0.125829  0.206944  1
  Nb  Nb7  1  0.544068  0.626559  0.293268  1
  Nb  Nb8  1  0.373197  0.793188  0.955657  1
  Nb  Nb9  1  0.873892  0.706793  0.043618  1
  Nb  Nb10  1  0.125829  0.206944  0.456048  1
  Nb  Nb11  1  0.626559  0.293268  0.544068  1
  Al  Al12  1  0.574481  0.432877  0.922387  1
  Al  Al13  1  0.432877  0.922387  0.574481  1
  Al  Al14  1  0.922387  0.574481  0.432877  1
  Al  Al15  1  0.072420  0.072420  0.072420  1
  Zn  Zn16  1  0.179591  0.820061  0.321583  1
  Zn  Zn17  1  0.321583  0.179591  0.820061  1
  Zn  Zn18  1  0.820061  0.321583  0.179591  1
  Cu  Cu19  1  0.679421  0.679421  0.679421  1
  N  N20  1  0.875803  0.122485  0.622979  1
  N  N21  1  0.622979  0.875803  0.122485  1
  N  N22  1  0.122485  0.622979  0.875803  1
  N  N23  1  0.376853  0.376853  0.376853  1
