# generated using pymatgen
data_Na26(Si3Au8)5
_symmetry_space_group_name_H-M   'P 1'
_cell_length_a   12.55626240
_cell_length_b   12.55626273
_cell_length_c   12.55626200
_cell_angle_alpha   110.27709000
_cell_angle_beta   109.28899899
_cell_angle_gamma   108.85088148
_symmetry_Int_Tables_number   1
_chemical_formula_structural   Na26(Si3Au8)5
_chemical_formula_sum   'Na26 Si15 Au40'
_cell_volume   1523.66134501
_cell_formula_units_Z   1
loop_
 _symmetry_equiv_pos_site_id
 _symmetry_equiv_pos_as_xyz
  1  'x, y, z'
loop_
 _atom_site_type_symbol
 _atom_site_label
 _atom_site_symmetry_multiplicity
 _atom_site_fract_x
 _atom_site_fract_y
 _atom_site_fract_z
 _atom_site_occupancy
  Na  Na0  1  0.118675  0.119408  0.617395  1
  Na  Na1  1  0.500145  0.501024  0.382639  1
  Na  Na2  1  0.881327  0.498720  0.000739  1
  Na  Na3  1  0.499856  0.882483  0.000885  1
  Na  Na4  1  0.881599  0.882483  0.382627  1
  Na  Na5  1  0.497981  0.498720  0.617393  1
  Na  Na6  1  0.118385  0.501024  0.000880  1
  Na  Na7  1  0.502012  0.119408  0.000732  1
  Na  Na8  1  0.803167  0.304302  0.501135  1
  Na  Na9  1  0.196833  0.697966  0.501133  1
  Na  Na10  1  0.999997  0.800403  0.800406  1
  Na  Na11  1  0.999994  0.189650  0.189655  1
  Na  Na12  1  0.690344  0.000561  0.690901  1
  Na  Na13  1  0.309660  0.000561  0.310218  1
  Na  Na14  1  0.390540  0.185554  0.576106  1
  Na  Na15  1  0.610069  0.814795  0.424865  1
  Na  Na16  1  0.609448  0.185554  0.795014  1
  Na  Na17  1  0.389929  0.814795  0.204726  1
  Na  Na18  1  0.920099  0.611846  0.311421  1
  Na  Na19  1  0.079893  0.391330  0.691758  1
  Na  Na20  1  0.699572  0.391330  0.311437  1
  Na  Na21  1  0.300425  0.611846  0.691748  1
  Na  Na22  1  0.192861  0.307102  0.114240  1
  Na  Na23  1  0.807342  0.694455  0.887112  1
  Na  Na24  1  0.192663  0.079787  0.887124  1
  Na  Na25  1  0.807138  0.921367  0.114229  1
  Si  Si26  1  0.196604  0.293970  0.490562  1
  Si  Si27  1  0.808451  0.706371  0.514830  1
  Si  Si28  1  0.803410  0.293970  0.097366  1
  Si  Si29  1  0.191541  0.706371  0.897921  1
  Si  Si30  1  0.004408  0.801651  0.204387  1
  Si  Si31  1  0.995586  0.199974  0.797242  1
  Si  Si32  1  0.402732  0.199974  0.204388  1
  Si  Si33  1  0.597264  0.801651  0.797244  1
  Si  Si34  1  0.293063  0.601817  0.308754  1
  Si  Si35  1  0.704921  0.395265  0.690342  1
  Si  Si36  1  0.295057  0.985417  0.690360  1
  Si  Si37  1  0.706932  0.015697  0.308764  1
  Si  Si38  1  0.000008  0.397554  0.397547  1
  Si  Si39  1  0.910781  0.998226  0.908858  1
  Si  Si40  1  0.089369  0.998226  0.087445  1
  Au  Au41  1  0.333629  0.391072  0.724706  1
  Au  Au42  1  0.669568  0.610330  0.279917  1
  Au  Au43  1  0.666365  0.391072  0.057443  1
  Au  Au44  1  0.330412  0.610330  0.940762  1
  Au  Au45  1  0.772611  0.666958  0.106894  1
  Au  Au46  1  0.227379  0.334290  0.894358  1
  Au  Au47  1  0.439931  0.334290  0.106911  1
  Au  Au48  1  0.560064  0.666958  0.894347  1
  Au  Au49  1  0.392065  0.563875  0.171810  1
  Au  Au50  1  0.608075  0.437478  0.829403  1
  Au  Au51  1  0.391911  0.221325  0.829415  1
  Au  Au52  1  0.607935  0.779746  0.171811  1
  Au  Au53  1  0.499997  0.501939  0.001942  1
  Au  Au54  1  0.960105  0.178409  0.411755  1
  Au  Au55  1  0.759359  0.548009  0.591824  1
  Au  Au56  1  0.039910  0.451652  0.218286  1
  Au  Au57  1  0.240624  0.832443  0.788640  1
  Au  Au58  1  0.085294  0.769269  0.047290  1
  Au  Au59  1  0.914720  0.961991  0.683960  1
  Au  Au60  1  0.278695  0.233602  0.319076  1
  Au  Au61  1  0.721258  0.040365  0.954915  1
  Au  Au62  1  0.454763  0.706231  0.545933  1
  Au  Au63  1  0.836325  0.290005  0.746945  1
  Au  Au64  1  0.163676  0.910607  0.453690  1
  Au  Au65  1  0.545242  0.091180  0.251458  1
  Au  Au66  1  0.043804  0.832443  0.591820  1
  Au  Au67  1  0.233365  0.451652  0.411742  1
  Au  Au68  1  0.956185  0.548009  0.788650  1
  Au  Au69  1  0.766654  0.178409  0.218305  1
  Au  Au70  1  0.914526  0.233602  0.954907  1
  Au  Au71  1  0.085450  0.040365  0.319107  1
  Au  Au72  1  0.721979  0.769269  0.683974  1
  Au  Au73  1  0.278032  0.961991  0.047272  1
  Au  Au74  1  0.543060  0.290005  0.453681  1
  Au  Au75  1  0.160298  0.706231  0.251467  1
  Au  Au76  1  0.839722  0.091180  0.545938  1
  Au  Au77  1  0.456917  0.910607  0.746931  1
  Au  Au78  1  0.592839  0.089861  0.497022  1
  Au  Au79  1  0.407175  0.904194  0.497019  1
  Au  Au80  1  0.000002  0.566238  0.566236  1
