# generated using pymatgen
data_AcPSe
_symmetry_space_group_name_H-M   'P 1'
_cell_length_a   5.96400800
_cell_length_b   6.09828900
_cell_length_c   18.20760100
_cell_angle_alpha   90.00000000
_cell_angle_beta   90.00000000
_cell_angle_gamma   90.00000000
_symmetry_Int_Tables_number   1
_chemical_formula_structural   AcPSe
_chemical_formula_sum   'Ac8 P8 Se8'
_cell_volume   662.21489799
_cell_formula_units_Z   8
loop_
 _symmetry_equiv_pos_site_id
 _symmetry_equiv_pos_as_xyz
  1  'x, y, z'
loop_
 _atom_site_type_symbol
 _atom_site_label
 _atom_site_symmetry_multiplicity
 _atom_site_fract_x
 _atom_site_fract_y
 _atom_site_fract_z
 _atom_site_occupancy
  Ac  Ac0  1  0.250000  0.484288  0.369574  1
  Ac  Ac1  1  0.250000  0.984288  0.130426  1
  Ac  Ac2  1  0.750000  0.515712  0.630426  1
  Ac  Ac3  1  0.750000  0.015712  0.869574  1
  Ac  Ac4  1  0.250000  0.018840  0.646077  1
  Ac  Ac5  1  0.250000  0.518840  0.853923  1
  Ac  Ac6  1  0.750000  0.981160  0.353923  1
  Ac  Ac7  1  0.750000  0.481160  0.146077  1
  P  P8  1  0.057418  0.323295  0.997805  1
  P  P9  1  0.442582  0.823295  0.502195  1
  P  P10  1  0.557418  0.676705  0.002195  1
  P  P11  1  0.942582  0.176705  0.497805  1
  P  P12  1  0.942582  0.676705  0.002195  1
  P  P13  1  0.557418  0.176705  0.497805  1
  P  P14  1  0.442582  0.323295  0.997805  1
  P  P15  1  0.057418  0.823295  0.502195  1
  Se  Se16  1  0.250000  0.486956  0.190104  1
  Se  Se17  1  0.250000  0.986956  0.309896  1
  Se  Se18  1  0.750000  0.513044  0.809896  1
  Se  Se19  1  0.750000  0.013044  0.690104  1
  Se  Se20  1  0.250000  0.014991  0.821211  1
  Se  Se21  1  0.250000  0.514991  0.678789  1
  Se  Se22  1  0.750000  0.985009  0.178789  1
  Se  Se23  1  0.750000  0.485009  0.321211  1
