# generated using pymatgen
data_Zr6Sc8Al8IrRu6
_symmetry_space_group_name_H-M   'P 1'
_cell_length_a   9.09082801
_cell_length_b   9.09082802
_cell_length_c   9.09082800
_cell_angle_alpha   60.00000006
_cell_angle_beta   60.00000003
_cell_angle_gamma   60.00000005
_symmetry_Int_Tables_number   1
_chemical_formula_structural   Zr6Sc8Al8IrRu6
_chemical_formula_sum   'Zr6 Sc8 Al8 Ir1 Ru6'
_cell_volume   531.24557630
_cell_formula_units_Z   1
loop_
 _symmetry_equiv_pos_site_id
 _symmetry_equiv_pos_as_xyz
  1  'x, y, z'
loop_
 _atom_site_type_symbol
 _atom_site_label
 _atom_site_symmetry_multiplicity
 _atom_site_fract_x
 _atom_site_fract_y
 _atom_site_fract_z
 _atom_site_occupancy
  Zr  Zr0  1  0.675063  0.675063  0.324937  1
  Zr  Zr1  1  0.324937  0.675063  0.324937  1
  Zr  Zr2  1  0.675063  0.324937  0.324937  1
  Zr  Zr3  1  0.324937  0.324937  0.675063  1
  Zr  Zr4  1  0.675063  0.324937  0.675063  1
  Zr  Zr5  1  0.324937  0.675063  0.675063  1
  Sc  Sc6  1  0.875929  0.875929  0.372215  1
  Sc  Sc7  1  0.875929  0.372215  0.875929  1
  Sc  Sc8  1  0.372215  0.875929  0.875929  1
  Sc  Sc9  1  0.875929  0.875929  0.875929  1
  Sc  Sc10  1  0.124071  0.124071  0.627785  1
  Sc  Sc11  1  0.124071  0.627785  0.124071  1
  Sc  Sc12  1  0.627785  0.124071  0.124071  1
  Sc  Sc13  1  0.124071  0.124071  0.124071  1
  Al  Al14  1  0.661248  0.661248  0.016256  1
  Al  Al15  1  0.661248  0.016256  0.661248  1
  Al  Al16  1  0.016256  0.661248  0.661248  1
  Al  Al17  1  0.661248  0.661248  0.661248  1
  Al  Al18  1  0.338752  0.338752  0.983744  1
  Al  Al19  1  0.338752  0.983744  0.338752  1
  Al  Al20  1  0.983744  0.338752  0.338752  1
  Al  Al21  1  0.338752  0.338752  0.338752  1
  Ir  Ir22  1  0.000000  0.000000  0.000000  1
  Ru  Ru23  1  0.000000  0.000000  0.500000  1
  Ru  Ru24  1  0.500000  0.000000  0.500000  1
  Ru  Ru25  1  0.000000  0.500000  0.500000  1
  Ru  Ru26  1  0.500000  0.500000  0.000000  1
  Ru  Ru27  1  0.000000  0.500000  0.000000  1
  Ru  Ru28  1  0.500000  0.000000  0.000000  1
