# generated using pymatgen
data_Ca19Yb(InAg3)3
_symmetry_space_group_name_H-M   'P 1'
_cell_length_a   8.13101600
_cell_length_b   8.13101600
_cell_length_c   14.81057800
_cell_angle_alpha   90.00000000
_cell_angle_beta   90.00000000
_cell_angle_gamma   90.00000000
_symmetry_Int_Tables_number   1
_chemical_formula_structural   Ca19Yb(InAg3)3
_chemical_formula_sum   'Ca19 Yb1 In3 Ag9'
_cell_volume   979.17798141
_cell_formula_units_Z   1
loop_
 _symmetry_equiv_pos_site_id
 _symmetry_equiv_pos_as_xyz
  1  'x, y, z'
loop_
 _atom_site_type_symbol
 _atom_site_label
 _atom_site_symmetry_multiplicity
 _atom_site_fract_x
 _atom_site_fract_y
 _atom_site_fract_z
 _atom_site_occupancy
  Ca  Ca0  1  0.671051  0.164057  0.104608  1
  Ca  Ca1  1  0.169134  0.667776  0.607341  1
  Ca  Ca2  1  0.328949  0.835943  0.104608  1
  Ca  Ca3  1  0.830866  0.332224  0.607341  1
  Ca  Ca4  1  0.835943  0.671051  0.104608  1
  Ca  Ca5  1  0.332224  0.169134  0.607341  1
  Ca  Ca6  1  0.164057  0.328949  0.104608  1
  Ca  Ca7  1  0.667776  0.830866  0.607341  1
  Ca  Ca8  1  0.835709  0.329194  0.895607  1
  Ca  Ca9  1  0.332106  0.831120  0.392393  1
  Ca  Ca10  1  0.164291  0.670806  0.895607  1
  Ca  Ca11  1  0.667894  0.168880  0.392393  1
  Ca  Ca12  1  0.670806  0.835709  0.895607  1
  Ca  Ca13  1  0.168880  0.332106  0.392393  1
  Ca  Ca14  1  0.329194  0.164291  0.895607  1
  Ca  Ca15  1  0.831120  0.667894  0.392393  1
  Ca  Ca16  1  0.500000  0.500000  0.754394  1
  Ca  Ca17  1  0.000000  0.000000  0.748403  1
  Ca  Ca18  1  0.500000  0.500000  0.245611  1
  Yb  Yb19  1  0.000000  0.000000  0.251399  1
  In  In20  1  0.500000  0.500000  0.499914  1
  In  In21  1  0.500000  0.500000  0.999991  1
  In  In22  1  0.000000  0.000000  0.499778  1
  Ag  Ag23  1  0.625853  0.125908  0.751578  1
  Ag  Ag24  1  0.125040  0.627762  0.248472  1
  Ag  Ag25  1  0.874960  0.372238  0.248472  1
  Ag  Ag26  1  0.374147  0.874092  0.751578  1
  Ag  Ag27  1  0.874092  0.625853  0.751578  1
  Ag  Ag28  1  0.372238  0.125040  0.248472  1
  Ag  Ag29  1  0.125908  0.374147  0.751578  1
  Ag  Ag30  1  0.627762  0.874960  0.248472  1
  Ag  Ag31  1  0.000000  0.000000  0.000513  1
