# generated using pymatgen
data_Dy2Tm6Sc11Si16Tc
_symmetry_space_group_name_H-M   'P 1'
_cell_length_a   6.97965120
_cell_length_b   7.31812315
_cell_length_c   13.82377575
_cell_angle_alpha   90.05112948
_cell_angle_beta   90.02635739
_cell_angle_gamma   90.18631421
_symmetry_Int_Tables_number   1
_chemical_formula_structural   Dy2Tm6Sc11Si16Tc
_chemical_formula_sum   'Dy2 Tm6 Sc11 Si16 Tc1'
_cell_volume   706.08599518
_cell_formula_units_Z   1
loop_
 _symmetry_equiv_pos_site_id
 _symmetry_equiv_pos_as_xyz
  1  'x, y, z'
loop_
 _atom_site_type_symbol
 _atom_site_label
 _atom_site_symmetry_multiplicity
 _atom_site_fract_x
 _atom_site_fract_y
 _atom_site_fract_z
 _atom_site_occupancy
  Dy  Dy0  1  0.012156  0.178150  0.092966  1
  Dy  Dy1  1  0.992766  0.818702  0.901320  1
  Tm  Tm2  1  0.487840  0.673189  0.902534  1
  Tm  Tm3  1  0.992747  0.817332  0.599295  1
  Tm  Tm4  1  0.511241  0.322977  0.095080  1
  Tm  Tm5  1  0.012110  0.178769  0.406662  1
  Tm  Tm6  1  0.511640  0.322608  0.405204  1
  Tm  Tm7  1  0.487825  0.673178  0.597086  1
  Sc  Sc8  1  0.841444  0.496151  0.250268  1
  Sc  Sc9  1  0.342511  0.003988  0.250245  1
  Sc  Sc10  1  0.656561  0.994212  0.749808  1
  Sc  Sc11  1  0.326082  0.178609  0.627482  1
  Sc  Sc12  1  0.672037  0.824200  0.374588  1
  Sc  Sc13  1  0.172504  0.674309  0.376905  1
  Sc  Sc14  1  0.671942  0.823875  0.125765  1
  Sc  Sc15  1  0.827299  0.330915  0.628584  1
  Sc  Sc16  1  0.326400  0.178675  0.872045  1
  Sc  Sc17  1  0.826944  0.331431  0.871213  1
  Sc  Sc18  1  0.172827  0.673670  0.123376  1
  Si  Si19  1  0.028547  0.117056  0.749606  1
  Si  Si20  1  0.972906  0.887001  0.250359  1
  Si  Si21  1  0.469351  0.613387  0.250076  1
  Si  Si22  1  0.517929  0.397465  0.749809  1
  Si  Si23  1  0.285495  0.859061  0.749421  1
  Si  Si24  1  0.716974  0.131492  0.250609  1
  Si  Si25  1  0.215614  0.369818  0.250580  1
  Si  Si26  1  0.792916  0.630433  0.749426  1
  Si  Si27  1  0.156890  0.466695  0.547632  1
  Si  Si28  1  0.841391  0.535350  0.463321  1
  Si  Si29  1  0.344450  0.965529  0.463142  1
  Si  Si30  1  0.840698  0.535302  0.036776  1
  Si  Si31  1  0.659282  0.034054  0.539895  1
  Si  Si32  1  0.157631  0.466295  0.952299  1
  Si  Si33  1  0.657457  0.034669  0.960192  1
  Si  Si34  1  0.346242  0.964870  0.036798  1
  Tc  Tc35  1  0.151349  0.496582  0.749634  1
