# generated using pymatgen
data_Tb5Y3Tm2(SiB4)4
_symmetry_space_group_name_H-M   'P 1'
_cell_length_a   7.23101001
_cell_length_b   7.23099501
_cell_length_c   8.08169201
_cell_angle_alpha   89.99700658
_cell_angle_beta   89.99656494
_cell_angle_gamma   90.00307432
_symmetry_Int_Tables_number   1
_chemical_formula_structural   Tb5Y3Tm2(SiB4)4
_chemical_formula_sum   'Tb5 Y3 Tm2 Si4 B16'
_cell_volume   422.57063832
_cell_formula_units_Z   1
loop_
 _symmetry_equiv_pos_site_id
 _symmetry_equiv_pos_as_xyz
  1  'x, y, z'
loop_
 _atom_site_type_symbol
 _atom_site_label
 _atom_site_symmetry_multiplicity
 _atom_site_fract_x
 _atom_site_fract_y
 _atom_site_fract_z
 _atom_site_occupancy
  Tb  Tb0  1  0.680301  0.180297  0.225311  1
  Tb  Tb1  1  0.319653  0.819695  0.774567  1
  Tb  Tb2  1  0.319697  0.819703  0.225396  1
  Tb  Tb3  1  0.819575  0.680396  0.225356  1
  Tb  Tb4  1  0.819552  0.680450  0.774643  1
  Y  Y5  1  0.680259  0.180283  0.774979  1
  Y  Y6  1  0.180400  0.319618  0.775145  1
  Y  Y7  1  0.180337  0.319646  0.224858  1
  Tm  Tm8  1  0.999977  0.000127  0.500041  1
  Tm  Tm9  1  0.499901  0.499919  0.500045  1
  Si  Si10  1  0.115544  0.615201  0.500070  1
  Si  Si11  1  0.884647  0.384314  0.500067  1
  Si  Si12  1  0.384462  0.115701  0.500061  1
  Si  Si13  1  0.615419  0.884749  0.500082  1
  B  B14  1  0.172385  0.039181  0.999942  1
  B  B15  1  0.827725  0.960966  0.999960  1
  B  B16  1  0.960878  0.172393  0.999979  1
  B  B17  1  0.327683  0.539051  0.999929  1
  B  B18  1  0.039058  0.827774  0.999930  1
  B  B19  1  0.672299  0.460871  0.999980  1
  B  B20  1  0.539038  0.672236  0.999938  1
  B  B21  1  0.460824  0.327573  0.999968  1
  B  B22  1  0.089938  0.589796  0.999989  1
  B  B23  1  0.910259  0.410112  0.000077  1
  B  B24  1  0.410187  0.089883  0.999967  1
  B  B25  1  0.589987  0.910079  0.999964  1
  B  B26  1  0.000071  0.000140  0.162493  1
  B  B27  1  0.000040  0.000165  0.837386  1
  B  B28  1  0.499956  0.499795  0.837386  1
  B  B29  1  0.499951  0.499887  0.162492  1
