# generated using pymatgen
data_SrAcGa5GePd2
_symmetry_space_group_name_H-M   'P 1'
_cell_length_a   6.23231860
_cell_length_b   6.23231808
_cell_length_c   6.06607000
_cell_angle_alpha   90.00000000
_cell_angle_beta   90.00000000
_cell_angle_gamma   116.49325319
_symmetry_Int_Tables_number   1
_chemical_formula_structural   SrAcGa5GePd2
_chemical_formula_sum   'Sr1 Ac1 Ga5 Ge1 Pd2'
_cell_volume   210.87415339
_cell_formula_units_Z   1
loop_
 _symmetry_equiv_pos_site_id
 _symmetry_equiv_pos_as_xyz
  1  'x, y, z'
loop_
 _atom_site_type_symbol
 _atom_site_label
 _atom_site_symmetry_multiplicity
 _atom_site_fract_x
 _atom_site_fract_y
 _atom_site_fract_z
 _atom_site_occupancy
  Sr  Sr0  1  0.765445  0.234555  0.250000  1
  Ac  Ac1  1  0.234407  0.765593  0.750000  1
  Ga  Ga2  1  0.342618  0.657382  0.250000  1
  Ga  Ga3  1  0.722226  0.724042  0.000031  1
  Ga  Ga4  1  0.722226  0.724042  0.499969  1
  Ga  Ga5  1  0.275958  0.277774  0.000031  1
  Ga  Ga6  1  0.275958  0.277774  0.499969  1
  Ge  Ge7  1  0.659241  0.340759  0.750000  1
  Pd  Pd8  1  0.900215  0.099785  0.750000  1
  Pd  Pd9  1  0.101706  0.898294  0.250000  1
