# generated using pymatgen
data_Li2LuTh3(ZnPt2)2
_symmetry_space_group_name_H-M   'P 1'
_cell_length_a   4.02318100
_cell_length_b   7.27841309
_cell_length_c   8.51608319
_cell_angle_alpha   89.25655395
_cell_angle_beta   90.00000000
_cell_angle_gamma   90.00000000
_symmetry_Int_Tables_number   1
_chemical_formula_structural   Li2LuTh3(ZnPt2)2
_chemical_formula_sum   'Li2 Lu1 Th3 Zn2 Pt4'
_cell_volume   249.35013412
_cell_formula_units_Z   1
loop_
 _symmetry_equiv_pos_site_id
 _symmetry_equiv_pos_as_xyz
  1  'x, y, z'
loop_
 _atom_site_type_symbol
 _atom_site_label
 _atom_site_symmetry_multiplicity
 _atom_site_fract_x
 _atom_site_fract_y
 _atom_site_fract_z
 _atom_site_occupancy
  Li  Li0  1  0.750000  0.370176  0.439297  1
  Li  Li1  1  0.750000  0.887128  0.062575  1
  Lu  Lu2  1  0.250000  0.053552  0.309433  1
  Th  Th3  1  0.250000  0.552404  0.195279  1
  Th  Th4  1  0.750000  0.445946  0.811625  1
  Th  Th5  1  0.750000  0.949604  0.681681  1
  Zn  Zn6  1  0.250000  0.622465  0.559131  1
  Zn  Zn7  1  0.250000  0.116700  0.943768  1
  Pt  Pt8  1  0.250000  0.736717  0.878521  1
  Pt  Pt9  1  0.750000  0.261713  0.124307  1
  Pt  Pt10  1  0.750000  0.763284  0.375542  1
  Pt  Pt11  1  0.250000  0.240312  0.618841  1
