# generated using pymatgen
data_Ti4VIr2Os
_symmetry_space_group_name_H-M   'P 1'
_cell_length_a   6.16219500
_cell_length_b   4.36301100
_cell_length_c   8.70225100
_cell_angle_alpha   90.00000000
_cell_angle_beta   89.99983264
_cell_angle_gamma   90.00000000
_symmetry_Int_Tables_number   1
_chemical_formula_structural   Ti4VIr2Os
_chemical_formula_sum   'Ti8 V2 Ir4 Os2'
_cell_volume   233.96632352
_cell_formula_units_Z   2
loop_
 _symmetry_equiv_pos_site_id
 _symmetry_equiv_pos_as_xyz
  1  'x, y, z'
loop_
 _atom_site_type_symbol
 _atom_site_label
 _atom_site_symmetry_multiplicity
 _atom_site_fract_x
 _atom_site_fract_y
 _atom_site_fract_z
 _atom_site_occupancy
  Ti  Ti0  1  0.498360  0.750000  0.122510  1
  Ti  Ti1  1  0.001646  0.750000  0.122512  1
  Ti  Ti2  1  0.501744  0.250000  0.377540  1
  Ti  Ti3  1  0.998254  0.250000  0.377538  1
  Ti  Ti4  1  0.999040  0.750000  0.626916  1
  Ti  Ti5  1  0.500950  0.750000  0.626916  1
  Ti  Ti6  1  0.000691  0.250000  0.873046  1
  Ti  Ti7  1  0.499312  0.250000  0.873050  1
  V  V8  1  0.749992  0.250000  0.622865  1
  V  V9  1  0.250016  0.750000  0.877070  1
  Ir  Ir10  1  0.250002  0.250000  0.124910  1
  Ir  Ir11  1  0.750002  0.750000  0.375068  1
  Ir  Ir12  1  0.249985  0.250000  0.626301  1
  Ir  Ir13  1  0.750009  0.750000  0.873747  1
  Os  Os14  1  0.750002  0.250000  0.125880  1
  Os  Os15  1  0.249997  0.750000  0.374131  1
