# generated using pymatgen
data_Sr8TaFe(CoO8)2
_symmetry_space_group_name_H-M   'P 1'
_cell_length_a   5.51484607
_cell_length_b   8.82923093
_cell_length_c   8.82881586
_cell_angle_alpha   88.82985940
_cell_angle_beta   71.64652788
_cell_angle_gamma   108.36136708
_symmetry_Int_Tables_number   1
_chemical_formula_structural   Sr8TaFe(CoO8)2
_chemical_formula_sum   'Sr8 Ta1 Fe1 Co2 O16'
_cell_volume   383.82165039
_cell_formula_units_Z   1
loop_
 _symmetry_equiv_pos_site_id
 _symmetry_equiv_pos_as_xyz
  1  'x, y, z'
loop_
 _atom_site_type_symbol
 _atom_site_label
 _atom_site_symmetry_multiplicity
 _atom_site_fract_x
 _atom_site_fract_y
 _atom_site_fract_z
 _atom_site_occupancy
  Sr  Sr0  1  0.259524  0.402733  0.886069  1
  Sr  Sr1  1  0.000109  0.640265  0.638847  1
  Sr  Sr2  1  0.741348  0.886935  0.403115  1
  Sr  Sr3  1  0.499712  0.146057  0.147094  1
  Sr  Sr4  1  0.000203  0.361165  0.359748  1
  Sr  Sr5  1  0.742370  0.596878  0.113109  1
  Sr  Sr6  1  0.499942  0.852937  0.853959  1
  Sr  Sr7  1  0.259476  0.114006  0.597246  1
  Ta  Ta8  1  0.000722  0.000189  0.999848  1
  Fe  Fe9  1  0.502346  0.499970  0.499554  1
  Co  Co10  1  0.248845  0.748672  0.251358  1
  Co  Co11  1  0.753075  0.251860  0.748158  1
  O  O12  1  0.250714  0.595290  0.093061  1
  O  O13  1  0.001137  0.838916  0.840538  1
  O  O14  1  0.746208  0.093039  0.597492  1
  O  O15  1  0.496717  0.340223  0.340123  1
  O  O16  1  0.002317  0.159473  0.161059  1
  O  O17  1  0.746216  0.402446  0.907019  1
  O  O18  1  0.495833  0.659900  0.659813  1
  O  O19  1  0.251012  0.906975  0.404686  1
  O  O20  1  0.876765  0.126369  0.873791  1
  O  O21  1  0.626402  0.372601  0.627510  1
  O  O22  1  0.372106  0.628910  0.370569  1
  O  O23  1  0.128704  0.873297  0.125981  1
  O  O24  1  0.382779  0.126711  0.873112  1
  O  O25  1  0.110660  0.370632  0.629336  1
  O  O26  1  0.883644  0.629787  0.370814  1
  O  O27  1  0.621112  0.873764  0.126987  1
