# generated using pymatgen
data_Rb20Si4As5P7
_symmetry_space_group_name_H-M   'P 1'
_cell_length_a   5.64202900
_cell_length_b   14.21253213
_cell_length_c   15.53100214
_cell_angle_alpha   89.98455314
_cell_angle_beta   90.00000000
_cell_angle_gamma   90.00000000
_symmetry_Int_Tables_number   1
_chemical_formula_structural   Rb20Si4As5P7
_chemical_formula_sum   'Rb20 Si4 As5 P7'
_cell_volume   1245.39247526
_cell_formula_units_Z   1
loop_
 _symmetry_equiv_pos_site_id
 _symmetry_equiv_pos_as_xyz
  1  'x, y, z'
loop_
 _atom_site_type_symbol
 _atom_site_label
 _atom_site_symmetry_multiplicity
 _atom_site_fract_x
 _atom_site_fract_y
 _atom_site_fract_z
 _atom_site_occupancy
  Rb  Rb0  1  0.750000  0.449156  0.147627  1
  Rb  Rb1  1  0.250000  0.554251  0.852689  1
  Rb  Rb2  1  0.750000  0.947972  0.353224  1
  Rb  Rb3  1  0.250000  0.051383  0.646348  1
  Rb  Rb4  1  0.250000  0.277851  0.783332  1
  Rb  Rb5  1  0.750000  0.721935  0.216193  1
  Rb  Rb6  1  0.250000  0.778192  0.716060  1
  Rb  Rb7  1  0.750000  0.221730  0.284134  1
  Rb  Rb8  1  0.250000  0.851701  0.460327  1
  Rb  Rb9  1  0.750000  0.148003  0.539395  1
  Rb  Rb10  1  0.250000  0.351589  0.041180  1
  Rb  Rb11  1  0.750000  0.649681  0.960833  1
  Rb  Rb12  1  0.250000  0.615640  0.318743  1
  Rb  Rb13  1  0.750000  0.384949  0.678822  1
  Rb  Rb14  1  0.250000  0.115009  0.181770  1
  Rb  Rb15  1  0.750000  0.883625  0.818616  1
  Rb  Rb16  1  0.250000  0.565481  0.556878  1
  Rb  Rb17  1  0.750000  0.434854  0.442948  1
  Rb  Rb18  1  0.250000  0.064353  0.943380  1
  Rb  Rb19  1  0.750000  0.934094  0.056954  1
  Si  Si20  1  0.750000  0.236993  0.928013  1
  Si  Si21  1  0.250000  0.759185  0.072818  1
  Si  Si22  1  0.750000  0.741279  0.572485  1
  Si  Si23  1  0.250000  0.258822  0.427285  1
  As  As24  1  0.750000  0.398352  0.903451  1
  As  As25  1  0.750000  0.133124  0.811075  1
  As  As26  1  0.250000  0.865504  0.188698  1
  As  As27  1  0.750000  0.634918  0.688270  1
  As  As28  1  0.250000  0.365090  0.311264  1
  P  P29  1  0.250000  0.310758  0.560632  1
  P  P30  1  0.750000  0.689256  0.439058  1
  P  P31  1  0.250000  0.811269  0.939367  1
  P  P32  1  0.750000  0.187163  0.061468  1
  P  P33  1  0.250000  0.106183  0.403589  1
  P  P34  1  0.750000  0.893999  0.596283  1
  P  P35  1  0.250000  0.606657  0.096788  1
