# generated using pymatgen
data_Nd8MgHgOsPt
_symmetry_space_group_name_H-M   'P 1'
_cell_length_a   9.98897033
_cell_length_b   9.98896970
_cell_length_c   10.08740900
_cell_angle_alpha   59.67346353
_cell_angle_beta   59.67346564
_cell_angle_gamma   59.78376997
_symmetry_Int_Tables_number   1
_chemical_formula_structural   Nd8MgHgOsPt
_chemical_formula_sum   'Nd16 Mg2 Hg2 Os2 Pt2'
_cell_volume   707.02889385
_cell_formula_units_Z   2
loop_
 _symmetry_equiv_pos_site_id
 _symmetry_equiv_pos_as_xyz
  1  'x, y, z'
loop_
 _atom_site_type_symbol
 _atom_site_label
 _atom_site_symmetry_multiplicity
 _atom_site_fract_x
 _atom_site_fract_y
 _atom_site_fract_z
 _atom_site_occupancy
  Nd  Nd0  1  0.348255  0.348255  0.350866  1
  Nd  Nd1  1  0.348255  0.348255  0.952624  1
  Nd  Nd2  1  0.345114  0.956687  0.349100  1
  Nd  Nd3  1  0.956687  0.345114  0.349100  1
  Nd  Nd4  1  0.814904  0.187194  0.192162  1
  Nd  Nd5  1  0.187194  0.814904  0.805739  1
  Nd  Nd6  1  0.187194  0.814904  0.192162  1
  Nd  Nd7  1  0.814904  0.187194  0.805739  1
  Nd  Nd8  1  0.188055  0.188055  0.811945  1
  Nd  Nd9  1  0.801598  0.801598  0.198402  1
  Nd  Nd10  1  0.937471  0.555221  0.565683  1
  Nd  Nd11  1  0.555221  0.937471  0.941624  1
  Nd  Nd12  1  0.555221  0.937471  0.565683  1
  Nd  Nd13  1  0.937471  0.555221  0.941624  1
  Nd  Nd14  1  0.561142  0.561142  0.938858  1
  Nd  Nd15  1  0.938376  0.938376  0.561624  1
  Mg  Mg16  1  0.580514  0.271259  0.574115  1
  Mg  Mg17  1  0.271259  0.580514  0.574115  1
  Hg  Hg18  1  0.581166  0.581166  0.587938  1
  Hg  Hg19  1  0.581166  0.581166  0.249730  1
  Os  Os20  1  0.143907  0.143907  0.136590  1
  Os  Os21  1  0.143907  0.143907  0.575598  1
  Pt  Pt22  1  0.145748  0.575273  0.139491  1
  Pt  Pt23  1  0.575273  0.145748  0.139491  1
