# generated using pymatgen
data_YbEr2Tm(B4Os)4
_symmetry_space_group_name_H-M   'P 1'
_cell_length_a   3.54697100
_cell_length_b   5.95090012
_cell_length_c   11.49759680
_cell_angle_alpha   89.94158352
_cell_angle_beta   90.00000000
_cell_angle_gamma   90.00000000
_symmetry_Int_Tables_number   1
_chemical_formula_structural   YbEr2Tm(B4Os)4
_chemical_formula_sum   'Yb1 Er2 Tm1 B16 Os4'
_cell_volume   242.68735480
_cell_formula_units_Z   1
loop_
 _symmetry_equiv_pos_site_id
 _symmetry_equiv_pos_as_xyz
  1  'x, y, z'
loop_
 _atom_site_type_symbol
 _atom_site_label
 _atom_site_symmetry_multiplicity
 _atom_site_fract_x
 _atom_site_fract_y
 _atom_site_fract_z
 _atom_site_occupancy
  Yb  Yb0  1  0.000000  0.370287  0.149153  1
  Er  Er1  1  0.000000  0.127960  0.650078  1
  Er  Er2  1  0.000000  0.871450  0.348775  1
  Tm  Tm3  1  0.000000  0.628024  0.851014  1
  B  B4  1  0.500000  0.475625  0.692337  1
  B  B5  1  0.500000  0.525279  0.308223  1
  B  B6  1  0.500000  0.974282  0.808387  1
  B  B7  1  0.500000  0.024952  0.191167  1
  B  B8  1  0.500000  0.290473  0.814512  1
  B  B9  1  0.500000  0.710672  0.185415  1
  B  B10  1  0.500000  0.789692  0.686586  1
  B  B11  1  0.500000  0.211534  0.313701  1
  B  B12  1  0.500000  0.364101  0.969959  1
  B  B13  1  0.500000  0.635577  0.029754  1
  B  B14  1  0.500000  0.863999  0.530203  1
  B  B15  1  0.500000  0.135720  0.470285  1
  B  B16  1  0.500000  0.386980  0.547447  1
  B  B17  1  0.500000  0.612419  0.452822  1
  B  B18  1  0.500000  0.887109  0.953341  1
  B  B19  1  0.500000  0.113892  0.047041  1
  Os  Os20  1  0.000000  0.141174  0.906175  1
  Os  Os21  1  0.000000  0.859286  0.091700  1
  Os  Os22  1  0.000000  0.641609  0.593815  1
  Os  Os23  1  0.000000  0.357901  0.408110  1
