# generated using pymatgen
data_LiPm2SbO6
_symmetry_space_group_name_H-M   'P 1'
_cell_length_a   5.56024537
_cell_length_b   5.56024613
_cell_length_c   5.56024612
_cell_angle_alpha   61.51285881
_cell_angle_beta   61.51286300
_cell_angle_gamma   61.51286148
_symmetry_Int_Tables_number   1
_chemical_formula_structural   LiPm2SbO6
_chemical_formula_sum   'Li1 Pm2 Sb1 O6'
_cell_volume   125.68092882
_cell_formula_units_Z   1
loop_
 _symmetry_equiv_pos_site_id
 _symmetry_equiv_pos_as_xyz
  1  'x, y, z'
loop_
 _atom_site_type_symbol
 _atom_site_label
 _atom_site_symmetry_multiplicity
 _atom_site_fract_x
 _atom_site_fract_y
 _atom_site_fract_z
 _atom_site_occupancy
  Li  Li0  1  0.500000  0.500000  0.500000  1
  Pm  Pm1  1  0.244507  0.244507  0.244506  1
  Pm  Pm2  1  0.755493  0.755493  0.755493  1
  Sb  Sb3  1  0.000000  0.000000  0.000000  1
  O  O4  1  0.770405  0.334601  0.150240  1
  O  O5  1  0.665401  0.849758  0.229594  1
  O  O6  1  0.150240  0.770405  0.334600  1
  O  O7  1  0.849760  0.229595  0.665399  1
  O  O8  1  0.334599  0.150242  0.770405  1
  O  O9  1  0.229595  0.665399  0.849760  1
