# generated using pymatgen
data_Nb4Al6RhAu
_symmetry_space_group_name_H-M   'P 1'
_cell_length_a   5.24909700
_cell_length_b   5.24909731
_cell_length_c   8.05137600
_cell_angle_alpha   90.00000000
_cell_angle_beta   90.00000000
_cell_angle_gamma   119.99999172
_symmetry_Int_Tables_number   1
_chemical_formula_structural   Nb4Al6RhAu
_chemical_formula_sum   'Nb4 Al6 Rh1 Au1'
_cell_volume   192.11885926
_cell_formula_units_Z   1
loop_
 _symmetry_equiv_pos_site_id
 _symmetry_equiv_pos_as_xyz
  1  'x, y, z'
loop_
 _atom_site_type_symbol
 _atom_site_label
 _atom_site_symmetry_multiplicity
 _atom_site_fract_x
 _atom_site_fract_y
 _atom_site_fract_z
 _atom_site_occupancy
  Nb  Nb0  1  0.333333  0.666667  0.427523  1
  Nb  Nb1  1  0.666667  0.333333  0.572477  1
  Nb  Nb2  1  0.666667  0.333333  0.925054  1
  Nb  Nb3  1  0.333333  0.666667  0.074946  1
  Al  Al4  1  0.828544  0.171456  0.242299  1
  Al  Al5  1  0.828544  0.657087  0.242299  1
  Al  Al6  1  0.342913  0.171456  0.242299  1
  Al  Al7  1  0.171456  0.828544  0.757701  1
  Al  Al8  1  0.171456  0.342913  0.757701  1
  Al  Al9  1  0.657087  0.828544  0.757701  1
  Rh  Rh10  1  0.000000  0.000000  0.000000  1
  Au  Au11  1  0.000000  0.000000  0.500000  1
