# generated using pymatgen
data_Zr3Be2Ir5
_symmetry_space_group_name_H-M   'P 1'
_cell_length_a   9.48275300
_cell_length_b   9.48275300
_cell_length_c   3.39904900
_cell_angle_alpha   90.00000000
_cell_angle_beta   90.00000000
_cell_angle_gamma   90.00000000
_symmetry_Int_Tables_number   1
_chemical_formula_structural   Zr3Be2Ir5
_chemical_formula_sum   'Zr6 Be4 Ir10'
_cell_volume   305.65133876
_cell_formula_units_Z   2
loop_
 _symmetry_equiv_pos_site_id
 _symmetry_equiv_pos_as_xyz
  1  'x, y, z'
loop_
 _atom_site_type_symbol
 _atom_site_label
 _atom_site_symmetry_multiplicity
 _atom_site_fract_x
 _atom_site_fract_y
 _atom_site_fract_z
 _atom_site_occupancy
  Zr  Zr0  1  0.175260  0.675260  0.000000  1
  Zr  Zr1  1  0.324740  0.175260  0.000000  1
  Zr  Zr2  1  0.824740  0.324740  0.000000  1
  Zr  Zr3  1  0.500000  0.500000  0.000000  1
  Zr  Zr4  1  0.675260  0.824740  0.000000  1
  Zr  Zr5  1  0.000000  0.000000  0.000000  1
  Be  Be6  1  0.380861  0.880861  0.000000  1
  Be  Be7  1  0.119139  0.380861  0.000000  1
  Be  Be8  1  0.880861  0.619139  0.000000  1
  Be  Be9  1  0.619139  0.119139  0.000000  1
  Ir  Ir10  1  0.217494  0.927473  0.500000  1
  Ir  Ir11  1  0.927473  0.782506  0.500000  1
  Ir  Ir12  1  0.427473  0.717494  0.500000  1
  Ir  Ir13  1  0.572527  0.282506  0.500000  1
  Ir  Ir14  1  0.717494  0.572527  0.500000  1
  Ir  Ir15  1  0.282506  0.427473  0.500000  1
  Ir  Ir16  1  0.072527  0.217494  0.500000  1
  Ir  Ir17  1  0.000000  0.500000  0.500000  1
  Ir  Ir18  1  0.500000  0.000000  0.500000  1
  Ir  Ir19  1  0.782506  0.072527  0.500000  1
