# generated using pymatgen
data_CeMg2Cd3Ru2
_symmetry_space_group_name_H-M   'P 1'
_cell_length_a   7.34629100
_cell_length_b   9.65066000
_cell_length_c   9.65066000
_cell_angle_alpha   90.00000000
_cell_angle_beta   90.00000000
_cell_angle_gamma   90.00000000
_symmetry_Int_Tables_number   1
_chemical_formula_structural   CeMg2Cd3Ru2
_chemical_formula_sum   'Ce4 Mg8 Cd12 Ru8'
_cell_volume   684.19856390
_cell_formula_units_Z   4
loop_
 _symmetry_equiv_pos_site_id
 _symmetry_equiv_pos_as_xyz
  1  'x, y, z'
loop_
 _atom_site_type_symbol
 _atom_site_label
 _atom_site_symmetry_multiplicity
 _atom_site_fract_x
 _atom_site_fract_y
 _atom_site_fract_z
 _atom_site_occupancy
  Ce  Ce0  1  0.577606  0.750000  0.750000  1
  Ce  Ce1  1  0.077606  0.750000  0.750000  1
  Ce  Ce2  1  0.426497  0.250000  0.250000  1
  Ce  Ce3  1  0.926497  0.250000  0.250000  1
  Mg  Mg4  1  0.153717  0.947759  0.296938  1
  Mg  Mg5  1  0.653717  0.947759  0.203062  1
  Mg  Mg6  1  0.653717  0.552241  0.296938  1
  Mg  Mg7  1  0.153717  0.552241  0.203062  1
  Mg  Mg8  1  0.153717  0.296938  0.947759  1
  Mg  Mg9  1  0.653717  0.203062  0.947759  1
  Mg  Mg10  1  0.653717  0.296938  0.552241  1
  Mg  Mg11  1  0.153717  0.203062  0.552241  1
  Cd  Cd12  1  0.998395  0.497887  0.497887  1
  Cd  Cd13  1  0.498395  0.497887  0.002113  1
  Cd  Cd14  1  0.498395  0.002113  0.497887  1
  Cd  Cd15  1  0.998395  0.002113  0.002113  1
  Cd  Cd16  1  0.845706  0.057752  0.706387  1
  Cd  Cd17  1  0.345706  0.057752  0.793613  1
  Cd  Cd18  1  0.345706  0.442248  0.706387  1
  Cd  Cd19  1  0.845706  0.442248  0.793613  1
  Cd  Cd20  1  0.845706  0.706387  0.057752  1
  Cd  Cd21  1  0.345706  0.793613  0.057752  1
  Cd  Cd22  1  0.345706  0.706387  0.442248  1
  Cd  Cd23  1  0.845706  0.793613  0.442248  1
  Ru  Ru24  1  0.651795  0.584557  0.584557  1
  Ru  Ru25  1  0.151795  0.584557  0.915443  1
  Ru  Ru26  1  0.151795  0.915443  0.584557  1
  Ru  Ru27  1  0.651795  0.915443  0.915443  1
  Ru  Ru28  1  0.348911  0.413387  0.413387  1
  Ru  Ru29  1  0.848911  0.413387  0.086613  1
  Ru  Ru30  1  0.848911  0.086613  0.413387  1
  Ru  Ru31  1  0.348911  0.086613  0.086613  1
