# generated using pymatgen
data_La2Pr10Os2I17
_symmetry_space_group_name_H-M   'P 1'
_cell_length_a   10.20735530
_cell_length_b   12.17402519
_cell_length_c   12.24845621
_cell_angle_alpha   93.32133320
_cell_angle_beta   105.05473510
_cell_angle_gamma   114.53750734
_symmetry_Int_Tables_number   1
_chemical_formula_structural   La2Pr10Os2I17
_chemical_formula_sum   'La2 Pr10 Os2 I17'
_cell_volume   1313.03929787
_cell_formula_units_Z   1
loop_
 _symmetry_equiv_pos_site_id
 _symmetry_equiv_pos_as_xyz
  1  'x, y, z'
loop_
 _atom_site_type_symbol
 _atom_site_label
 _atom_site_symmetry_multiplicity
 _atom_site_fract_x
 _atom_site_fract_y
 _atom_site_fract_z
 _atom_site_occupancy
  La  La0  1  0.058050  0.510781  0.322396  1
  La  La1  1  0.989489  0.810085  0.583017  1
  Pr  Pr2  1  0.643183  0.239354  0.284379  1
  Pr  Pr3  1  0.011576  0.188450  0.419784  1
  Pr  Pr4  1  0.222534  0.670810  0.987830  1
  Pr  Pr5  1  0.262112  0.989796  0.894085  1
  Pr  Pr6  1  0.357642  0.760057  0.715596  1
  Pr  Pr7  1  0.940142  0.485875  0.676458  1
  Pr  Pr8  1  0.740825  0.015113  0.108223  1
  Pr  Pr9  1  0.152816  0.286881  0.150405  1
  Pr  Pr10  1  0.774541  0.330002  0.007922  1
  Pr  Pr11  1  0.846578  0.712194  0.849828  1
  Os  Os12  1  0.103536  0.738952  0.784303  1
  Os  Os13  1  0.896778  0.262985  0.214804  1
  I  I14  1  0.784187  0.526734  0.418461  1
  I  I15  1  0.641949  0.419659  0.757974  1
  I  I16  1  0.843125  0.895344  0.324470  1
  I  I17  1  0.324486  0.212423  0.369086  1
  I  I18  1  0.158547  0.106328  0.677037  1
  I  I19  1  0.586788  0.052545  0.844404  1
  I  I20  1  0.755122  0.182596  0.536855  1
  I  I21  1  0.547334  0.707320  0.952533  1
  I  I22  1  0.359226  0.580156  0.240429  1
  I  I23  1  0.213927  0.470577  0.583130  1
  I  I24  1  0.054537  0.368626  0.897500  1
  I  I25  1  0.452627  0.293002  0.047538  1
  I  I26  1  0.999521  0.999803  0.999957  1
  I  I27  1  0.247025  0.817330  0.463454  1
  I  I28  1  0.412831  0.947127  0.155241  1
  I  I29  1  0.674231  0.787267  0.631799  1
  I  I30  1  0.944737  0.631828  0.101102  1
