# generated using pymatgen
data_Pr16Er(LuGa4)3
_symmetry_space_group_name_H-M   'P 1'
_cell_length_a   7.79946000
_cell_length_b   7.79946000
_cell_length_c   14.77909600
_cell_angle_alpha   90.00000000
_cell_angle_beta   90.00000000
_cell_angle_gamma   90.00000000
_symmetry_Int_Tables_number   1
_chemical_formula_structural   Pr16Er(LuGa4)3
_chemical_formula_sum   'Pr16 Er1 Lu3 Ga12'
_cell_volume   899.03570584
_cell_formula_units_Z   1
loop_
 _symmetry_equiv_pos_site_id
 _symmetry_equiv_pos_as_xyz
  1  'x, y, z'
loop_
 _atom_site_type_symbol
 _atom_site_label
 _atom_site_symmetry_multiplicity
 _atom_site_fract_x
 _atom_site_fract_y
 _atom_site_fract_z
 _atom_site_occupancy
  Pr  Pr0  1  0.814239  0.839654  0.604422  1
  Pr  Pr1  1  0.183466  0.838922  0.103712  1
  Pr  Pr2  1  0.160842  0.815885  0.395469  1
  Pr  Pr3  1  0.839158  0.184115  0.395469  1
  Pr  Pr4  1  0.684115  0.660842  0.395469  1
  Pr  Pr5  1  0.660346  0.314239  0.604422  1
  Pr  Pr6  1  0.339654  0.685761  0.604422  1
  Pr  Pr7  1  0.661078  0.683466  0.103712  1
  Pr  Pr8  1  0.685461  0.340177  0.896178  1
  Pr  Pr9  1  0.840177  0.814539  0.896178  1
  Pr  Pr10  1  0.315885  0.339158  0.395469  1
  Pr  Pr11  1  0.185761  0.160346  0.604422  1
  Pr  Pr12  1  0.816534  0.161078  0.103712  1
  Pr  Pr13  1  0.314539  0.659823  0.896178  1
  Pr  Pr14  1  0.338922  0.316534  0.103712  1
  Pr  Pr15  1  0.159823  0.185461  0.896178  1
  Er  Er16  1  0.500000  0.000000  0.779975  1
  Lu  Lu17  1  0.000000  0.500000  0.723858  1
  Lu  Lu18  1  0.000000  0.500000  0.225157  1
  Lu  Lu19  1  0.500000  0.000000  0.273043  1
  Ga  Ga20  1  0.621959  0.377258  0.249644  1
  Ga  Ga21  1  0.121571  0.877783  0.749743  1
  Ga  Ga22  1  0.377783  0.378429  0.749743  1
  Ga  Ga23  1  0.378041  0.622742  0.249644  1
  Ga  Ga24  1  0.877258  0.878041  0.249644  1
  Ga  Ga25  1  0.622217  0.621571  0.749743  1
  Ga  Ga26  1  0.000000  0.500000  0.514265  1
  Ga  Ga27  1  0.878429  0.122217  0.749743  1
  Ga  Ga28  1  0.500000  0.000000  0.483482  1
  Ga  Ga29  1  0.500000  0.000000  0.987718  1
  Ga  Ga30  1  0.122742  0.121959  0.249644  1
  Ga  Ga31  1  0.000000  0.500000  0.015832  1
