# generated using pymatgen
data_CaDy3MgAl17Pd6
_symmetry_space_group_name_H-M   'P 1'
_cell_length_a   7.67023476
_cell_length_b   7.68261237
_cell_length_c   9.51055905
_cell_angle_alpha   90.17374577
_cell_angle_beta   89.86318126
_cell_angle_gamma   119.51655512
_symmetry_Int_Tables_number   1
_chemical_formula_structural   CaDy3MgAl17Pd6
_chemical_formula_sum   'Ca1 Dy3 Mg1 Al17 Pd6'
_cell_volume   487.69370894
_cell_formula_units_Z   1
loop_
 _symmetry_equiv_pos_site_id
 _symmetry_equiv_pos_as_xyz
  1  'x, y, z'
loop_
 _atom_site_type_symbol
 _atom_site_label
 _atom_site_symmetry_multiplicity
 _atom_site_fract_x
 _atom_site_fract_y
 _atom_site_fract_z
 _atom_site_occupancy
  Ca  Ca0  1  0.996659  0.676276  0.251171  1
  Dy  Dy1  1  0.004617  0.331409  0.747825  1
  Dy  Dy2  1  0.665304  0.988348  0.252079  1
  Dy  Dy3  1  0.330013  0.004821  0.749825  1
  Mg  Mg4  1  0.995694  0.335842  0.079314  1
  Al  Al5  1  0.131191  0.132244  0.250896  1
  Al  Al6  1  0.870521  0.870674  0.751252  1
  Al  Al7  1  0.999954  0.663708  0.922223  1
  Al  Al8  1  0.999394  0.664887  0.577987  1
  Al  Al9  1  0.335721  0.001510  0.425313  1
  Al  Al10  1  0.000515  0.334295  0.420583  1
  Al  Al11  1  0.665436  0.999624  0.577459  1
  Al  Al12  1  0.667681  0.002302  0.924098  1
  Al  Al13  1  0.335402  0.001100  0.074352  1
  Al  Al14  1  0.332492  0.332683  0.558323  1
  Al  Al15  1  0.666258  0.665742  0.445208  1
  Al  Al16  1  0.666573  0.665932  0.053178  1
  Al  Al17  1  0.329641  0.332577  0.941054  1
  Al  Al18  1  0.346539  0.548068  0.250506  1
  Al  Al19  1  0.659096  0.452644  0.749088  1
  Al  Al20  1  0.548980  0.334166  0.249056  1
  Al  Al21  1  0.453674  0.662455  0.750751  1
  Pd  Pd22  1  0.660878  0.326016  0.994556  1
  Pd  Pd23  1  0.335012  0.678880  0.999017  1
  Pd  Pd24  1  0.328542  0.672154  0.501990  1
  Pd  Pd25  1  0.671901  0.327327  0.501167  1
  Pd  Pd26  1  0.001445  0.994708  0.999183  1
  Pd  Pd27  1  0.000867  0.999610  0.502544  1
