# generated using pymatgen
data_Yb6Pr2AlPd24
_symmetry_space_group_name_H-M   'P 1'
_cell_length_a   8.34430653
_cell_length_b   8.34430709
_cell_length_c   8.34430700
_cell_angle_alpha   90.08660659
_cell_angle_beta   89.91339341
_cell_angle_gamma   89.91339396
_symmetry_Int_Tables_number   1
_chemical_formula_structural   Yb6Pr2AlPd24
_chemical_formula_sum   'Yb6 Pr2 Al1 Pd24'
_cell_volume   580.99087692
_cell_formula_units_Z   1
loop_
 _symmetry_equiv_pos_site_id
 _symmetry_equiv_pos_as_xyz
  1  'x, y, z'
loop_
 _atom_site_type_symbol
 _atom_site_label
 _atom_site_symmetry_multiplicity
 _atom_site_fract_x
 _atom_site_fract_y
 _atom_site_fract_z
 _atom_site_occupancy
  Yb  Yb0  1  0.252521  0.250761  0.250761  1
  Yb  Yb1  1  0.747479  0.749239  0.749239  1
  Yb  Yb2  1  0.749239  0.747479  0.250761  1
  Yb  Yb3  1  0.749239  0.250761  0.747479  1
  Yb  Yb4  1  0.250761  0.252521  0.749239  1
  Yb  Yb5  1  0.250761  0.749239  0.252521  1
  Pr  Pr6  1  0.252948  0.747052  0.747052  1
  Pr  Pr7  1  0.747052  0.252948  0.252948  1
  Al  Al8  1  0.000000  0.000000  0.000000  1
  Pd  Pd9  1  0.260855  0.498495  0.005007  1
  Pd  Pd10  1  0.739145  0.501505  0.994993  1
  Pd  Pd11  1  0.005007  0.260855  0.501505  1
  Pd  Pd12  1  0.498495  0.260855  0.994993  1
  Pd  Pd13  1  0.994993  0.739145  0.498495  1
  Pd  Pd14  1  0.501505  0.739145  0.005007  1
  Pd  Pd15  1  0.498495  0.994993  0.260855  1
  Pd  Pd16  1  0.260855  0.005007  0.498495  1
  Pd  Pd17  1  0.501505  0.005007  0.739145  1
  Pd  Pd18  1  0.739145  0.994993  0.501505  1
  Pd  Pd19  1  0.005007  0.501505  0.260855  1
  Pd  Pd20  1  0.994993  0.498495  0.739145  1
  Pd  Pd21  1  0.253129  0.496066  0.496066  1
  Pd  Pd22  1  0.746871  0.503934  0.503934  1
  Pd  Pd23  1  0.496066  0.253129  0.503934  1
  Pd  Pd24  1  0.503934  0.746871  0.496066  1
  Pd  Pd25  1  0.496066  0.503934  0.253129  1
  Pd  Pd26  1  0.503934  0.496066  0.746871  1
  Pd  Pd27  1  0.291440  0.003885  0.003885  1
  Pd  Pd28  1  0.708560  0.996115  0.996115  1
  Pd  Pd29  1  0.003885  0.291440  0.996115  1
  Pd  Pd30  1  0.996115  0.708560  0.003885  1
  Pd  Pd31  1  0.003885  0.996115  0.291440  1
  Pd  Pd32  1  0.996115  0.003885  0.708560  1
