# generated using pymatgen
data_Er2TmHgRu2
_symmetry_space_group_name_H-M   'P 1'
_cell_length_a   3.38910800
_cell_length_b   3.38910800
_cell_length_c   11.09996900
_cell_angle_alpha   90.00000000
_cell_angle_beta   90.00000000
_cell_angle_gamma   90.00000000
_symmetry_Int_Tables_number   1
_chemical_formula_structural   Er2TmHgRu2
_chemical_formula_sum   'Er2 Tm1 Hg1 Ru2'
_cell_volume   127.49483263
_cell_formula_units_Z   1
loop_
 _symmetry_equiv_pos_site_id
 _symmetry_equiv_pos_as_xyz
  1  'x, y, z'
loop_
 _atom_site_type_symbol
 _atom_site_label
 _atom_site_symmetry_multiplicity
 _atom_site_fract_x
 _atom_site_fract_y
 _atom_site_fract_z
 _atom_site_occupancy
  Er  Er0  1  0.000000  0.000000  0.299059  1
  Er  Er1  1  0.000000  0.000000  0.700941  1
  Tm  Tm2  1  0.000000  0.000000  0.000000  1
  Hg  Hg3  1  0.500001  0.500001  0.500000  1
  Ru  Ru4  1  0.500001  0.500001  0.156141  1
  Ru  Ru5  1  0.500001  0.500001  0.843859  1
