# generated using pymatgen
data_Hf6Ti3Si6W
_symmetry_space_group_name_H-M   'P 1'
_cell_length_a   7.72847600
_cell_length_b   7.72847689
_cell_length_c   5.25545700
_cell_angle_alpha   90.00000000
_cell_angle_beta   90.00000000
_cell_angle_gamma   120.00000475
_symmetry_Int_Tables_number   1
_chemical_formula_structural   Hf6Ti3Si6W
_chemical_formula_sum   'Hf6 Ti3 Si6 W1'
_cell_volume   271.84970950
_cell_formula_units_Z   1
loop_
 _symmetry_equiv_pos_site_id
 _symmetry_equiv_pos_as_xyz
  1  'x, y, z'
loop_
 _atom_site_type_symbol
 _atom_site_label
 _atom_site_symmetry_multiplicity
 _atom_site_fract_x
 _atom_site_fract_y
 _atom_site_fract_z
 _atom_site_occupancy
  Hf  Hf0  1  0.251111  0.999813  0.248824  1
  Hf  Hf1  1  0.251111  0.251298  0.751176  1
  Hf  Hf2  1  0.000187  0.748889  0.751176  1
  Hf  Hf3  1  0.000187  0.251298  0.248824  1
  Hf  Hf4  1  0.748702  0.748889  0.248824  1
  Hf  Hf5  1  0.748702  0.999813  0.751176  1
  Ti  Ti6  1  0.666667  0.333333  0.500000  1
  Ti  Ti7  1  0.666667  0.333333  0.000000  1
  Ti  Ti8  1  0.333333  0.666667  0.500000  1
  Si  Si9  1  0.602388  0.999397  0.249103  1
  Si  Si10  1  0.602388  0.602990  0.750897  1
  Si  Si11  1  0.000603  0.397612  0.750897  1
  Si  Si12  1  0.000603  0.602990  0.249103  1
  Si  Si13  1  0.397010  0.397612  0.249103  1
  Si  Si14  1  0.397010  0.999397  0.750897  1
  W  W15  1  0.333333  0.666667  0.000000  1
