# generated using pymatgen
data_Ba2NdSm(SbAu)4
_symmetry_space_group_name_H-M   'P 1'
_cell_length_a   4.71416700
_cell_length_b   4.71416692
_cell_length_c   18.07553900
_cell_angle_alpha   90.00000000
_cell_angle_beta   90.00000000
_cell_angle_gamma   120.00000757
_symmetry_Int_Tables_number   1
_chemical_formula_structural   Ba2NdSm(SbAu)4
_chemical_formula_sum   'Ba2 Nd1 Sm1 Sb4 Au4'
_cell_volume   347.88185295
_cell_formula_units_Z   1
loop_
 _symmetry_equiv_pos_site_id
 _symmetry_equiv_pos_as_xyz
  1  'x, y, z'
loop_
 _atom_site_type_symbol
 _atom_site_label
 _atom_site_symmetry_multiplicity
 _atom_site_fract_x
 _atom_site_fract_y
 _atom_site_fract_z
 _atom_site_occupancy
  Ba  Ba0  1  0.000000  0.000000  0.499282  1
  Ba  Ba1  1  0.000000  0.000000  0.000718  1
  Nd  Nd2  1  0.000000  0.000000  0.750000  1
  Sm  Sm3  1  0.000000  0.000000  0.250000  1
  Sb  Sb4  1  0.333333  0.666667  0.372246  1
  Sb  Sb5  1  0.666667  0.333333  0.626660  1
  Sb  Sb6  1  0.666667  0.333333  0.873340  1
  Sb  Sb7  1  0.333333  0.666667  0.127754  1
  Au  Au8  1  0.666667  0.333333  0.335623  1
  Au  Au9  1  0.333333  0.666667  0.661351  1
  Au  Au10  1  0.333333  0.666667  0.838649  1
  Au  Au11  1  0.666667  0.333333  0.164377  1
