# generated using pymatgen
data_NdY7(HoBi)12
_symmetry_space_group_name_H-M   'P 1'
_cell_length_a   8.27513264
_cell_length_b   9.52122900
_cell_length_c   12.10014893
_cell_angle_alpha   90.00000000
_cell_angle_beta   89.95503112
_cell_angle_gamma   90.00000000
_symmetry_Int_Tables_number   1
_chemical_formula_structural   NdY7(HoBi)12
_chemical_formula_sum   'Nd1 Y7 Ho12 Bi12'
_cell_volume   953.36357802
_cell_formula_units_Z   1
loop_
 _symmetry_equiv_pos_site_id
 _symmetry_equiv_pos_as_xyz
  1  'x, y, z'
loop_
 _atom_site_type_symbol
 _atom_site_label
 _atom_site_symmetry_multiplicity
 _atom_site_fract_x
 _atom_site_fract_y
 _atom_site_fract_z
 _atom_site_occupancy
  Nd  Nd0  1  0.185059  0.750000  0.720301  1
  Y  Y1  1  0.686041  0.750000  0.780833  1
  Y  Y2  1  0.813858  0.250000  0.281052  1
  Y  Y3  1  0.313747  0.250000  0.219049  1
  Y  Y4  1  0.353802  0.750000  0.215667  1
  Y  Y5  1  0.853580  0.750000  0.284147  1
  Y  Y6  1  0.646664  0.250000  0.784780  1
  Y  Y7  1  0.146202  0.250000  0.715541  1
  Ho  Ho8  1  0.025692  0.750000  0.988857  1
  Ho  Ho9  1  0.525722  0.750000  0.510737  1
  Ho  Ho10  1  0.973972  0.250000  0.011282  1
  Ho  Ho11  1  0.474489  0.250000  0.488644  1
  Ho  Ho12  1  0.306397  0.436390  0.940437  1
  Ho  Ho13  1  0.806825  0.063577  0.559801  1
  Ho  Ho14  1  0.693682  0.936496  0.059870  1
  Ho  Ho15  1  0.193422  0.563646  0.440026  1
  Ho  Ho16  1  0.693682  0.563504  0.059870  1
  Ho  Ho17  1  0.193422  0.936354  0.440026  1
  Ho  Ho18  1  0.306397  0.063610  0.940437  1
  Ho  Ho19  1  0.806825  0.436423  0.559801  1
  Bi  Bi20  1  0.436541  0.006490  0.672418  1
  Bi  Bi21  1  0.931222  0.494129  0.827755  1
  Bi  Bi22  1  0.566454  0.503762  0.326740  1
  Bi  Bi23  1  0.066766  0.996123  0.172915  1
  Bi  Bi24  1  0.566454  0.996238  0.326740  1
  Bi  Bi25  1  0.066766  0.503877  0.172915  1
  Bi  Bi26  1  0.436541  0.493510  0.672418  1
  Bi  Bi27  1  0.931222  0.005871  0.827755  1
  Bi  Bi28  1  0.410216  0.750000  0.959572  1
  Bi  Bi29  1  0.904987  0.750000  0.539567  1
  Bi  Bi30  1  0.591556  0.250000  0.042040  1
  Bi  Bi31  1  0.091796  0.250000  0.458005  1
