# generated using pymatgen
data_Pd(O2F7)2
_symmetry_space_group_name_H-M   'P 1'
_cell_length_a   12.43930200
_cell_length_b   6.43523863
_cell_length_c   8.71216008
_cell_angle_alpha   68.58995583
_cell_angle_beta   90.00000000
_cell_angle_gamma   90.00000000
_symmetry_Int_Tables_number   1
_chemical_formula_structural   Pd(O2F7)2
_chemical_formula_sum   'Pd2 O8 F28'
_cell_volume   649.28054168
_cell_formula_units_Z   2
loop_
 _symmetry_equiv_pos_site_id
 _symmetry_equiv_pos_as_xyz
  1  'x, y, z'
loop_
 _atom_site_type_symbol
 _atom_site_label
 _atom_site_symmetry_multiplicity
 _atom_site_fract_x
 _atom_site_fract_y
 _atom_site_fract_z
 _atom_site_occupancy
  Pd  Pd0  1  0.500000  0.500000  0.500000  1
  Pd  Pd1  1  0.000000  0.500000  0.000000  1
  O  O2  1  0.365324  0.780312  0.906038  1
  O  O3  1  0.634676  0.219688  0.093962  1
  O  O4  1  0.865324  0.219688  0.593962  1
  O  O5  1  0.134676  0.780312  0.406038  1
  O  O6  1  0.731767  0.732729  0.874795  1
  O  O7  1  0.268233  0.267271  0.125205  1
  O  O8  1  0.231767  0.267271  0.625205  1
  O  O9  1  0.768233  0.732729  0.374795  1
  F  F10  1  0.444318  0.861560  0.782135  1
  F  F11  1  0.555682  0.138440  0.217865  1
  F  F12  1  0.944318  0.138440  0.717865  1
  F  F13  1  0.055682  0.861560  0.282135  1
  F  F14  1  0.433571  0.773327  0.487770  1
  F  F15  1  0.566429  0.226673  0.512230  1
  F  F16  1  0.933571  0.226673  0.012230  1
  F  F17  1  0.066429  0.773327  0.987770  1
  F  F18  1  0.429656  0.346092  0.705499  1
  F  F19  1  0.570344  0.653908  0.294501  1
  F  F20  1  0.929656  0.653908  0.794501  1
  F  F21  1  0.070344  0.346092  0.205499  1
  F  F22  1  0.088441  0.798486  0.549518  1
  F  F23  1  0.911559  0.201514  0.450482  1
  F  F24  1  0.588441  0.201514  0.950482  1
  F  F25  1  0.411559  0.798486  0.049518  1
  F  F26  1  0.342016  0.288244  0.996148  1
  F  F27  1  0.657984  0.711756  0.003852  1
  F  F28  1  0.842016  0.711756  0.503852  1
  F  F29  1  0.157984  0.288244  0.496148  1
  F  F30  1  0.119908  0.439252  0.885697  1
  F  F31  1  0.880092  0.560748  0.114303  1
  F  F32  1  0.619908  0.560748  0.614303  1
  F  F33  1  0.380092  0.439252  0.385697  1
  F  F34  1  0.188774  0.094642  0.764489  1
  F  F35  1  0.811226  0.905358  0.235511  1
  F  F36  1  0.688774  0.905358  0.735511  1
  F  F37  1  0.311226  0.094642  0.264489  1
