# generated using pymatgen
data_TbLu9Cd3Fe
_symmetry_space_group_name_H-M   'P 1'
_cell_length_a   9.40616900
_cell_length_b   9.40616870
_cell_length_c   9.69366600
_cell_angle_alpha   90.00000000
_cell_angle_beta   90.00000000
_cell_angle_gamma   119.98617040
_symmetry_Int_Tables_number   1
_chemical_formula_structural   TbLu9Cd3Fe
_chemical_formula_sum   'Tb2 Lu18 Cd6 Fe2'
_cell_volume   742.85616023
_cell_formula_units_Z   2
loop_
 _symmetry_equiv_pos_site_id
 _symmetry_equiv_pos_as_xyz
  1  'x, y, z'
loop_
 _atom_site_type_symbol
 _atom_site_label
 _atom_site_symmetry_multiplicity
 _atom_site_fract_x
 _atom_site_fract_y
 _atom_site_fract_z
 _atom_site_occupancy
  Tb  Tb0  1  0.460236  0.919620  0.750000  1
  Tb  Tb1  1  0.080380  0.539764  0.750000  1
  Lu  Lu2  1  0.999469  0.000531  0.499259  1
  Lu  Lu3  1  0.999469  0.000531  0.000741  1
  Lu  Lu4  1  0.211729  0.788271  0.435252  1
  Lu  Lu5  1  0.213892  0.425102  0.435351  1
  Lu  Lu6  1  0.574898  0.786108  0.435351  1
  Lu  Lu7  1  0.787115  0.212885  0.561945  1
  Lu  Lu8  1  0.786355  0.575505  0.562067  1
  Lu  Lu9  1  0.424495  0.213645  0.562067  1
  Lu  Lu10  1  0.787115  0.212885  0.938055  1
  Lu  Lu11  1  0.786355  0.575505  0.937933  1
  Lu  Lu12  1  0.424495  0.213645  0.937933  1
  Lu  Lu13  1  0.211729  0.788271  0.064748  1
  Lu  Lu14  1  0.213892  0.425102  0.064649  1
  Lu  Lu15  1  0.574898  0.786108  0.064649  1
  Lu  Lu16  1  0.542162  0.457838  0.250000  1
  Lu  Lu17  1  0.540662  0.079439  0.250000  1
  Lu  Lu18  1  0.920561  0.459338  0.250000  1
  Lu  Lu19  1  0.461768  0.538232  0.750000  1
  Cd  Cd20  1  0.884891  0.115109  0.250000  1
  Cd  Cd21  1  0.884594  0.770364  0.250000  1
  Cd  Cd22  1  0.229636  0.115406  0.250000  1
  Cd  Cd23  1  0.111873  0.888127  0.750000  1
  Cd  Cd24  1  0.114824  0.225096  0.750000  1
  Cd  Cd25  1  0.774904  0.885176  0.750000  1
  Fe  Fe26  1  0.331922  0.668078  0.250000  1
  Fe  Fe27  1  0.665683  0.334317  0.750000  1
