# generated using pymatgen
data_SrGaCo2P
_symmetry_space_group_name_H-M   'P 1'
_cell_length_a   6.21880124
_cell_length_b   6.21880062
_cell_length_c   6.21880032
_cell_angle_alpha   143.28727435
_cell_angle_beta   143.28727539
_cell_angle_gamma   52.89441733
_symmetry_Int_Tables_number   1
_chemical_formula_structural   SrGaCo2P
_chemical_formula_sum   'Sr1 Ga1 Co2 P1'
_cell_volume   85.42562030
_cell_formula_units_Z   1
loop_
 _symmetry_equiv_pos_site_id
 _symmetry_equiv_pos_as_xyz
  1  'x, y, z'
loop_
 _atom_site_type_symbol
 _atom_site_label
 _atom_site_symmetry_multiplicity
 _atom_site_fract_x
 _atom_site_fract_y
 _atom_site_fract_z
 _atom_site_occupancy
  Sr  Sr0  1  0.991272  0.991272  0.000000  1
  Ga  Ga1  1  0.639829  0.639829  0.000000  1
  Co  Co2  1  0.759750  0.259750  0.500000  1
  Co  Co3  1  0.259750  0.759750  0.500000  1
  P  P4  1  0.349398  0.349398  0.000000  1
