# generated using pymatgen
data_Zr6Sc8Al8Os4Pt3
_symmetry_space_group_name_H-M   'P 1'
_cell_length_a   9.09367094
_cell_length_b   9.09367152
_cell_length_c   9.18287400
_cell_angle_alpha   59.67497722
_cell_angle_beta   59.67497510
_cell_angle_gamma   60.65005796
_symmetry_Int_Tables_number   1
_chemical_formula_structural   Zr6Sc8Al8Os4Pt3
_chemical_formula_sum   'Zr6 Sc8 Al8 Os4 Pt3'
_cell_volume   536.85591249
_cell_formula_units_Z   1
loop_
 _symmetry_equiv_pos_site_id
 _symmetry_equiv_pos_as_xyz
  1  'x, y, z'
loop_
 _atom_site_type_symbol
 _atom_site_label
 _atom_site_symmetry_multiplicity
 _atom_site_fract_x
 _atom_site_fract_y
 _atom_site_fract_z
 _atom_site_occupancy
  Zr  Zr0  1  0.664330  0.664330  0.335670  1
  Zr  Zr1  1  0.315328  0.684672  0.315328  1
  Zr  Zr2  1  0.684672  0.315328  0.315328  1
  Zr  Zr3  1  0.335670  0.335670  0.664330  1
  Zr  Zr4  1  0.684672  0.315328  0.684672  1
  Zr  Zr5  1  0.315328  0.684672  0.684672  1
  Sc  Sc6  1  0.871349  0.871349  0.372149  1
  Sc  Sc7  1  0.885153  0.372149  0.871349  1
  Sc  Sc8  1  0.372149  0.885153  0.871349  1
  Sc  Sc9  1  0.871349  0.871349  0.885153  1
  Sc  Sc10  1  0.128651  0.128651  0.627851  1
  Sc  Sc11  1  0.114847  0.627851  0.128651  1
  Sc  Sc12  1  0.627851  0.114847  0.128651  1
  Sc  Sc13  1  0.128651  0.128651  0.114847  1
  Al  Al14  1  0.659200  0.659200  0.017249  1
  Al  Al15  1  0.664352  0.017249  0.659200  1
  Al  Al16  1  0.017249  0.664352  0.659200  1
  Al  Al17  1  0.659200  0.659200  0.664352  1
  Al  Al18  1  0.340800  0.340800  0.982751  1
  Al  Al19  1  0.335648  0.982751  0.340800  1
  Al  Al20  1  0.982751  0.335648  0.340800  1
  Al  Al21  1  0.340800  0.340800  0.335648  1
  Os  Os22  1  0.500000  0.000000  0.500000  1
  Os  Os23  1  0.000000  0.500000  0.500000  1
  Os  Os24  1  0.000000  0.500000  0.000000  1
  Os  Os25  1  0.500000  0.000000  0.000000  1
  Pt  Pt26  1  0.000000  0.000000  0.000000  1
  Pt  Pt27  1  0.000000  0.000000  0.500000  1
  Pt  Pt28  1  0.500000  0.500000  0.000000  1
