# generated using pymatgen
data_Sc4Co2MoOs5
_symmetry_space_group_name_H-M   'P 1'
_cell_length_a   5.08968809
_cell_length_b   5.05326815
_cell_length_c   8.61011800
_cell_angle_alpha   90.00000000
_cell_angle_beta   90.00000000
_cell_angle_gamma   118.55080749
_symmetry_Int_Tables_number   1
_chemical_formula_structural   Sc4Co2MoOs5
_chemical_formula_sum   'Sc4 Co2 Mo1 Os5'
_cell_volume   194.51889787
_cell_formula_units_Z   1
loop_
 _symmetry_equiv_pos_site_id
 _symmetry_equiv_pos_as_xyz
  1  'x, y, z'
loop_
 _atom_site_type_symbol
 _atom_site_label
 _atom_site_symmetry_multiplicity
 _atom_site_fract_x
 _atom_site_fract_y
 _atom_site_fract_z
 _atom_site_occupancy
  Sc  Sc0  1  0.329790  0.662524  0.433058  1
  Sc  Sc1  1  0.663593  0.328879  0.561664  1
  Sc  Sc2  1  0.663593  0.328879  0.938336  1
  Sc  Sc3  1  0.329790  0.662524  0.066942  1
  Co  Co4  1  0.172601  0.347077  0.750000  1
  Co  Co5  1  0.343390  0.174259  0.250000  1
  Mo  Mo6  1  0.177854  0.832034  0.750000  1
  Os  Os7  1  0.831427  0.664965  0.250000  1
  Os  Os8  1  0.663915  0.833540  0.750000  1
  Os  Os9  1  0.997576  0.993141  0.001097  1
  Os  Os10  1  0.828895  0.179035  0.250000  1
  Os  Os11  1  0.997576  0.993141  0.498903  1
