# generated using pymatgen
data_LiSc3Zn2(B2Rh5)2
_symmetry_space_group_name_H-M   'P 1'
_cell_length_a   9.40358994
_cell_length_b   9.40359008
_cell_length_c   2.99960100
_cell_angle_alpha   90.00000000
_cell_angle_beta   90.00000000
_cell_angle_gamma   90.97984507
_symmetry_Int_Tables_number   1
_chemical_formula_structural   LiSc3Zn2(B2Rh5)2
_chemical_formula_sum   'Li1 Sc3 Zn2 B4 Rh10'
_cell_volume   265.20844623
_cell_formula_units_Z   1
loop_
 _symmetry_equiv_pos_site_id
 _symmetry_equiv_pos_as_xyz
  1  'x, y, z'
loop_
 _atom_site_type_symbol
 _atom_site_label
 _atom_site_symmetry_multiplicity
 _atom_site_fract_x
 _atom_site_fract_y
 _atom_site_fract_z
 _atom_site_occupancy
  Li  Li0  1  0.822198  0.322198  0.000000  1
  Sc  Sc1  1  0.324603  0.179455  0.000000  1
  Sc  Sc2  1  0.679455  0.824603  0.000000  1
  Sc  Sc3  1  0.171765  0.671765  0.000000  1
  Zn  Zn4  1  0.000285  0.999355  0.000000  1
  Zn  Zn5  1  0.499355  0.500285  0.000000  1
  B  B6  1  0.634187  0.134187  0.000000  1
  B  B7  1  0.122053  0.372696  0.000000  1
  B  B8  1  0.872696  0.622053  0.000000  1
  B  B9  1  0.374894  0.874894  0.000000  1
  Rh  Rh10  1  0.073870  0.214990  0.500000  1
  Rh  Rh11  1  0.217393  0.927174  0.500000  1
  Rh  Rh12  1  0.783949  0.070361  0.500000  1
  Rh  Rh13  1  0.932949  0.780730  0.500000  1
  Rh  Rh14  1  0.427174  0.717393  0.500000  1
  Rh  Rh15  1  0.570361  0.283949  0.500000  1
  Rh  Rh16  1  0.714990  0.573870  0.500000  1
  Rh  Rh17  1  0.280730  0.432949  0.500000  1
  Rh  Rh18  1  0.501049  0.001049  0.500000  1
  Rh  Rh19  1  0.996046  0.496046  0.500000  1
