# generated using pymatgen
data_Tb5TlSi2
_symmetry_space_group_name_H-M   'P 1'
_cell_length_a   7.73476174
_cell_length_b   7.73476255
_cell_length_c   8.91694500
_cell_angle_alpha   115.70332909
_cell_angle_beta   115.70333195
_cell_angle_gamma   90.00000201
_symmetry_Int_Tables_number   1
_chemical_formula_structural   Tb5TlSi2
_chemical_formula_sum   'Tb10 Tl2 Si4'
_cell_volume   421.33619932
_cell_formula_units_Z   2
loop_
 _symmetry_equiv_pos_site_id
 _symmetry_equiv_pos_as_xyz
  1  'x, y, z'
loop_
 _atom_site_type_symbol
 _atom_site_label
 _atom_site_symmetry_multiplicity
 _atom_site_fract_x
 _atom_site_fract_y
 _atom_site_fract_z
 _atom_site_occupancy
  Tb  Tb0  1  0.500000  0.500000  0.000000  1
  Tb  Tb1  1  0.000000  0.000000  0.000000  1
  Tb  Tb2  1  0.972279  0.805985  0.278264  1
  Tb  Tb3  1  0.305985  0.472279  0.278264  1
  Tb  Tb4  1  0.805985  0.305985  0.278264  1
  Tb  Tb5  1  0.472279  0.972279  0.278264  1
  Tb  Tb6  1  0.027721  0.194015  0.721736  1
  Tb  Tb7  1  0.694015  0.527721  0.721736  1
  Tb  Tb8  1  0.194015  0.694015  0.721736  1
  Tb  Tb9  1  0.527721  0.027721  0.721736  1
  Tl  Tl10  1  0.750000  0.750000  0.500000  1
  Tl  Tl11  1  0.250000  0.250000  0.500000  1
  Si  Si12  1  0.629945  0.870055  0.000000  1
  Si  Si13  1  0.370055  0.129945  0.000000  1
  Si  Si14  1  0.870055  0.370055  0.000000  1
  Si  Si15  1  0.129945  0.629945  0.000000  1
