# generated using pymatgen
data_Gd7LuSe12
_symmetry_space_group_name_H-M   'P 1'
_cell_length_a   7.14175283
_cell_length_b   7.11463389
_cell_length_c   12.95927300
_cell_angle_alpha   100.65402549
_cell_angle_beta   100.73488876
_cell_angle_gamma   108.98077756
_symmetry_Int_Tables_number   1
_chemical_formula_structural   Gd7LuSe12
_chemical_formula_sum   'Gd7 Lu1 Se12'
_cell_volume   590.03611156
_cell_formula_units_Z   1
loop_
 _symmetry_equiv_pos_site_id
 _symmetry_equiv_pos_as_xyz
  1  'x, y, z'
loop_
 _atom_site_type_symbol
 _atom_site_label
 _atom_site_symmetry_multiplicity
 _atom_site_fract_x
 _atom_site_fract_y
 _atom_site_fract_z
 _atom_site_occupancy
  Gd  Gd0  1  0.040291  0.790219  0.080613  1
  Gd  Gd1  1  0.620703  0.870804  0.241058  1
  Gd  Gd2  1  0.126870  0.376944  0.253635  1
  Gd  Gd3  1  0.208712  0.958677  0.417414  1
  Gd  Gd4  1  0.791175  0.041162  0.582251  1
  Gd  Gd5  1  0.873199  0.623124  0.746327  1
  Gd  Gd6  1  0.378780  0.128893  0.757859  1
  Lu  Lu7  1  0.958845  0.209057  0.917874  1
  Se  Se8  1  0.804790  0.049928  0.083922  1
  Se  Se9  1  0.279260  0.533853  0.083915  1
  Se  Se10  1  0.367462  0.116831  0.248669  1
  Se  Se11  1  0.881274  0.631957  0.248802  1
  Se  Se12  1  0.949185  0.194155  0.410921  1
  Se  Se13  1  0.461783  0.717053  0.410934  1
  Se  Se14  1  0.539063  0.283977  0.588951  1
  Se  Se15  1  0.049697  0.804811  0.588852  1
  Se  Se16  1  0.116408  0.366659  0.754897  1
  Se  Se17  1  0.638387  0.887967  0.754839  1
  Se  Se18  1  0.721932  0.454922  0.914116  1
  Se  Se19  1  0.192185  0.959004  0.914151  1
