# generated using pymatgen
data_TbYHo3Ir2
_symmetry_space_group_name_H-M   'P 1'
_cell_length_a   6.46266432
_cell_length_b   7.20858320
_cell_length_c   8.55439384
_cell_angle_alpha   96.74038866
_cell_angle_beta   112.19372273
_cell_angle_gamma   89.99999862
_symmetry_Int_Tables_number   1
_chemical_formula_structural   TbYHo3Ir2
_chemical_formula_sum   'Tb2 Y2 Ho6 Ir4'
_cell_volume   366.01833715
_cell_formula_units_Z   2
loop_
 _symmetry_equiv_pos_site_id
 _symmetry_equiv_pos_as_xyz
  1  'x, y, z'
loop_
 _atom_site_type_symbol
 _atom_site_label
 _atom_site_symmetry_multiplicity
 _atom_site_fract_x
 _atom_site_fract_y
 _atom_site_fract_z
 _atom_site_occupancy
  Tb  Tb0  1  0.975336  0.916897  0.185504  1
  Tb  Tb1  1  0.789833  0.583103  0.814496  1
  Y  Y2  1  0.025428  0.081074  0.814790  1
  Y  Y3  1  0.210637  0.418926  0.185210  1
  Ho  Ho4  1  0.649485  0.816132  0.440404  1
  Ho  Ho5  1  0.209081  0.683868  0.559596  1
  Ho  Ho6  1  0.350697  0.183683  0.560492  1
  Ho  Ho7  1  0.790205  0.316317  0.439508  1
  Ho  Ho8  1  0.426813  0.750000  0.000000  1
  Ho  Ho9  1  0.573114  0.250000  0.000000  1
  Ir  Ir10  1  0.821655  0.574379  0.222101  1
  Ir  Ir11  1  0.599554  0.925621  0.777899  1
  Ir  Ir12  1  0.177979  0.426602  0.777793  1
  Ir  Ir13  1  0.400184  0.073398  0.222207  1
