# generated using pymatgen
data_Ca12Sn3IN4
_symmetry_space_group_name_H-M   'P 1'
_cell_length_a   6.94147399
_cell_length_b   6.94099116
_cell_length_c   9.82755300
_cell_angle_alpha   90.00000000
_cell_angle_beta   90.00000000
_cell_angle_gamma   90.17075485
_symmetry_Int_Tables_number   1
_chemical_formula_structural   Ca12Sn3IN4
_chemical_formula_sum   'Ca12 Sn3 I1 N4'
_cell_volume   473.49637432
_cell_formula_units_Z   1
loop_
 _symmetry_equiv_pos_site_id
 _symmetry_equiv_pos_as_xyz
  1  'x, y, z'
loop_
 _atom_site_type_symbol
 _atom_site_label
 _atom_site_symmetry_multiplicity
 _atom_site_fract_x
 _atom_site_fract_y
 _atom_site_fract_z
 _atom_site_occupancy
  Ca  Ca0  1  0.004043  0.499133  0.250000  1
  Ca  Ca1  1  0.495322  0.000696  0.250000  1
  Ca  Ca2  1  0.503826  0.999365  0.750000  1
  Ca  Ca3  1  0.996434  0.500617  0.750000  1
  Ca  Ca4  1  0.740667  0.259276  0.992411  1
  Ca  Ca5  1  0.745200  0.745204  0.506656  1
  Ca  Ca6  1  0.254762  0.254772  0.988645  1
  Ca  Ca7  1  0.259254  0.740714  0.510841  1
  Ca  Ca8  1  0.259254  0.740714  0.989159  1
  Ca  Ca9  1  0.254762  0.254772  0.511355  1
  Ca  Ca10  1  0.745200  0.745204  0.993344  1
  Ca  Ca11  1  0.740667  0.259276  0.507589  1
  Sn  Sn12  1  0.999934  0.999796  0.750000  1
  Sn  Sn13  1  0.500524  0.499886  0.750000  1
  Sn  Sn14  1  0.499787  0.500262  0.250000  1
  I  I15  1  0.000155  0.000330  0.250000  1
  N  N16  1  0.499941  0.000022  0.494230  1
  N  N17  1  0.000164  0.499970  0.005766  1
  N  N18  1  0.000164  0.499970  0.494234  1
  N  N19  1  0.499941  0.000022  0.005770  1
