# generated using pymatgen
data_Lu11Sc(Si3Rh)4
_symmetry_space_group_name_H-M   'P 1'
_cell_length_a   4.14917700
_cell_length_b   10.52015281
_cell_length_c   12.05588716
_cell_angle_alpha   89.93524449
_cell_angle_beta   90.00000000
_cell_angle_gamma   90.00000000
_symmetry_Int_Tables_number   1
_chemical_formula_structural   Lu11Sc(Si3Rh)4
_chemical_formula_sum   'Lu11 Sc1 Si12 Rh4'
_cell_volume   526.23885011
_cell_formula_units_Z   1
loop_
 _symmetry_equiv_pos_site_id
 _symmetry_equiv_pos_as_xyz
  1  'x, y, z'
loop_
 _atom_site_type_symbol
 _atom_site_label
 _atom_site_symmetry_multiplicity
 _atom_site_fract_x
 _atom_site_fract_y
 _atom_site_fract_z
 _atom_site_occupancy
  Lu  Lu0  1  0.250000  0.879511  0.018902  1
  Lu  Lu1  1  0.250000  0.621043  0.519392  1
  Lu  Lu2  1  0.750000  0.121493  0.978232  1
  Lu  Lu3  1  0.750000  0.377153  0.482034  1
  Lu  Lu4  1  0.250000  0.922476  0.603721  1
  Lu  Lu5  1  0.250000  0.578621  0.103368  1
  Lu  Lu6  1  0.750000  0.078313  0.398219  1
  Lu  Lu7  1  0.750000  0.420664  0.895524  1
  Lu  Lu8  1  0.250000  0.661079  0.799816  1
  Lu  Lu9  1  0.250000  0.839967  0.300059  1
  Lu  Lu10  1  0.750000  0.337451  0.200236  1
  Sc  Sc11  1  0.750000  0.160452  0.701703  1
  Si  Si12  1  0.250000  0.017457  0.821362  1
  Si  Si13  1  0.250000  0.483292  0.322675  1
  Si  Si14  1  0.750000  0.985133  0.177230  1
  Si  Si15  1  0.750000  0.516601  0.677436  1
  Si  Si16  1  0.250000  0.247962  0.838366  1
  Si  Si17  1  0.250000  0.250167  0.344748  1
  Si  Si18  1  0.750000  0.751506  0.157502  1
  Si  Si19  1  0.750000  0.749187  0.657221  1
  Si  Si20  1  0.250000  0.196467  0.549350  1
  Si  Si21  1  0.250000  0.302274  0.041656  1
  Si  Si22  1  0.750000  0.802338  0.456688  1
  Si  Si23  1  0.750000  0.697850  0.956245  1
  Rh  Rh24  1  0.250000  0.391463  0.680515  1
  Rh  Rh25  1  0.250000  0.108880  0.181206  1
  Rh  Rh26  1  0.750000  0.608449  0.318952  1
  Rh  Rh27  1  0.750000  0.892749  0.817641  1
