# generated using pymatgen
data_Dy2Np(AsRh2)6
_symmetry_space_group_name_H-M   'P 1'
_cell_length_a   10.03555500
_cell_length_b   10.03555414
_cell_length_c   4.01134900
_cell_angle_alpha   90.00000000
_cell_angle_beta   90.00000000
_cell_angle_gamma   119.99999800
_symmetry_Int_Tables_number   1
_chemical_formula_structural   Dy2Np(AsRh2)6
_chemical_formula_sum   'Dy2 Np1 As6 Rh12'
_cell_volume   349.86769408
_cell_formula_units_Z   1
loop_
 _symmetry_equiv_pos_site_id
 _symmetry_equiv_pos_as_xyz
  1  'x, y, z'
loop_
 _atom_site_type_symbol
 _atom_site_label
 _atom_site_symmetry_multiplicity
 _atom_site_fract_x
 _atom_site_fract_y
 _atom_site_fract_z
 _atom_site_occupancy
  Dy  Dy0  1  0.333333  0.666667  0.760719  1
  Dy  Dy1  1  0.666667  0.333333  0.247648  1
  Np  Np2  1  0.000000  0.000000  0.509748  1
  As  As3  1  0.881248  0.591585  0.747714  1
  As  As4  1  0.408415  0.289663  0.747714  1
  As  As5  1  0.710337  0.118752  0.747714  1
  As  As6  1  0.118761  0.408727  0.261711  1
  As  As7  1  0.591273  0.710034  0.261711  1
  As  As8  1  0.289966  0.881239  0.261711  1
  Rh  Rh9  1  0.618011  0.552790  0.747995  1
  Rh  Rh10  1  0.447210  0.065221  0.747995  1
  Rh  Rh11  1  0.934779  0.381989  0.747995  1
  Rh  Rh12  1  0.382192  0.446890  0.261055  1
  Rh  Rh13  1  0.553110  0.935302  0.261055  1
  Rh  Rh14  1  0.064698  0.617808  0.261055  1
  Rh  Rh15  1  0.121222  0.842400  0.769279  1
  Rh  Rh16  1  0.157600  0.278822  0.769279  1
  Rh  Rh17  1  0.721178  0.878778  0.769279  1
  Rh  Rh18  1  0.879699  0.157181  0.240968  1
  Rh  Rh19  1  0.842819  0.722517  0.240968  1
  Rh  Rh20  1  0.277483  0.120301  0.240968  1
