# generated using pymatgen
data_Dy2Co5Si14Os
_symmetry_space_group_name_H-M   'P 1'
_cell_length_a   7.71501432
_cell_length_b   7.71044888
_cell_length_c   7.71044800
_cell_angle_alpha   57.46977543
_cell_angle_beta   57.30876135
_cell_angle_gamma   57.30876732
_symmetry_Int_Tables_number   1
_chemical_formula_structural   Dy2Co5Si14Os
_chemical_formula_sum   'Dy2 Co5 Si14 Os1'
_cell_volume   304.63536172
_cell_formula_units_Z   1
loop_
 _symmetry_equiv_pos_site_id
 _symmetry_equiv_pos_as_xyz
  1  'x, y, z'
loop_
 _atom_site_type_symbol
 _atom_site_label
 _atom_site_symmetry_multiplicity
 _atom_site_fract_x
 _atom_site_fract_y
 _atom_site_fract_z
 _atom_site_occupancy
  Dy  Dy0  1  0.999552  0.999580  0.001683  1
  Dy  Dy1  1  0.500448  0.498317  0.500420  1
  Co  Co2  1  0.070084  0.428777  0.751857  1
  Co  Co3  1  0.250000  0.928560  0.571440  1
  Co  Co4  1  0.569171  0.251282  0.928534  1
  Co  Co5  1  0.930829  0.571466  0.248718  1
  Co  Co6  1  0.429916  0.748143  0.071223  1
  Si  Si7  1  0.750000  0.742188  0.757812  1
  Si  Si8  1  0.250000  0.249960  0.250040  1
  Si  Si9  1  0.856141  0.073843  0.670355  1
  Si  Si10  1  0.668522  0.849405  0.069148  1
  Si  Si11  1  0.072643  0.666907  0.850776  1
  Si  Si12  1  0.643859  0.829645  0.426157  1
  Si  Si13  1  0.427357  0.649224  0.833093  1
  Si  Si14  1  0.831478  0.430852  0.650595  1
  Si  Si15  1  0.165211  0.571313  0.351699  1
  Si  Si16  1  0.564568  0.357520  0.160467  1
  Si  Si17  1  0.342546  0.167595  0.575060  1
  Si  Si18  1  0.935432  0.339533  0.142480  1
  Si  Si19  1  0.334789  0.148301  0.928687  1
  Si  Si20  1  0.157454  0.924940  0.332405  1
  Os  Os21  1  0.750000  0.072650  0.427350  1
