# generated using pymatgen
data_Zn20Cu2Pd3Rh
_symmetry_space_group_name_H-M   'P 1'
_cell_length_a   7.89193652
_cell_length_b   7.89193649
_cell_length_c   7.83273229
_cell_angle_alpha   70.75530356
_cell_angle_beta   70.75530490
_cell_angle_gamma   109.61843769
_symmetry_Int_Tables_number   1
_chemical_formula_structural   Zn20Cu2Pd3Rh
_chemical_formula_sum   'Zn20 Cu2 Pd3 Rh1'
_cell_volume   376.94879492
_cell_formula_units_Z   1
loop_
 _symmetry_equiv_pos_site_id
 _symmetry_equiv_pos_as_xyz
  1  'x, y, z'
loop_
 _atom_site_type_symbol
 _atom_site_label
 _atom_site_symmetry_multiplicity
 _atom_site_fract_x
 _atom_site_fract_y
 _atom_site_fract_z
 _atom_site_occupancy
  Zn  Zn0  1  0.004807  0.004807  0.786045  1
  Zn  Zn1  1  0.771661  0.771661  0.230342  1
  Zn  Zn2  1  0.218850  0.000417  0.996714  1
  Zn  Zn3  1  0.000417  0.218850  0.996714  1
  Zn  Zn4  1  0.261926  0.261926  0.391607  1
  Zn  Zn5  1  0.009045  0.741012  0.645501  1
  Zn  Zn6  1  0.741012  0.009045  0.645501  1
  Zn  Zn7  1  0.652990  0.652990  0.629066  1
  Zn  Zn8  1  0.364226  0.641639  0.349975  1
  Zn  Zn9  1  0.641639  0.364226  0.349975  1
  Zn  Zn10  1  0.355646  0.734807  0.981487  1
  Zn  Zn11  1  0.624835  0.266297  0.720634  1
  Zn  Zn12  1  0.352660  0.005413  0.275164  1
  Zn  Zn13  1  0.734807  0.355646  0.981487  1
  Zn  Zn14  1  0.005413  0.352660  0.275164  1
  Zn  Zn15  1  0.266297  0.624835  0.720634  1
  Zn  Zn16  1  0.642880  0.642880  0.002470  1
  Zn  Zn17  1  0.002265  0.643625  0.360130  1
  Zn  Zn18  1  0.643625  0.002265  0.360130  1
  Zn  Zn19  1  0.354932  0.354932  0.005639  1
  Cu  Cu20  1  0.997253  0.357967  0.644278  1
  Cu  Cu21  1  0.357967  0.997253  0.644278  1
  Pd  Pd22  1  0.353923  0.353923  0.652565  1
  Pd  Pd23  1  0.648371  0.993171  0.007032  1
  Pd  Pd24  1  0.993171  0.648371  0.007032  1
  Rh  Rh25  1  0.999381  0.999381  0.340433  1
