# generated using pymatgen
data_Ba2Fe(PO4)2
_symmetry_space_group_name_H-M   'P 1'
_cell_length_a   6.72362349
_cell_length_b   6.72362377
_cell_length_c   6.97750632
_cell_angle_alpha   76.64415439
_cell_angle_beta   76.64415293
_cell_angle_gamma   46.34159946
_symmetry_Int_Tables_number   1
_chemical_formula_structural   Ba2Fe(PO4)2
_chemical_formula_sum   'Ba2 Fe1 P2 O8'
_cell_volume   220.88450745
_cell_formula_units_Z   1
loop_
 _symmetry_equiv_pos_site_id
 _symmetry_equiv_pos_as_xyz
  1  'x, y, z'
loop_
 _atom_site_type_symbol
 _atom_site_label
 _atom_site_symmetry_multiplicity
 _atom_site_fract_x
 _atom_site_fract_y
 _atom_site_fract_z
 _atom_site_occupancy
  Ba  Ba0  1  0.173437  0.173437  0.786794  1
  Ba  Ba1  1  0.826563  0.826563  0.213206  1
  Fe  Fe2  1  0.500000  0.500000  0.500000  1
  P  P3  1  0.136139  0.136139  0.295777  1
  P  P4  1  0.863861  0.863861  0.704223  1
  O  O5  1  0.113828  0.635549  0.566437  1
  O  O6  1  0.364451  0.886172  0.433563  1
  O  O7  1  0.886172  0.364451  0.433563  1
  O  O8  1  0.635549  0.113828  0.566437  1
  O  O9  1  0.255647  0.255647  0.155618  1
  O  O10  1  0.952099  0.952099  0.824613  1
  O  O11  1  0.047901  0.047901  0.175387  1
  O  O12  1  0.744353  0.744353  0.844382  1
