# generated using pymatgen
data_DyTa8FeS16
_symmetry_space_group_name_H-M   'P 1'
_cell_length_a   6.66283700
_cell_length_b   6.66283629
_cell_length_c   12.79163300
_cell_angle_alpha   90.00000000
_cell_angle_beta   90.00000000
_cell_angle_gamma   120.00000847
_symmetry_Int_Tables_number   1
_chemical_formula_structural   DyTa8FeS16
_chemical_formula_sum   'Dy1 Ta8 Fe1 S16'
_cell_volume   491.78459104
_cell_formula_units_Z   1
loop_
 _symmetry_equiv_pos_site_id
 _symmetry_equiv_pos_as_xyz
  1  'x, y, z'
loop_
 _atom_site_type_symbol
 _atom_site_label
 _atom_site_symmetry_multiplicity
 _atom_site_fract_x
 _atom_site_fract_y
 _atom_site_fract_z
 _atom_site_occupancy
  Dy  Dy0  1  0.000000  0.000000  0.500000  1
  Ta  Ta1  1  0.504798  0.495202  0.773255  1
  Ta  Ta2  1  0.009594  0.504798  0.226745  1
  Ta  Ta3  1  0.495202  0.990406  0.226745  1
  Ta  Ta4  1  0.504798  0.009594  0.773255  1
  Ta  Ta5  1  0.990406  0.495202  0.773255  1
  Ta  Ta6  1  0.495202  0.504798  0.226745  1
  Ta  Ta7  1  0.000000  0.000000  0.769347  1
  Ta  Ta8  1  0.000000  0.000000  0.230653  1
  Fe  Fe9  1  0.000000  0.000000  0.000000  1
  S  S10  1  0.830273  0.169727  0.351936  1
  S  S11  1  0.830273  0.660546  0.351936  1
  S  S12  1  0.339454  0.169727  0.351936  1
  S  S13  1  0.671504  0.835752  0.893084  1
  S  S14  1  0.169727  0.339454  0.648064  1
  S  S15  1  0.164248  0.835752  0.893084  1
  S  S16  1  0.164248  0.328496  0.893084  1
  S  S17  1  0.835752  0.164248  0.106916  1
  S  S18  1  0.328496  0.164248  0.106916  1
  S  S19  1  0.660546  0.830273  0.648064  1
  S  S20  1  0.333333  0.666667  0.102472  1
  S  S21  1  0.666667  0.333333  0.646627  1
  S  S22  1  0.666667  0.333333  0.897528  1
  S  S23  1  0.333333  0.666667  0.353373  1
  S  S24  1  0.835752  0.671504  0.106916  1
  S  S25  1  0.169727  0.830273  0.648064  1
