# generated using pymatgen
data_Tb3HoPa4(ReB6)4
_symmetry_space_group_name_H-M   'P 1'
_cell_length_a   3.71629100
_cell_length_b   9.21897047
_cell_length_c   11.53735760
_cell_angle_alpha   90.03676098
_cell_angle_beta   90.00000000
_cell_angle_gamma   90.00000000
_symmetry_Int_Tables_number   1
_chemical_formula_structural   Tb3HoPa4(ReB6)4
_chemical_formula_sum   'Tb3 Ho1 Pa4 Re4 B24'
_cell_volume   395.27413942
_cell_formula_units_Z   1
loop_
 _symmetry_equiv_pos_site_id
 _symmetry_equiv_pos_as_xyz
  1  'x, y, z'
loop_
 _atom_site_type_symbol
 _atom_site_label
 _atom_site_symmetry_multiplicity
 _atom_site_fract_x
 _atom_site_fract_y
 _atom_site_fract_z
 _atom_site_occupancy
  Tb  Tb0  1  0.000000  0.946216  0.375884  1
  Tb  Tb1  1  0.000000  0.053747  0.624302  1
  Tb  Tb2  1  0.000000  0.446142  0.124140  1
  Ho  Ho3  1  0.000000  0.554039  0.875316  1
  Pa  Pa4  1  0.000000  0.325031  0.412529  1
  Pa  Pa5  1  0.000000  0.675054  0.587795  1
  Pa  Pa6  1  0.000000  0.824567  0.087304  1
  Pa  Pa7  1  0.000000  0.175511  0.912359  1
  Re  Re8  1  0.000000  0.638815  0.322078  1
  Re  Re9  1  0.000000  0.361393  0.677975  1
  Re  Re10  1  0.000000  0.139127  0.177684  1
  Re  Re11  1  0.000000  0.860305  0.822266  1
  B  B12  1  0.500000  0.552151  0.433116  1
  B  B13  1  0.500000  0.448098  0.567177  1
  B  B14  1  0.500000  0.052257  0.066695  1
  B  B15  1  0.500000  0.947354  0.933184  1
  B  B16  1  0.500000  0.746263  0.420815  1
  B  B17  1  0.500000  0.253910  0.579304  1
  B  B18  1  0.500000  0.246883  0.078920  1
  B  B19  1  0.500000  0.752525  0.920821  1
  B  B20  1  0.500000  0.794066  0.267079  1
  B  B21  1  0.500000  0.206210  0.732982  1
  B  B22  1  0.500000  0.294209  0.232549  1
  B  B23  1  0.500000  0.705220  0.767649  1
  B  B24  1  0.500000  0.635499  0.186013  1
  B  B25  1  0.500000  0.365056  0.814030  1
  B  B26  1  0.500000  0.135902  0.313551  1
  B  B27  1  0.500000  0.863871  0.686617  1
  B  B28  1  0.500000  0.983748  0.213687  1
  B  B29  1  0.500000  0.016086  0.786356  1
  B  B30  1  0.500000  0.483734  0.286217  1
  B  B31  1  0.500000  0.516587  0.714293  1
  B  B32  1  0.500000  0.618779  0.032479  1
  B  B33  1  0.500000  0.381598  0.966667  1
  B  B34  1  0.500000  0.122021  0.466341  1
  B  B35  1  0.500000  0.878025  0.533827  1
