# generated using pymatgen
data_Tb2Dy10GaCo4Sn
_symmetry_space_group_name_H-M   'P 1'
_cell_length_a   8.32755981
_cell_length_b   8.32755977
_cell_length_c   8.33484800
_cell_angle_alpha   107.10440042
_cell_angle_beta   109.15992434
_cell_angle_gamma   112.15636229
_symmetry_Int_Tables_number   1
_chemical_formula_structural   Tb2Dy10GaCo4Sn
_chemical_formula_sum   'Tb2 Dy10 Ga1 Co4 Sn1'
_cell_volume   444.25292650
_cell_formula_units_Z   1
loop_
 _symmetry_equiv_pos_site_id
 _symmetry_equiv_pos_as_xyz
  1  'x, y, z'
loop_
 _atom_site_type_symbol
 _atom_site_label
 _atom_site_symmetry_multiplicity
 _atom_site_fract_x
 _atom_site_fract_y
 _atom_site_fract_z
 _atom_site_occupancy
  Tb  Tb0  1  0.298627  0.268306  0.566933  1
  Tb  Tb1  1  0.701373  0.731694  0.433067  1
  Dy  Dy2  1  0.298593  0.731760  0.030352  1
  Dy  Dy3  1  0.701407  0.268240  0.969648  1
  Dy  Dy4  1  0.186467  0.511235  0.324316  1
  Dy  Dy5  1  0.186920  0.862151  0.675684  1
  Dy  Dy6  1  0.813533  0.488765  0.675684  1
  Dy  Dy7  1  0.813080  0.137849  0.324316  1
  Dy  Dy8  1  0.398583  0.217751  0.180546  1
  Dy  Dy9  1  0.037204  0.218037  0.819454  1
  Dy  Dy10  1  0.962796  0.781963  0.180546  1
  Dy  Dy11  1  0.601417  0.782249  0.819454  1
  Ga  Ga12  1  0.500000  0.500000  0.000000  1
  Co  Co13  1  0.157015  0.500125  0.657141  1
  Co  Co14  1  0.842985  0.499875  0.342859  1
  Co  Co15  1  0.999810  0.113774  0.113583  1
  Co  Co16  1  0.000190  0.886226  0.886417  1
  Sn  Sn17  1  0.500000  0.000000  0.500000  1
