# generated using pymatgen
data_Na2ZnAg3
_symmetry_space_group_name_H-M   'P 1'
_cell_length_a   5.76607884
_cell_length_b   5.48157421
_cell_length_c   5.76607900
_cell_angle_alpha   58.26771915
_cell_angle_beta   60.00000483
_cell_angle_gamma   58.26771388
_symmetry_Int_Tables_number   1
_chemical_formula_structural   Na2ZnAg3
_chemical_formula_sum   'Na2 Zn1 Ag3'
_cell_volume   125.39187775
_cell_formula_units_Z   1
loop_
 _symmetry_equiv_pos_site_id
 _symmetry_equiv_pos_as_xyz
  1  'x, y, z'
loop_
 _atom_site_type_symbol
 _atom_site_label
 _atom_site_symmetry_multiplicity
 _atom_site_fract_x
 _atom_site_fract_y
 _atom_site_fract_z
 _atom_site_occupancy
  Na  Na0  1  0.500563  0.498311  0.500563  1
  Na  Na1  1  0.749437  0.751689  0.749437  1
  Zn  Zn2  1  0.125000  0.625000  0.125000  1
  Ag  Ag3  1  0.625000  0.125000  0.125000  1
  Ag  Ag4  1  0.125000  0.125000  0.125000  1
  Ag  Ag5  1  0.125000  0.125000  0.625000  1
