# generated using pymatgen
data_Nd4Pt13Rh
_symmetry_space_group_name_H-M   'P 1'
_cell_length_a   13.83791841
_cell_length_b   13.83791844
_cell_length_c   13.83754904
_cell_angle_alpha   22.63174919
_cell_angle_beta   22.63175118
_cell_angle_gamma   22.63294250
_symmetry_Int_Tables_number   1
_chemical_formula_structural   Nd4Pt13Rh
_chemical_formula_sum   'Nd4 Pt13 Rh1'
_cell_volume   344.22255886
_cell_formula_units_Z   1
loop_
 _symmetry_equiv_pos_site_id
 _symmetry_equiv_pos_as_xyz
  1  'x, y, z'
loop_
 _atom_site_type_symbol
 _atom_site_label
 _atom_site_symmetry_multiplicity
 _atom_site_fract_x
 _atom_site_fract_y
 _atom_site_fract_z
 _atom_site_occupancy
  Nd  Nd0  1  0.951144  0.951144  0.951449  1
  Nd  Nd1  1  0.048856  0.048856  0.048551  1
  Nd  Nd2  1  0.852757  0.852757  0.852462  1
  Nd  Nd3  1  0.147243  0.147243  0.147538  1
  Pt  Pt4  1  0.500000  0.500000  0.500000  1
  Pt  Pt5  1  0.720635  0.720635  0.725107  1
  Pt  Pt6  1  0.279365  0.279365  0.274893  1
  Pt  Pt7  1  0.609092  0.609092  0.616744  1
  Pt  Pt8  1  0.390908  0.390908  0.383256  1
  Pt  Pt9  1  0.000000  0.500000  0.500000  1
  Pt  Pt10  1  0.500000  0.000000  0.500000  1
  Pt  Pt11  1  0.387898  0.891542  0.386973  1
  Pt  Pt12  1  0.388027  0.388027  0.890674  1
  Pt  Pt13  1  0.891542  0.387898  0.386973  1
  Pt  Pt14  1  0.612102  0.108458  0.613027  1
  Pt  Pt15  1  0.611973  0.611973  0.109326  1
  Pt  Pt16  1  0.108458  0.612102  0.613027  1
  Rh  Rh17  1  0.500000  0.500000  0.000000  1
