# generated using pymatgen
data_Sm5EuCo16(MoP6)2
_symmetry_space_group_name_H-M   'P 1'
_cell_length_a   3.76181200
_cell_length_b   10.65838600
_cell_length_c   12.36158500
_cell_angle_alpha   90.00000000
_cell_angle_beta   90.00000000
_cell_angle_gamma   90.00000000
_symmetry_Int_Tables_number   1
_chemical_formula_structural   Sm5EuCo16(MoP6)2
_chemical_formula_sum   'Sm5 Eu1 Co16 Mo2 P12'
_cell_volume   495.63582656
_cell_formula_units_Z   1
loop_
 _symmetry_equiv_pos_site_id
 _symmetry_equiv_pos_as_xyz
  1  'x, y, z'
loop_
 _atom_site_type_symbol
 _atom_site_label
 _atom_site_symmetry_multiplicity
 _atom_site_fract_x
 _atom_site_fract_y
 _atom_site_fract_z
 _atom_site_occupancy
  Sm  Sm0  1  0.500000  0.000000  0.476186  1
  Sm  Sm1  1  0.500000  0.818620  0.204863  1
  Sm  Sm2  1  0.500000  0.181380  0.204863  1
  Sm  Sm3  1  0.000000  0.681024  0.794841  1
  Sm  Sm4  1  0.000000  0.318976  0.794841  1
  Eu  Eu5  1  0.000000  0.500000  0.524729  1
  Co  Co6  1  0.500000  0.500000  0.702541  1
  Co  Co7  1  0.000000  0.000000  0.298239  1
  Co  Co8  1  0.000000  0.500000  0.986980  1
  Co  Co9  1  0.500000  0.000000  0.013064  1
  Co  Co10  1  0.500000  0.332417  0.991026  1
  Co  Co11  1  0.500000  0.667583  0.991026  1
  Co  Co12  1  0.000000  0.167606  0.008914  1
  Co  Co13  1  0.000000  0.832394  0.008914  1
  Co  Co14  1  0.500000  0.294214  0.430770  1
  Co  Co15  1  0.500000  0.705786  0.430770  1
  Co  Co16  1  0.000000  0.203424  0.568849  1
  Co  Co17  1  0.000000  0.796576  0.568849  1
  Co  Co18  1  0.500000  0.879812  0.707919  1
  Co  Co19  1  0.500000  0.120188  0.707919  1
  Co  Co20  1  0.000000  0.620365  0.291992  1
  Co  Co21  1  0.000000  0.379635  0.291992  1
  Mo  Mo22  1  0.500000  0.500000  0.154986  1
  Mo  Mo23  1  0.000000  0.000000  0.845202  1
  P  P24  1  0.500000  0.500000  0.883662  1
  P  P25  1  0.000000  0.000000  0.116420  1
  P  P26  1  0.500000  0.500000  0.345969  1
  P  P27  1  0.000000  0.000000  0.654038  1
  P  P28  1  0.500000  0.307323  0.614880  1
  P  P29  1  0.500000  0.692677  0.614880  1
  P  P30  1  0.000000  0.191575  0.385070  1
  P  P31  1  0.000000  0.808425  0.385070  1
  P  P32  1  0.500000  0.845986  0.894710  1
  P  P33  1  0.500000  0.154014  0.894710  1
  P  P34  1  0.000000  0.654009  0.105158  1
  P  P35  1  0.000000  0.345991  0.105158  1
