# generated using pymatgen
data_Nd2SmTi(Co4P3)2
_symmetry_space_group_name_H-M   'P 1'
_cell_length_a   3.75420600
_cell_length_b   10.73095500
_cell_length_c   12.45858900
_cell_angle_alpha   90.00000000
_cell_angle_beta   90.00000000
_cell_angle_gamma   90.00000000
_symmetry_Int_Tables_number   1
_chemical_formula_structural   Nd2SmTi(Co4P3)2
_chemical_formula_sum   'Nd4 Sm2 Ti2 Co16 P12'
_cell_volume   501.90940311
_cell_formula_units_Z   2
loop_
 _symmetry_equiv_pos_site_id
 _symmetry_equiv_pos_as_xyz
  1  'x, y, z'
loop_
 _atom_site_type_symbol
 _atom_site_label
 _atom_site_symmetry_multiplicity
 _atom_site_fract_x
 _atom_site_fract_y
 _atom_site_fract_z
 _atom_site_occupancy
  Nd  Nd0  1  0.000000  0.500000  0.524548  1
  Nd  Nd1  1  0.500000  0.000000  0.474863  1
  Nd  Nd2  1  0.000000  0.680250  0.795159  1
  Nd  Nd3  1  0.000000  0.319750  0.795159  1
  Sm  Sm4  1  0.500000  0.819908  0.204528  1
  Sm  Sm5  1  0.500000  0.180092  0.204528  1
  Ti  Ti6  1  0.500000  0.500000  0.151395  1
  Ti  Ti7  1  0.000000  0.000000  0.848867  1
  Co  Co8  1  0.500000  0.500000  0.704390  1
  Co  Co9  1  0.000000  0.000000  0.294755  1
  Co  Co10  1  0.000000  0.500000  0.989388  1
  Co  Co11  1  0.500000  0.000000  0.012541  1
  Co  Co12  1  0.500000  0.331873  0.995688  1
  Co  Co13  1  0.500000  0.668127  0.995688  1
  Co  Co14  1  0.000000  0.167368  0.006085  1
  Co  Co15  1  0.000000  0.832632  0.006085  1
  Co  Co16  1  0.500000  0.295662  0.430561  1
  Co  Co17  1  0.500000  0.704338  0.430561  1
  Co  Co18  1  0.000000  0.203788  0.567873  1
  Co  Co19  1  0.000000  0.796212  0.567873  1
  Co  Co20  1  0.500000  0.880525  0.706734  1
  Co  Co21  1  0.500000  0.119475  0.706734  1
  Co  Co22  1  0.000000  0.620167  0.292567  1
  Co  Co23  1  0.000000  0.379833  0.292567  1
  P  P24  1  0.500000  0.500000  0.887843  1
  P  P25  1  0.000000  0.000000  0.114272  1
  P  P26  1  0.500000  0.500000  0.348449  1
  P  P27  1  0.000000  0.000000  0.651355  1
  P  P28  1  0.500000  0.305872  0.613656  1
  P  P29  1  0.500000  0.694128  0.613656  1
  P  P30  1  0.000000  0.193324  0.384394  1
  P  P31  1  0.000000  0.806676  0.384394  1
  P  P32  1  0.500000  0.844782  0.895015  1
  P  P33  1  0.500000  0.155218  0.895015  1
  P  P34  1  0.000000  0.656338  0.106406  1
  P  P35  1  0.000000  0.343662  0.106406  1
