# generated using pymatgen
data_Li3TmTh2Pt3
_symmetry_space_group_name_H-M   'P 1'
_cell_length_a   7.25675990
_cell_length_b   7.23011305
_cell_length_c   4.07915200
_cell_angle_alpha   90.00000000
_cell_angle_beta   90.00000000
_cell_angle_gamma   119.87860332
_symmetry_Int_Tables_number   1
_chemical_formula_structural   Li3TmTh2Pt3
_chemical_formula_sum   'Li3 Tm1 Th2 Pt3'
_cell_volume   185.57451084
_cell_formula_units_Z   1
loop_
 _symmetry_equiv_pos_site_id
 _symmetry_equiv_pos_as_xyz
  1  'x, y, z'
loop_
 _atom_site_type_symbol
 _atom_site_label
 _atom_site_symmetry_multiplicity
 _atom_site_fract_x
 _atom_site_fract_y
 _atom_site_fract_z
 _atom_site_occupancy
  Li  Li0  1  0.000000  0.244026  0.000000  1
  Li  Li1  1  0.774112  0.764617  0.000000  1
  Li  Li2  1  0.225888  0.990505  0.000000  1
  Tm  Tm3  1  0.000000  0.599649  0.500000  1
  Th  Th4  1  0.405988  0.404882  0.500000  1
  Th  Th5  1  0.594012  0.998893  0.500000  1
  Pt  Pt6  1  0.667466  0.332413  0.000000  1
  Pt  Pt7  1  0.000000  0.000068  0.500000  1
  Pt  Pt8  1  0.332534  0.664948  0.000000  1
