# generated using pymatgen
data_Tb7Y3Si6C
_symmetry_space_group_name_H-M   'P 1'
_cell_length_a   8.50657800
_cell_length_b   8.50657917
_cell_length_c   6.41783300
_cell_angle_alpha   90.00000000
_cell_angle_beta   90.00000000
_cell_angle_gamma   119.99999544
_symmetry_Int_Tables_number   1
_chemical_formula_structural   Tb7Y3Si6C
_chemical_formula_sum   'Tb7 Y3 Si6 C1'
_cell_volume   402.18780747
_cell_formula_units_Z   1
loop_
 _symmetry_equiv_pos_site_id
 _symmetry_equiv_pos_as_xyz
  1  'x, y, z'
loop_
 _atom_site_type_symbol
 _atom_site_label
 _atom_site_symmetry_multiplicity
 _atom_site_fract_x
 _atom_site_fract_y
 _atom_site_fract_z
 _atom_site_occupancy
  Tb  Tb0  1  0.333333  0.666667  0.500063  1
  Tb  Tb1  1  0.666667  0.333333  0.500063  1
  Tb  Tb2  1  0.666667  0.333333  0.999961  1
  Tb  Tb3  1  0.333333  0.666667  0.999961  1
  Tb  Tb4  1  0.000000  0.764177  0.270946  1
  Tb  Tb5  1  0.235823  0.235823  0.270946  1
  Tb  Tb6  1  0.764177  0.000000  0.270946  1
  Y  Y7  1  0.000000  0.235843  0.728995  1
  Y  Y8  1  0.764157  0.764157  0.728995  1
  Y  Y9  1  0.235843  0.000000  0.728995  1
  Si  Si10  1  0.000000  0.398829  0.253318  1
  Si  Si11  1  0.601171  0.601171  0.253318  1
  Si  Si12  1  0.398829  0.000000  0.253318  1
  Si  Si13  1  0.000000  0.601324  0.746662  1
  Si  Si14  1  0.398676  0.398676  0.746662  1
  Si  Si15  1  0.601324  0.000000  0.746662  1
  C  C16  1  0.000000  0.000000  0.500187  1
