# generated using pymatgen
data_Ca2ErGa(SiRh3)2
_symmetry_space_group_name_H-M   'P 1'
_cell_length_a   5.64142700
_cell_length_b   5.64142530
_cell_length_c   15.11142200
_cell_angle_alpha   90.00000000
_cell_angle_beta   90.00000000
_cell_angle_gamma   119.99999237
_symmetry_Int_Tables_number   1
_chemical_formula_structural   Ca2ErGa(SiRh3)2
_chemical_formula_sum   'Ca4 Er2 Ga2 Si4 Rh12'
_cell_volume   416.49885672
_cell_formula_units_Z   2
loop_
 _symmetry_equiv_pos_site_id
 _symmetry_equiv_pos_as_xyz
  1  'x, y, z'
loop_
 _atom_site_type_symbol
 _atom_site_label
 _atom_site_symmetry_multiplicity
 _atom_site_fract_x
 _atom_site_fract_y
 _atom_site_fract_z
 _atom_site_occupancy
  Ca  Ca0  1  0.333333  0.666667  0.538851  1
  Ca  Ca1  1  0.666667  0.333333  0.461149  1
  Ca  Ca2  1  0.333333  0.666667  0.746794  1
  Ca  Ca3  1  0.666667  0.333333  0.253206  1
  Er  Er4  1  0.666667  0.333333  0.041158  1
  Er  Er5  1  0.333333  0.666667  0.958842  1
  Ga  Ga6  1  0.000000  0.000000  0.000000  1
  Ga  Ga7  1  0.000000  0.000000  0.500000  1
  Si  Si8  1  0.000000  0.000000  0.246749  1
  Si  Si9  1  0.000000  0.000000  0.753251  1
  Si  Si10  1  0.333333  0.666667  0.248036  1
  Si  Si11  1  0.666667  0.333333  0.751964  1
  Rh  Rh12  1  0.168184  0.336368  0.131207  1
  Rh  Rh13  1  0.831816  0.663632  0.868793  1
  Rh  Rh14  1  0.663632  0.831816  0.131207  1
  Rh  Rh15  1  0.833776  0.667553  0.637743  1
  Rh  Rh16  1  0.336368  0.168184  0.868793  1
  Rh  Rh17  1  0.166224  0.332447  0.362257  1
  Rh  Rh18  1  0.168184  0.831816  0.131207  1
  Rh  Rh19  1  0.332447  0.166224  0.637743  1
  Rh  Rh20  1  0.831816  0.168184  0.868793  1
  Rh  Rh21  1  0.667553  0.833776  0.362257  1
  Rh  Rh22  1  0.833776  0.166224  0.637743  1
  Rh  Rh23  1  0.166224  0.833776  0.362257  1
