# generated using pymatgen
data_Hf3NiP2Ir3
_symmetry_space_group_name_H-M   'P 1'
_cell_length_a   6.32977900
_cell_length_b   6.32977889
_cell_length_c   3.99464300
_cell_angle_alpha   90.00000000
_cell_angle_beta   90.00000000
_cell_angle_gamma   120.00000579
_symmetry_Int_Tables_number   1
_chemical_formula_structural   Hf3NiP2Ir3
_chemical_formula_sum   'Hf3 Ni1 P2 Ir3'
_cell_volume   138.60716024
_cell_formula_units_Z   1
loop_
 _symmetry_equiv_pos_site_id
 _symmetry_equiv_pos_as_xyz
  1  'x, y, z'
loop_
 _atom_site_type_symbol
 _atom_site_label
 _atom_site_symmetry_multiplicity
 _atom_site_fract_x
 _atom_site_fract_y
 _atom_site_fract_z
 _atom_site_occupancy
  Hf  Hf0  1  0.403471  0.403471  0.500000  1
  Hf  Hf1  1  0.596529  0.000000  0.500000  1
  Hf  Hf2  1  0.000000  0.596529  0.500000  1
  Ni  Ni3  1  0.000000  0.000000  0.500000  1
  P  P4  1  0.666667  0.333333  0.000000  1
  P  P5  1  0.333333  0.666667  0.000000  1
  Ir  Ir6  1  0.751664  0.751664  0.000000  1
  Ir  Ir7  1  0.248336  0.000000  0.000000  1
  Ir  Ir8  1  0.000000  0.248336  0.000000  1
