# generated using pymatgen
data_Pr2ErCoSn6
_symmetry_space_group_name_H-M   'P 1'
_cell_length_a   8.52452435
_cell_length_b   8.52452570
_cell_length_c   13.40894200
_cell_angle_alpha   90.00000000
_cell_angle_beta   90.00000000
_cell_angle_gamma   148.44859462
_symmetry_Int_Tables_number   1
_chemical_formula_structural   Pr2ErCoSn6
_chemical_formula_sum   'Pr4 Er2 Co2 Sn12'
_cell_volume   509.86499806
_cell_formula_units_Z   2
loop_
 _symmetry_equiv_pos_site_id
 _symmetry_equiv_pos_as_xyz
  1  'x, y, z'
loop_
 _atom_site_type_symbol
 _atom_site_label
 _atom_site_symmetry_multiplicity
 _atom_site_fract_x
 _atom_site_fract_y
 _atom_site_fract_z
 _atom_site_occupancy
  Pr  Pr0  1  0.901374  0.098626  0.091958  1
  Pr  Pr1  1  0.098626  0.901374  0.591958  1
  Pr  Pr2  1  0.098626  0.901374  0.908042  1
  Pr  Pr3  1  0.901374  0.098626  0.408042  1
  Er  Er4  1  0.897897  0.102103  0.750000  1
  Er  Er5  1  0.102103  0.897897  0.250000  1
  Co  Co6  1  0.296311  0.703689  0.250000  1
  Co  Co7  1  0.703689  0.296311  0.750000  1
  Sn  Sn8  1  0.754029  0.245971  0.571495  1
  Sn  Sn9  1  0.427361  0.572639  0.581189  1
  Sn  Sn10  1  0.572639  0.427361  0.418811  1
  Sn  Sn11  1  0.733445  0.266555  0.250000  1
  Sn  Sn12  1  0.266555  0.733445  0.750000  1
  Sn  Sn13  1  0.245971  0.754029  0.071495  1
  Sn  Sn14  1  0.245971  0.754029  0.428505  1
  Sn  Sn15  1  0.572639  0.427361  0.081189  1
  Sn  Sn16  1  0.453478  0.546522  0.250000  1
  Sn  Sn17  1  0.546522  0.453478  0.750000  1
  Sn  Sn18  1  0.754029  0.245971  0.928505  1
  Sn  Sn19  1  0.427361  0.572639  0.918811  1
