# generated using pymatgen
data_DyY3Al17GeIr6
_symmetry_space_group_name_H-M   'P 1'
_cell_length_a   7.56545531
_cell_length_b   7.56673585
_cell_length_c   9.48455800
_cell_angle_alpha   90.00000000
_cell_angle_beta   90.00000000
_cell_angle_gamma   119.60091721
_symmetry_Int_Tables_number   1
_chemical_formula_structural   DyY3Al17GeIr6
_chemical_formula_sum   'Dy1 Y3 Al17 Ge1 Ir6'
_cell_volume   472.08895996
_cell_formula_units_Z   1
loop_
 _symmetry_equiv_pos_site_id
 _symmetry_equiv_pos_as_xyz
  1  'x, y, z'
loop_
 _atom_site_type_symbol
 _atom_site_label
 _atom_site_symmetry_multiplicity
 _atom_site_fract_x
 _atom_site_fract_y
 _atom_site_fract_z
 _atom_site_occupancy
  Dy  Dy0  1  0.675251  0.994858  0.750000  1
  Y  Y1  1  0.994762  0.675282  0.750000  1
  Y  Y2  1  0.003759  0.329012  0.250000  1
  Y  Y3  1  0.328962  0.003868  0.250000  1
  Al  Al4  1  0.871651  0.871736  0.250000  1
  Al  Al5  1  0.000246  0.337348  0.573376  1
  Al  Al6  1  0.998171  0.664795  0.425200  1
  Al  Al7  1  0.998171  0.664795  0.074800  1
  Al  Al8  1  0.337604  0.000362  0.926546  1
  Al  Al9  1  0.000246  0.337348  0.926624  1
  Al  Al10  1  0.664817  0.998162  0.074626  1
  Al  Al11  1  0.664817  0.998162  0.425374  1
  Al  Al12  1  0.337604  0.000362  0.573454  1
  Al  Al13  1  0.333154  0.333161  0.058043  1
  Al  Al14  1  0.664123  0.664189  0.948411  1
  Al  Al15  1  0.664123  0.664189  0.551589  1
  Al  Al16  1  0.333154  0.333161  0.441957  1
  Al  Al17  1  0.337298  0.552763  0.750000  1
  Al  Al18  1  0.661095  0.451538  0.250000  1
  Al  Al19  1  0.552572  0.336885  0.750000  1
  Al  Al20  1  0.451582  0.661167  0.250000  1
  Ge  Ge21  1  0.134727  0.135138  0.750000  1
  Ir  Ir22  1  0.669737  0.326831  0.500344  1
  Ir  Ir23  1  0.326815  0.669637  0.500366  1
  Ir  Ir24  1  0.326815  0.669637  0.999634  1
  Ir  Ir25  1  0.669737  0.326831  0.999656  1
  Ir  Ir26  1  0.999503  0.999393  0.500976  1
  Ir  Ir27  1  0.999503  0.999393  0.999024  1
