# generated using pymatgen
data_TbDy3Tm4Mo(WO8)3
_symmetry_space_group_name_H-M   'P 1'
_cell_length_a   5.38269400
_cell_length_b   7.67729852
_cell_length_c   11.39283300
_cell_angle_alpha   75.49825812
_cell_angle_beta   90.00000000
_cell_angle_gamma   90.00000000
_symmetry_Int_Tables_number   1
_chemical_formula_structural   TbDy3Tm4Mo(WO8)3
_chemical_formula_sum   'Tb1 Dy3 Tm4 Mo1 W3 O24'
_cell_volume   455.80388953
_cell_formula_units_Z   1
loop_
 _symmetry_equiv_pos_site_id
 _symmetry_equiv_pos_as_xyz
  1  'x, y, z'
loop_
 _atom_site_type_symbol
 _atom_site_label
 _atom_site_symmetry_multiplicity
 _atom_site_fract_x
 _atom_site_fract_y
 _atom_site_fract_z
 _atom_site_occupancy
  Tb  Tb0  1  0.683913  0.501627  0.749616  1
  Dy  Dy1  1  0.741899  0.998919  0.749997  1
  Dy  Dy2  1  0.258165  0.999827  0.250016  1
  Dy  Dy3  1  0.317184  0.499719  0.250932  1
  Tm  Tm4  1  0.184776  0.793705  0.580091  1
  Tm  Tm5  1  0.817713  0.793778  0.078338  1
  Tm  Tm6  1  0.180685  0.203554  0.921170  1
  Tm  Tm7  1  0.817459  0.206535  0.421227  1
  Mo  Mo8  1  0.256215  0.722084  0.887250  1
  W  W9  1  0.744340  0.724218  0.385660  1
  W  W10  1  0.256179  0.275917  0.614225  1
  W  W11  1  0.743764  0.276149  0.114326  1
  O  O12  1  0.040979  0.940183  0.898940  1
  O  O13  1  0.533716  0.844100  0.931564  1
  O  O14  1  0.952855  0.941045  0.396535  1
  O  O15  1  0.461583  0.789760  0.725065  1
  O  O16  1  0.461994  0.843502  0.432068  1
  O  O17  1  0.985088  0.714790  0.769891  1
  O  O18  1  0.543942  0.791840  0.225548  1
  O  O19  1  0.852794  0.635128  0.549013  1
  O  O20  1  0.353607  0.490078  0.886826  1
  O  O21  1  0.018848  0.712131  0.269890  1
  O  O22  1  0.357129  0.511146  0.613602  1
  O  O23  1  0.851827  0.365012  0.950843  1
  O  O24  1  0.150844  0.635115  0.049300  1
  O  O25  1  0.641895  0.488986  0.386043  1
  O  O26  1  0.982020  0.287423  0.729463  1
  O  O27  1  0.642226  0.511463  0.113764  1
  O  O28  1  0.148564  0.364874  0.450399  1
  O  O29  1  0.456092  0.208592  0.774198  1
  O  O30  1  0.019245  0.288405  0.229097  1
  O  O31  1  0.538274  0.156393  0.567697  1
  O  O32  1  0.543802  0.208534  0.273933  1
  O  O33  1  0.046683  0.059660  0.602597  1
  O  O34  1  0.461391  0.156812  0.067268  1
  O  O35  1  0.952309  0.058999  0.103608  1
