# generated using pymatgen
data_TiAl3CuMo
_symmetry_space_group_name_H-M   'P 1'
_cell_length_a   4.89093992
_cell_length_b   4.89094065
_cell_length_c   4.89094107
_cell_angle_alpha   62.93398344
_cell_angle_beta   62.93397945
_cell_angle_gamma   62.93399137
_symmetry_Int_Tables_number   1
_chemical_formula_structural   TiAl3CuMo
_chemical_formula_sum   'Ti1 Al3 Cu1 Mo1'
_cell_volume   88.12127436
_cell_formula_units_Z   1
loop_
 _symmetry_equiv_pos_site_id
 _symmetry_equiv_pos_as_xyz
  1  'x, y, z'
loop_
 _atom_site_type_symbol
 _atom_site_label
 _atom_site_symmetry_multiplicity
 _atom_site_fract_x
 _atom_site_fract_y
 _atom_site_fract_z
 _atom_site_occupancy
  Ti  Ti0  1  0.879225  0.879225  0.879225  1
  Al  Al1  1  0.001284  0.499760  0.499760  1
  Al  Al2  1  0.499760  0.499760  0.001284  1
  Al  Al3  1  0.499760  0.001284  0.499760  1
  Cu  Cu4  1  0.500972  0.500972  0.500972  1
  Mo  Mo5  1  0.118997  0.118997  0.118997  1
