# generated using pymatgen
data_Pr6Ga5SiRh12
_symmetry_space_group_name_H-M   'P 1'
_cell_length_a   5.67684700
_cell_length_b   5.67684700
_cell_length_c   15.73243500
_cell_angle_alpha   90.00000000
_cell_angle_beta   90.00000000
_cell_angle_gamma   119.99999419
_symmetry_Int_Tables_number   1
_chemical_formula_structural   Pr6Ga5SiRh12
_chemical_formula_sum   'Pr6 Ga5 Si1 Rh12'
_cell_volume   439.07729687
_cell_formula_units_Z   1
loop_
 _symmetry_equiv_pos_site_id
 _symmetry_equiv_pos_as_xyz
  1  'x, y, z'
loop_
 _atom_site_type_symbol
 _atom_site_label
 _atom_site_symmetry_multiplicity
 _atom_site_fract_x
 _atom_site_fract_y
 _atom_site_fract_z
 _atom_site_occupancy
  Pr  Pr0  1  0.666667  0.333333  0.958825  1
  Pr  Pr1  1  0.666667  0.333333  0.541175  1
  Pr  Pr2  1  0.333333  0.666667  0.038734  1
  Pr  Pr3  1  0.666667  0.333333  0.750000  1
  Pr  Pr4  1  0.333333  0.666667  0.461266  1
  Pr  Pr5  1  0.333333  0.666667  0.250000  1
  Ga  Ga6  1  0.666667  0.333333  0.250000  1
  Ga  Ga7  1  0.000000  0.000000  0.502376  1
  Ga  Ga8  1  0.000000  0.000000  0.250000  1
  Ga  Ga9  1  0.000000  0.000000  0.750000  1
  Ga  Ga10  1  0.000000  0.000000  0.997624  1
  Si  Si11  1  0.333333  0.666667  0.750000  1
  Rh  Rh12  1  0.169473  0.338947  0.867471  1
  Rh  Rh13  1  0.169473  0.338947  0.632529  1
  Rh  Rh14  1  0.661053  0.830527  0.867471  1
  Rh  Rh15  1  0.335600  0.167800  0.373611  1
  Rh  Rh16  1  0.832200  0.664400  0.373611  1
  Rh  Rh17  1  0.832200  0.167800  0.373611  1
  Rh  Rh18  1  0.832200  0.167800  0.126389  1
  Rh  Rh19  1  0.335600  0.167800  0.126389  1
  Rh  Rh20  1  0.661053  0.830527  0.632529  1
  Rh  Rh21  1  0.169473  0.830527  0.632529  1
  Rh  Rh22  1  0.832200  0.664400  0.126389  1
  Rh  Rh23  1  0.169473  0.830527  0.867471  1
