# generated using pymatgen
data_Tm4TiIr3
_symmetry_space_group_name_H-M   'P 1'
_cell_length_a   10.61620800
_cell_length_b   10.61620800
_cell_length_c   6.10102200
_cell_angle_alpha   90.00000000
_cell_angle_beta   90.00000000
_cell_angle_gamma   90.00000000
_symmetry_Int_Tables_number   1
_chemical_formula_structural   Tm4TiIr3
_chemical_formula_sum   'Tm16 Ti4 Ir12'
_cell_volume   687.60880438
_cell_formula_units_Z   4
loop_
 _symmetry_equiv_pos_site_id
 _symmetry_equiv_pos_as_xyz
  1  'x, y, z'
loop_
 _atom_site_type_symbol
 _atom_site_label
 _atom_site_symmetry_multiplicity
 _atom_site_fract_x
 _atom_site_fract_y
 _atom_site_fract_z
 _atom_site_occupancy
  Tm  Tm0  1  0.286835  0.085744  0.373058  1
  Tm  Tm1  1  0.286835  0.914256  0.873058  1
  Tm  Tm2  1  0.713165  0.085744  0.873058  1
  Tm  Tm3  1  0.713165  0.914256  0.373058  1
  Tm  Tm4  1  0.585744  0.786835  0.873058  1
  Tm  Tm5  1  0.585744  0.213165  0.373058  1
  Tm  Tm6  1  0.414256  0.786835  0.373058  1
  Tm  Tm7  1  0.414256  0.213165  0.873058  1
  Tm  Tm8  1  0.213165  0.414256  0.626942  1
  Tm  Tm9  1  0.213165  0.585744  0.126942  1
  Tm  Tm10  1  0.786835  0.414256  0.126942  1
  Tm  Tm11  1  0.786835  0.585744  0.626942  1
  Tm  Tm12  1  0.914256  0.713165  0.126942  1
  Tm  Tm13  1  0.914256  0.286835  0.626942  1
  Tm  Tm14  1  0.085744  0.713165  0.626942  1
  Tm  Tm15  1  0.085744  0.286835  0.126942  1
  Ti  Ti16  1  0.000000  0.000000  0.500000  1
  Ti  Ti17  1  0.000000  0.000000  0.000000  1
  Ti  Ti18  1  0.500000  0.500000  0.000000  1
  Ti  Ti19  1  0.500000  0.500000  0.500000  1
  Ir  Ir20  1  0.860720  0.139280  0.250000  1
  Ir  Ir21  1  0.860720  0.860720  0.750000  1
  Ir  Ir22  1  0.139280  0.139280  0.750000  1
  Ir  Ir23  1  0.139280  0.860720  0.250000  1
  Ir  Ir24  1  0.639280  0.360720  0.750000  1
  Ir  Ir25  1  0.639280  0.639280  0.250000  1
  Ir  Ir26  1  0.360720  0.360720  0.250000  1
  Ir  Ir27  1  0.360720  0.639280  0.750000  1
  Ir  Ir28  1  0.500000  0.000000  0.120505  1
  Ir  Ir29  1  0.500000  0.000000  0.620505  1
  Ir  Ir30  1  0.000000  0.500000  0.879495  1
  Ir  Ir31  1  0.000000  0.500000  0.379495  1
