# generated using pymatgen
data_Rb2NaNbSe4
_symmetry_space_group_name_H-M   'P 1'
_cell_length_a   7.54900833
_cell_length_b   12.37768850
_cell_length_c   12.71142738
_cell_angle_alpha   73.94205131
_cell_angle_beta   90.92920548
_cell_angle_gamma   85.29645698
_symmetry_Int_Tables_number   1
_chemical_formula_structural   Rb2NaNbSe4
_chemical_formula_sum   'Rb8 Na4 Nb4 Se16'
_cell_volume   1136.62102773
_cell_formula_units_Z   4
loop_
 _symmetry_equiv_pos_site_id
 _symmetry_equiv_pos_as_xyz
  1  'x, y, z'
loop_
 _atom_site_type_symbol
 _atom_site_label
 _atom_site_symmetry_multiplicity
 _atom_site_fract_x
 _atom_site_fract_y
 _atom_site_fract_z
 _atom_site_occupancy
  Rb  Rb0  1  0.242841  0.365379  0.288440  1
  Rb  Rb1  1  0.757159  0.634621  0.711560  1
  Rb  Rb2  1  0.754013  0.144571  0.862297  1
  Rb  Rb3  1  0.753315  0.643897  0.348659  1
  Rb  Rb4  1  0.245987  0.855429  0.137703  1
  Rb  Rb5  1  0.691420  0.106956  0.245105  1
  Rb  Rb6  1  0.308580  0.893044  0.754895  1
  Rb  Rb7  1  0.246685  0.356103  0.651341  1
  Na  Na8  1  0.227858  0.028734  0.423766  1
  Na  Na9  1  0.756330  0.465517  0.061487  1
  Na  Na10  1  0.772142  0.971266  0.576234  1
  Na  Na11  1  0.243670  0.534483  0.938513  1
  Nb  Nb12  1  0.227862  0.227951  0.005101  1
  Nb  Nb13  1  0.772138  0.772049  0.994899  1
  Nb  Nb14  1  0.751930  0.276155  0.492148  1
  Nb  Nb15  1  0.248070  0.723845  0.507852  1
  Se  Se16  1  0.760365  0.375685  0.299936  1
  Se  Se17  1  0.270753  0.596862  0.395171  1
  Se  Se18  1  0.729247  0.403138  0.604829  1
  Se  Se19  1  0.978647  0.848300  0.447852  1
  Se  Se20  1  0.239635  0.624315  0.700064  1
  Se  Se21  1  0.498746  0.162119  0.515432  1
  Se  Se22  1  0.010816  0.630754  0.082836  1
  Se  Se23  1  0.723548  0.898428  0.107052  1
  Se  Se24  1  0.506203  0.678019  0.984943  1
  Se  Se25  1  0.989184  0.369246  0.917164  1
  Se  Se26  1  0.021353  0.151700  0.552148  1
  Se  Se27  1  0.156030  0.125305  0.189561  1
  Se  Se28  1  0.501254  0.837881  0.484568  1
  Se  Se29  1  0.276452  0.101572  0.892948  1
  Se  Se30  1  0.493797  0.321981  0.015057  1
  Se  Se31  1  0.843970  0.874695  0.810439  1
