# generated using pymatgen
data_Gd4YTm2RhO12
_symmetry_space_group_name_H-M   'P 1'
_cell_length_a   6.67419486
_cell_length_b   6.67042953
_cell_length_c   6.65786521
_cell_angle_alpha   95.04505753
_cell_angle_beta   95.24492769
_cell_angle_gamma   95.15954305
_symmetry_Int_Tables_number   1
_chemical_formula_structural   Gd4YTm2RhO12
_chemical_formula_sum   'Gd4 Y1 Tm2 Rh1 O12'
_cell_volume   292.58444032
_cell_formula_units_Z   1
loop_
 _symmetry_equiv_pos_site_id
 _symmetry_equiv_pos_as_xyz
  1  'x, y, z'
loop_
 _atom_site_type_symbol
 _atom_site_label
 _atom_site_symmetry_multiplicity
 _atom_site_fract_x
 _atom_site_fract_y
 _atom_site_fract_z
 _atom_site_occupancy
  Gd  Gd0  1  0.088770  0.574400  0.264738  1
  Gd  Gd1  1  0.910606  0.426623  0.731420  1
  Gd  Gd2  1  0.571794  0.266406  0.089131  1
  Gd  Gd3  1  0.267103  0.086523  0.572983  1
  Y  Y4  1  0.996211  0.996000  0.997315  1
  Tm  Tm5  1  0.734405  0.912171  0.426131  1
  Tm  Tm6  1  0.428648  0.736408  0.914267  1
  Rh  Rh7  1  0.500446  0.501319  0.499380  1
  O  O8  1  0.058970  0.914622  0.319577  1
  O  O9  1  0.677408  0.926820  0.090980  1
  O  O10  1  0.463906  0.802131  0.589885  1
  O  O11  1  0.095151  0.680319  0.932078  1
  O  O12  1  0.799521  0.593238  0.454958  1
  O  O13  1  0.417041  0.549791  0.195081  1
  O  O14  1  0.580558  0.463528  0.803793  1
  O  O15  1  0.198218  0.415325  0.545481  1
  O  O16  1  0.913208  0.317303  0.063808  1
  O  O17  1  0.550890  0.195554  0.417519  1
  O  O18  1  0.319272  0.059464  0.913627  1
  O  O19  1  0.927872  0.082057  0.677849  1
