# generated using pymatgen
data_Ti2SiPIr2
_symmetry_space_group_name_H-M   'P 1'
_cell_length_a   3.80271800
_cell_length_b   6.30916000
_cell_length_c   7.20663600
_cell_angle_alpha   90.00000000
_cell_angle_beta   90.00000000
_cell_angle_gamma   90.00000000
_symmetry_Int_Tables_number   1
_chemical_formula_structural   Ti2SiPIr2
_chemical_formula_sum   'Ti4 Si2 P2 Ir4'
_cell_volume   172.90129596
_cell_formula_units_Z   2
loop_
 _symmetry_equiv_pos_site_id
 _symmetry_equiv_pos_as_xyz
  1  'x, y, z'
loop_
 _atom_site_type_symbol
 _atom_site_label
 _atom_site_symmetry_multiplicity
 _atom_site_fract_x
 _atom_site_fract_y
 _atom_site_fract_z
 _atom_site_occupancy
  Ti  Ti0  1  0.250000  0.026395  0.826325  1
  Ti  Ti1  1  0.250000  0.526395  0.673675  1
  Ti  Ti2  1  0.750000  0.976512  0.177516  1
  Ti  Ti3  1  0.750000  0.476512  0.322484  1
  Si  Si4  1  0.750000  0.234351  0.623972  1
  Si  Si5  1  0.750000  0.734351  0.876028  1
  P  P6  1  0.250000  0.764101  0.377176  1
  P  P7  1  0.250000  0.264101  0.122824  1
  Ir  Ir8  1  0.250000  0.150256  0.434302  1
  Ir  Ir9  1  0.250000  0.650256  0.065698  1
  Ir  Ir10  1  0.750000  0.848385  0.559797  1
  Ir  Ir11  1  0.750000  0.348385  0.940203  1
