# generated using pymatgen
data_KRbLi14Zr3O14
_symmetry_space_group_name_H-M   'P 1'
_cell_length_a   7.33741622
_cell_length_b   7.87692580
_cell_length_c   8.31230908
_cell_angle_alpha   118.28194534
_cell_angle_beta   116.19059782
_cell_angle_gamma   90.00000395
_symmetry_Int_Tables_number   1
_chemical_formula_structural   KRbLi14Zr3O14
_chemical_formula_sum   'K1 Rb1 Li14 Zr3 O14'
_cell_volume   366.09999786
_cell_formula_units_Z   1
loop_
 _symmetry_equiv_pos_site_id
 _symmetry_equiv_pos_as_xyz
  1  'x, y, z'
loop_
 _atom_site_type_symbol
 _atom_site_label
 _atom_site_symmetry_multiplicity
 _atom_site_fract_x
 _atom_site_fract_y
 _atom_site_fract_z
 _atom_site_occupancy
  K  K0  1  0.750692  0.500001  0.000000  1
  Rb  Rb1  1  0.218045  0.500001  0.000000  1
  Li  Li2  1  0.500774  0.154908  0.000000  1
  Li  Li3  1  0.500774  0.845092  0.000000  1
  Li  Li4  1  0.408719  0.293083  0.270878  1
  Li  Li5  1  0.864366  0.293347  0.270732  1
  Li  Li6  1  0.408719  0.977796  0.270878  1
  Li  Li7  1  0.864366  0.977385  0.270732  1
  Li  Li8  1  0.230104  0.586669  0.458884  1
  Li  Li9  1  0.230104  0.872215  0.458884  1
  Li  Li10  1  0.771221  0.127786  0.541118  1
  Li  Li11  1  0.771221  0.413331  0.541118  1
  Li  Li12  1  0.137840  0.022205  0.729123  1
  Li  Li13  1  0.593634  0.022616  0.729269  1
  Li  Li14  1  0.137840  0.706917  0.729123  1
  Li  Li15  1  0.593634  0.706653  0.729269  1
  Zr  Zr16  1  0.000622  0.000000  0.000000  1
  Zr  Zr17  1  0.729089  0.728388  0.456776  1
  Zr  Zr18  1  0.272313  0.271612  0.543224  1
  O  O19  1  0.289267  0.000000  0.000000  1
  O  O20  1  0.712496  0.000000  0.000000  1
  O  O21  1  0.128821  0.307277  0.255494  1
  O  O22  1  0.128821  0.948218  0.255494  1
  O  O23  1  0.631480  0.420293  0.259823  1
  O  O24  1  0.631480  0.839529  0.259823  1
  O  O25  1  0.033709  0.746105  0.492207  1
  O  O26  1  0.460922  0.746731  0.493461  1
  O  O27  1  0.541502  0.253896  0.507792  1
  O  O28  1  0.967461  0.253270  0.506538  1
  O  O29  1  0.371658  0.160470  0.740177  1
  O  O30  1  0.371658  0.579707  0.740177  1
  O  O31  1  0.873327  0.051782  0.744506  1
  O  O32  1  0.873327  0.692724  0.744506  1
