# generated using pymatgen
data_Ho5TmAl24(PdRu3)2
_symmetry_space_group_name_H-M   'P 1'
_cell_length_a   8.81737466
_cell_length_b   8.79802083
_cell_length_c   9.55303000
_cell_angle_alpha   90.04582089
_cell_angle_beta   90.07553341
_cell_angle_gamma   119.59298318
_symmetry_Int_Tables_number   1
_chemical_formula_structural   Ho5TmAl24(PdRu3)2
_chemical_formula_sum   'Ho5 Tm1 Al24 Pd2 Ru6'
_cell_volume   644.40915856
_cell_formula_units_Z   1
loop_
 _symmetry_equiv_pos_site_id
 _symmetry_equiv_pos_as_xyz
  1  'x, y, z'
loop_
 _atom_site_type_symbol
 _atom_site_label
 _atom_site_symmetry_multiplicity
 _atom_site_fract_x
 _atom_site_fract_y
 _atom_site_fract_z
 _atom_site_occupancy
  Ho  Ho0  1  0.809526  0.612600  0.747021  1
  Ho  Ho1  1  0.615316  0.808951  0.251652  1
  Ho  Ho2  1  0.384684  0.191082  0.748345  1
  Ho  Ho3  1  0.191395  0.805646  0.252350  1
  Ho  Ho4  1  0.808513  0.193967  0.747557  1
  Tm  Tm5  1  0.191014  0.389050  0.253309  1
  Al  Al6  1  0.327362  0.664383  0.025181  1
  Al  Al7  1  0.672605  0.335147  0.975260  1
  Al  Al8  1  0.666582  0.332411  0.522385  1
  Al  Al9  1  0.333207  0.667201  0.477187  1
  Al  Al10  1  0.164025  0.327063  0.575919  1
  Al  Al11  1  0.835846  0.672717  0.423349  1
  Al  Al12  1  0.673644  0.836624  0.575206  1
  Al  Al13  1  0.842735  0.675889  0.079605  1
  Al  Al14  1  0.325996  0.163418  0.424297  1
  Al  Al15  1  0.157193  0.323893  0.921106  1
  Al  Al16  1  0.163822  0.837090  0.577532  1
  Al  Al17  1  0.322118  0.162251  0.081018  1
  Al  Al18  1  0.836746  0.163120  0.421962  1
  Al  Al19  1  0.677524  0.837873  0.919481  1
  Al  Al20  1  0.842731  0.168029  0.080223  1
  Al  Al21  1  0.157822  0.832054  0.920228  1
  Al  Al22  1  0.561522  0.124797  0.252224  1
  Al  Al23  1  0.438431  0.875312  0.747646  1
  Al  Al24  1  0.877911  0.440171  0.249200  1
  Al  Al25  1  0.122323  0.559469  0.750892  1
  Al  Al26  1  0.561739  0.438042  0.252816  1
  Al  Al27  1  0.437588  0.561774  0.747164  1
  Al  Al28  1  0.998470  0.001794  0.250464  1
  Al  Al29  1  0.002272  0.999398  0.749483  1
  Pd  Pd30  1  0.499916  0.999874  0.999967  1
  Pd  Pd31  1  0.499620  0.499805  0.000263  1
  Ru  Ru32  1  0.000169  0.499840  0.000357  1
  Ru  Ru33  1  0.499941  0.999815  0.499847  1
  Ru  Ru34  1  0.000113  0.499812  0.499734  1
  Ru  Ru35  1  0.499675  0.499827  0.499857  1
  Ru  Ru36  1  0.999932  0.999840  0.999963  1
  Ru  Ru37  1  0.999975  0.999967  0.499948  1
