# generated using pymatgen
data_Yb6Ga15(Cu8Pd)2
_symmetry_space_group_name_H-M   'P 1'
_cell_length_a   8.47481245
_cell_length_b   8.48649346
_cell_length_c   8.43483900
_cell_angle_alpha   90.00000000
_cell_angle_beta   90.00000000
_cell_angle_gamma   90.03757026
_symmetry_Int_Tables_number   1
_chemical_formula_structural   Yb6Ga15(Cu8Pd)2
_chemical_formula_sum   'Yb6 Ga15 Cu16 Pd2'
_cell_volume   606.64564039
_cell_formula_units_Z   1
loop_
 _symmetry_equiv_pos_site_id
 _symmetry_equiv_pos_as_xyz
  1  'x, y, z'
loop_
 _atom_site_type_symbol
 _atom_site_label
 _atom_site_symmetry_multiplicity
 _atom_site_fract_x
 _atom_site_fract_y
 _atom_site_fract_z
 _atom_site_occupancy
  Yb  Yb0  1  0.801627  0.004211  0.500000  1
  Yb  Yb1  1  0.004409  0.500147  0.804683  1
  Yb  Yb2  1  0.500867  0.804835  0.000000  1
  Yb  Yb3  1  0.004409  0.500147  0.195317  1
  Yb  Yb4  1  0.500490  0.195395  0.000000  1
  Yb  Yb5  1  0.195909  0.001843  0.500000  1
  Ga  Ga6  1  0.284558  0.720062  0.281620  1
  Ga  Ga7  1  0.720609  0.287728  0.280229  1
  Ga  Ga8  1  0.284611  0.284059  0.717870  1
  Ga  Ga9  1  0.720362  0.716556  0.717896  1
  Ga  Ga10  1  0.720609  0.287728  0.719771  1
  Ga  Ga11  1  0.284558  0.720062  0.718380  1
  Ga  Ga12  1  0.720362  0.716556  0.282104  1
  Ga  Ga13  1  0.284611  0.284059  0.282130  1
  Ga  Ga14  1  0.677725  0.499782  0.000000  1
  Ga  Ga15  1  0.499218  0.993350  0.682626  1
  Ga  Ga16  1  0.990901  0.682511  0.500000  1
  Ga  Ga17  1  0.499218  0.993350  0.317374  1
  Ga  Ga18  1  0.993778  0.319788  0.500000  1
  Ga  Ga19  1  0.325040  0.500189  0.000000  1
  Ga  Ga20  1  0.000824  0.000494  0.000000  1
  Cu  Cu21  1  0.998457  0.841405  0.252420  1
  Cu  Cu22  1  0.999483  0.159004  0.746710  1
  Cu  Cu23  1  0.998457  0.841405  0.747580  1
  Cu  Cu24  1  0.159634  0.744541  0.000000  1
  Cu  Cu25  1  0.745553  0.999556  0.842169  1
  Cu  Cu26  1  0.745553  0.999556  0.157831  1
  Cu  Cu27  1  0.841219  0.253740  0.000000  1
  Cu  Cu28  1  0.251945  0.999985  0.840766  1
  Cu  Cu29  1  0.842406  0.743482  0.000000  1
  Cu  Cu30  1  0.502655  0.502967  0.267243  1
  Cu  Cu31  1  0.502012  0.728497  0.500000  1
  Cu  Cu32  1  0.502655  0.502967  0.732757  1
  Cu  Cu33  1  0.731210  0.503014  0.500000  1
  Cu  Cu34  1  0.999483  0.159004  0.253290  1
  Cu  Cu35  1  0.251945  0.999985  0.159234  1
  Cu  Cu36  1  0.161773  0.253178  0.000000  1
  Pd  Pd37  1  0.246419  0.504702  0.500000  1
  Pd  Pd38  1  0.504446  0.250161  0.500000  1
