# generated using pymatgen
data_Sc3Al3Zn2Au
_symmetry_space_group_name_H-M   'P 1'
_cell_length_a   6.75055600
_cell_length_b   6.75055601
_cell_length_c   8.31217500
_cell_angle_alpha   90.00000000
_cell_angle_beta   90.00000000
_cell_angle_gamma   119.99999994
_symmetry_Int_Tables_number   1
_chemical_formula_structural   Sc3Al3Zn2Au
_chemical_formula_sum   'Sc6 Al6 Zn4 Au2'
_cell_volume   328.03818439
_cell_formula_units_Z   2
loop_
 _symmetry_equiv_pos_site_id
 _symmetry_equiv_pos_as_xyz
  1  'x, y, z'
loop_
 _atom_site_type_symbol
 _atom_site_label
 _atom_site_symmetry_multiplicity
 _atom_site_fract_x
 _atom_site_fract_y
 _atom_site_fract_z
 _atom_site_occupancy
  Sc  Sc0  1  0.574195  0.999737  0.750000  1
  Sc  Sc1  1  0.000263  0.574458  0.750000  1
  Sc  Sc2  1  0.425542  0.425805  0.750000  1
  Sc  Sc3  1  0.999737  0.574195  0.250000  1
  Sc  Sc4  1  0.574458  0.000263  0.250000  1
  Sc  Sc5  1  0.425805  0.425542  0.250000  1
  Al  Al6  1  0.752528  0.752528  0.000000  1
  Al  Al7  1  0.247472  0.000000  0.000000  1
  Al  Al8  1  0.000000  0.247472  0.000000  1
  Al  Al9  1  0.752528  0.752528  0.500000  1
  Al  Al10  1  0.247472  0.000000  0.500000  1
  Al  Al11  1  0.000000  0.247472  0.500000  1
  Zn  Zn12  1  0.666667  0.333333  0.999917  1
  Zn  Zn13  1  0.666667  0.333333  0.500083  1
  Zn  Zn14  1  0.333333  0.666667  0.499917  1
  Zn  Zn15  1  0.333333  0.666667  0.000083  1
  Au  Au16  1  0.000000  0.000000  0.750000  1
  Au  Au17  1  0.000000  0.000000  0.250000  1
