# generated using pymatgen
data_Cs2La5Nd(CBr6)2
_symmetry_space_group_name_H-M   'P 1'
_cell_length_a   9.20560223
_cell_length_b   9.22208859
_cell_length_c   9.88164876
_cell_angle_alpha   69.92333804
_cell_angle_beta   85.08716800
_cell_angle_gamma   88.94304083
_symmetry_Int_Tables_number   1
_chemical_formula_structural   Cs2La5Nd(CBr6)2
_chemical_formula_sum   'Cs2 La5 Nd1 C2 Br12'
_cell_volume   784.97633823
_cell_formula_units_Z   1
loop_
 _symmetry_equiv_pos_site_id
 _symmetry_equiv_pos_as_xyz
  1  'x, y, z'
loop_
 _atom_site_type_symbol
 _atom_site_label
 _atom_site_symmetry_multiplicity
 _atom_site_fract_x
 _atom_site_fract_y
 _atom_site_fract_z
 _atom_site_occupancy
  Cs  Cs0  1  0.468427  0.363263  0.329121  1
  Cs  Cs1  1  0.532136  0.636928  0.670928  1
  La  La2  1  0.084040  0.264726  0.993965  1
  La  La3  1  0.734059  0.087331  0.001579  1
  La  La4  1  0.265754  0.911346  0.998497  1
  La  La5  1  0.974219  0.880873  0.328737  1
  La  La6  1  0.025164  0.116817  0.671393  1
  Nd  Nd7  1  0.916123  0.738808  0.006081  1
  C  C8  1  0.005745  0.026380  0.923567  1
  C  C9  1  0.994299  0.972795  0.076705  1
  Br  Br10  1  0.077793  0.198973  0.323956  1
  Br  Br11  1  0.921882  0.799392  0.679103  1
  Br  Br12  1  0.206731  0.589972  0.001353  1
  Br  Br13  1  0.788869  0.413009  0.998873  1
  Br  Br14  1  0.405846  0.206628  0.001203  1
  Br  Br15  1  0.597820  0.792462  0.998818  1
  Br  Br16  1  0.666513  0.002627  0.328296  1
  Br  Br17  1  0.333662  0.997247  0.671802  1
  Br  Br18  1  0.284664  0.771210  0.323648  1
  Br  Br19  1  0.715521  0.228899  0.676254  1
  Br  Br20  1  0.847085  0.586677  0.325083  1
  Br  Br21  1  0.153646  0.413640  0.671037  1
