# generated using pymatgen
data_Zr3MnCo8AsP5
_symmetry_space_group_name_H-M   'P 1'
_cell_length_a   12.02049625
_cell_length_b   12.05992993
_cell_length_c   3.64781600
_cell_angle_alpha   90.00000000
_cell_angle_beta   90.00000000
_cell_angle_gamma   120.10857039
_symmetry_Int_Tables_number   1
_chemical_formula_structural   Zr3MnCo8AsP5
_chemical_formula_sum   'Zr6 Mn2 Co16 As2 P10'
_cell_volume   457.46151831
_cell_formula_units_Z   2
loop_
 _symmetry_equiv_pos_site_id
 _symmetry_equiv_pos_as_xyz
  1  'x, y, z'
loop_
 _atom_site_type_symbol
 _atom_site_label
 _atom_site_symmetry_multiplicity
 _atom_site_fract_x
 _atom_site_fract_y
 _atom_site_fract_z
 _atom_site_occupancy
  Zr  Zr0  1  0.000000  0.554100  0.000000  1
  Zr  Zr1  1  0.667541  0.332369  0.000000  1
  Zr  Zr2  1  0.332459  0.664829  0.000000  1
  Zr  Zr3  1  0.823835  0.823795  0.500000  1
  Zr  Zr4  1  0.176165  0.999959  0.500000  1
  Zr  Zr5  1  0.000000  0.176991  0.500000  1
  Mn  Mn6  1  0.440850  0.442196  0.000000  1
  Mn  Mn7  1  0.559150  0.001346  0.000000  1
  Co  Co8  1  0.197898  0.373604  0.000000  1
  Co  Co9  1  0.177413  0.803919  0.000000  1
  Co  Co10  1  0.822587  0.626505  0.000000  1
  Co  Co11  1  0.802102  0.175706  0.000000  1
  Co  Co12  1  0.377239  0.203939  0.000000  1
  Co  Co13  1  0.127238  0.478020  0.500000  1
  Co  Co14  1  0.359370  0.870499  0.500000  1
  Co  Co15  1  0.509898  0.644436  0.500000  1
  Co  Co16  1  0.640630  0.511129  0.500000  1
  Co  Co17  1  0.872762  0.350781  0.500000  1
  Co  Co18  1  0.490102  0.134539  0.500000  1
  Co  Co19  1  0.000000  0.000846  0.000000  1
  Co  Co20  1  0.717131  0.000966  0.500000  1
  Co  Co21  1  0.000000  0.721961  0.500000  1
  Co  Co22  1  0.622761  0.826699  0.000000  1
  Co  Co23  1  0.282869  0.283836  0.500000  1
  As  As24  1  0.640427  0.644458  0.000000  1
  As  As25  1  0.359573  0.004032  0.000000  1
  P  P26  1  0.000000  0.343628  0.000000  1
  P  P27  1  0.481509  0.315096  0.500000  1
  P  P28  1  0.686464  0.167047  0.500000  1
  P  P29  1  0.824893  0.515989  0.500000  1
  P  P30  1  0.518491  0.833587  0.500000  1
  P  P31  1  0.175107  0.691096  0.500000  1
  P  P32  1  0.822386  0.999602  0.000000  1
  P  P33  1  0.000000  0.824700  0.000000  1
  P  P34  1  0.313536  0.480583  0.500000  1
  P  P35  1  0.177614  0.177216  0.000000  1
