# generated using pymatgen
data_Ta12Al7Cr5N4
_symmetry_space_group_name_H-M   'P 1'
_cell_length_a   8.22197529
_cell_length_b   8.22197540
_cell_length_c   8.22197543
_cell_angle_alpha   59.83085253
_cell_angle_beta   59.83085186
_cell_angle_gamma   59.83085178
_symmetry_Int_Tables_number   1
_chemical_formula_structural   Ta12Al7Cr5N4
_chemical_formula_sum   'Ta12 Al7 Cr5 N4'
_cell_volume   391.51014704
_cell_formula_units_Z   1
loop_
 _symmetry_equiv_pos_site_id
 _symmetry_equiv_pos_as_xyz
  1  'x, y, z'
loop_
 _atom_site_type_symbol
 _atom_site_label
 _atom_site_symmetry_multiplicity
 _atom_site_fract_x
 _atom_site_fract_y
 _atom_site_fract_z
 _atom_site_occupancy
  Ta  Ta0  1  0.806362  0.806362  0.190705  1
  Ta  Ta1  1  0.195041  0.195041  0.805617  1
  Ta  Ta2  1  0.806362  0.190705  0.806362  1
  Ta  Ta3  1  0.195041  0.805617  0.195041  1
  Ta  Ta4  1  0.190705  0.806362  0.806362  1
  Ta  Ta5  1  0.805617  0.195041  0.195041  1
  Ta  Ta6  1  0.445394  0.445394  0.053986  1
  Ta  Ta7  1  0.056389  0.056389  0.442985  1
  Ta  Ta8  1  0.445394  0.053986  0.445394  1
  Ta  Ta9  1  0.056389  0.442985  0.056389  1
  Ta  Ta10  1  0.053986  0.445394  0.445394  1
  Ta  Ta11  1  0.442985  0.056389  0.056389  1
  Al  Al12  1  0.751928  0.416198  0.416198  1
  Al  Al13  1  0.416198  0.751928  0.416198  1
  Al  Al14  1  0.416198  0.416198  0.751928  1
  Al  Al15  1  0.416636  0.416636  0.416636  1
  Al  Al16  1  0.497336  0.833032  0.833032  1
  Al  Al17  1  0.833032  0.497336  0.833032  1
  Al  Al18  1  0.833032  0.833032  0.497336  1
  Cr  Cr19  1  0.114724  0.636097  0.636097  1
  Cr  Cr20  1  0.636097  0.114724  0.636097  1
  Cr  Cr21  1  0.636097  0.636097  0.114724  1
  Cr  Cr22  1  0.624223  0.624223  0.624223  1
  Cr  Cr23  1  0.825382  0.825382  0.825382  1
  N  N24  1  0.625601  0.124437  0.124437  1
  N  N25  1  0.124437  0.625601  0.124437  1
  N  N26  1  0.124437  0.124437  0.625601  1
  N  N27  1  0.124975  0.124975  0.124975  1
