# generated using pymatgen
data_Y2Ho2Al4OsPd3
_symmetry_space_group_name_H-M   'P 1'
_cell_length_a   4.35541400
_cell_length_b   6.90723744
_cell_length_c   7.88447008
_cell_angle_alpha   89.95985545
_cell_angle_beta   90.00000000
_cell_angle_gamma   90.00000000
_symmetry_Int_Tables_number   1
_chemical_formula_structural   Y2Ho2Al4OsPd3
_chemical_formula_sum   'Y2 Ho2 Al4 Os1 Pd3'
_cell_volume   237.19538275
_cell_formula_units_Z   1
loop_
 _symmetry_equiv_pos_site_id
 _symmetry_equiv_pos_as_xyz
  1  'x, y, z'
loop_
 _atom_site_type_symbol
 _atom_site_label
 _atom_site_symmetry_multiplicity
 _atom_site_fract_x
 _atom_site_fract_y
 _atom_site_fract_z
 _atom_site_occupancy
  Y  Y0  1  0.250000  0.034174  0.678783  1
  Y  Y1  1  0.250000  0.530005  0.818891  1
  Ho  Ho2  1  0.750000  0.981028  0.320706  1
  Ho  Ho3  1  0.750000  0.464289  0.186337  1
  Al  Al4  1  0.250000  0.146429  0.065163  1
  Al  Al5  1  0.250000  0.638584  0.436883  1
  Al  Al6  1  0.750000  0.855587  0.938663  1
  Al  Al7  1  0.750000  0.352984  0.558527  1
  Os  Os8  1  0.250000  0.267813  0.378490  1
  Pd  Pd9  1  0.250000  0.773835  0.117456  1
  Pd  Pd10  1  0.750000  0.727680  0.618927  1
  Pd  Pd11  1  0.750000  0.227595  0.881173  1
