# generated using pymatgen
data_Lu2Sn(PRh2)6
_symmetry_space_group_name_H-M   'P 1'
_cell_length_a   9.75277900
_cell_length_b   9.75277843
_cell_length_c   3.85761100
_cell_angle_alpha   90.00000000
_cell_angle_beta   90.00000000
_cell_angle_gamma   119.99999855
_symmetry_Int_Tables_number   1
_chemical_formula_structural   Lu2Sn(PRh2)6
_chemical_formula_sum   'Lu2 Sn1 P6 Rh12'
_cell_volume   317.76481695
_cell_formula_units_Z   1
loop_
 _symmetry_equiv_pos_site_id
 _symmetry_equiv_pos_as_xyz
  1  'x, y, z'
loop_
 _atom_site_type_symbol
 _atom_site_label
 _atom_site_symmetry_multiplicity
 _atom_site_fract_x
 _atom_site_fract_y
 _atom_site_fract_z
 _atom_site_occupancy
  Lu  Lu0  1  0.333333  0.666667  0.751433  1
  Lu  Lu1  1  0.666667  0.333333  0.248567  1
  Sn  Sn2  1  0.000000  0.000000  0.500000  1
  P  P3  1  0.406858  0.287558  0.746742  1
  P  P4  1  0.712442  0.119301  0.746742  1
  P  P5  1  0.880699  0.593142  0.746742  1
  P  P6  1  0.593142  0.712442  0.253258  1
  P  P7  1  0.287558  0.880699  0.253258  1
  P  P8  1  0.119301  0.406858  0.253258  1
  Rh  Rh9  1  0.455353  0.069578  0.747581  1
  Rh  Rh10  1  0.930422  0.385773  0.747581  1
  Rh  Rh11  1  0.614227  0.544647  0.747581  1
  Rh  Rh12  1  0.544647  0.930422  0.252419  1
  Rh  Rh13  1  0.069578  0.614227  0.252419  1
  Rh  Rh14  1  0.385773  0.455353  0.252419  1
  Rh  Rh15  1  0.161907  0.288039  0.758501  1
  Rh  Rh16  1  0.711961  0.873868  0.758501  1
  Rh  Rh17  1  0.126132  0.838093  0.758501  1
  Rh  Rh18  1  0.838093  0.711961  0.241499  1
  Rh  Rh19  1  0.288039  0.126132  0.241499  1
  Rh  Rh20  1  0.873868  0.161907  0.241499  1
