# generated using pymatgen
data_Pr5FeOsO12
_symmetry_space_group_name_H-M   'P 1'
_cell_length_a   7.11068200
_cell_length_b   7.11068175
_cell_length_c   7.66397508
_cell_angle_alpha   74.48674522
_cell_angle_beta   74.48674444
_cell_angle_gamma   51.02437449
_symmetry_Int_Tables_number   1
_chemical_formula_structural   Pr5FeOsO12
_chemical_formula_sum   'Pr5 Fe1 Os1 O12'
_cell_volume   287.71802118
_cell_formula_units_Z   1
loop_
 _symmetry_equiv_pos_site_id
 _symmetry_equiv_pos_as_xyz
  1  'x, y, z'
loop_
 _atom_site_type_symbol
 _atom_site_label
 _atom_site_symmetry_multiplicity
 _atom_site_fract_x
 _atom_site_fract_y
 _atom_site_fract_z
 _atom_site_occupancy
  Pr  Pr0  1  0.313436  0.298571  0.357819  1
  Pr  Pr1  1  0.701429  0.686564  0.642181  1
  Pr  Pr2  1  0.692614  0.694248  0.165756  1
  Pr  Pr3  1  0.305752  0.307386  0.834244  1
  Pr  Pr4  1  0.005875  0.994125  0.500000  1
  Fe  Fe5  1  0.755105  0.244895  0.000000  1
  Os  Os6  1  0.238827  0.761173  0.000000  1
  O  O7  1  0.097971  0.594324  0.576294  1
  O  O8  1  0.010787  0.987203  0.176005  1
  O  O9  1  0.405676  0.902029  0.423706  1
  O  O10  1  0.482998  0.518912  0.173904  1
  O  O11  1  0.101478  0.586274  0.078072  1
  O  O12  1  0.907724  0.401939  0.420827  1
  O  O13  1  0.012797  0.989213  0.823995  1
  O  O14  1  0.598061  0.092275  0.579173  1
  O  O15  1  0.481088  0.517002  0.826096  1
  O  O16  1  0.577502  0.102846  0.078090  1
  O  O17  1  0.413726  0.898522  0.921928  1
  O  O18  1  0.897154  0.422498  0.921910  1
