# generated using pymatgen
data_Ba6Na2Sn4PdS16
_symmetry_space_group_name_H-M   'P 1'
_cell_length_a   12.90985948
_cell_length_b   12.90985979
_cell_length_c   12.90986000
_cell_angle_alpha   109.77103051
_cell_angle_beta   109.77103101
_cell_angle_gamma   108.87324677
_symmetry_Int_Tables_number   1
_chemical_formula_structural   Ba6Na2Sn4PdS16
_chemical_formula_sum   'Ba12 Na4 Sn8 Pd2 S32'
_cell_volume   1656.17896815
_cell_formula_units_Z   2
loop_
 _symmetry_equiv_pos_site_id
 _symmetry_equiv_pos_as_xyz
  1  'x, y, z'
loop_
 _atom_site_type_symbol
 _atom_site_label
 _atom_site_symmetry_multiplicity
 _atom_site_fract_x
 _atom_site_fract_y
 _atom_site_fract_z
 _atom_site_occupancy
  Ba  Ba0  1  0.350022  0.350024  0.999998  1
  Ba  Ba1  1  0.624998  0.897439  0.772439  1
  Ba  Ba2  1  0.102566  0.875003  0.727566  1
  Ba  Ba3  1  0.624997  0.612172  0.487171  1
  Ba  Ba4  1  0.147437  0.374999  0.272436  1
  Ba  Ba5  1  0.649977  0.649981  0.000006  1
  Ba  Ba6  1  0.387832  0.874997  0.012829  1
  Ba  Ba7  1  0.125004  0.852564  0.227564  1
  Ba  Ba8  1  0.899979  0.399976  0.500005  1
  Ba  Ba9  1  0.862171  0.374997  0.987170  1
  Ba  Ba10  1  0.600024  0.100021  0.499998  1
  Ba  Ba11  1  0.124998  0.137831  0.512829  1
  Na  Na12  1  0.625000  0.253909  0.128907  1
  Na  Na13  1  0.503878  0.375000  0.628877  1
  Na  Na14  1  0.124999  0.496092  0.871091  1
  Na  Na15  1  0.746122  0.874999  0.371121  1
  Sn  Sn16  1  0.409205  0.115083  0.752283  1
  Sn  Sn17  1  0.906927  0.112800  0.747725  1
  Sn  Sn18  1  0.884928  0.637198  0.294126  1
  Sn  Sn19  1  0.343077  0.590795  0.705877  1
  Sn  Sn20  1  0.840794  0.093077  0.205878  1
  Sn  Sn21  1  0.887190  0.634925  0.794122  1
  Sn  Sn22  1  0.365075  0.159204  0.252281  1
  Sn  Sn23  1  0.362802  0.656927  0.247725  1
  Pd  Pd24  1  0.249997  0.749999  0.499996  1
  Pd  Pd25  1  0.999999  0.999997  0.999996  1
  S  S26  1  0.599655  0.130094  0.757028  1
  S  S27  1  0.863293  0.289681  0.213297  1
  S  S28  1  0.910217  0.123328  0.946162  1
  S  S29  1  0.697306  0.461933  0.096041  1
  S  S30  1  0.092606  0.123052  0.742944  1
  S  S31  1  0.072833  0.626676  0.286884  1
  S  S32  1  0.710315  0.923613  0.573619  1
  S  S33  1  0.373327  0.660215  0.446161  1
  S  S34  1  0.386708  0.100005  0.926393  1
  S  S35  1  0.035943  0.089783  0.213114  1
  S  S36  1  0.876676  0.822832  0.786885  1
  S  S37  1  0.177169  0.964052  0.053841  1
  S  S38  1  0.539687  0.613299  0.713301  1
  S  S39  1  0.157388  0.400347  0.530439  1
  S  S40  1  0.869893  0.626937  0.469553  1
  S  S41  1  0.380096  0.349650  0.257030  1
  S  S42  1  0.339780  0.785941  0.713113  1
  S  S43  1  0.076385  0.650004  0.786704  1
  S  S44  1  0.876937  0.619895  0.969559  1
  S  S45  1  0.650344  0.907383  0.030436  1
  S  S46  1  0.711928  0.447305  0.596041  1
  S  S47  1  0.398743  0.302702  0.764628  1
  S  S48  1  0.349999  0.136701  0.426390  1
  S  S49  1  0.552701  0.148742  0.264633  1
  S  S50  1  0.365877  0.601254  0.903958  1
  S  S51  1  0.884121  0.288079  0.735378  1
  S  S52  1  0.538085  0.634124  0.235381  1
  S  S53  1  0.173619  0.460320  0.073618  1
  S  S54  1  0.214053  0.927169  0.553843  1
  S  S55  1  0.851255  0.115874  0.403959  1
  S  S56  1  0.373054  0.842610  0.242946  1
  S  S57  1  0.900011  0.826390  0.286705  1
