# generated using pymatgen
data_Tb6Er3TmPb6
_symmetry_space_group_name_H-M   'P 1'
_cell_length_a   9.05303800
_cell_length_b   9.05303810
_cell_length_c   6.62258800
_cell_angle_alpha   90.00000000
_cell_angle_beta   90.00000000
_cell_angle_gamma   119.99999965
_symmetry_Int_Tables_number   1
_chemical_formula_structural   Tb6Er3TmPb6
_chemical_formula_sum   'Tb6 Er3 Tm1 Pb6'
_cell_volume   470.05325273
_cell_formula_units_Z   1
loop_
 _symmetry_equiv_pos_site_id
 _symmetry_equiv_pos_as_xyz
  1  'x, y, z'
loop_
 _atom_site_type_symbol
 _atom_site_label
 _atom_site_symmetry_multiplicity
 _atom_site_fract_x
 _atom_site_fract_y
 _atom_site_fract_z
 _atom_site_occupancy
  Tb  Tb0  1  0.760771  0.760732  0.750059  1
  Tb  Tb1  1  0.239268  0.000040  0.750059  1
  Tb  Tb2  1  0.999960  0.239229  0.750059  1
  Tb  Tb3  1  0.239268  0.239229  0.249941  1
  Tb  Tb4  1  0.760771  0.000040  0.249941  1
  Tb  Tb5  1  0.999960  0.760732  0.249941  1
  Er  Er6  1  0.333333  0.666667  0.000000  1
  Er  Er7  1  0.333333  0.666667  0.500000  1
  Er  Er8  1  0.666667  0.333333  0.500000  1
  Tm  Tm9  1  0.666667  0.333333  0.000000  1
  Pb  Pb10  1  0.395145  0.394964  0.750154  1
  Pb  Pb11  1  0.605036  0.000181  0.750154  1
  Pb  Pb12  1  0.999819  0.604855  0.750154  1
  Pb  Pb13  1  0.605036  0.604855  0.249846  1
  Pb  Pb14  1  0.395145  0.000181  0.249846  1
  Pb  Pb15  1  0.999819  0.394964  0.249846  1
