# generated using pymatgen
data_Nd5Tl2Ga
_symmetry_space_group_name_H-M   'P 1'
_cell_length_a   9.35731398
_cell_length_b   9.35726611
_cell_length_c   9.35731297
_cell_angle_alpha   96.35353886
_cell_angle_beta   96.33700574
_cell_angle_gamma   141.16590550
_symmetry_Int_Tables_number   1
_chemical_formula_structural   Nd5Tl2Ga
_chemical_formula_sum   'Nd10 Tl4 Ga2'
_cell_volume   484.54403354
_cell_formula_units_Z   2
loop_
 _symmetry_equiv_pos_site_id
 _symmetry_equiv_pos_as_xyz
  1  'x, y, z'
loop_
 _atom_site_type_symbol
 _atom_site_label
 _atom_site_symmetry_multiplicity
 _atom_site_fract_x
 _atom_site_fract_y
 _atom_site_fract_z
 _atom_site_occupancy
  Nd  Nd0  1  0.750000  0.250000  0.500000  1
  Nd  Nd1  1  0.250000  0.750000  0.500000  1
  Nd  Nd2  1  0.211053  0.918509  0.129563  1
  Nd  Nd3  1  0.081484  0.211065  0.292552  1
  Nd  Nd4  1  0.918516  0.788935  0.707448  1
  Nd  Nd5  1  0.788947  0.081491  0.870437  1
  Nd  Nd6  1  0.418514  0.711065  0.129583  1
  Nd  Nd7  1  0.581486  0.288935  0.870417  1
  Nd  Nd8  1  0.711054  0.581491  0.292544  1
  Nd  Nd9  1  0.288946  0.418509  0.707456  1
  Tl  Tl10  1  0.661968  0.838020  0.499987  1
  Tl  Tl11  1  0.161967  0.661980  0.823948  1
  Tl  Tl12  1  0.838033  0.338020  0.176052  1
  Tl  Tl13  1  0.338032  0.161980  0.500013  1
  Ga  Ga14  1  0.249999  0.250000  0.999999  1
  Ga  Ga15  1  0.750001  0.750000  0.000001  1
