# generated using pymatgen
data_LaPr4(PdO6)2
_symmetry_space_group_name_H-M   'P 1'
_cell_length_a   7.17602681
_cell_length_b   7.17602744
_cell_length_c   7.67156406
_cell_angle_alpha   74.54212440
_cell_angle_beta   74.54211944
_cell_angle_gamma   50.51484086
_symmetry_Int_Tables_number   1
_chemical_formula_structural   LaPr4(PdO6)2
_chemical_formula_sum   'La1 Pr4 Pd2 O12'
_cell_volume   291.35457180
_cell_formula_units_Z   1
loop_
 _symmetry_equiv_pos_site_id
 _symmetry_equiv_pos_as_xyz
  1  'x, y, z'
loop_
 _atom_site_type_symbol
 _atom_site_label
 _atom_site_symmetry_multiplicity
 _atom_site_fract_x
 _atom_site_fract_y
 _atom_site_fract_z
 _atom_site_occupancy
  La  La0  1  0.000000  0.000000  0.500000  1
  Pr  Pr1  1  0.304444  0.304444  0.357192  1
  Pr  Pr2  1  0.695556  0.695556  0.642808  1
  Pr  Pr3  1  0.695329  0.695329  0.163122  1
  Pr  Pr4  1  0.304671  0.304671  0.836878  1
  Pd  Pd5  1  0.753565  0.246435  0.000000  1
  Pd  Pd6  1  0.246435  0.753565  0.000000  1
  O  O7  1  0.094736  0.597525  0.576792  1
  O  O8  1  0.999508  0.999508  0.173410  1
  O  O9  1  0.402475  0.905264  0.423208  1
  O  O10  1  0.500518  0.500518  0.176009  1
  O  O11  1  0.100808  0.574713  0.080334  1
  O  O12  1  0.905264  0.402475  0.423208  1
  O  O13  1  0.000492  0.000492  0.826590  1
  O  O14  1  0.597525  0.094735  0.576792  1
  O  O15  1  0.499482  0.499482  0.823991  1
  O  O16  1  0.574713  0.100808  0.080334  1
  O  O17  1  0.425287  0.899192  0.919666  1
  O  O18  1  0.899192  0.425287  0.919666  1
