# generated using pymatgen
data_Tm4Co5(Ni3B2)3
_symmetry_space_group_name_H-M   'P 1'
_cell_length_a   4.94861273
_cell_length_b   4.94861250
_cell_length_c   13.02883200
_cell_angle_alpha   90.00000000
_cell_angle_beta   90.00000000
_cell_angle_gamma   119.66835940
_symmetry_Int_Tables_number   1
_chemical_formula_structural   Tm4Co5(Ni3B2)3
_chemical_formula_sum   'Tm4 Co5 Ni9 B6'
_cell_volume   277.23285082
_cell_formula_units_Z   1
loop_
 _symmetry_equiv_pos_site_id
 _symmetry_equiv_pos_as_xyz
  1  'x, y, z'
loop_
 _atom_site_type_symbol
 _atom_site_label
 _atom_site_symmetry_multiplicity
 _atom_site_fract_x
 _atom_site_fract_y
 _atom_site_fract_z
 _atom_site_occupancy
  Tm  Tm0  1  0.000000  0.000000  0.000930  1
  Tm  Tm1  1  0.000000  0.000000  0.498599  1
  Tm  Tm2  1  0.000000  0.000000  0.738563  1
  Tm  Tm3  1  0.000000  0.000000  0.262449  1
  Co  Co4  1  0.500000  0.000000  0.616450  1
  Co  Co5  1  0.000000  0.500000  0.616450  1
  Co  Co6  1  0.500000  0.500000  0.382705  1
  Co  Co7  1  0.500000  0.000000  0.383204  1
  Co  Co8  1  0.000000  0.500000  0.383204  1
  Ni  Ni9  1  0.666357  0.333643  0.000226  1
  Ni  Ni10  1  0.333643  0.666357  0.000226  1
  Ni  Ni11  1  0.500000  0.500000  0.843894  1
  Ni  Ni12  1  0.500000  0.000000  0.844291  1
  Ni  Ni13  1  0.000000  0.500000  0.844291  1
  Ni  Ni14  1  0.500000  0.500000  0.156652  1
  Ni  Ni15  1  0.500000  0.000000  0.156325  1
  Ni  Ni16  1  0.000000  0.500000  0.156325  1
  Ni  Ni17  1  0.500000  0.500000  0.616479  1
  B  B18  1  0.669124  0.330876  0.498596  1
  B  B19  1  0.330876  0.669124  0.498596  1
  B  B20  1  0.669873  0.330127  0.731358  1
  B  B21  1  0.330127  0.669873  0.731358  1
  B  B22  1  0.332999  0.667001  0.269414  1
  B  B23  1  0.667001  0.332999  0.269414  1
