# generated using pymatgen
data_PrNd5Np2O14
_symmetry_space_group_name_H-M   'P 1'
_cell_length_a   6.79856938
_cell_length_b   6.79856916
_cell_length_c   7.94744146
_cell_angle_alpha   90.10914658
_cell_angle_beta   89.89084932
_cell_angle_gamma   109.97136204
_symmetry_Int_Tables_number   1
_chemical_formula_structural   PrNd5Np2O14
_chemical_formula_sum   'Pr1 Nd5 Np2 O14'
_cell_volume   345.24387233
_cell_formula_units_Z   1
loop_
 _symmetry_equiv_pos_site_id
 _symmetry_equiv_pos_as_xyz
  1  'x, y, z'
loop_
 _atom_site_type_symbol
 _atom_site_label
 _atom_site_symmetry_multiplicity
 _atom_site_fract_x
 _atom_site_fract_y
 _atom_site_fract_z
 _atom_site_occupancy
  Pr  Pr0  1  0.500000  0.500000  0.500000  1
  Nd  Nd1  1  0.500000  0.500000  0.000000  1
  Nd  Nd2  1  0.533452  0.002136  0.750500  1
  Nd  Nd3  1  0.002136  0.533452  0.249500  1
  Nd  Nd4  1  0.466548  0.997864  0.249500  1
  Nd  Nd5  1  0.997864  0.466548  0.750500  1
  Np  Np6  1  0.000000  0.000000  0.500000  1
  Np  Np7  1  0.000000  0.000000  0.000000  1
  O  O8  1  0.673064  0.919553  0.471428  1
  O  O9  1  0.919553  0.673064  0.528572  1
  O  O10  1  0.672447  0.920133  0.028213  1
  O  O11  1  0.920133  0.672447  0.971787  1
  O  O12  1  0.326936  0.080447  0.528572  1
  O  O13  1  0.080447  0.326936  0.471428  1
  O  O14  1  0.327553  0.079867  0.971787  1
  O  O15  1  0.079867  0.327553  0.028213  1
  O  O16  1  0.914381  0.085619  0.750448  1
  O  O17  1  0.085619  0.914381  0.249552  1
  O  O18  1  0.368381  0.631619  0.751645  1
  O  O19  1  0.631619  0.368381  0.248355  1
  O  O20  1  0.634059  0.365941  0.751238  1
  O  O21  1  0.365941  0.634059  0.248762  1
