# generated using pymatgen
data_Ho4Ga2TcOs5
_symmetry_space_group_name_H-M   'P 1'
_cell_length_a   5.34547634
_cell_length_b   5.34547580
_cell_length_c   8.79190900
_cell_angle_alpha   90.00000000
_cell_angle_beta   90.00000000
_cell_angle_gamma   119.10335518
_symmetry_Int_Tables_number   1
_chemical_formula_structural   Ho4Ga2TcOs5
_chemical_formula_sum   'Ho4 Ga2 Tc1 Os5'
_cell_volume   219.50278865
_cell_formula_units_Z   1
loop_
 _symmetry_equiv_pos_site_id
 _symmetry_equiv_pos_as_xyz
  1  'x, y, z'
loop_
 _atom_site_type_symbol
 _atom_site_label
 _atom_site_symmetry_multiplicity
 _atom_site_fract_x
 _atom_site_fract_y
 _atom_site_fract_z
 _atom_site_occupancy
  Ho  Ho0  1  0.328029  0.671971  0.443296  1
  Ho  Ho1  1  0.661906  0.338094  0.569343  1
  Ho  Ho2  1  0.661906  0.338094  0.930657  1
  Ho  Ho3  1  0.328029  0.671971  0.056704  1
  Ga  Ga4  1  0.839552  0.653560  0.250000  1
  Ga  Ga5  1  0.346440  0.160448  0.250000  1
  Tc  Tc6  1  0.840263  0.159737  0.250000  1
  Os  Os7  1  0.988932  0.011068  0.498267  1
  Os  Os8  1  0.988932  0.011068  0.001733  1
  Os  Os9  1  0.182188  0.817812  0.750000  1
  Os  Os10  1  0.162533  0.328710  0.750000  1
  Os  Os11  1  0.671290  0.837467  0.750000  1
