# generated using pymatgen
data_Nd4InRh
_symmetry_space_group_name_H-M   'P 1'
_cell_length_a   9.98407919
_cell_length_b   9.98537159
_cell_length_c   9.98604000
_cell_angle_alpha   59.99652311
_cell_angle_beta   59.99272204
_cell_angle_gamma   60.00726134
_symmetry_Int_Tables_number   1
_chemical_formula_structural   Nd4InRh
_chemical_formula_sum   'Nd16 In4 Rh4'
_cell_volume   703.94555383
_cell_formula_units_Z   4
loop_
 _symmetry_equiv_pos_site_id
 _symmetry_equiv_pos_as_xyz
  1  'x, y, z'
loop_
 _atom_site_type_symbol
 _atom_site_label
 _atom_site_symmetry_multiplicity
 _atom_site_fract_x
 _atom_site_fract_y
 _atom_site_fract_z
 _atom_site_occupancy
  Nd  Nd0  1  0.689952  0.310080  0.310059  1
  Nd  Nd1  1  0.689935  0.689900  0.310078  1
  Nd  Nd2  1  0.310121  0.689950  0.310001  1
  Nd  Nd3  1  0.938277  0.938360  0.561682  1
  Nd  Nd4  1  0.149997  0.150063  0.549876  1
  Nd  Nd5  1  0.561733  0.938284  0.561682  1
  Nd  Nd6  1  0.150011  0.150055  0.150055  1
  Nd  Nd7  1  0.310110  0.310016  0.689945  1
  Nd  Nd8  1  0.938259  0.561695  0.561693  1
  Nd  Nd9  1  0.561720  0.561688  0.938299  1
  Nd  Nd10  1  0.561738  0.938281  0.938308  1
  Nd  Nd11  1  0.938249  0.561695  0.938356  1
  Nd  Nd12  1  0.150005  0.549874  0.150066  1
  Nd  Nd13  1  0.310110  0.689951  0.689941  1
  Nd  Nd14  1  0.689940  0.310083  0.689910  1
  Nd  Nd15  1  0.549778  0.150065  0.150063  1
  In  In16  1  0.918495  0.918457  0.244575  1
  In  In17  1  0.244550  0.918477  0.918488  1
  In  In18  1  0.918497  0.244572  0.918466  1
  In  In19  1  0.918495  0.918459  0.918474  1
  Rh  Rh20  1  0.357367  0.357396  0.357359  1
  Rh  Rh21  1  0.927921  0.357357  0.357366  1
  Rh  Rh22  1  0.357380  0.357384  0.927872  1
  Rh  Rh23  1  0.357359  0.927859  0.357385  1
