# generated using pymatgen
data_HfNbAl3Cu
_symmetry_space_group_name_H-M   'P 1'
_cell_length_a   5.05359867
_cell_length_b   5.05359873
_cell_length_c   5.05360016
_cell_angle_alpha   61.95665570
_cell_angle_beta   61.95665847
_cell_angle_gamma   61.95666272
_symmetry_Int_Tables_number   1
_chemical_formula_structural   HfNbAl3Cu
_chemical_formula_sum   'Hf1 Nb1 Al3 Cu1'
_cell_volume   95.25682936
_cell_formula_units_Z   1
loop_
 _symmetry_equiv_pos_site_id
 _symmetry_equiv_pos_as_xyz
  1  'x, y, z'
loop_
 _atom_site_type_symbol
 _atom_site_label
 _atom_site_symmetry_multiplicity
 _atom_site_fract_x
 _atom_site_fract_y
 _atom_site_fract_z
 _atom_site_occupancy
  Hf  Hf0  1  0.876805  0.876805  0.876805  1
  Nb  Nb1  1  0.123691  0.123691  0.123691  1
  Al  Al2  1  0.001237  0.498989  0.498989  1
  Al  Al3  1  0.498989  0.498989  0.001237  1
  Al  Al4  1  0.498989  0.001237  0.498989  1
  Cu  Cu5  1  0.500289  0.500289  0.500289  1
