# generated using pymatgen
data_Dy3Tm5(B6Rh)4
_symmetry_space_group_name_H-M   'P 1'
_cell_length_a   3.63510700
_cell_length_b   9.12912600
_cell_length_c   11.46894100
_cell_angle_alpha   90.00243781
_cell_angle_beta   90.00000000
_cell_angle_gamma   90.00000000
_symmetry_Int_Tables_number   1
_chemical_formula_structural   Dy3Tm5(B6Rh)4
_chemical_formula_sum   'Dy3 Tm5 B24 Rh4'
_cell_volume   380.60081905
_cell_formula_units_Z   1
loop_
 _symmetry_equiv_pos_site_id
 _symmetry_equiv_pos_as_xyz
  1  'x, y, z'
loop_
 _atom_site_type_symbol
 _atom_site_label
 _atom_site_symmetry_multiplicity
 _atom_site_fract_x
 _atom_site_fract_y
 _atom_site_fract_z
 _atom_site_occupancy
  Dy  Dy0  1  0.500000  0.322103  0.413591  1
  Dy  Dy1  1  0.500000  0.678007  0.586267  1
  Dy  Dy2  1  0.500000  0.177913  0.913812  1
  Tm  Tm3  1  0.500000  0.821689  0.086225  1
  Tm  Tm4  1  0.500000  0.444442  0.126784  1
  Tm  Tm5  1  0.500000  0.556027  0.873543  1
  Tm  Tm6  1  0.500000  0.055714  0.626911  1
  Tm  Tm7  1  0.500000  0.944198  0.372884  1
  B  B8  1  0.000000  0.107041  0.470895  1
  B  B9  1  0.000000  0.892763  0.528844  1
  B  B10  1  0.000000  0.392205  0.970977  1
  B  B11  1  0.000000  0.608813  0.029474  1
  B  B12  1  0.000000  0.132462  0.316337  1
  B  B13  1  0.000000  0.867359  0.683468  1
  B  B14  1  0.000000  0.367435  0.816792  1
  B  B15  1  0.000000  0.633284  0.182937  1
  B  B16  1  0.000000  0.053497  0.065558  1
  B  B17  1  0.000000  0.945224  0.935214  1
  B  B18  1  0.000000  0.445761  0.565599  1
  B  B19  1  0.000000  0.554430  0.434128  1
  B  B20  1  0.000000  0.483288  0.286134  1
  B  B21  1  0.000000  0.517179  0.713903  1
  B  B22  1  0.000000  0.016758  0.786453  1
  B  B23  1  0.000000  0.982157  0.213072  1
  B  B24  1  0.000000  0.250129  0.079891  1
  B  B25  1  0.000000  0.750064  0.921147  1
  B  B26  1  0.000000  0.249698  0.579757  1
  B  B27  1  0.000000  0.750374  0.419876  1
  B  B28  1  0.000000  0.294402  0.235629  1
  B  B29  1  0.000000  0.705719  0.764567  1
  B  B30  1  0.000000  0.205491  0.735982  1
  B  B31  1  0.000000  0.794879  0.263298  1
  Rh  Rh32  1  0.500000  0.139084  0.179151  1
  Rh  Rh33  1  0.500000  0.859755  0.821309  1
  Rh  Rh34  1  0.500000  0.359847  0.679685  1
  Rh  Rh35  1  0.500000  0.640809  0.319908  1
