# generated using pymatgen
data_Nb4Fe3Co3Os2
_symmetry_space_group_name_H-M   'P 1'
_cell_length_a   4.83048000
_cell_length_b   4.83048053
_cell_length_c   8.12679600
_cell_angle_alpha   90.00000000
_cell_angle_beta   90.00000000
_cell_angle_gamma   119.99999640
_symmetry_Int_Tables_number   1
_chemical_formula_structural   Nb4Fe3Co3Os2
_chemical_formula_sum   'Nb4 Fe3 Co3 Os2'
_cell_volume   164.22173251
_cell_formula_units_Z   1
loop_
 _symmetry_equiv_pos_site_id
 _symmetry_equiv_pos_as_xyz
  1  'x, y, z'
loop_
 _atom_site_type_symbol
 _atom_site_label
 _atom_site_symmetry_multiplicity
 _atom_site_fract_x
 _atom_site_fract_y
 _atom_site_fract_z
 _atom_site_occupancy
  Nb  Nb0  1  0.666667  0.333334  0.072052  1
  Nb  Nb1  1  0.666667  0.333334  0.427948  1
  Nb  Nb2  1  0.333333  0.666666  0.568642  1
  Nb  Nb3  1  0.333333  0.666666  0.931358  1
  Fe  Fe4  1  0.345090  0.172545  0.750000  1
  Fe  Fe5  1  0.827454  0.172545  0.750000  1
  Fe  Fe6  1  0.827454  0.654909  0.750000  1
  Co  Co7  1  0.171134  0.342269  0.249999  1
  Co  Co8  1  0.171135  0.828866  0.249999  1
  Co  Co9  1  0.657731  0.828866  0.249999  1
  Os  Os10  1  0.000000  0.000000  0.002936  1
  Os  Os11  1  0.000000  0.000000  0.497064  1
