# generated using pymatgen
data_Tb15Ho2Er3Sn16
_symmetry_space_group_name_H-M   'P 1'
_cell_length_a   8.03946205
_cell_length_b   8.19253041
_cell_length_c   15.49950500
_cell_angle_alpha   90.00854201
_cell_angle_beta   90.00529643
_cell_angle_gamma   90.03296932
_symmetry_Int_Tables_number   1
_chemical_formula_structural   Tb15Ho2Er3Sn16
_chemical_formula_sum   'Tb15 Ho2 Er3 Sn16'
_cell_volume   1020.85204216
_cell_formula_units_Z   1
loop_
 _symmetry_equiv_pos_site_id
 _symmetry_equiv_pos_as_xyz
  1  'x, y, z'
loop_
 _atom_site_type_symbol
 _atom_site_label
 _atom_site_symmetry_multiplicity
 _atom_site_fract_x
 _atom_site_fract_y
 _atom_site_fract_z
 _atom_site_occupancy
  Tb  Tb0  1  0.867384  0.664038  0.621894  1
  Tb  Tb1  1  0.632401  0.163902  0.378278  1
  Tb  Tb2  1  0.132607  0.335980  0.121372  1
  Tb  Tb3  1  0.632499  0.164049  0.121762  1
  Tb  Tb4  1  0.132430  0.336028  0.378278  1
  Tb  Tb5  1  0.367611  0.836112  0.621822  1
  Tb  Tb6  1  0.867650  0.663927  0.878392  1
  Tb  Tb7  1  0.520050  0.319778  0.902360  1
  Tb  Tb8  1  0.020113  0.179953  0.597793  1
  Tb  Tb9  1  0.479954  0.680087  0.402330  1
  Tb  Tb10  1  0.979748  0.819855  0.097719  1
  Tb  Tb11  1  0.479844  0.680162  0.097387  1
  Tb  Tb12  1  0.979940  0.819980  0.402287  1
  Tb  Tb13  1  0.520040  0.319972  0.597827  1
  Tb  Tb14  1  0.020182  0.179881  0.902243  1
  Ho  Ho15  1  0.367424  0.836322  0.878016  1
  Ho  Ho16  1  0.198624  0.502563  0.750259  1
  Er  Er17  1  0.698298  0.997462  0.750178  1
  Er  Er18  1  0.801639  0.497677  0.249985  1
  Er  Er19  1  0.301597  0.002264  0.249843  1
  Sn  Sn20  1  0.292576  0.034000  0.041657  1
  Sn  Sn21  1  0.792490  0.465304  0.457591  1
  Sn  Sn22  1  0.707575  0.965216  0.542449  1
  Sn  Sn23  1  0.208421  0.535987  0.957426  1
  Sn  Sn24  1  0.706167  0.964901  0.957407  1
  Sn  Sn25  1  0.207440  0.534785  0.542404  1
  Sn  Sn26  1  0.292456  0.034738  0.457555  1
  Sn  Sn27  1  0.792415  0.465329  0.042452  1
  Sn  Sn28  1  0.564510  0.619368  0.750363  1
  Sn  Sn29  1  0.065266  0.881199  0.750446  1
  Sn  Sn30  1  0.435257  0.381325  0.249939  1
  Sn  Sn31  1  0.935296  0.118651  0.249967  1
  Sn  Sn32  1  0.328466  0.146412  0.750293  1
  Sn  Sn33  1  0.828212  0.352975  0.750055  1
  Sn  Sn34  1  0.671765  0.852970  0.249967  1
  Sn  Sn35  1  0.171653  0.646848  0.250001  1
