# generated using pymatgen
data_Eu3Y(Rh2O7)2
_symmetry_space_group_name_H-M   'P 1'
_cell_length_a   7.29970105
_cell_length_b   7.29970072
_cell_length_c   7.29970100
_cell_angle_alpha   60.20086092
_cell_angle_beta   60.20086243
_cell_angle_gamma   60.20086802
_symmetry_Int_Tables_number   1
_chemical_formula_structural   Eu3Y(Rh2O7)2
_chemical_formula_sum   'Eu3 Y1 Rh4 O14'
_cell_volume   276.29372318
_cell_formula_units_Z   1
loop_
 _symmetry_equiv_pos_site_id
 _symmetry_equiv_pos_as_xyz
  1  'x, y, z'
loop_
 _atom_site_type_symbol
 _atom_site_label
 _atom_site_symmetry_multiplicity
 _atom_site_fract_x
 _atom_site_fract_y
 _atom_site_fract_z
 _atom_site_occupancy
  Eu  Eu0  1  0.500000  0.000000  0.500000  1
  Eu  Eu1  1  0.000000  0.500000  0.500000  1
  Eu  Eu2  1  0.500000  0.500000  0.000000  1
  Y  Y3  1  0.500000  0.500000  0.500000  1
  Rh  Rh4  1  0.000000  0.000000  0.000000  1
  Rh  Rh5  1  0.000000  0.500000  0.000000  1
  Rh  Rh6  1  0.500000  0.000000  0.000000  1
  Rh  Rh7  1  0.000000  0.000000  0.500000  1
  O  O8  1  0.622912  0.622912  0.622912  1
  O  O9  1  0.377088  0.377088  0.377088  1
  O  O10  1  0.918592  0.918592  0.331815  1
  O  O11  1  0.331815  0.918592  0.918592  1
  O  O12  1  0.918592  0.331815  0.918592  1
  O  O13  1  0.332359  0.332359  0.911342  1
  O  O14  1  0.911342  0.332359  0.332359  1
  O  O15  1  0.332359  0.911342  0.332359  1
  O  O16  1  0.081408  0.081408  0.668185  1
  O  O17  1  0.668185  0.081408  0.081408  1
  O  O18  1  0.081408  0.668185  0.081408  1
  O  O19  1  0.667641  0.667641  0.088658  1
  O  O20  1  0.088658  0.667641  0.667641  1
  O  O21  1  0.667641  0.088658  0.667641  1
