# generated using pymatgen
data_CaY7SbPd24
_symmetry_space_group_name_H-M   'P 1'
_cell_length_a   8.41742479
_cell_length_b   8.41742479
_cell_length_c   8.41742479
_cell_angle_alpha   89.92316333
_cell_angle_beta   89.92316333
_cell_angle_gamma   90.07683667
_symmetry_Int_Tables_number   1
_chemical_formula_structural   CaY7SbPd24
_chemical_formula_sum   'Ca1 Y7 Sb1 Pd24'
_cell_volume   596.39852521
_cell_formula_units_Z   1
loop_
 _symmetry_equiv_pos_site_id
 _symmetry_equiv_pos_as_xyz
  1  'x, y, z'
loop_
 _atom_site_type_symbol
 _atom_site_label
 _atom_site_symmetry_multiplicity
 _atom_site_fract_x
 _atom_site_fract_y
 _atom_site_fract_z
 _atom_site_occupancy
  Ca  Ca0  1  0.747734  0.747734  0.252266  1
  Y  Y1  1  0.745994  0.254063  0.745937  1
  Y  Y2  1  0.254063  0.745994  0.745937  1
  Y  Y3  1  0.746060  0.746060  0.745582  1
  Y  Y4  1  0.746060  0.254418  0.253940  1
  Y  Y5  1  0.253644  0.253644  0.746356  1
  Y  Y6  1  0.254418  0.746060  0.253940  1
  Y  Y7  1  0.254063  0.254063  0.254006  1
  Sb  Sb8  1  0.998853  0.998853  0.001147  1
  Pd  Pd9  1  0.000927  0.000927  0.306832  1
  Pd  Pd10  1  0.735360  0.002199  0.501051  1
  Pd  Pd11  1  0.735360  0.498949  0.997801  1
  Pd  Pd12  1  0.499430  0.000328  0.735605  1
  Pd  Pd13  1  0.002199  0.735360  0.501051  1
  Pd  Pd14  1  0.498949  0.002199  0.264640  1
  Pd  Pd15  1  0.000328  0.264395  0.500570  1
  Pd  Pd16  1  0.498949  0.735360  0.997801  1
  Pd  Pd17  1  0.254855  0.499597  0.500403  1
  Pd  Pd18  1  0.499597  0.499597  0.745145  1
  Pd  Pd19  1  0.498847  0.498847  0.254318  1
  Pd  Pd20  1  0.499597  0.254855  0.500403  1
  Pd  Pd21  1  0.498847  0.745682  0.501153  1
  Pd  Pd22  1  0.745682  0.498847  0.501153  1
  Pd  Pd23  1  0.305422  0.999960  0.000040  1
  Pd  Pd24  1  0.999960  0.999960  0.694578  1
  Pd  Pd25  1  0.002199  0.498949  0.264640  1
  Pd  Pd26  1  0.999960  0.305422  0.000040  1
  Pd  Pd27  1  0.000927  0.693168  0.999073  1
  Pd  Pd28  1  0.693168  0.000927  0.999073  1
  Pd  Pd29  1  0.264395  0.499430  0.999672  1
  Pd  Pd30  1  0.264395  0.000328  0.500570  1
  Pd  Pd31  1  0.000328  0.499430  0.735605  1
  Pd  Pd32  1  0.499430  0.264395  0.999672  1
