# generated using pymatgen
data_Er3Tm(CuPt)2
_symmetry_space_group_name_H-M   'P 1'
_cell_length_a   4.43008200
_cell_length_b   5.49006957
_cell_length_c   7.07717544
_cell_angle_alpha   89.82309838
_cell_angle_beta   90.00000000
_cell_angle_gamma   90.00000000
_symmetry_Int_Tables_number   1
_chemical_formula_structural   Er3Tm(CuPt)2
_chemical_formula_sum   'Er3 Tm1 Cu2 Pt2'
_cell_volume   172.12640752
_cell_formula_units_Z   1
loop_
 _symmetry_equiv_pos_site_id
 _symmetry_equiv_pos_as_xyz
  1  'x, y, z'
loop_
 _atom_site_type_symbol
 _atom_site_label
 _atom_site_symmetry_multiplicity
 _atom_site_fract_x
 _atom_site_fract_y
 _atom_site_fract_z
 _atom_site_occupancy
  Er  Er0  1  0.000000  0.116386  0.683774  1
  Er  Er1  1  0.000000  0.882824  0.183251  1
  Er  Er2  1  0.500000  0.394239  0.316875  1
  Tm  Tm3  1  0.500000  0.605470  0.816360  1
  Cu  Cu4  1  0.500000  0.893796  0.463729  1
  Cu  Cu5  1  0.500000  0.106267  0.963586  1
  Pt  Pt6  1  0.000000  0.614850  0.537319  1
  Pt  Pt7  1  0.000000  0.386168  0.035108  1
