# generated using pymatgen
data_K2Zr6SCl17
_symmetry_space_group_name_H-M   'P 1'
_cell_length_a   9.79924672
_cell_length_b   9.79924591
_cell_length_c   9.79924700
_cell_angle_alpha   105.22455075
_cell_angle_beta   105.22454946
_cell_angle_gamma   118.34598357
_symmetry_Int_Tables_number   1
_chemical_formula_structural   K2Zr6SCl17
_chemical_formula_sum   'K2 Zr6 S1 Cl17'
_cell_volume   711.14666500
_cell_formula_units_Z   1
loop_
 _symmetry_equiv_pos_site_id
 _symmetry_equiv_pos_as_xyz
  1  'x, y, z'
loop_
 _atom_site_type_symbol
 _atom_site_label
 _atom_site_symmetry_multiplicity
 _atom_site_fract_x
 _atom_site_fract_y
 _atom_site_fract_z
 _atom_site_occupancy
  K  K0  1  0.250007  0.749996  0.500000  1
  K  K1  1  0.749993  0.250004  0.500000  1
  Zr  Zr2  1  0.240869  0.240863  0.000007  1
  Zr  Zr3  1  0.759131  0.759137  0.999993  1
  Zr  Zr4  1  0.193450  0.069255  0.262702  1
  Zr  Zr5  1  0.930744  0.193448  0.124194  1
  Zr  Zr6  1  0.806550  0.930745  0.737298  1
  Zr  Zr7  1  0.069256  0.806552  0.875806  1
  S  S8  1  0.000000  0.000000  0.000000  1
  Cl  Cl9  1  0.868805  0.723224  0.591954  1
  Cl  Cl10  1  0.276803  0.868746  0.145582  1
  Cl  Cl11  1  0.131084  0.605186  0.736267  1
  Cl  Cl12  1  0.540132  0.668970  0.722168  1
  Cl  Cl13  1  0.868916  0.394814  0.263733  1
  Cl  Cl14  1  0.459868  0.331030  0.277832  1
  Cl  Cl15  1  0.817998  0.540123  0.871216  1
  Cl  Cl16  1  0.394785  0.131038  0.525894  1
  Cl  Cl17  1  0.605215  0.868962  0.474106  1
  Cl  Cl18  1  0.131195  0.276776  0.408046  1
  Cl  Cl19  1  0.331042  0.053188  0.871135  1
  Cl  Cl20  1  0.946796  0.817967  0.277889  1
  Cl  Cl21  1  0.723197  0.131254  0.854418  1
  Cl  Cl22  1  0.500000  0.500000  0.000000  1
  Cl  Cl23  1  0.182002  0.459877  0.128784  1
  Cl  Cl24  1  0.053204  0.182033  0.722111  1
  Cl  Cl25  1  0.668958  0.946812  0.128865  1
