# generated using pymatgen
data_Nd4HoIn3
_symmetry_space_group_name_H-M   'P 1'
_cell_length_a   6.23130155
_cell_length_b   9.43538352
_cell_length_c   9.43538300
_cell_angle_alpha   83.74012644
_cell_angle_beta   70.71852739
_cell_angle_gamma   70.71852932
_symmetry_Int_Tables_number   1
_chemical_formula_structural   Nd4HoIn3
_chemical_formula_sum   'Nd8 Ho2 In6'
_cell_volume   494.26174096
_cell_formula_units_Z   2
loop_
 _symmetry_equiv_pos_site_id
 _symmetry_equiv_pos_as_xyz
  1  'x, y, z'
loop_
 _atom_site_type_symbol
 _atom_site_label
 _atom_site_symmetry_multiplicity
 _atom_site_fract_x
 _atom_site_fract_y
 _atom_site_fract_z
 _atom_site_occupancy
  Nd  Nd0  1  0.722034  0.863687  0.692416  1
  Nd  Nd1  1  0.277966  0.136313  0.307584  1
  Nd  Nd2  1  0.777966  0.307584  0.136313  1
  Nd  Nd3  1  0.222034  0.692416  0.863687  1
  Nd  Nd4  1  0.585703  0.692424  0.136343  1
  Nd  Nd5  1  0.414297  0.307576  0.863657  1
  Nd  Nd6  1  0.085703  0.136343  0.692424  1
  Nd  Nd7  1  0.914297  0.863657  0.307576  1
  Ho  Ho8  1  0.750000  0.500033  0.499967  1
  Ho  Ho9  1  0.250000  0.499967  0.500033  1
  In  In10  1  0.157553  0.500171  0.185590  1
  In  In11  1  0.842447  0.499829  0.814410  1
  In  In12  1  0.342447  0.814410  0.499829  1
  In  In13  1  0.657553  0.185590  0.500171  1
  In  In14  1  0.250000  0.999749  0.000251  1
  In  In15  1  0.750000  0.000251  0.999749  1
