# generated using pymatgen
data_Pr2Ga5RuPt2
_symmetry_space_group_name_H-M   'P 1'
_cell_length_a   8.66521888
_cell_length_b   8.66521860
_cell_length_c   8.66521844
_cell_angle_alpha   139.44950633
_cell_angle_beta   107.61985671
_cell_angle_gamma   86.41475215
_symmetry_Int_Tables_number   1
_chemical_formula_structural   Pr2Ga5RuPt2
_chemical_formula_sum   'Pr4 Ga10 Ru2 Pt4'
_cell_volume   388.14235684
_cell_formula_units_Z   2
loop_
 _symmetry_equiv_pos_site_id
 _symmetry_equiv_pos_as_xyz
  1  'x, y, z'
loop_
 _atom_site_type_symbol
 _atom_site_label
 _atom_site_symmetry_multiplicity
 _atom_site_fract_x
 _atom_site_fract_y
 _atom_site_fract_z
 _atom_site_occupancy
  Pr  Pr0  1  0.864703  0.630950  0.233754  1
  Pr  Pr1  1  0.135297  0.369050  0.766246  1
  Pr  Pr2  1  0.397196  0.130950  0.266246  1
  Pr  Pr3  1  0.602804  0.869050  0.733754  1
  Ga  Ga4  1  0.500000  0.750000  0.250000  1
  Ga  Ga5  1  0.500000  0.250000  0.750000  1
  Ga  Ga6  1  0.213792  0.963792  0.750000  1
  Ga  Ga7  1  0.786208  0.536208  0.750000  1
  Ga  Ga8  1  0.786208  0.036208  0.250000  1
  Ga  Ga9  1  0.213792  0.463792  0.250000  1
  Ga  Ga10  1  0.058190  0.901902  0.156288  1
  Ga  Ga11  1  0.941810  0.098098  0.843712  1
  Ga  Ga12  1  0.745614  0.401902  0.343712  1
  Ga  Ga13  1  0.254386  0.598098  0.656288  1
  Ru  Ru14  1  0.000000  0.750000  0.750000  1
  Ru  Ru15  1  0.000000  0.250000  0.250000  1
  Pt  Pt16  1  0.253314  0.857663  0.395652  1
  Pt  Pt17  1  0.746686  0.142337  0.604348  1
  Pt  Pt18  1  0.462011  0.357663  0.104348  1
  Pt  Pt19  1  0.537989  0.642337  0.895652  1
