# generated using pymatgen
data_Li2YTmSi3
_symmetry_space_group_name_H-M   'P 1'
_cell_length_a   9.22335294
_cell_length_b   9.22335205
_cell_length_c   6.69384400
_cell_angle_alpha   90.00000000
_cell_angle_beta   90.00000000
_cell_angle_gamma   153.59739013
_symmetry_Int_Tables_number   1
_chemical_formula_structural   Li2YTmSi3
_chemical_formula_sum   'Li4 Y2 Tm2 Si6'
_cell_volume   253.21933864
_cell_formula_units_Z   2
loop_
 _symmetry_equiv_pos_site_id
 _symmetry_equiv_pos_as_xyz
  1  'x, y, z'
loop_
 _atom_site_type_symbol
 _atom_site_label
 _atom_site_symmetry_multiplicity
 _atom_site_fract_x
 _atom_site_fract_y
 _atom_site_fract_z
 _atom_site_occupancy
  Li  Li0  1  0.190811  0.809189  0.060197  1
  Li  Li1  1  0.190811  0.809189  0.439803  1
  Li  Li2  1  0.809189  0.190811  0.939803  1
  Li  Li3  1  0.809189  0.190811  0.560197  1
  Y  Y4  1  0.553532  0.446468  0.250000  1
  Y  Y5  1  0.446468  0.553532  0.750000  1
  Tm  Tm6  1  0.345469  0.654531  0.250000  1
  Tm  Tm7  1  0.654531  0.345469  0.750000  1
  Si  Si8  1  0.722313  0.277687  0.250000  1
  Si  Si9  1  0.277687  0.722313  0.750000  1
  Si  Si10  1  0.059757  0.940243  0.927437  1
  Si  Si11  1  0.940243  0.059757  0.072563  1
  Si  Si12  1  0.940243  0.059757  0.427437  1
  Si  Si13  1  0.059757  0.940243  0.572563  1
