# generated using pymatgen
data_Ac8Ho2(InPb)3
_symmetry_space_group_name_H-M   'P 1'
_cell_length_a   6.65413997
_cell_length_b   9.86736952
_cell_length_c   9.89203624
_cell_angle_alpha   83.49037847
_cell_angle_beta   70.35162248
_cell_angle_gamma   70.29752364
_symmetry_Int_Tables_number   1
_chemical_formula_structural   Ac8Ho2(InPb)3
_chemical_formula_sum   'Ac8 Ho2 In3 Pb3'
_cell_volume   575.87162505
_cell_formula_units_Z   1
loop_
 _symmetry_equiv_pos_site_id
 _symmetry_equiv_pos_as_xyz
  1  'x, y, z'
loop_
 _atom_site_type_symbol
 _atom_site_label
 _atom_site_symmetry_multiplicity
 _atom_site_fract_x
 _atom_site_fract_y
 _atom_site_fract_z
 _atom_site_occupancy
  Ac  Ac0  1  0.718128  0.869548  0.693307  1
  Ac  Ac1  1  0.279259  0.133752  0.307731  1
  Ac  Ac2  1  0.780079  0.304996  0.134678  1
  Ac  Ac3  1  0.219408  0.694170  0.866071  1
  Ac  Ac4  1  0.586656  0.693988  0.133807  1
  Ac  Ac5  1  0.414636  0.305112  0.865477  1
  Ac  Ac6  1  0.087626  0.133615  0.692216  1
  Ac  Ac7  1  0.911781  0.869754  0.306743  1
  Ho  Ho8  1  0.752407  0.495589  0.500509  1
  Ho  Ho9  1  0.251514  0.496721  0.499423  1
  In  In10  1  0.651583  0.196001  0.499919  1
  In  In11  1  0.249980  0.000057  0.999980  1
  In  In12  1  0.749992  0.999986  0.000079  1
  Pb  Pb13  1  0.152441  0.501452  0.193557  1
  Pb  Pb14  1  0.846235  0.501476  0.806470  1
  Pb  Pb15  1  0.348276  0.803782  0.500032  1
