# generated using pymatgen
data_LuZr3(BiRh5)2
_symmetry_space_group_name_H-M   'P 1'
_cell_length_a   5.75602900
_cell_length_b   5.75602855
_cell_length_c   8.33153601
_cell_angle_alpha   89.99669200
_cell_angle_beta   89.99669364
_cell_angle_gamma   97.30536740
_symmetry_Int_Tables_number   1
_chemical_formula_structural   LuZr3(BiRh5)2
_chemical_formula_sum   'Lu1 Zr3 Bi2 Rh10'
_cell_volume   273.79860460
_cell_formula_units_Z   1
loop_
 _symmetry_equiv_pos_site_id
 _symmetry_equiv_pos_as_xyz
  1  'x, y, z'
loop_
 _atom_site_type_symbol
 _atom_site_label
 _atom_site_symmetry_multiplicity
 _atom_site_fract_x
 _atom_site_fract_y
 _atom_site_fract_z
 _atom_site_occupancy
  Lu  Lu0  1  0.784584  0.215416  0.500000  1
  Zr  Zr1  1  0.210884  0.789116  0.000000  1
  Zr  Zr2  1  0.209982  0.790018  0.500000  1
  Zr  Zr3  1  0.789285  0.210715  0.000000  1
  Bi  Bi4  1  0.500745  0.501497  0.750215  1
  Bi  Bi5  1  0.498503  0.499255  0.249785  1
  Rh  Rh6  1  0.731746  0.732216  0.000598  1
  Rh  Rh7  1  0.733234  0.730860  0.499362  1
  Rh  Rh8  1  0.267784  0.268254  0.999402  1
  Rh  Rh9  1  0.269140  0.266766  0.500638  1
  Rh  Rh10  1  0.497819  0.998099  0.753156  1
  Rh  Rh11  1  0.497863  0.997576  0.246875  1
  Rh  Rh12  1  0.002219  0.998114  0.246872  1
  Rh  Rh13  1  0.001886  0.997781  0.753128  1
  Rh  Rh14  1  0.002424  0.502137  0.753125  1
  Rh  Rh15  1  0.001901  0.502181  0.246844  1
