# generated using pymatgen
data_Cs6Eu2O7
_symmetry_space_group_name_H-M   'P 1'
_cell_length_a   7.90002285
_cell_length_b   10.81478200
_cell_length_c   13.31541500
_cell_angle_alpha   90.00000000
_cell_angle_beta   125.20404320
_cell_angle_gamma   90.00000000
_symmetry_Int_Tables_number   1
_chemical_formula_structural   Cs6Eu2O7
_chemical_formula_sum   'Cs12 Eu4 O14'
_cell_volume   929.56181752
_cell_formula_units_Z   2
loop_
 _symmetry_equiv_pos_site_id
 _symmetry_equiv_pos_as_xyz
  1  'x, y, z'
loop_
 _atom_site_type_symbol
 _atom_site_label
 _atom_site_symmetry_multiplicity
 _atom_site_fract_x
 _atom_site_fract_y
 _atom_site_fract_z
 _atom_site_occupancy
  Cs  Cs0  1  0.286539  0.484565  0.035288  1
  Cs  Cs1  1  0.440223  0.852307  0.060276  1
  Cs  Cs2  1  0.106988  0.794348  0.223679  1
  Cs  Cs3  1  0.893399  0.293838  0.276429  1
  Cs  Cs4  1  0.559460  0.351848  0.439688  1
  Cs  Cs5  1  0.712840  0.984888  0.464351  1
  Cs  Cs6  1  0.286979  0.018607  0.533969  1
  Cs  Cs7  1  0.442404  0.648266  0.559905  1
  Cs  Cs8  1  0.108555  0.703368  0.726717  1
  Cs  Cs9  1  0.891817  0.203728  0.773485  1
  Cs  Cs10  1  0.557370  0.148696  0.940051  1
  Cs  Cs11  1  0.712578  0.518142  0.965660  1
  Eu  Eu12  1  0.198296  0.149525  0.131143  1
  Eu  Eu13  1  0.801875  0.649384  0.369013  1
  Eu  Eu14  1  0.199746  0.353046  0.632584  1
  Eu  Eu15  1  0.800508  0.853303  0.867369  1
  O  O16  1  0.000014  0.001745  0.999550  1
  O  O17  1  0.967947  0.291378  0.075057  1
  O  O18  1  0.474054  0.149410  0.133007  1
  O  O19  1  0.700656  0.600338  0.183736  1
  O  O20  1  0.299364  0.100345  0.316410  1
  O  O21  1  0.525921  0.649322  0.367007  1
  O  O22  1  0.032041  0.791379  0.424944  1
  O  O23  1  0.000243  0.501493  0.500592  1
  O  O24  1  0.974184  0.207925  0.575995  1
  O  O25  1  0.472177  0.343160  0.630821  1
  O  O26  1  0.701422  0.902504  0.682306  1
  O  O27  1  0.298484  0.402274  0.817576  1
  O  O28  1  0.528248  0.843058  0.869313  1
  O  O29  1  0.025666  0.707812  0.924077  1
