# generated using pymatgen
data_Tb11ThSi11Ni
_symmetry_space_group_name_H-M   'P 1'
_cell_length_a   3.87853700
_cell_length_b   5.75246096
_cell_length_c   23.82968827
_cell_angle_alpha   82.73173219
_cell_angle_beta   90.00000000
_cell_angle_gamma   90.00000000
_symmetry_Int_Tables_number   1
_chemical_formula_structural   Tb11ThSi11Ni
_chemical_formula_sum   'Tb11 Th1 Si11 Ni1'
_cell_volume   527.39521034
_cell_formula_units_Z   1
loop_
 _symmetry_equiv_pos_site_id
 _symmetry_equiv_pos_as_xyz
  1  'x, y, z'
loop_
 _atom_site_type_symbol
 _atom_site_label
 _atom_site_symmetry_multiplicity
 _atom_site_fract_x
 _atom_site_fract_y
 _atom_site_fract_z
 _atom_site_occupancy
  Tb  Tb0  1  0.250000  0.658297  0.941210  1
  Tb  Tb1  1  0.750000  0.520910  0.221200  1
  Tb  Tb2  1  0.250000  0.469880  0.773499  1
  Tb  Tb3  1  0.750000  0.167919  0.392463  1
  Tb  Tb4  1  0.250000  0.828036  0.606500  1
  Tb  Tb5  1  0.750000  0.352880  0.559201  1
  Tb  Tb6  1  0.250000  0.643209  0.439106  1
  Tb  Tb7  1  0.750000  0.995908  0.726825  1
  Tb  Tb8  1  0.250000  0.995776  0.272263  1
  Tb  Tb9  1  0.750000  0.169848  0.893621  1
  Tb  Tb10  1  0.250000  0.840219  0.107917  1
  Th  Th11  1  0.750000  0.362448  0.067351  1
  Si  Si12  1  0.750000  0.879902  0.012046  1
  Si  Si13  1  0.250000  0.147621  0.988210  1
  Si  Si14  1  0.750000  0.045553  0.180004  1
  Si  Si15  1  0.250000  0.954283  0.821440  1
  Si  Si16  1  0.750000  0.701210  0.344497  1
  Si  Si17  1  0.250000  0.291972  0.653975  1
  Si  Si18  1  0.750000  0.864671  0.511642  1
  Si  Si19  1  0.250000  0.132023  0.486890  1
  Si  Si20  1  0.750000  0.533013  0.679057  1
  Si  Si21  1  0.250000  0.463003  0.318859  1
  Si  Si22  1  0.750000  0.685031  0.846267  1
  Ni  Ni23  1  0.250000  0.296388  0.155955  1
