# generated using pymatgen
data_LuNp5O12
_symmetry_space_group_name_H-M   'P 1'
_cell_length_a   6.56751002
_cell_length_b   6.56750932
_cell_length_c   6.55873502
_cell_angle_alpha   80.38125766
_cell_angle_beta   80.38125464
_cell_angle_gamma   119.99912216
_symmetry_Int_Tables_number   1
_chemical_formula_structural   LuNp5O12
_chemical_formula_sum   'Lu1 Np5 O12'
_cell_volume   230.90956941
_cell_formula_units_Z   1
loop_
 _symmetry_equiv_pos_site_id
 _symmetry_equiv_pos_as_xyz
  1  'x, y, z'
loop_
 _atom_site_type_symbol
 _atom_site_label
 _atom_site_symmetry_multiplicity
 _atom_site_fract_x
 _atom_site_fract_y
 _atom_site_fract_z
 _atom_site_occupancy
  Lu  Lu0  1  0.500000  0.500000  0.500000  1
  Np  Np1  1  0.833154  0.166846  0.500000  1
  Np  Np2  1  0.166846  0.833154  0.500000  1
  Np  Np3  1  0.664903  0.335097  0.000000  1
  Np  Np4  1  0.000000  0.000000  0.000000  1
  Np  Np5  1  0.335097  0.664903  0.000000  1
  O  O6  1  0.122504  0.122504  0.627606  1
  O  O7  1  0.707835  0.041713  0.876492  1
  O  O8  1  0.958287  0.292165  0.123508  1
  O  O9  1  0.373503  0.373503  0.877679  1
  O  O10  1  0.041713  0.707835  0.876492  1
  O  O11  1  0.541184  0.207644  0.373237  1
  O  O12  1  0.877496  0.877496  0.372394  1
  O  O13  1  0.458816  0.792356  0.626763  1
  O  O14  1  0.626497  0.626497  0.122321  1
  O  O15  1  0.292165  0.958287  0.123508  1
  O  O16  1  0.792356  0.458816  0.626763  1
  O  O17  1  0.207644  0.541184  0.373237  1
