# generated using pymatgen
data_Dy10Y6Cd4NiIr3
_symmetry_space_group_name_H-M   'P 1'
_cell_length_a   9.61238875
_cell_length_b   9.64381136
_cell_length_c   9.64381100
_cell_angle_alpha   60.00000468
_cell_angle_beta   59.89180899
_cell_angle_gamma   59.89180946
_symmetry_Int_Tables_number   1
_chemical_formula_structural   Dy10Y6Cd4NiIr3
_chemical_formula_sum   'Dy10 Y6 Cd4 Ni1 Ir3'
_cell_volume   631.10496848
_cell_formula_units_Z   1
loop_
 _symmetry_equiv_pos_site_id
 _symmetry_equiv_pos_as_xyz
  1  'x, y, z'
loop_
 _atom_site_type_symbol
 _atom_site_label
 _atom_site_symmetry_multiplicity
 _atom_site_fract_x
 _atom_site_fract_y
 _atom_site_fract_z
 _atom_site_occupancy
  Dy  Dy0  1  0.601593  0.597121  0.597121  1
  Dy  Dy1  1  0.601593  0.597121  0.204165  1
  Dy  Dy2  1  0.601593  0.204165  0.597121  1
  Dy  Dy3  1  0.203654  0.598782  0.598782  1
  Dy  Dy4  1  0.060222  0.438588  0.438588  1
  Dy  Dy5  1  0.438067  0.061288  0.061288  1
  Dy  Dy6  1  0.438067  0.061288  0.439356  1
  Dy  Dy7  1  0.060222  0.438588  0.062601  1
  Dy  Dy8  1  0.438067  0.439356  0.061288  1
  Dy  Dy9  1  0.060222  0.062601  0.438588  1
  Y  Y10  1  0.187557  0.812423  0.812423  1
  Y  Y11  1  0.811328  0.186211  0.186211  1
  Y  Y12  1  0.811328  0.186211  0.816250  1
  Y  Y13  1  0.187557  0.812423  0.187598  1
  Y  Y14  1  0.811328  0.816250  0.186211  1
  Y  Y15  1  0.187557  0.187598  0.812423  1
  Cd  Cd16  1  0.830158  0.830909  0.830909  1
  Cd  Cd17  1  0.830158  0.830909  0.508023  1
  Cd  Cd18  1  0.830158  0.508023  0.830909  1
  Cd  Cd19  1  0.507636  0.830788  0.830788  1
  Ni  Ni20  1  0.825258  0.391581  0.391581  1
  Ir  Ir21  1  0.392227  0.391853  0.391853  1
  Ir  Ir22  1  0.392227  0.391853  0.824069  1
  Ir  Ir23  1  0.392227  0.824069  0.391853  1
