# generated using pymatgen
data_Sr3Mn2Fe(NiP2)3
_symmetry_space_group_name_H-M   'P 1'
_cell_length_a   8.46819290
_cell_length_b   8.44884514
_cell_length_c   8.44884514
_cell_angle_alpha   154.22292570
_cell_angle_beta   90.43039029
_cell_angle_gamma   95.26533369
_symmetry_Int_Tables_number   1
_chemical_formula_structural   Sr3Mn2Fe(NiP2)3
_chemical_formula_sum   'Sr3 Mn2 Fe1 Ni3 P6'
_cell_volume   256.02867292
_cell_formula_units_Z   1
loop_
 _symmetry_equiv_pos_site_id
 _symmetry_equiv_pos_as_xyz
  1  'x, y, z'
loop_
 _atom_site_type_symbol
 _atom_site_label
 _atom_site_symmetry_multiplicity
 _atom_site_fract_x
 _atom_site_fract_y
 _atom_site_fract_z
 _atom_site_occupancy
  Sr  Sr0  1  0.330819  0.332376  0.998444  1
  Sr  Sr1  1  0.669929  0.668341  0.001587  1
  Sr  Sr2  1  0.998169  0.999704  0.998465  1
  Mn  Mn3  1  0.250039  0.500732  0.749307  1
  Mn  Mn4  1  0.752990  0.500984  0.252006  1
  Fe  Fe5  1  0.578383  0.830058  0.748324  1
  Ni  Ni6  1  0.083832  0.833155  0.250677  1
  Ni  Ni7  1  0.416166  0.165609  0.250558  1
  Ni  Ni8  1  0.918848  0.169279  0.749569  1
  P  P9  1  0.315191  0.665792  0.649398  1
  P  P10  1  0.682814  0.335700  0.347115  1
  P  P11  1  0.987203  0.339332  0.647871  1
  P  P12  1  0.352598  0.999213  0.353384  1
  P  P13  1  0.015770  0.663385  0.352385  1
  P  P14  1  0.647249  0.996340  0.650909  1
