# generated using pymatgen
data_B(Sb5Pd2)2
_symmetry_space_group_name_H-M   'P 1'
_cell_length_a   19.72416250
_cell_length_b   19.72416244
_cell_length_c   6.56324628
_cell_angle_alpha   69.44389256
_cell_angle_beta   69.44389273
_cell_angle_gamma   8.55257740
_symmetry_Int_Tables_number   1
_chemical_formula_structural   B(Sb5Pd2)2
_chemical_formula_sum   'B1 Sb10 Pd4'
_cell_volume   355.41340019
_cell_formula_units_Z   1
loop_
 _symmetry_equiv_pos_site_id
 _symmetry_equiv_pos_as_xyz
  1  'x, y, z'
loop_
 _atom_site_type_symbol
 _atom_site_label
 _atom_site_symmetry_multiplicity
 _atom_site_fract_x
 _atom_site_fract_y
 _atom_site_fract_z
 _atom_site_occupancy
  B  B0  1  0.005745  0.005745  0.003403  1
  Sb  Sb1  1  0.675354  0.675354  0.731315  1
  Sb  Sb2  1  0.278538  0.278538  0.727139  1
  Sb  Sb3  1  0.880521  0.880521  0.734237  1
  Sb  Sb4  1  0.530354  0.530354  0.262185  1
  Sb  Sb5  1  0.131138  0.131138  0.266517  1
  Sb  Sb6  1  0.732827  0.732827  0.267486  1
  Sb  Sb7  1  0.335790  0.335790  0.264624  1
  Sb  Sb8  1  0.939254  0.939254  0.262709  1
  Sb  Sb9  1  0.072094  0.072094  0.740467  1
  Sb  Sb10  1  0.481270  0.481270  0.743127  1
  Pd  Pd11  1  0.601442  0.601442  0.002486  1
  Pd  Pd12  1  0.205163  0.205163  0.994242  1
  Pd  Pd13  1  0.806193  0.806193  0.000575  1
  Pd  Pd14  1  0.410041  0.410041  0.999485  1
