# generated using pymatgen
data_La7Tm13Si15Ge
_symmetry_space_group_name_H-M   'P 1'
_cell_length_a   7.75698433
_cell_length_b   7.74533972
_cell_length_c   14.33281508
_cell_angle_alpha   90.20204024
_cell_angle_beta   89.89238179
_cell_angle_gamma   90.12613020
_symmetry_Int_Tables_number   1
_chemical_formula_structural   La7Tm13Si15Ge
_chemical_formula_sum   'La7 Tm13 Si15 Ge1'
_cell_volume   861.11344649
_cell_formula_units_Z   1
loop_
 _symmetry_equiv_pos_site_id
 _symmetry_equiv_pos_as_xyz
  1  'x, y, z'
loop_
 _atom_site_type_symbol
 _atom_site_label
 _atom_site_symmetry_multiplicity
 _atom_site_fract_x
 _atom_site_fract_y
 _atom_site_fract_z
 _atom_site_occupancy
  La  La0  1  0.008530  0.354655  0.541322  1
  La  La1  1  0.646052  0.992439  0.961293  1
  La  La2  1  0.142040  0.510854  0.792157  1
  La  La3  1  0.853211  0.487634  0.287479  1
  La  La4  1  0.509015  0.141827  0.206576  1
  La  La5  1  0.489706  0.857122  0.710736  1
  La  La6  1  0.356354  0.008393  0.457977  1
  Tm  Tm7  1  0.359711  0.492356  0.374427  1
  Tm  Tm8  1  0.857388  0.006789  0.372158  1
  Tm  Tm9  1  0.994754  0.138032  0.123806  1
  Tm  Tm10  1  0.007519  0.859751  0.625676  1
  Tm  Tm11  1  0.642366  0.511211  0.877584  1
  Tm  Tm12  1  0.493060  0.358574  0.625572  1
  Tm  Tm13  1  0.510118  0.642016  0.123637  1
  Tm  Tm14  1  0.137397  0.993369  0.877134  1
  Tm  Tm15  1  0.998598  0.636663  0.043487  1
  Tm  Tm16  1  0.677194  0.681642  0.500381  1
  Tm  Tm17  1  0.817496  0.183403  0.751536  1
  Tm  Tm18  1  0.180940  0.815387  0.247702  1
  Tm  Tm19  1  0.317380  0.320919  0.000012  1
  Si  Si20  1  0.940698  0.295072  0.939467  1
  Si  Si21  1  0.711506  0.062874  0.562411  1
  Si  Si22  1  0.210131  0.440639  0.185491  1
  Si  Si23  1  0.788167  0.563517  0.687345  1
  Si  Si24  1  0.437666  0.213637  0.813778  1
  Si  Si25  1  0.563392  0.786564  0.311866  1
  Si  Si26  1  0.285848  0.932671  0.062556  1
  Si  Si27  1  0.846989  0.799249  0.809065  1
  Si  Si28  1  0.150173  0.203220  0.308575  1
  Si  Si29  1  0.803703  0.844005  0.184507  1
  Si  Si30  1  0.298963  0.649843  0.561449  1
  Si  Si31  1  0.710166  0.355806  0.061341  1
  Si  Si32  1  0.650906  0.295960  0.440601  1
  Si  Si33  1  0.342860  0.702020  0.942991  1
  Si  Si34  1  0.202351  0.151499  0.692553  1
  Ge  Ge35  1  0.057650  0.710388  0.435357  1
