# generated using pymatgen
data_RbNaPbF6
_symmetry_space_group_name_H-M   'P 1'
_cell_length_a   6.41719600
_cell_length_b   8.54090000
_cell_length_c   12.30048600
_cell_angle_alpha   90.00000000
_cell_angle_beta   90.00000000
_cell_angle_gamma   90.00000000
_symmetry_Int_Tables_number   1
_chemical_formula_structural   RbNaPbF6
_chemical_formula_sum   'Rb4 Na4 Pb4 F24'
_cell_volume   674.17277759
_cell_formula_units_Z   4
loop_
 _symmetry_equiv_pos_site_id
 _symmetry_equiv_pos_as_xyz
  1  'x, y, z'
loop_
 _atom_site_type_symbol
 _atom_site_label
 _atom_site_symmetry_multiplicity
 _atom_site_fract_x
 _atom_site_fract_y
 _atom_site_fract_z
 _atom_site_occupancy
  Rb  Rb0  1  0.036211  0.753646  0.458856  1
  Rb  Rb1  1  0.536211  0.253646  0.041144  1
  Rb  Rb2  1  0.463789  0.753646  0.958856  1
  Rb  Rb3  1  0.963789  0.253646  0.541144  1
  Na  Na4  1  0.448996  0.502489  0.646491  1
  Na  Na5  1  0.551004  0.002489  0.353509  1
  Na  Na6  1  0.948996  0.002489  0.853509  1
  Na  Na7  1  0.051004  0.502489  0.146491  1
  Pb  Pb8  1  0.453293  0.999775  0.639031  1
  Pb  Pb9  1  0.046707  0.999775  0.139031  1
  Pb  Pb10  1  0.546707  0.499775  0.360969  1
  Pb  Pb11  1  0.953293  0.499775  0.860969  1
  F  F12  1  0.643795  0.265164  0.369185  1
  F  F13  1  0.166889  0.058750  0.711557  1
  F  F14  1  0.782563  0.961852  0.038464  1
  F  F15  1  0.459268  0.737106  0.356356  1
  F  F16  1  0.356205  0.765164  0.630815  1
  F  F17  1  0.540732  0.237106  0.643644  1
  F  F18  1  0.113947  0.457244  0.715035  1
  F  F19  1  0.282563  0.461852  0.461536  1
  F  F20  1  0.704018  0.534074  0.511814  1
  F  F21  1  0.666889  0.558750  0.788443  1
  F  F22  1  0.386053  0.457244  0.215035  1
  F  F23  1  0.886053  0.957244  0.284965  1
  F  F24  1  0.217437  0.461852  0.961536  1
  F  F25  1  0.717437  0.961852  0.538464  1
  F  F26  1  0.204018  0.034074  0.988186  1
  F  F27  1  0.959268  0.237106  0.143644  1
  F  F28  1  0.795982  0.534074  0.011814  1
  F  F29  1  0.833111  0.558750  0.288443  1
  F  F30  1  0.040732  0.737106  0.856356  1
  F  F31  1  0.333111  0.058750  0.211557  1
  F  F32  1  0.295982  0.034074  0.488186  1
  F  F33  1  0.856205  0.265164  0.869185  1
  F  F34  1  0.613947  0.957244  0.784965  1
  F  F35  1  0.143795  0.765164  0.130815  1
