# generated using pymatgen
data_Tb3Dy7InSb5
_symmetry_space_group_name_H-M   'P 1'
_cell_length_a   6.39366100
_cell_length_b   9.01508850
_cell_length_c   8.99842645
_cell_angle_alpha   120.06128480
_cell_angle_beta   90.00001792
_cell_angle_gamma   89.99997197
_symmetry_Int_Tables_number   1
_chemical_formula_structural   Tb3Dy7InSb5
_chemical_formula_sum   'Tb3 Dy7 In1 Sb5'
_cell_volume   448.89862425
_cell_formula_units_Z   1
loop_
 _symmetry_equiv_pos_site_id
 _symmetry_equiv_pos_as_xyz
  1  'x, y, z'
loop_
 _atom_site_type_symbol
 _atom_site_label
 _atom_site_symmetry_multiplicity
 _atom_site_fract_x
 _atom_site_fract_y
 _atom_site_fract_z
 _atom_site_occupancy
  Tb  Tb0  1  0.249999  0.756839  0.000000  1
  Tb  Tb1  1  0.250001  0.246349  0.244867  1
  Tb  Tb2  1  0.250001  0.001482  0.755133  1
  Dy  Dy3  1  0.498926  0.334842  0.668694  1
  Dy  Dy4  1  0.498926  0.666148  0.331306  1
  Dy  Dy5  1  0.001073  0.666149  0.331306  1
  Dy  Dy6  1  0.001073  0.334843  0.668694  1
  Dy  Dy7  1  0.750001  0.244138  0.000000  1
  Dy  Dy8  1  0.750001  0.754317  0.757552  1
  Dy  Dy9  1  0.750001  0.996766  0.242448  1
  In  In10  1  0.749999  0.606302  0.000000  1
  Sb  Sb11  1  0.750001  0.389060  0.389836  1
  Sb  Sb12  1  0.750001  0.999224  0.610164  1
  Sb  Sb13  1  0.250000  0.391047  0.000000  1
  Sb  Sb14  1  0.250000  0.611250  0.610007  1
  Sb  Sb15  1  0.250000  0.001243  0.389993  1
