# generated using pymatgen
data_V13Si3
_symmetry_space_group_name_H-M   'P 1'
_cell_length_a   4.73842200
_cell_length_b   4.70021900
_cell_length_c   9.42120400
_cell_angle_alpha   90.00000000
_cell_angle_beta   90.00000000
_cell_angle_gamma   90.00000000
_symmetry_Int_Tables_number   1
_chemical_formula_structural   V13Si3
_chemical_formula_sum   'V13 Si3'
_cell_volume   209.82548593
_cell_formula_units_Z   1
loop_
 _symmetry_equiv_pos_site_id
 _symmetry_equiv_pos_as_xyz
  1  'x, y, z'
loop_
 _atom_site_type_symbol
 _atom_site_label
 _atom_site_symmetry_multiplicity
 _atom_site_fract_x
 _atom_site_fract_y
 _atom_site_fract_z
 _atom_site_occupancy
  V  V0  1  0.500000  0.500000  0.500000  1
  V  V1  1  0.500000  0.000000  0.625633  1
  V  V2  1  0.500000  0.000000  0.127066  1
  V  V3  1  0.747650  0.500000  0.249747  1
  V  V4  1  0.747650  0.500000  0.750253  1
  V  V5  1  0.000000  0.748772  0.500000  1
  V  V6  1  0.000000  0.749279  0.000000  1
  V  V7  1  0.500000  0.000000  0.374367  1
  V  V8  1  0.500000  0.000000  0.872934  1
  V  V9  1  0.252350  0.500000  0.249747  1
  V  V10  1  0.252350  0.500000  0.750253  1
  V  V11  1  0.000000  0.251228  0.500000  1
  V  V12  1  0.000000  0.250721  0.000000  1
  Si  Si13  1  0.500000  0.500000  0.000000  1
  Si  Si14  1  0.000000  0.000000  0.248425  1
  Si  Si15  1  0.000000  0.000000  0.751575  1
