# generated using pymatgen
data_K3Li2TiAs3
_symmetry_space_group_name_H-M   'P 1'
_cell_length_a   10.22140107
_cell_length_b   10.22140154
_cell_length_c   14.99124500
_cell_angle_alpha   90.00000000
_cell_angle_beta   90.00000000
_cell_angle_gamma   143.17432282
_symmetry_Int_Tables_number   1
_chemical_formula_structural   K3Li2TiAs3
_chemical_formula_sum   'K12 Li8 Ti4 As12'
_cell_volume   938.77725387
_cell_formula_units_Z   4
loop_
 _symmetry_equiv_pos_site_id
 _symmetry_equiv_pos_as_xyz
  1  'x, y, z'
loop_
 _atom_site_type_symbol
 _atom_site_label
 _atom_site_symmetry_multiplicity
 _atom_site_fract_x
 _atom_site_fract_y
 _atom_site_fract_z
 _atom_site_occupancy
  K  K0  1  0.604165  0.945584  0.828106  1
  K  K1  1  0.279289  0.279289  0.321768  1
  K  K2  1  0.220711  0.220711  0.821768  1
  K  K3  1  0.720711  0.720711  0.678232  1
  K  K4  1  0.445584  0.104165  0.671894  1
  K  K5  1  0.895835  0.554416  0.328106  1
  K  K6  1  0.054416  0.395835  0.171894  1
  K  K7  1  0.395835  0.054416  0.171894  1
  K  K8  1  0.554416  0.895835  0.328106  1
  K  K9  1  0.104165  0.445584  0.671894  1
  K  K10  1  0.945584  0.604165  0.828106  1
  K  K11  1  0.779289  0.779289  0.178232  1
  Li  Li12  1  0.081931  0.918069  0.000000  1
  Li  Li13  1  0.581931  0.418069  0.500000  1
  Li  Li14  1  0.918069  0.081931  0.000000  1
  Li  Li15  1  0.750346  0.249654  0.000000  1
  Li  Li16  1  0.749654  0.250346  0.500000  1
  Li  Li17  1  0.249654  0.750346  0.000000  1
  Li  Li18  1  0.250346  0.749654  0.500000  1
  Li  Li19  1  0.418069  0.581931  0.500000  1
  Ti  Ti20  1  0.086799  0.913201  0.500000  1
  Ti  Ti21  1  0.413201  0.586799  0.000000  1
  Ti  Ti22  1  0.913201  0.086799  0.500000  1
  Ti  Ti23  1  0.586799  0.413201  0.000000  1
  As  As24  1  0.067778  0.388439  0.408583  1
  As  As25  1  0.888439  0.567778  0.091417  1
  As  As26  1  0.432222  0.111561  0.908583  1
  As  As27  1  0.611561  0.932222  0.591417  1
  As  As28  1  0.932222  0.611561  0.591417  1
  As  As29  1  0.111561  0.432222  0.908583  1
  As  As30  1  0.567778  0.888439  0.091417  1
  As  As31  1  0.388439  0.067778  0.408583  1
  As  As32  1  0.219354  0.219354  0.586188  1
  As  As33  1  0.719354  0.719354  0.913812  1
  As  As34  1  0.280646  0.280646  0.086188  1
  As  As35  1  0.780646  0.780646  0.413812  1
