# generated using pymatgen
data_DyHoHf2(NiP)4
_symmetry_space_group_name_H-M   'P 1'
_cell_length_a   3.84193200
_cell_length_b   3.84193225
_cell_length_c   14.58837300
_cell_angle_alpha   90.00000000
_cell_angle_beta   90.00000000
_cell_angle_gamma   119.99999785
_symmetry_Int_Tables_number   1
_chemical_formula_structural   DyHoHf2(NiP)4
_chemical_formula_sum   'Dy1 Ho1 Hf2 Ni4 P4'
_cell_volume   186.48198182
_cell_formula_units_Z   1
loop_
 _symmetry_equiv_pos_site_id
 _symmetry_equiv_pos_as_xyz
  1  'x, y, z'
loop_
 _atom_site_type_symbol
 _atom_site_label
 _atom_site_symmetry_multiplicity
 _atom_site_fract_x
 _atom_site_fract_y
 _atom_site_fract_z
 _atom_site_occupancy
  Dy  Dy0  1  0.000000  0.000000  0.000000  1
  Ho  Ho1  1  0.000000  0.000000  0.500000  1
  Hf  Hf2  1  0.000000  0.000000  0.250159  1
  Hf  Hf3  1  0.000000  0.000000  0.749841  1
  Ni  Ni4  1  0.333333  0.666667  0.352297  1
  Ni  Ni5  1  0.666667  0.333333  0.647703  1
  Ni  Ni6  1  0.666667  0.333333  0.851759  1
  Ni  Ni7  1  0.333333  0.666667  0.148241  1
  P  P8  1  0.333333  0.666667  0.874415  1
  P  P9  1  0.666667  0.333333  0.125585  1
  P  P10  1  0.666667  0.333333  0.374920  1
  P  P11  1  0.333333  0.666667  0.625080  1
