# generated using pymatgen
data_Nd3MnCrC6
_symmetry_space_group_name_H-M   'P 1'
_cell_length_a   8.25606200
_cell_length_b   8.25606200
_cell_length_c   5.18807300
_cell_angle_alpha   90.00000000
_cell_angle_beta   90.00000000
_cell_angle_gamma   119.99999894
_symmetry_Int_Tables_number   1
_chemical_formula_structural   Nd3MnCrC6
_chemical_formula_sum   'Nd6 Mn2 Cr2 C12'
_cell_volume   306.25458955
_cell_formula_units_Z   2
loop_
 _symmetry_equiv_pos_site_id
 _symmetry_equiv_pos_as_xyz
  1  'x, y, z'
loop_
 _atom_site_type_symbol
 _atom_site_label
 _atom_site_symmetry_multiplicity
 _atom_site_fract_x
 _atom_site_fract_y
 _atom_site_fract_z
 _atom_site_occupancy
  Nd  Nd0  1  0.614373  0.685638  0.750000  1
  Nd  Nd1  1  0.928736  0.614373  0.250000  1
  Nd  Nd2  1  0.685638  0.071264  0.250000  1
  Nd  Nd3  1  0.314362  0.928736  0.750000  1
  Nd  Nd4  1  0.071264  0.385627  0.750000  1
  Nd  Nd5  1  0.385627  0.314362  0.250000  1
  Mn  Mn6  1  0.666667  0.333333  0.750000  1
  Mn  Mn7  1  0.333333  0.666667  0.250000  1
  Cr  Cr8  1  0.000000  0.000000  0.500000  1
  Cr  Cr9  1  0.000000  0.000000  0.000000  1
  C  C10  1  0.954534  0.769481  0.750000  1
  C  C11  1  0.185053  0.954534  0.250000  1
  C  C12  1  0.769481  0.814947  0.250000  1
  C  C13  1  0.230519  0.185053  0.750000  1
  C  C14  1  0.814947  0.045466  0.750000  1
  C  C15  1  0.045466  0.230519  0.250000  1
  C  C16  1  0.858217  0.577372  0.750000  1
  C  C17  1  0.280844  0.858217  0.250000  1
  C  C18  1  0.577372  0.719156  0.250000  1
  C  C19  1  0.422628  0.280844  0.750000  1
  C  C20  1  0.141783  0.422628  0.250000  1
  C  C21  1  0.719156  0.141783  0.750000  1
