# generated using pymatgen
data_ThSbPt5
_symmetry_space_group_name_H-M   'P 1'
_cell_length_a   11.00595036
_cell_length_b   11.00595050
_cell_length_c   11.00595150
_cell_angle_alpha   28.40060268
_cell_angle_beta   28.40060231
_cell_angle_gamma   28.40060488
_symmetry_Int_Tables_number   1
_chemical_formula_structural   ThSbPt5
_chemical_formula_sum   'Th2 Sb2 Pt10'
_cell_volume   266.53267818
_cell_formula_units_Z   2
loop_
 _symmetry_equiv_pos_site_id
 _symmetry_equiv_pos_as_xyz
  1  'x, y, z'
loop_
 _atom_site_type_symbol
 _atom_site_label
 _atom_site_symmetry_multiplicity
 _atom_site_fract_x
 _atom_site_fract_y
 _atom_site_fract_z
 _atom_site_occupancy
  Th  Th0  1  0.500000  0.500000  0.500000  1
  Th  Th1  1  0.000000  0.000000  0.000000  1
  Sb  Sb2  1  0.894544  0.894544  0.894544  1
  Sb  Sb3  1  0.105456  0.105456  0.105456  1
  Pt  Pt4  1  0.075365  0.622454  0.522750  1
  Pt  Pt5  1  0.522750  0.075365  0.622454  1
  Pt  Pt6  1  0.622454  0.522750  0.075365  1
  Pt  Pt7  1  0.924635  0.377546  0.477250  1
  Pt  Pt8  1  0.477250  0.924635  0.377546  1
  Pt  Pt9  1  0.377546  0.477250  0.924635  1
  Pt  Pt10  1  0.814438  0.814438  0.814438  1
  Pt  Pt11  1  0.185562  0.185562  0.185562  1
  Pt  Pt12  1  0.666073  0.666073  0.666073  1
  Pt  Pt13  1  0.333927  0.333927  0.333927  1
