# generated using pymatgen
data_Cs4RbAl3Se7
_symmetry_space_group_name_H-M   'P 1'
_cell_length_a   11.32490062
_cell_length_b   11.32490094
_cell_length_c   9.65282879
_cell_angle_alpha   76.27716989
_cell_angle_beta   76.27717285
_cell_angle_gamma   72.40559596
_symmetry_Int_Tables_number   1
_chemical_formula_structural   Cs4RbAl3Se7
_chemical_formula_sum   'Cs8 Rb2 Al6 Se14'
_cell_volume   1127.94604376
_cell_formula_units_Z   2
loop_
 _symmetry_equiv_pos_site_id
 _symmetry_equiv_pos_as_xyz
  1  'x, y, z'
loop_
 _atom_site_type_symbol
 _atom_site_label
 _atom_site_symmetry_multiplicity
 _atom_site_fract_x
 _atom_site_fract_y
 _atom_site_fract_z
 _atom_site_occupancy
  Cs  Cs0  1  0.025805  0.437396  0.717857  1
  Cs  Cs1  1  0.437396  0.025805  0.717857  1
  Cs  Cs2  1  0.974195  0.562604  0.282143  1
  Cs  Cs3  1  0.562604  0.974195  0.282143  1
  Cs  Cs4  1  0.289730  0.710270  0.000000  1
  Cs  Cs5  1  0.710270  0.289730  0.000000  1
  Cs  Cs6  1  0.846602  0.153398  0.500000  1
  Cs  Cs7  1  0.153398  0.846602  0.500000  1
  Rb  Rb8  1  0.430715  0.430715  0.684324  1
  Rb  Rb9  1  0.569285  0.569285  0.315676  1
  Al  Al10  1  0.213684  0.213684  0.178740  1
  Al  Al11  1  0.786316  0.786316  0.821260  1
  Al  Al12  1  0.071535  0.071535  0.057130  1
  Al  Al13  1  0.928465  0.928465  0.942870  1
  Al  Al14  1  0.346297  0.346297  0.331732  1
  Al  Al15  1  0.653703  0.653703  0.668268  1
  Se  Se16  1  0.005283  0.282249  0.112523  1
  Se  Se17  1  0.282249  0.005283  0.112523  1
  Se  Se18  1  0.994717  0.717751  0.887477  1
  Se  Se19  1  0.717751  0.994717  0.887477  1
  Se  Se20  1  0.205214  0.205214  0.431172  1
  Se  Se21  1  0.794786  0.794786  0.568828  1
  Se  Se22  1  0.063602  0.063602  0.811409  1
  Se  Se23  1  0.936398  0.936398  0.188591  1
  Se  Se24  1  0.350444  0.350444  0.069784  1
  Se  Se25  1  0.649556  0.649556  0.930216  1
  Se  Se26  1  0.255893  0.548707  0.395886  1
  Se  Se27  1  0.548707  0.255893  0.395886  1
  Se  Se28  1  0.744107  0.451293  0.604114  1
  Se  Se29  1  0.451293  0.744107  0.604114  1
