# generated using pymatgen
data_MnNi2P
_symmetry_space_group_name_H-M   'P 1'
_cell_length_a   4.54081455
_cell_length_b   4.54081428
_cell_length_c   6.41033000
_cell_angle_alpha   90.00000000
_cell_angle_beta   90.00000000
_cell_angle_gamma   135.21035713
_symmetry_Int_Tables_number   1
_chemical_formula_structural   MnNi2P
_chemical_formula_sum   'Mn2 Ni4 P2'
_cell_volume   93.11776562
_cell_formula_units_Z   2
loop_
 _symmetry_equiv_pos_site_id
 _symmetry_equiv_pos_as_xyz
  1  'x, y, z'
loop_
 _atom_site_type_symbol
 _atom_site_label
 _atom_site_symmetry_multiplicity
 _atom_site_fract_x
 _atom_site_fract_y
 _atom_site_fract_z
 _atom_site_occupancy
  Mn  Mn0  1  0.556730  0.443270  0.250000  1
  Mn  Mn1  1  0.443270  0.556730  0.750000  1
  Ni  Ni2  1  0.857807  0.142193  0.053434  1
  Ni  Ni3  1  0.142193  0.857807  0.946566  1
  Ni  Ni4  1  0.142193  0.857807  0.553434  1
  Ni  Ni5  1  0.857807  0.142193  0.446566  1
  P  P6  1  0.270408  0.729592  0.250000  1
  P  P7  1  0.729592  0.270408  0.750000  1
