# generated using pymatgen
data_Mn2Fe4W6C
_symmetry_space_group_name_H-M   'P 1'
_cell_length_a   7.74023153
_cell_length_b   7.74023135
_cell_length_c   7.74023000
_cell_angle_alpha   59.99999724
_cell_angle_beta   59.99999799
_cell_angle_gamma   59.99999297
_symmetry_Int_Tables_number   1
_chemical_formula_structural   Mn2Fe4W6C
_chemical_formula_sum   'Mn4 Fe8 W12 C2'
_cell_volume   327.90400628
_cell_formula_units_Z   2
loop_
 _symmetry_equiv_pos_site_id
 _symmetry_equiv_pos_as_xyz
  1  'x, y, z'
loop_
 _atom_site_type_symbol
 _atom_site_label
 _atom_site_symmetry_multiplicity
 _atom_site_fract_x
 _atom_site_fract_y
 _atom_site_fract_z
 _atom_site_occupancy
  Mn  Mn0  1  0.125000  0.125000  0.625000  1
  Mn  Mn1  1  0.125000  0.625000  0.125000  1
  Mn  Mn2  1  0.125000  0.125000  0.125000  1
  Mn  Mn3  1  0.625000  0.125000  0.125000  1
  Fe  Fe4  1  0.922027  0.233919  0.922027  1
  Fe  Fe5  1  0.327973  0.016081  0.327973  1
  Fe  Fe6  1  0.327973  0.327973  0.327973  1
  Fe  Fe7  1  0.016081  0.327973  0.327973  1
  Fe  Fe8  1  0.922027  0.922027  0.233919  1
  Fe  Fe9  1  0.233919  0.922027  0.922027  1
  Fe  Fe10  1  0.327973  0.327973  0.016081  1
  Fe  Fe11  1  0.922027  0.922027  0.922027  1
  W  W12  1  0.302905  0.697095  0.697095  1
  W  W13  1  0.302905  0.302905  0.697095  1
  W  W14  1  0.552905  0.947095  0.552905  1
  W  W15  1  0.947095  0.552905  0.552905  1
  W  W16  1  0.552905  0.947095  0.947095  1
  W  W17  1  0.697095  0.302905  0.302905  1
  W  W18  1  0.947095  0.552905  0.947095  1
  W  W19  1  0.302905  0.697095  0.302905  1
  W  W20  1  0.552905  0.552905  0.947095  1
  W  W21  1  0.697095  0.302905  0.697095  1
  W  W22  1  0.697095  0.697095  0.302905  1
  W  W23  1  0.947095  0.947095  0.552905  1
  C  C24  1  0.750000  0.750000  0.750000  1
  C  C25  1  0.500000  0.500000  0.500000  1
