# generated using pymatgen
data_Nb6Al3PtN2
_symmetry_space_group_name_H-M   'P 1'
_cell_length_a   7.05963451
_cell_length_b   7.07414337
_cell_length_c   7.08105800
_cell_angle_alpha   90.00000000
_cell_angle_beta   90.00000000
_cell_angle_gamma   90.28226832
_symmetry_Int_Tables_number   1
_chemical_formula_structural   Nb6Al3PtN2
_chemical_formula_sum   'Nb12 Al6 Pt2 N4'
_cell_volume   353.62988194
_cell_formula_units_Z   2
loop_
 _symmetry_equiv_pos_site_id
 _symmetry_equiv_pos_as_xyz
  1  'x, y, z'
loop_
 _atom_site_type_symbol
 _atom_site_label
 _atom_site_symmetry_multiplicity
 _atom_site_fract_x
 _atom_site_fract_y
 _atom_site_fract_z
 _atom_site_occupancy
  Nb  Nb0  1  0.790033  0.957386  0.377648  1
  Nb  Nb1  1  0.709967  0.042614  0.877648  1
  Nb  Nb2  1  0.206804  0.453151  0.125481  1
  Nb  Nb3  1  0.293196  0.546849  0.625481  1
  Nb  Nb4  1  0.955511  0.380573  0.790710  1
  Nb  Nb5  1  0.041823  0.869597  0.709043  1
  Nb  Nb6  1  0.458177  0.130403  0.209043  1
  Nb  Nb7  1  0.544489  0.619427  0.290710  1
  Nb  Nb8  1  0.379694  0.789236  0.954969  1
  Nb  Nb9  1  0.872703  0.707761  0.043010  1
  Nb  Nb10  1  0.120306  0.210764  0.454969  1
  Nb  Nb11  1  0.627297  0.292239  0.543010  1
  Al  Al12  1  0.823576  0.321221  0.176454  1
  Al  Al13  1  0.676424  0.678779  0.676454  1
  Al  Al14  1  0.563307  0.422038  0.926534  1
  Al  Al15  1  0.420598  0.933426  0.569949  1
  Al  Al16  1  0.936693  0.577962  0.426534  1
  Al  Al17  1  0.079402  0.066574  0.069949  1
  Pt  Pt18  1  0.182114  0.823246  0.317667  1
  Pt  Pt19  1  0.317886  0.176754  0.817667  1
  N  N20  1  0.878411  0.122348  0.628828  1
  N  N21  1  0.621589  0.877652  0.128828  1
  N  N22  1  0.127569  0.624740  0.879707  1
  N  N23  1  0.372431  0.375260  0.379707  1
