# generated using pymatgen
data_NpPa2Mn3
_symmetry_space_group_name_H-M   'P 1'
_cell_length_a   5.40776296
_cell_length_b   5.40776310
_cell_length_c   5.07864910
_cell_angle_alpha   57.83211881
_cell_angle_beta   57.83211942
_cell_angle_gamma   59.99999792
_symmetry_Int_Tables_number   1
_chemical_formula_structural   NpPa2Mn3
_chemical_formula_sum   'Np1 Pa2 Mn3'
_cell_volume   101.44527135
_cell_formula_units_Z   1
loop_
 _symmetry_equiv_pos_site_id
 _symmetry_equiv_pos_as_xyz
  1  'x, y, z'
loop_
 _atom_site_type_symbol
 _atom_site_label
 _atom_site_symmetry_multiplicity
 _atom_site_fract_x
 _atom_site_fract_y
 _atom_site_fract_z
 _atom_site_occupancy
  Np  Np0  1  0.125000  0.125000  0.625000  1
  Pa  Pa1  1  0.745602  0.745602  0.763193  1
  Pa  Pa2  1  0.504398  0.504398  0.486807  1
  Mn  Mn3  1  0.125000  0.625000  0.125000  1
  Mn  Mn4  1  0.625000  0.125000  0.125000  1
  Mn  Mn5  1  0.125000  0.125000  0.125000  1
