# generated using pymatgen
data_Mg4Zn6PtRh
_symmetry_space_group_name_H-M   'P 1'
_cell_length_a   5.18192000
_cell_length_b   5.25303771
_cell_length_c   8.42264400
_cell_angle_alpha   90.00000000
_cell_angle_beta   90.00000000
_cell_angle_gamma   120.40314319
_symmetry_Int_Tables_number   1
_chemical_formula_structural   Mg4Zn6PtRh
_chemical_formula_sum   'Mg4 Zn6 Pt1 Rh1'
_cell_volume   197.74325341
_cell_formula_units_Z   1
loop_
 _symmetry_equiv_pos_site_id
 _symmetry_equiv_pos_as_xyz
  1  'x, y, z'
loop_
 _atom_site_type_symbol
 _atom_site_label
 _atom_site_symmetry_multiplicity
 _atom_site_fract_x
 _atom_site_fract_y
 _atom_site_fract_z
 _atom_site_occupancy
  Mg  Mg0  1  0.321873  0.652604  0.063727  1
  Mg  Mg1  1  0.676984  0.334244  0.568541  1
  Mg  Mg2  1  0.676984  0.334244  0.931459  1
  Mg  Mg3  1  0.321873  0.652604  0.436273  1
  Zn  Zn4  1  0.003263  0.013905  0.997933  1
  Zn  Zn5  1  0.003263  0.013905  0.502067  1
  Zn  Zn6  1  0.335613  0.165051  0.250000  1
  Zn  Zn7  1  0.662363  0.828325  0.750000  1
  Zn  Zn8  1  0.170332  0.830507  0.750000  1
  Zn  Zn9  1  0.830171  0.663639  0.250000  1
  Pt  Pt10  1  0.818856  0.165991  0.250000  1
  Rh  Rh11  1  0.178422  0.344982  0.750000  1
