# generated using pymatgen
data_Eu4Zr3NbO14
_symmetry_space_group_name_H-M   'P 1'
_cell_length_a   7.62088647
_cell_length_b   7.60282010
_cell_length_c   7.60282000
_cell_angle_alpha   60.00000045
_cell_angle_beta   60.07838960
_cell_angle_gamma   60.07838702
_symmetry_Int_Tables_number   1
_chemical_formula_structural   Eu4Zr3NbO14
_chemical_formula_sum   'Eu4 Zr3 Nb1 O14'
_cell_volume   311.85554646
_cell_formula_units_Z   1
loop_
 _symmetry_equiv_pos_site_id
 _symmetry_equiv_pos_as_xyz
  1  'x, y, z'
loop_
 _atom_site_type_symbol
 _atom_site_label
 _atom_site_symmetry_multiplicity
 _atom_site_fract_x
 _atom_site_fract_y
 _atom_site_fract_z
 _atom_site_occupancy
  Eu  Eu0  1  0.625000  0.125000  0.625000  1
  Eu  Eu1  1  0.625000  0.625000  0.125000  1
  Eu  Eu2  1  0.125000  0.625000  0.625000  1
  Eu  Eu3  1  0.625000  0.625000  0.625000  1
  Zr  Zr4  1  0.125000  0.125000  0.125000  1
  Zr  Zr5  1  0.125000  0.125000  0.625000  1
  Zr  Zr6  1  0.125000  0.625000  0.125000  1
  Nb  Nb7  1  0.625000  0.125000  0.125000  1
  O  O8  1  0.217027  0.789008  0.789008  1
  O  O9  1  0.793605  0.808136  0.199130  1
  O  O10  1  0.793605  0.199130  0.808136  1
  O  O11  1  0.217027  0.789008  0.204957  1
  O  O12  1  0.217027  0.204957  0.789008  1
  O  O13  1  0.793605  0.199130  0.199130  1
  O  O14  1  0.456395  0.050870  0.050870  1
  O  O15  1  0.032973  0.045043  0.460992  1
  O  O16  1  0.032973  0.460992  0.045043  1
  O  O17  1  0.456395  0.050870  0.441864  1
  O  O18  1  0.745800  0.751400  0.751400  1
  O  O19  1  0.456395  0.441864  0.050870  1
  O  O20  1  0.032973  0.460992  0.460992  1
  O  O21  1  0.504200  0.498600  0.498600  1
