# generated using pymatgen
data_Lu17Sc3Bi11Ir
_symmetry_space_group_name_H-M   'P 1'
_cell_length_a   8.05438109
_cell_length_b   9.29647921
_cell_length_c   11.74247093
_cell_angle_alpha   89.94209130
_cell_angle_beta   89.99131446
_cell_angle_gamma   89.99183052
_symmetry_Int_Tables_number   1
_chemical_formula_structural   Lu17Sc3Bi11Ir
_chemical_formula_sum   'Lu17 Sc3 Bi11 Ir1'
_cell_volume   879.24506450
_cell_formula_units_Z   1
loop_
 _symmetry_equiv_pos_site_id
 _symmetry_equiv_pos_as_xyz
  1  'x, y, z'
loop_
 _atom_site_type_symbol
 _atom_site_label
 _atom_site_symmetry_multiplicity
 _atom_site_fract_x
 _atom_site_fract_y
 _atom_site_fract_z
 _atom_site_occupancy
  Lu  Lu0  1  0.193768  0.064977  0.936226  1
  Lu  Lu1  1  0.313079  0.030133  0.439779  1
  Lu  Lu2  1  0.313016  0.469912  0.439731  1
  Lu  Lu3  1  0.341261  0.749724  0.703323  1
  Lu  Lu4  1  0.479516  0.748017  0.004929  1
  Lu  Lu5  1  0.161617  0.250232  0.214213  1
  Lu  Lu6  1  0.805575  0.935838  0.065078  1
  Lu  Lu7  1  0.631168  0.749142  0.296292  1
  Lu  Lu8  1  0.042802  0.749946  0.506525  1
  Lu  Lu9  1  0.670837  0.924165  0.558792  1
  Lu  Lu10  1  0.193593  0.435227  0.936025  1
  Lu  Lu11  1  0.343688  0.250019  0.714950  1
  Lu  Lu12  1  0.193539  0.749836  0.239267  1
  Lu  Lu13  1  0.985113  0.250102  0.493290  1
  Lu  Lu14  1  0.670927  0.575716  0.558871  1
  Lu  Lu15  1  0.685918  0.250617  0.265975  1
  Lu  Lu16  1  0.837801  0.749491  0.790250  1
  Sc  Sc17  1  0.804539  0.564545  0.065027  1
  Sc  Sc18  1  0.521950  0.250570  0.992168  1
  Sc  Sc19  1  0.823001  0.249810  0.772458  1
  Bi  Bi20  1  0.056342  0.487610  0.679613  1
  Bi  Bi21  1  0.568317  0.503476  0.827285  1
  Bi  Bi22  1  0.931999  0.988161  0.323706  1
  Bi  Bi23  1  0.436867  0.015529  0.170860  1
  Bi  Bi24  1  0.567076  0.995926  0.826984  1
  Bi  Bi25  1  0.098097  0.747966  0.978471  1
  Bi  Bi26  1  0.438642  0.484485  0.170621  1
  Bi  Bi27  1  0.056379  0.012139  0.679895  1
  Bi  Bi28  1  0.931426  0.512306  0.321618  1
  Bi  Bi29  1  0.601695  0.249919  0.524721  1
  Bi  Bi30  1  0.894558  0.254523  0.026498  1
  Ir  Ir31  1  0.405900  0.749944  0.476562  1
