# generated using pymatgen
data_Dy6Al24ZnOs6Rh
_symmetry_space_group_name_H-M   'P 1'
_cell_length_a   8.81527488
_cell_length_b   8.83362985
_cell_length_c   9.56418690
_cell_angle_alpha   90.02826620
_cell_angle_beta   90.02681745
_cell_angle_gamma   119.64970692
_symmetry_Int_Tables_number   1
_chemical_formula_structural   Dy6Al24ZnOs6Rh
_chemical_formula_sum   'Dy6 Al24 Zn1 Os6 Rh1'
_cell_volume   647.25544596
_cell_formula_units_Z   1
loop_
 _symmetry_equiv_pos_site_id
 _symmetry_equiv_pos_as_xyz
  1  'x, y, z'
loop_
 _atom_site_type_symbol
 _atom_site_label
 _atom_site_symmetry_multiplicity
 _atom_site_fract_x
 _atom_site_fract_y
 _atom_site_fract_z
 _atom_site_occupancy
  Dy  Dy0  1  0.190831  0.384005  0.249019  1
  Dy  Dy1  1  0.809169  0.615995  0.750981  1
  Dy  Dy2  1  0.610496  0.809985  0.255985  1
  Dy  Dy3  1  0.389504  0.190015  0.744015  1
  Dy  Dy4  1  0.193984  0.807743  0.248632  1
  Dy  Dy5  1  0.806016  0.192257  0.751368  1
  Al  Al6  1  0.341383  0.671036  0.026942  1
  Al  Al7  1  0.658617  0.328964  0.973058  1
  Al  Al8  1  0.667950  0.334181  0.522790  1
  Al  Al9  1  0.332050  0.665819  0.477210  1
  Al  Al10  1  0.164396  0.326909  0.572668  1
  Al  Al11  1  0.835604  0.673091  0.427332  1
  Al  Al12  1  0.672405  0.835145  0.576501  1
  Al  Al13  1  0.828513  0.677151  0.080987  1
  Al  Al14  1  0.327595  0.164855  0.423499  1
  Al  Al15  1  0.171487  0.322849  0.919013  1
  Al  Al16  1  0.162811  0.835161  0.573621  1
  Al  Al17  1  0.326702  0.162083  0.077688  1
  Al  Al18  1  0.837189  0.164839  0.426379  1
  Al  Al19  1  0.673298  0.837917  0.922312  1
  Al  Al20  1  0.827651  0.152502  0.080470  1
  Al  Al21  1  0.172349  0.847498  0.919530  1
  Al  Al22  1  0.559327  0.123873  0.249200  1
  Al  Al23  1  0.440673  0.876127  0.750800  1
  Al  Al24  1  0.871294  0.436277  0.254107  1
  Al  Al25  1  0.128706  0.563723  0.745893  1
  Al  Al26  1  0.558892  0.438694  0.249506  1
  Al  Al27  1  0.441108  0.561306  0.750494  1
  Al  Al28  1  0.001158  0.001469  0.250443  1
  Al  Al29  1  0.998842  0.998531  0.749557  1
  Zn  Zn30  1  0.000000  0.500000  0.000000  1
  Os  Os31  1  0.500000  0.000000  0.000000  1
  Os  Os32  1  0.500000  0.000000  0.500000  1
  Os  Os33  1  0.000000  0.500000  0.500000  1
  Os  Os34  1  0.500000  0.500000  0.500000  1
  Os  Os35  1  0.000000  0.000000  0.000000  1
  Os  Os36  1  0.000000  0.000000  0.500000  1
  Rh  Rh37  1  0.500000  0.500000  0.000000  1
