# generated using pymatgen
data_Ce3Y(SnRh2)4
_symmetry_space_group_name_H-M   'P 1'
_cell_length_a   4.50487500
_cell_length_b   7.03528438
_cell_length_c   9.90033681
_cell_angle_alpha   91.00315406
_cell_angle_beta   90.00000000
_cell_angle_gamma   90.00000000
_symmetry_Int_Tables_number   1
_chemical_formula_structural   Ce3Y(SnRh2)4
_chemical_formula_sum   'Ce3 Y1 Sn4 Rh8'
_cell_volume   313.72404306
_cell_formula_units_Z   1
loop_
 _symmetry_equiv_pos_site_id
 _symmetry_equiv_pos_as_xyz
  1  'x, y, z'
loop_
 _atom_site_type_symbol
 _atom_site_label
 _atom_site_symmetry_multiplicity
 _atom_site_fract_x
 _atom_site_fract_y
 _atom_site_fract_z
 _atom_site_occupancy
  Ce  Ce0  1  0.750000  0.689686  0.901579  1
  Ce  Ce1  1  0.750000  0.810146  0.402309  1
  Ce  Ce2  1  0.250000  0.190557  0.595011  1
  Y  Y3  1  0.250000  0.314830  0.098755  1
  Sn  Sn4  1  0.250000  0.794987  0.138481  1
  Sn  Sn5  1  0.750000  0.208848  0.866960  1
  Sn  Sn6  1  0.750000  0.291402  0.353153  1
  Sn  Sn7  1  0.250000  0.707616  0.638803  1
  Rh  Rh8  1  0.250000  0.521691  0.385802  1
  Rh  Rh9  1  0.750000  0.478422  0.607358  1
  Rh  Rh10  1  0.750000  0.021662  0.116702  1
  Rh  Rh11  1  0.250000  0.979756  0.891681  1
  Rh  Rh12  1  0.250000  0.081644  0.324765  1
  Rh  Rh13  1  0.750000  0.910010  0.688960  1
  Rh  Rh14  1  0.750000  0.590931  0.183810  1
  Rh  Rh15  1  0.250000  0.407814  0.805873  1
