# generated using pymatgen
data_SrLa3Os6O19
_symmetry_space_group_name_H-M   'P 1'
_cell_length_a   7.96676552
_cell_length_b   7.96676671
_cell_length_c   7.93769000
_cell_angle_alpha   109.39730660
_cell_angle_beta   109.39730960
_cell_angle_gamma   109.54503460
_symmetry_Int_Tables_number   1
_chemical_formula_structural   SrLa3Os6O19
_chemical_formula_sum   'Sr1 La3 Os6 O19'
_cell_volume   388.17870385
_cell_formula_units_Z   1
loop_
 _symmetry_equiv_pos_site_id
 _symmetry_equiv_pos_as_xyz
  1  'x, y, z'
loop_
 _atom_site_type_symbol
 _atom_site_label
 _atom_site_symmetry_multiplicity
 _atom_site_fract_x
 _atom_site_fract_y
 _atom_site_fract_z
 _atom_site_occupancy
  Sr  Sr0  1  0.000000  0.000000  0.319654  1
  La  La1  1  0.999167  0.307697  0.999167  1
  La  La2  1  0.692303  0.691470  0.691470  1
  La  La3  1  0.308530  0.000833  0.000000  1
  Os  Os4  1  0.364400  0.500418  0.863251  1
  Os  Os5  1  0.862837  0.361911  0.500091  1
  Os  Os6  1  0.499073  0.137163  0.637254  1
  Os  Os7  1  0.136018  0.635600  0.498850  1
  Os  Os8  1  0.499582  0.863982  0.362832  1
  Os  Os9  1  0.638089  0.500927  0.138181  1
  O  O10  1  0.328057  0.000823  0.324859  1
  O  O11  1  0.327480  0.327393  0.002254  1
  O  O12  1  0.999912  0.672520  0.674774  1
  O  O13  1  0.672766  0.671943  0.996801  1
  O  O14  1  0.999177  0.327234  0.324035  1
  O  O15  1  0.672607  0.000088  0.674861  1
  O  O16  1  0.000000  0.000000  0.977346  1
  O  O17  1  0.359312  0.295591  0.636695  1
  O  O18  1  0.062781  0.341454  0.710531  1
  O  O19  1  0.724283  0.369847  0.664202  1
  O  O20  1  0.370319  0.661643  0.721757  1
  O  O21  1  0.278673  0.937219  0.647749  1
  O  O22  1  0.630153  0.354435  0.294353  1
  O  O23  1  0.291323  0.629681  0.351438  1
  O  O24  1  0.704409  0.063720  0.341103  1
  O  O25  1  0.936280  0.640688  0.277383  1
  O  O26  1  0.658546  0.721327  0.369075  1
  O  O27  1  0.645565  0.275717  0.939919  1
  O  O28  1  0.338357  0.708677  0.060114  1
