# generated using pymatgen
data_BaPr7(Si3Pt)4
_symmetry_space_group_name_H-M   'P 1'
_cell_length_a   8.28960592
_cell_length_b   8.28960691
_cell_length_c   8.78206000
_cell_angle_alpha   90.00000000
_cell_angle_beta   90.00000000
_cell_angle_gamma   119.86303026
_symmetry_Int_Tables_number   1
_chemical_formula_structural   BaPr7(Si3Pt)4
_chemical_formula_sum   'Ba1 Pr7 Si12 Pt4'
_cell_volume   523.35046371
_cell_formula_units_Z   1
loop_
 _symmetry_equiv_pos_site_id
 _symmetry_equiv_pos_as_xyz
  1  'x, y, z'
loop_
 _atom_site_type_symbol
 _atom_site_label
 _atom_site_symmetry_multiplicity
 _atom_site_fract_x
 _atom_site_fract_y
 _atom_site_fract_z
 _atom_site_occupancy
  Ba  Ba0  1  0.499752  0.500248  0.750000  1
  Pr  Pr1  1  0.500061  0.499939  0.250000  1
  Pr  Pr2  1  0.000331  0.500121  0.750000  1
  Pr  Pr3  1  0.999921  0.499857  0.250000  1
  Pr  Pr4  1  0.499879  0.999669  0.750000  1
  Pr  Pr5  1  0.500143  0.000079  0.250000  1
  Pr  Pr6  1  0.999950  0.000050  0.750000  1
  Pr  Pr7  1  0.999953  0.000047  0.250000  1
  Si  Si8  1  0.834772  0.165228  0.000348  1
  Si  Si9  1  0.165274  0.834726  0.999200  1
  Si  Si10  1  0.331385  0.164182  0.007278  1
  Si  Si11  1  0.165274  0.834726  0.500800  1
  Si  Si12  1  0.668530  0.835761  0.006611  1
  Si  Si13  1  0.834772  0.165228  0.499652  1
  Si  Si14  1  0.835818  0.668615  0.007278  1
  Si  Si15  1  0.668530  0.835761  0.493389  1
  Si  Si16  1  0.164239  0.331470  0.006611  1
  Si  Si17  1  0.331385  0.164182  0.492722  1
  Si  Si18  1  0.164239  0.331470  0.493389  1
  Si  Si19  1  0.835818  0.668615  0.492722  1
  Pt  Pt20  1  0.668528  0.331472  0.005657  1
  Pt  Pt21  1  0.331458  0.668542  0.007056  1
  Pt  Pt22  1  0.331458  0.668542  0.492944  1
  Pt  Pt23  1  0.668528  0.331472  0.494343  1
