# generated using pymatgen
data_Hf3Zn2GaCuNi2
_symmetry_space_group_name_H-M   'P 1'
_cell_length_a   6.96528620
_cell_length_b   6.97830183
_cell_length_c   3.32713200
_cell_angle_alpha   90.00000000
_cell_angle_beta   90.00000000
_cell_angle_gamma   120.06183050
_symmetry_Int_Tables_number   1
_chemical_formula_structural   Hf3Zn2GaCuNi2
_chemical_formula_sum   'Hf3 Zn2 Ga1 Cu1 Ni2'
_cell_volume   139.96468025
_cell_formula_units_Z   1
loop_
 _symmetry_equiv_pos_site_id
 _symmetry_equiv_pos_as_xyz
  1  'x, y, z'
loop_
 _atom_site_type_symbol
 _atom_site_label
 _atom_site_symmetry_multiplicity
 _atom_site_fract_x
 _atom_site_fract_y
 _atom_site_fract_z
 _atom_site_occupancy
  Hf  Hf0  1  0.412917  0.407805  0.500000  1
  Hf  Hf1  1  0.587083  0.994888  0.500000  1
  Hf  Hf2  1  0.000000  0.597527  0.500000  1
  Zn  Zn3  1  0.735880  0.736170  0.000000  1
  Zn  Zn4  1  0.264120  0.000290  0.000000  1
  Ga  Ga5  1  0.000000  0.263664  0.000000  1
  Cu  Cu6  1  0.000000  0.002206  0.500000  1
  Ni  Ni7  1  0.669433  0.333440  0.000000  1
  Ni  Ni8  1  0.330567  0.664008  0.000000  1
