# generated using pymatgen
data_Dy5Y5(Sn3Ge)2
_symmetry_space_group_name_H-M   'P 1'
_cell_length_a   9.23709200
_cell_length_b   9.23709214
_cell_length_c   6.47330900
_cell_angle_alpha   90.00000000
_cell_angle_beta   90.00000000
_cell_angle_gamma   119.98659244
_symmetry_Int_Tables_number   1
_chemical_formula_structural   Dy5Y5(Sn3Ge)2
_chemical_formula_sum   'Dy5 Y5 Sn6 Ge2'
_cell_volume   478.39449535
_cell_formula_units_Z   1
loop_
 _symmetry_equiv_pos_site_id
 _symmetry_equiv_pos_as_xyz
  1  'x, y, z'
loop_
 _atom_site_type_symbol
 _atom_site_label
 _atom_site_symmetry_multiplicity
 _atom_site_fract_x
 _atom_site_fract_y
 _atom_site_fract_z
 _atom_site_occupancy
  Dy  Dy0  1  0.254396  0.999901  0.750000  1
  Dy  Dy1  1  0.999901  0.254396  0.750000  1
  Dy  Dy2  1  0.254579  0.254579  0.250000  1
  Dy  Dy3  1  0.745445  0.999994  0.250000  1
  Dy  Dy4  1  0.999994  0.745445  0.250000  1
  Y  Y5  1  0.666628  0.333289  0.999970  1
  Y  Y6  1  0.333289  0.666628  0.999970  1
  Y  Y7  1  0.333289  0.666628  0.500030  1
  Y  Y8  1  0.666628  0.333289  0.500030  1
  Y  Y9  1  0.745617  0.745617  0.750000  1
  Sn  Sn10  1  0.391239  0.391239  0.750000  1
  Sn  Sn11  1  0.608481  0.000186  0.750000  1
  Sn  Sn12  1  0.000186  0.608481  0.750000  1
  Sn  Sn13  1  0.608244  0.608244  0.250000  1
  Sn  Sn14  1  0.391370  0.999970  0.250000  1
  Sn  Sn15  1  0.999970  0.391370  0.250000  1
  Ge  Ge16  1  0.000371  0.000371  0.000485  1
  Ge  Ge17  1  0.000371  0.000371  0.499515  1
