# generated using pymatgen
data_Rb20Hf(ZrSb4)3
_symmetry_space_group_name_H-M   'P 1'
_cell_length_a   9.26945716
_cell_length_b   10.06400037
_cell_length_c   19.57885761
_cell_angle_alpha   59.91187566
_cell_angle_beta   90.09356804
_cell_angle_gamma   90.05836689
_symmetry_Int_Tables_number   1
_chemical_formula_structural   Rb20Hf(ZrSb4)3
_chemical_formula_sum   'Rb20 Hf1 Zr3 Sb12'
_cell_volume   1580.35987983
_cell_formula_units_Z   1
loop_
 _symmetry_equiv_pos_site_id
 _symmetry_equiv_pos_as_xyz
  1  'x, y, z'
loop_
 _atom_site_type_symbol
 _atom_site_label
 _atom_site_symmetry_multiplicity
 _atom_site_fract_x
 _atom_site_fract_y
 _atom_site_fract_z
 _atom_site_occupancy
  Rb  Rb0  1  0.172578  0.155977  0.260552  1
  Rb  Rb1  1  0.672218  0.843620  0.239729  1
  Rb  Rb2  1  0.827516  0.844003  0.739556  1
  Rb  Rb3  1  0.327553  0.156148  0.760344  1
  Rb  Rb4  1  0.167555  0.840127  0.579473  1
  Rb  Rb5  1  0.667483  0.160032  0.920439  1
  Rb  Rb6  1  0.832517  0.160202  0.420457  1
  Rb  Rb7  1  0.332586  0.839811  0.079673  1
  Rb  Rb8  1  0.003459  0.908901  0.908313  1
  Rb  Rb9  1  0.503511  0.091275  0.591613  1
  Rb  Rb10  1  0.996367  0.091146  0.091648  1
  Rb  Rb11  1  0.496548  0.908767  0.408330  1
  Rb  Rb12  1  0.513399  0.733970  0.922570  1
  Rb  Rb13  1  0.013527  0.266276  0.577241  1
  Rb  Rb14  1  0.486764  0.266159  0.077392  1
  Rb  Rb15  1  0.986778  0.733410  0.422622  1
  Rb  Rb16  1  0.987124  0.457799  0.744738  1
  Rb  Rb17  1  0.487258  0.542235  0.755214  1
  Rb  Rb18  1  0.013019  0.542174  0.255400  1
  Rb  Rb19  1  0.512735  0.457819  0.244900  1
  Hf  Hf20  1  0.368394  0.506281  0.419793  1
  Zr  Zr21  1  0.867978  0.493844  0.080519  1
  Zr  Zr22  1  0.631631  0.493841  0.580191  1
  Zr  Zr23  1  0.132051  0.506149  0.919497  1
  Sb  Sb24  1  0.252397  0.243354  0.922239  1
  Sb  Sb25  1  0.752442  0.756509  0.577800  1
  Sb  Sb26  1  0.747649  0.756591  0.077795  1
  Sb  Sb27  1  0.248553  0.245807  0.422180  1
  Sb  Sb28  1  0.178771  0.513427  0.063945  1
  Sb  Sb29  1  0.676999  0.486535  0.435622  1
  Sb  Sb30  1  0.821281  0.486501  0.936062  1
  Sb  Sb31  1  0.320610  0.513648  0.562907  1
  Sb  Sb32  1  0.285777  0.779686  0.282517  1
  Sb  Sb33  1  0.785235  0.217940  0.218785  1
  Sb  Sb34  1  0.714871  0.218103  0.718734  1
  Sb  Sb35  1  0.214867  0.781933  0.781212  1
