# generated using pymatgen
data_Sr7Sm(Si3Pt)4
_symmetry_space_group_name_H-M   'P 1'
_cell_length_a   8.34490800
_cell_length_b   8.34491032
_cell_length_c   9.07195300
_cell_angle_alpha   90.00000000
_cell_angle_beta   90.00000000
_cell_angle_gamma   119.99999080
_symmetry_Int_Tables_number   1
_chemical_formula_structural   Sr7Sm(Si3Pt)4
_chemical_formula_sum   'Sr7 Sm1 Si12 Pt4'
_cell_volume   547.11004741
_cell_formula_units_Z   1
loop_
 _symmetry_equiv_pos_site_id
 _symmetry_equiv_pos_as_xyz
  1  'x, y, z'
loop_
 _atom_site_type_symbol
 _atom_site_label
 _atom_site_symmetry_multiplicity
 _atom_site_fract_x
 _atom_site_fract_y
 _atom_site_fract_z
 _atom_site_occupancy
  Sr  Sr0  1  0.499749  0.500251  0.750000  1
  Sr  Sr1  1  0.500234  0.499766  0.250000  1
  Sr  Sr2  1  0.000503  0.500251  0.750000  1
  Sr  Sr3  1  0.999532  0.499766  0.250000  1
  Sr  Sr4  1  0.499749  0.999497  0.750000  1
  Sr  Sr5  1  0.500234  0.000468  0.250000  1
  Sr  Sr6  1  0.000000  0.000000  0.750000  1
  Sm  Sm7  1  0.000000  0.000000  0.250000  1
  Si  Si8  1  0.834644  0.165356  0.005532  1
  Si  Si9  1  0.165438  0.834562  0.006481  1
  Si  Si10  1  0.330711  0.165356  0.005532  1
  Si  Si11  1  0.165438  0.834562  0.493519  1
  Si  Si12  1  0.669123  0.834562  0.006481  1
  Si  Si13  1  0.834644  0.165356  0.494468  1
  Si  Si14  1  0.834644  0.669289  0.005532  1
  Si  Si15  1  0.669123  0.834562  0.493519  1
  Si  Si16  1  0.165438  0.330877  0.006481  1
  Si  Si17  1  0.330711  0.165356  0.494468  1
  Si  Si18  1  0.165438  0.330877  0.493519  1
  Si  Si19  1  0.834644  0.669289  0.494468  1
  Pt  Pt20  1  0.666667  0.333333  0.000120  1
  Pt  Pt21  1  0.333333  0.666667  0.000923  1
  Pt  Pt22  1  0.333333  0.666667  0.499077  1
  Pt  Pt23  1  0.666667  0.333333  0.499880  1
