# generated using pymatgen
data_DyY3(TmPt)4
_symmetry_space_group_name_H-M   'P 1'
_cell_length_a   4.75457600
_cell_length_b   7.12780504
_cell_length_c   8.71337617
_cell_angle_alpha   89.91036736
_cell_angle_beta   90.00000000
_cell_angle_gamma   90.00000000
_symmetry_Int_Tables_number   1
_chemical_formula_structural   DyY3(TmPt)4
_chemical_formula_sum   'Dy1 Y3 Tm4 Pt4'
_cell_volume   295.29326272
_cell_formula_units_Z   1
loop_
 _symmetry_equiv_pos_site_id
 _symmetry_equiv_pos_as_xyz
  1  'x, y, z'
loop_
 _atom_site_type_symbol
 _atom_site_label
 _atom_site_symmetry_multiplicity
 _atom_site_fract_x
 _atom_site_fract_y
 _atom_site_fract_z
 _atom_site_occupancy
  Dy  Dy0  1  0.250000  0.990717  0.330638  1
  Y  Y1  1  0.250000  0.489910  0.170525  1
  Y  Y2  1  0.750000  0.009706  0.670685  1
  Y  Y3  1  0.750000  0.509693  0.829696  1
  Tm  Tm4  1  0.250000  0.856721  0.921163  1
  Tm  Tm5  1  0.250000  0.356593  0.578694  1
  Tm  Tm6  1  0.750000  0.142845  0.078956  1
  Tm  Tm7  1  0.750000  0.643703  0.420924  1
  Pt  Pt8  1  0.250000  0.254112  0.906517  1
  Pt  Pt9  1  0.250000  0.754847  0.592667  1
  Pt  Pt10  1  0.750000  0.745928  0.093376  1
  Pt  Pt11  1  0.750000  0.245224  0.406159  1
