# generated using pymatgen
data_YHo11Tc4
_symmetry_space_group_name_H-M   'P 1'
_cell_length_a   6.30041300
_cell_length_b   7.43717291
_cell_length_c   9.25371900
_cell_angle_alpha   90.00000000
_cell_angle_beta   90.00000000
_cell_angle_gamma   89.86414031
_symmetry_Int_Tables_number   1
_chemical_formula_structural   YHo11Tc4
_chemical_formula_sum   'Y1 Ho11 Tc4'
_cell_volume   433.60270624
_cell_formula_units_Z   1
loop_
 _symmetry_equiv_pos_site_id
 _symmetry_equiv_pos_as_xyz
  1  'x, y, z'
loop_
 _atom_site_type_symbol
 _atom_site_label
 _atom_site_symmetry_multiplicity
 _atom_site_fract_x
 _atom_site_fract_y
 _atom_site_fract_z
 _atom_site_occupancy
  Y  Y0  1  0.873140  0.540653  0.250000  1
  Ho  Ho1  1  0.339321  0.675789  0.063388  1
  Ho  Ho2  1  0.161580  0.174495  0.437166  1
  Ho  Ho3  1  0.660419  0.324225  0.563860  1
  Ho  Ho4  1  0.838574  0.825480  0.936451  1
  Ho  Ho5  1  0.660419  0.324225  0.936140  1
  Ho  Ho6  1  0.838574  0.825480  0.563549  1
  Ho  Ho7  1  0.339321  0.675789  0.436612  1
  Ho  Ho8  1  0.161580  0.174495  0.062834  1
  Ho  Ho9  1  0.629001  0.043040  0.250000  1
  Ho  Ho10  1  0.128186  0.458066  0.750000  1
  Ho  Ho11  1  0.371847  0.957162  0.750000  1
  Tc  Tc12  1  0.041402  0.887808  0.250000  1
  Tc  Tc13  1  0.455035  0.385385  0.250000  1
  Tc  Tc14  1  0.960850  0.113993  0.750000  1
  Tc  Tc15  1  0.540751  0.613915  0.750000  1
