# generated using pymatgen
data_TbHo4Co16(P4Os)3
_symmetry_space_group_name_H-M   'P 1'
_cell_length_a   12.00641100
_cell_length_b   12.00641217
_cell_length_c   3.72169900
_cell_angle_alpha   90.00000000
_cell_angle_beta   90.00000000
_cell_angle_gamma   119.99999952
_symmetry_Int_Tables_number   1
_chemical_formula_structural   TbHo4Co16(P4Os)3
_chemical_formula_sum   'Tb1 Ho4 Co16 P12 Os3'
_cell_volume   464.62046359
_cell_formula_units_Z   1
loop_
 _symmetry_equiv_pos_site_id
 _symmetry_equiv_pos_as_xyz
  1  'x, y, z'
loop_
 _atom_site_type_symbol
 _atom_site_label
 _atom_site_symmetry_multiplicity
 _atom_site_fract_x
 _atom_site_fract_y
 _atom_site_fract_z
 _atom_site_occupancy
  Tb  Tb0  1  0.666667  0.333333  0.000000  1
  Ho  Ho1  1  0.333333  0.666667  0.000000  1
  Ho  Ho2  1  0.815407  0.815427  0.500000  1
  Ho  Ho3  1  0.184573  0.999980  0.500000  1
  Ho  Ho4  1  0.000020  0.184593  0.500000  1
  Co  Co5  1  0.874652  0.359147  0.500000  1
  Co  Co6  1  0.640853  0.515505  0.500000  1
  Co  Co7  1  0.484495  0.125348  0.500000  1
  Co  Co8  1  0.359126  0.874223  0.500000  1
  Co  Co9  1  0.515097  0.640874  0.500000  1
  Co  Co10  1  0.125777  0.484903  0.500000  1
  Co  Co11  1  0.803659  0.179726  0.000000  1
  Co  Co12  1  0.820274  0.623932  0.000000  1
  Co  Co13  1  0.376068  0.196341  0.000000  1
  Co  Co14  1  0.179875  0.803567  0.000000  1
  Co  Co15  1  0.623691  0.820125  0.000000  1
  Co  Co16  1  0.196433  0.376309  0.000000  1
  Co  Co17  1  0.283394  0.283430  0.500000  1
  Co  Co18  1  0.716570  0.999964  0.500000  1
  Co  Co19  1  0.000036  0.716606  0.500000  1
  Co  Co20  1  0.000000  0.000000  0.000000  1
  P  P21  1  0.687639  0.165821  0.500000  1
  P  P22  1  0.834179  0.521818  0.500000  1
  P  P23  1  0.478182  0.312361  0.500000  1
  P  P24  1  0.166326  0.687543  0.500000  1
  P  P25  1  0.521216  0.833674  0.500000  1
  P  P26  1  0.312457  0.478784  0.500000  1
  P  P27  1  0.179050  0.179053  0.000000  1
  P  P28  1  0.820947  0.999997  0.000000  1
  P  P29  1  0.000003  0.820950  0.000000  1
  P  P30  1  0.637713  0.637663  0.000000  1
  P  P31  1  0.362337  0.000050  0.000000  1
  P  P32  1  0.999950  0.362287  0.000000  1
  Os  Os33  1  0.446179  0.446211  0.000000  1
  Os  Os34  1  0.553789  0.999968  0.000000  1
  Os  Os35  1  0.000032  0.553821  0.000000  1
