# generated using pymatgen
data_TmTh3(Si5Rh3)2
_symmetry_space_group_name_H-M   'P 1'
_cell_length_a   8.22871584
_cell_length_b   8.23608815
_cell_length_c   8.23608861
_cell_angle_alpha   138.17634532
_cell_angle_beta   105.39234998
_cell_angle_gamma   89.40412571
_symmetry_Int_Tables_number   1
_chemical_formula_structural   TmTh3(Si5Rh3)2
_chemical_formula_sum   'Tm1 Th3 Si10 Rh6'
_cell_volume   343.28283145
_cell_formula_units_Z   1
loop_
 _symmetry_equiv_pos_site_id
 _symmetry_equiv_pos_as_xyz
  1  'x, y, z'
loop_
 _atom_site_type_symbol
 _atom_site_label
 _atom_site_symmetry_multiplicity
 _atom_site_fract_x
 _atom_site_fract_y
 _atom_site_fract_z
 _atom_site_occupancy
  Tm  Tm0  1  0.862192  0.630271  0.231921  1
  Th  Th1  1  0.135922  0.367859  0.768062  1
  Th  Th2  1  0.397499  0.130742  0.266757  1
  Th  Th3  1  0.602919  0.869840  0.733080  1
  Si  Si4  1  0.502893  0.749394  0.249242  1
  Si  Si5  1  0.502893  0.253651  0.753499  1
  Si  Si6  1  0.222750  0.972669  0.747118  1
  Si  Si7  1  0.774872  0.522591  0.750161  1
  Si  Si8  1  0.774872  0.024711  0.252281  1
  Si  Si9  1  0.222750  0.475632  0.250081  1
  Si  Si10  1  0.042098  0.890413  0.151685  1
  Si  Si11  1  0.955172  0.108210  0.846961  1
  Si  Si12  1  0.743882  0.396485  0.347396  1
  Si  Si13  1  0.259034  0.607528  0.651507  1
  Rh  Rh14  1  0.000045  0.751282  0.751209  1
  Rh  Rh15  1  0.000045  0.248836  0.248763  1
  Rh  Rh16  1  0.249267  0.860663  0.388604  1
  Rh  Rh17  1  0.750104  0.137917  0.612187  1
  Rh  Rh18  1  0.473309  0.362166  0.111142  1
  Rh  Rh19  1  0.527482  0.639140  0.888343  1
