# generated using pymatgen
data_Ti4Mo5Ir
_symmetry_space_group_name_H-M   'P 1'
_cell_length_a   4.44658913
_cell_length_b   8.22735251
_cell_length_c   4.43813100
_cell_angle_alpha   90.00000000
_cell_angle_beta   90.00000000
_cell_angle_gamma   74.19609507
_symmetry_Int_Tables_number   1
_chemical_formula_structural   Ti4Mo5Ir
_chemical_formula_sum   'Ti4 Mo5 Ir1'
_cell_volume   156.22564353
_cell_formula_units_Z   1
loop_
 _symmetry_equiv_pos_site_id
 _symmetry_equiv_pos_as_xyz
  1  'x, y, z'
loop_
 _atom_site_type_symbol
 _atom_site_label
 _atom_site_symmetry_multiplicity
 _atom_site_fract_x
 _atom_site_fract_y
 _atom_site_fract_z
 _atom_site_occupancy
  Ti  Ti0  1  0.085517  0.995176  0.000000  1
  Ti  Ti1  1  0.281510  0.604850  0.000000  1
  Ti  Ti2  1  0.586594  0.993958  0.500001  1
  Ti  Ti3  1  0.780061  0.606047  0.500001  1
  Mo  Mo4  1  0.480603  0.205749  0.000000  1
  Mo  Mo5  1  0.885492  0.394214  0.000000  1
  Mo  Mo6  1  0.683743  0.800028  0.000000  1
  Mo  Mo7  1  0.979938  0.205803  0.500001  1
  Mo  Mo8  1  0.386234  0.394171  0.500001  1
  Ir  Ir9  1  0.183485  0.800005  0.500001  1
