# generated using pymatgen
data_Hf4Si4Pt3Rh
_symmetry_space_group_name_H-M   'P 1'
_cell_length_a   3.88770200
_cell_length_b   6.58257048
_cell_length_c   7.57555741
_cell_angle_alpha   89.83949955
_cell_angle_beta   90.00000000
_cell_angle_gamma   90.00000000
_symmetry_Int_Tables_number   1
_chemical_formula_structural   Hf4Si4Pt3Rh
_chemical_formula_sum   'Hf4 Si4 Pt3 Rh1'
_cell_volume   193.86587751
_cell_formula_units_Z   1
loop_
 _symmetry_equiv_pos_site_id
 _symmetry_equiv_pos_as_xyz
  1  'x, y, z'
loop_
 _atom_site_type_symbol
 _atom_site_label
 _atom_site_symmetry_multiplicity
 _atom_site_fract_x
 _atom_site_fract_y
 _atom_site_fract_z
 _atom_site_occupancy
  Hf  Hf0  1  0.250000  0.527715  0.178407  1
  Hf  Hf1  1  0.750000  0.476821  0.820768  1
  Hf  Hf2  1  0.250000  0.023666  0.323968  1
  Hf  Hf3  1  0.750000  0.974329  0.676778  1
  Si  Si4  1  0.250000  0.763500  0.872534  1
  Si  Si5  1  0.750000  0.236479  0.122163  1
  Si  Si6  1  0.250000  0.267652  0.621317  1
  Si  Si7  1  0.750000  0.734277  0.384691  1
  Pt  Pt8  1  0.750000  0.849996  0.066907  1
  Pt  Pt9  1  0.250000  0.150345  0.934855  1
  Pt  Pt10  1  0.750000  0.350607  0.433639  1
  Rh  Rh11  1  0.250000  0.644615  0.563974  1
