# generated using pymatgen
data_Tb2Dy6Hf11Si16Ir
_symmetry_space_group_name_H-M   'P 1'
_cell_length_a   7.26196429
_cell_length_b   7.26192334
_cell_length_c   13.22561004
_cell_angle_alpha   89.74784135
_cell_angle_beta   90.25501642
_cell_angle_gamma   89.94776701
_symmetry_Int_Tables_number   1
_chemical_formula_structural   Tb2Dy6Hf11Si16Ir
_chemical_formula_sum   'Tb2 Dy6 Hf11 Si16 Ir1'
_cell_volume   697.44953075
_cell_formula_units_Z   1
loop_
 _symmetry_equiv_pos_site_id
 _symmetry_equiv_pos_as_xyz
  1  'x, y, z'
loop_
 _atom_site_type_symbol
 _atom_site_label
 _atom_site_symmetry_multiplicity
 _atom_site_fract_x
 _atom_site_fract_y
 _atom_site_fract_z
 _atom_site_occupancy
  Tb  Tb0  1  0.345352  0.997621  0.788971  1
  Tb  Tb1  1  0.652972  0.005901  0.282692  1
  Dy  Dy2  1  0.997831  0.345507  0.211012  1
  Dy  Dy3  1  0.005749  0.652856  0.717267  1
  Dy  Dy4  1  0.155260  0.493928  0.465014  1
  Dy  Dy5  1  0.502127  0.848528  0.032810  1
  Dy  Dy6  1  0.848580  0.502141  0.967202  1
  Dy  Dy7  1  0.493914  0.155321  0.534957  1
  Hf  Hf8  1  0.824495  0.824397  0.500037  1
  Hf  Hf9  1  0.322440  0.676416  0.247850  1
  Hf  Hf10  1  0.676578  0.322618  0.752128  1
  Hf  Hf11  1  0.146002  0.997730  0.371603  1
  Hf  Hf12  1  0.854091  0.003157  0.878565  1
  Hf  Hf13  1  0.502373  0.646920  0.626014  1
  Hf  Hf14  1  0.354207  0.496559  0.877488  1
  Hf  Hf15  1  0.496544  0.354290  0.122493  1
  Hf  Hf16  1  0.646990  0.502376  0.373984  1
  Hf  Hf17  1  0.997743  0.145975  0.628387  1
  Hf  Hf18  1  0.003184  0.854076  0.121418  1
  Si  Si19  1  0.358505  0.296159  0.314789  1
  Si  Si20  1  0.640479  0.704725  0.818672  1
  Si  Si21  1  0.206020  0.860989  0.567201  1
  Si  Si22  1  0.136655  0.789518  0.931108  1
  Si  Si23  1  0.789805  0.136865  0.068958  1
  Si  Si24  1  0.861155  0.206204  0.432856  1
  Si  Si25  1  0.295965  0.358891  0.685143  1
  Si  Si26  1  0.704881  0.640122  0.181288  1
  Si  Si27  1  0.291275  0.057153  0.179853  1
  Si  Si28  1  0.704382  0.949715  0.685895  1
  Si  Si29  1  0.449185  0.795815  0.434721  1
  Si  Si30  1  0.208277  0.554183  0.063344  1
  Si  Si31  1  0.554370  0.208410  0.936756  1
  Si  Si32  1  0.795959  0.449356  0.565330  1
  Si  Si33  1  0.056973  0.291639  0.820095  1
  Si  Si34  1  0.949904  0.704083  0.314026  1
  Ir  Ir35  1  0.169778  0.169857  0.000075  1
