# generated using pymatgen
data_Tb2YbMg3ZnPb2
_symmetry_space_group_name_H-M   'P 1'
_cell_length_a   7.55783400
_cell_length_b   7.57305619
_cell_length_c   4.62778400
_cell_angle_alpha   90.00000000
_cell_angle_beta   90.00000000
_cell_angle_gamma   119.93352175
_symmetry_Int_Tables_number   1
_chemical_formula_structural   Tb2YbMg3ZnPb2
_chemical_formula_sum   'Tb2 Yb1 Mg3 Zn1 Pb2'
_cell_volume   229.54232430
_cell_formula_units_Z   1
loop_
 _symmetry_equiv_pos_site_id
 _symmetry_equiv_pos_as_xyz
  1  'x, y, z'
loop_
 _atom_site_type_symbol
 _atom_site_label
 _atom_site_symmetry_multiplicity
 _atom_site_fract_x
 _atom_site_fract_y
 _atom_site_fract_z
 _atom_site_occupancy
  Tb  Tb0  1  0.998161  0.585325  0.000000  1
  Tb  Tb1  1  0.412836  0.414675  0.000000  1
  Yb  Yb2  1  0.586490  0.000000  0.000000  1
  Mg  Mg3  1  0.231861  0.000000  0.500000  1
  Mg  Mg4  1  0.001140  0.233595  0.500000  1
  Mg  Mg5  1  0.767545  0.766405  0.500000  1
  Zn  Zn6  1  0.004423  0.000000  0.000000  1
  Pb  Pb7  1  0.330659  0.663773  0.500000  1
  Pb  Pb8  1  0.666887  0.336227  0.500000  1
