# generated using pymatgen
data_V23TcP8
_symmetry_space_group_name_H-M   'P 1'
_cell_length_a   9.35877587
_cell_length_b   9.34779598
_cell_length_c   4.73116125
_cell_angle_alpha   89.97162728
_cell_angle_beta   89.97546407
_cell_angle_gamma   89.81137916
_symmetry_Int_Tables_number   1
_chemical_formula_structural   V23TcP8
_chemical_formula_sum   'V23 Tc1 P8'
_cell_volume   413.89823620
_cell_formula_units_Z   1
loop_
 _symmetry_equiv_pos_site_id
 _symmetry_equiv_pos_as_xyz
  1  'x, y, z'
loop_
 _atom_site_type_symbol
 _atom_site_label
 _atom_site_symmetry_multiplicity
 _atom_site_fract_x
 _atom_site_fract_y
 _atom_site_fract_z
 _atom_site_occupancy
  V  V0  1  0.333648  0.841933  0.734247  1
  V  V1  1  0.342292  0.666980  0.233433  1
  V  V2  1  0.159812  0.834417  0.236905  1
  V  V3  1  0.832932  0.340599  0.264737  1
  V  V4  1  0.666824  0.158759  0.264961  1
  V  V5  1  0.658783  0.333557  0.765272  1
  V  V6  1  0.840900  0.166202  0.764842  1
  V  V7  1  0.101785  0.258314  0.510797  1
  V  V8  1  0.398520  0.241753  0.512565  1
  V  V9  1  0.742621  0.602181  0.009979  1
  V  V10  1  0.757611  0.898389  0.010919  1
  V  V11  1  0.898381  0.740707  0.489540  1
  V  V12  1  0.601645  0.758824  0.489029  1
  V  V13  1  0.256777  0.398407  0.989880  1
  V  V14  1  0.242806  0.101658  0.988398  1
  V  V15  1  0.049896  0.533027  0.243579  1
  V  V16  1  0.448189  0.965398  0.242167  1
  V  V17  1  0.466780  0.552081  0.742307  1
  V  V18  1  0.034810  0.950379  0.741831  1
  V  V19  1  0.945193  0.461363  0.755946  1
  V  V20  1  0.553562  0.036806  0.756912  1
  V  V21  1  0.535086  0.448615  0.256762  1
  V  V22  1  0.964921  0.051409  0.257260  1
  Tc  Tc23  1  0.165825  0.656920  0.736265  1
  P  P24  1  0.041428  0.265760  0.013420  1
  P  P25  1  0.458347  0.233362  0.014311  1
  P  P26  1  0.732079  0.541786  0.512275  1
  P  P27  1  0.767972  0.957947  0.513108  1
  P  P28  1  0.957716  0.734530  0.989823  1
  P  P29  1  0.541901  0.767953  0.986427  1
  P  P30  1  0.268011  0.457469  0.485883  1
  P  P31  1  0.232946  0.042512  0.486212  1
