# generated using pymatgen
data_ErPa3MnO10
_symmetry_space_group_name_H-M   'P 1'
_cell_length_a   6.50107773
_cell_length_b   6.50107962
_cell_length_c   6.47081500
_cell_angle_alpha   100.30628440
_cell_angle_beta   98.93291658
_cell_angle_gamma   131.86429495
_symmetry_Int_Tables_number   1
_chemical_formula_structural   ErPa3MnO10
_chemical_formula_sum   'Er1 Pa3 Mn1 O10'
_cell_volume   185.77085299
_cell_formula_units_Z   1
loop_
 _symmetry_equiv_pos_site_id
 _symmetry_equiv_pos_as_xyz
  1  'x, y, z'
loop_
 _atom_site_type_symbol
 _atom_site_label
 _atom_site_symmetry_multiplicity
 _atom_site_fract_x
 _atom_site_fract_y
 _atom_site_fract_z
 _atom_site_occupancy
  Er  Er0  1  0.002599  0.004288  0.006887  1
  Pa  Pa1  1  0.794625  0.598002  0.392629  1
  Pa  Pa2  1  0.198637  0.400995  0.599632  1
  Pa  Pa3  1  0.605910  0.199274  0.805183  1
  Mn  Mn4  1  0.398023  0.796975  0.194998  1
  O  O5  1  0.244805  0.749548  0.504164  1
  O  O6  1  0.647257  0.543569  0.697642  1
  O  O7  1  0.042835  0.342490  0.889525  1
  O  O8  1  0.456569  0.157873  0.098844  1
  O  O9  1  0.856299  0.954415  0.310160  1
  O  O10  1  0.355746  0.453862  0.310160  1
  O  O11  1  0.754618  0.259362  0.504164  1
  O  O12  1  0.154073  0.050385  0.697643  1
  O  O13  1  0.547034  0.846688  0.889526  1
  O  O14  1  0.940971  0.642275  0.098843  1
