# generated using pymatgen
data_Tb2HoTh11Ir6
_symmetry_space_group_name_H-M   'P 1'
_cell_length_a   9.98774794
_cell_length_b   10.02067525
_cell_length_c   6.34966014
_cell_angle_alpha   90.31901025
_cell_angle_beta   89.77519377
_cell_angle_gamma   120.08325373
_symmetry_Int_Tables_number   1
_chemical_formula_structural   Tb2HoTh11Ir6
_chemical_formula_sum   'Tb2 Ho1 Th11 Ir6'
_cell_volume   549.88721240
_cell_formula_units_Z   1
loop_
 _symmetry_equiv_pos_site_id
 _symmetry_equiv_pos_as_xyz
  1  'x, y, z'
loop_
 _atom_site_type_symbol
 _atom_site_label
 _atom_site_symmetry_multiplicity
 _atom_site_fract_x
 _atom_site_fract_y
 _atom_site_fract_z
 _atom_site_occupancy
  Tb  Tb0  1  0.077636  0.537674  0.301148  1
  Tb  Tb1  1  0.924148  0.462967  0.802542  1
  Ho  Ho2  1  0.459754  0.539577  0.296409  1
  Th  Th3  1  0.253813  0.128862  0.500801  1
  Th  Th4  1  0.543617  0.085318  0.792556  1
  Th  Th5  1  0.745486  0.873127  0.001673  1
  Th  Th6  1  0.664959  0.331417  0.292925  1
  Th  Th7  1  0.127276  0.869190  0.001645  1
  Th  Th8  1  0.456309  0.911510  0.289967  1
  Th  Th9  1  0.542780  0.458987  0.795932  1
  Th  Th10  1  0.873471  0.130428  0.503693  1
  Th  Th11  1  0.126671  0.256707  0.001859  1
  Th  Th12  1  0.869540  0.741988  0.500033  1
  Th  Th13  1  0.335015  0.667643  0.782841  1
  Ir  Ir14  1  0.810049  0.624807  0.055964  1
  Ir  Ir15  1  0.811993  0.187004  0.055411  1
  Ir  Ir16  1  0.626966  0.815941  0.549952  1
  Ir  Ir17  1  0.375030  0.188935  0.051018  1
  Ir  Ir18  1  0.186240  0.373060  0.554716  1
  Ir  Ir19  1  0.189249  0.814857  0.552917  1
