# generated using pymatgen
data_TbCe8Ho(SiB4)4
_symmetry_space_group_name_H-M   'P 1'
_cell_length_a   7.32031600
_cell_length_b   7.32031600
_cell_length_c   8.26795200
_cell_angle_alpha   90.00000000
_cell_angle_beta   90.00000000
_cell_angle_gamma   90.00000000
_symmetry_Int_Tables_number   1
_chemical_formula_structural   TbCe8Ho(SiB4)4
_chemical_formula_sum   'Tb1 Ce8 Ho1 Si4 B16'
_cell_volume   443.05496160
_cell_formula_units_Z   1
loop_
 _symmetry_equiv_pos_site_id
 _symmetry_equiv_pos_as_xyz
  1  'x, y, z'
loop_
 _atom_site_type_symbol
 _atom_site_label
 _atom_site_symmetry_multiplicity
 _atom_site_fract_x
 _atom_site_fract_y
 _atom_site_fract_z
 _atom_site_occupancy
  Tb  Tb0  1  0.500000  0.500000  0.500000  1
  Ce  Ce1  1  0.682535  0.182529  0.226516  1
  Ce  Ce2  1  0.317465  0.817471  0.773484  1
  Ce  Ce3  1  0.317465  0.817471  0.226516  1
  Ce  Ce4  1  0.817471  0.682535  0.226516  1
  Ce  Ce5  1  0.817471  0.682535  0.773484  1
  Ce  Ce6  1  0.682535  0.182529  0.773484  1
  Ce  Ce7  1  0.182529  0.317465  0.773484  1
  Ce  Ce8  1  0.182529  0.317465  0.226516  1
  Ho  Ho9  1  0.000000  0.000000  0.500000  1
  Si  Si10  1  0.114183  0.615937  0.500000  1
  Si  Si11  1  0.885817  0.384063  0.500000  1
  Si  Si12  1  0.384063  0.114183  0.500000  1
  Si  Si13  1  0.615937  0.885817  0.500000  1
  B  B14  1  0.172622  0.039061  0.000000  1
  B  B15  1  0.827378  0.960939  0.000000  1
  B  B16  1  0.960939  0.172622  0.000000  1
  B  B17  1  0.327384  0.539074  0.000000  1
  B  B18  1  0.039061  0.827378  0.000000  1
  B  B19  1  0.672616  0.460926  0.000000  1
  B  B20  1  0.539074  0.672616  0.000000  1
  B  B21  1  0.460926  0.327384  0.000000  1
  B  B22  1  0.091424  0.591424  0.000000  1
  B  B23  1  0.908576  0.408576  0.000000  1
  B  B24  1  0.408576  0.091424  0.000000  1
  B  B25  1  0.591424  0.908576  0.000000  1
  B  B26  1  0.000000  0.000000  0.159106  1
  B  B27  1  0.000000  0.000000  0.840894  1
  B  B28  1  0.500000  0.500000  0.841255  1
  B  B29  1  0.500000  0.500000  0.158745  1
