# generated using pymatgen
data_Er16CdIn3RuRh3
_symmetry_space_group_name_H-M   'P 1'
_cell_length_a   9.56075277
_cell_length_b   9.55204242
_cell_length_c   9.56075400
_cell_angle_alpha   59.96983320
_cell_angle_beta   60.00000266
_cell_angle_gamma   59.96983632
_symmetry_Int_Tables_number   1
_chemical_formula_structural   Er16CdIn3RuRh3
_chemical_formula_sum   'Er16 Cd1 In3 Ru1 Rh3'
_cell_volume   617.11672824
_cell_formula_units_Z   1
loop_
 _symmetry_equiv_pos_site_id
 _symmetry_equiv_pos_as_xyz
  1  'x, y, z'
loop_
 _atom_site_type_symbol
 _atom_site_label
 _atom_site_symmetry_multiplicity
 _atom_site_fract_x
 _atom_site_fract_y
 _atom_site_fract_z
 _atom_site_occupancy
  Er  Er0  1  0.186743  0.191034  0.811112  1
  Er  Er1  1  0.436935  0.061297  0.064833  1
  Er  Er2  1  0.436935  0.061297  0.436935  1
  Er  Er3  1  0.061972  0.435908  0.061972  1
  Er  Er4  1  0.649488  0.051535  0.649488  1
  Er  Er5  1  0.187775  0.812188  0.812262  1
  Er  Er6  1  0.064833  0.061297  0.436935  1
  Er  Er7  1  0.811112  0.191034  0.186743  1
  Er  Er8  1  0.812262  0.812188  0.187775  1
  Er  Er9  1  0.650134  0.648317  0.051416  1
  Er  Er10  1  0.650134  0.648317  0.650134  1
  Er  Er11  1  0.061972  0.435908  0.440148  1
  Er  Er12  1  0.051416  0.648317  0.650134  1
  Er  Er13  1  0.811112  0.191034  0.811112  1
  Er  Er14  1  0.440148  0.435908  0.061972  1
  Er  Er15  1  0.187775  0.812188  0.187775  1
  Cd  Cd16  1  0.417715  0.746855  0.417715  1
  In  In17  1  0.416570  0.418086  0.748773  1
  In  In18  1  0.748773  0.418086  0.416570  1
  In  In19  1  0.416570  0.418086  0.416570  1
  Ru  Ru20  1  0.856450  0.430650  0.856450  1
  Rh  Rh21  1  0.857394  0.856824  0.428389  1
  Rh  Rh22  1  0.428389  0.856824  0.857394  1
  Rh  Rh23  1  0.857394  0.856824  0.857394  1
