# generated using pymatgen
data_Yb5PaRu2
_symmetry_space_group_name_H-M   'P 1'
_cell_length_a   6.36876700
_cell_length_b   7.51169685
_cell_length_c   9.61605800
_cell_angle_alpha   90.00000000
_cell_angle_beta   90.00000000
_cell_angle_gamma   86.95151924
_symmetry_Int_Tables_number   1
_chemical_formula_structural   Yb5PaRu2
_chemical_formula_sum   'Yb10 Pa2 Ru4'
_cell_volume   459.38359213
_cell_formula_units_Z   2
loop_
 _symmetry_equiv_pos_site_id
 _symmetry_equiv_pos_as_xyz
  1  'x, y, z'
loop_
 _atom_site_type_symbol
 _atom_site_label
 _atom_site_symmetry_multiplicity
 _atom_site_fract_x
 _atom_site_fract_y
 _atom_site_fract_z
 _atom_site_occupancy
  Yb  Yb0  1  0.669810  0.167783  0.066677  1
  Yb  Yb1  1  0.367404  0.537914  0.250000  1
  Yb  Yb2  1  0.844573  0.677390  0.068298  1
  Yb  Yb3  1  0.155427  0.322610  0.931702  1
  Yb  Yb4  1  0.330190  0.832217  0.933323  1
  Yb  Yb5  1  0.632596  0.462086  0.750000  1
  Yb  Yb6  1  0.330190  0.832217  0.566677  1
  Yb  Yb7  1  0.155427  0.322610  0.568298  1
  Yb  Yb8  1  0.844573  0.677390  0.431702  1
  Yb  Yb9  1  0.669810  0.167783  0.433323  1
  Pa  Pa10  1  0.840219  0.941925  0.750000  1
  Pa  Pa11  1  0.159781  0.058075  0.250000  1
  Ru  Ru12  1  0.992743  0.338580  0.250000  1
  Ru  Ru13  1  0.520775  0.104120  0.750000  1
  Ru  Ru14  1  0.479225  0.895880  0.250000  1
  Ru  Ru15  1  0.007257  0.661420  0.750000  1
