# generated using pymatgen
data_K5Rb5Sr2(TaP4)2
_symmetry_space_group_name_H-M   'P 1'
_cell_length_a   10.45417719
_cell_length_b   10.44999470
_cell_length_c   7.79099342
_cell_angle_alpha   88.17415223
_cell_angle_beta   88.35503909
_cell_angle_gamma   120.98915016
_symmetry_Int_Tables_number   1
_chemical_formula_structural   K5Rb5Sr2(TaP4)2
_chemical_formula_sum   'K5 Rb5 Sr2 Ta2 P8'
_cell_volume   728.26673297
_cell_formula_units_Z   1
loop_
 _symmetry_equiv_pos_site_id
 _symmetry_equiv_pos_as_xyz
  1  'x, y, z'
loop_
 _atom_site_type_symbol
 _atom_site_label
 _atom_site_symmetry_multiplicity
 _atom_site_fract_x
 _atom_site_fract_y
 _atom_site_fract_z
 _atom_site_occupancy
  K  K0  1  0.465575  0.528660  0.497385  1
  K  K1  1  0.060090  0.529361  0.500298  1
  K  K2  1  0.528146  0.464885  0.997985  1
  K  K3  1  0.530585  0.059596  0.001344  1
  K  K4  1  0.857604  0.144974  0.680398  1
  Rb  Rb5  1  0.291856  0.152096  0.726556  1
  Rb  Rb6  1  0.856474  0.720207  0.657515  1
  Rb  Rb7  1  0.140042  0.864568  0.182093  1
  Rb  Rb8  1  0.720427  0.857030  0.157859  1
  Rb  Rb9  1  0.152142  0.291914  0.227510  1
  Sr  Sr10  1  0.463569  0.934061  0.491673  1
  Sr  Sr11  1  0.934029  0.461131  0.992961  1
  Ta  Ta12  1  0.670611  0.329388  0.393673  1
  Ta  Ta13  1  0.329979  0.669039  0.889900  1
  P  P14  1  0.689940  0.339728  0.702917  1
  P  P15  1  0.340014  0.687993  0.199015  1
  P  P16  1  0.789836  0.198710  0.286720  1
  P  P17  1  0.411710  0.191109  0.321709  1
  P  P18  1  0.797299  0.578283  0.260458  1
  P  P19  1  0.200848  0.789009  0.781689  1
  P  P20  1  0.581315  0.799850  0.760172  1
  P  P21  1  0.187907  0.408405  0.818751  1
