# generated using pymatgen
data_Y2Ho(TmFe6)3
_symmetry_space_group_name_H-M   'P 1'
_cell_length_a   5.08144300
_cell_length_b   5.08144299
_cell_length_c   16.07353500
_cell_angle_alpha   90.00000000
_cell_angle_beta   90.00000000
_cell_angle_gamma   119.99999357
_symmetry_Int_Tables_number   1
_chemical_formula_structural   Y2Ho(TmFe6)3
_chemical_formula_sum   'Y2 Ho1 Tm3 Fe18'
_cell_volume   359.43153339
_cell_formula_units_Z   1
loop_
 _symmetry_equiv_pos_site_id
 _symmetry_equiv_pos_as_xyz
  1  'x, y, z'
loop_
 _atom_site_type_symbol
 _atom_site_label
 _atom_site_symmetry_multiplicity
 _atom_site_fract_x
 _atom_site_fract_y
 _atom_site_fract_z
 _atom_site_occupancy
  Y  Y0  1  0.333333  0.666667  0.750887  1
  Y  Y1  1  0.666667  0.333333  0.249686  1
  Ho  Ho2  1  0.333333  0.666667  0.536723  1
  Tm  Tm3  1  0.333333  0.666667  0.963261  1
  Tm  Tm4  1  0.666667  0.333333  0.036669  1
  Tm  Tm5  1  0.666667  0.333333  0.462694  1
  Fe  Fe6  1  0.166978  0.833022  0.372854  1
  Fe  Fe7  1  0.166978  0.333956  0.372854  1
  Fe  Fe8  1  0.666044  0.833022  0.372854  1
  Fe  Fe9  1  0.832717  0.167283  0.627296  1
  Fe  Fe10  1  0.832717  0.665432  0.627296  1
  Fe  Fe11  1  0.334568  0.167283  0.627296  1
  Fe  Fe12  1  0.832622  0.167378  0.873620  1
  Fe  Fe13  1  0.832622  0.665242  0.873620  1
  Fe  Fe14  1  0.334758  0.167378  0.873620  1
  Fe  Fe15  1  0.167307  0.832693  0.126346  1
  Fe  Fe16  1  0.167307  0.334614  0.126346  1
  Fe  Fe17  1  0.665386  0.832693  0.126346  1
  Fe  Fe18  1  0.333333  0.666667  0.249774  1
  Fe  Fe19  1  0.666667  0.333333  0.750348  1
  Fe  Fe20  1  0.000000  0.000000  0.249541  1
  Fe  Fe21  1  0.000000  0.000000  0.750439  1
  Fe  Fe22  1  0.000000  0.000000  0.499764  1
  Fe  Fe23  1  0.000000  0.000000  0.999869  1
