# generated using pymatgen
data_Ca4Si5Rh9
_symmetry_space_group_name_H-M   'P 1'
_cell_length_a   11.48206564
_cell_length_b   11.48206525
_cell_length_c   11.48206555
_cell_angle_alpha   28.47528497
_cell_angle_beta   28.47528863
_cell_angle_gamma   28.47528873
_symmetry_Int_Tables_number   1
_chemical_formula_structural   Ca4Si5Rh9
_chemical_formula_sum   'Ca4 Si5 Rh9'
_cell_volume   304.13344480
_cell_formula_units_Z   1
loop_
 _symmetry_equiv_pos_site_id
 _symmetry_equiv_pos_as_xyz
  1  'x, y, z'
loop_
 _atom_site_type_symbol
 _atom_site_label
 _atom_site_symmetry_multiplicity
 _atom_site_fract_x
 _atom_site_fract_y
 _atom_site_fract_z
 _atom_site_occupancy
  Ca  Ca0  1  0.949506  0.949506  0.949506  1
  Ca  Ca1  1  0.852181  0.852181  0.852181  1
  Ca  Ca2  1  0.147819  0.147819  0.147819  1
  Ca  Ca3  1  0.050494  0.050494  0.050494  1
  Si  Si4  1  0.278103  0.278103  0.278103  1
  Si  Si5  1  0.500000  0.500000  0.500000  1
  Si  Si6  1  0.387747  0.387747  0.387747  1
  Si  Si7  1  0.721897  0.721897  0.721897  1
  Si  Si8  1  0.612253  0.612253  0.612253  1
  Rh  Rh9  1  0.605690  0.605690  0.110758  1
  Rh  Rh10  1  0.889242  0.394310  0.394310  1
  Rh  Rh11  1  0.500000  0.000000  0.500000  1
  Rh  Rh12  1  0.394310  0.889242  0.394310  1
  Rh  Rh13  1  0.500000  0.500000  0.000000  1
  Rh  Rh14  1  0.110758  0.605690  0.605690  1
  Rh  Rh15  1  0.000000  0.500000  0.500000  1
  Rh  Rh16  1  0.394310  0.394310  0.889242  1
  Rh  Rh17  1  0.605690  0.110758  0.605690  1
