# generated using pymatgen
data_Ce2Er2As6Ru7
_symmetry_space_group_name_H-M   'P 1'
_cell_length_a   7.26139214
_cell_length_b   7.25305535
_cell_length_c   7.25305676
_cell_angle_alpha   109.55044887
_cell_angle_beta   109.40842831
_cell_angle_gamma   109.40842252
_symmetry_Int_Tables_number   1
_chemical_formula_structural   Ce2Er2As6Ru7
_chemical_formula_sum   'Ce2 Er2 As6 Ru7'
_cell_volume   294.23046801
_cell_formula_units_Z   1
loop_
 _symmetry_equiv_pos_site_id
 _symmetry_equiv_pos_as_xyz
  1  'x, y, z'
loop_
 _atom_site_type_symbol
 _atom_site_label
 _atom_site_symmetry_multiplicity
 _atom_site_fract_x
 _atom_site_fract_y
 _atom_site_fract_z
 _atom_site_occupancy
  Ce  Ce0  1  0.500000  0.000000  0.000000  1
  Ce  Ce1  1  0.500000  0.500000  0.500000  1
  Er  Er2  1  0.000000  0.000000  0.500000  1
  Er  Er3  1  0.000000  0.500000  0.000000  1
  As  As4  1  0.312725  0.995228  0.317497  1
  As  As5  1  0.000000  0.317352  0.317352  1
  As  As6  1  0.000000  0.682648  0.682648  1
  As  As7  1  0.312725  0.317497  0.995228  1
  As  As8  1  0.687275  0.682503  0.004772  1
  As  As9  1  0.687275  0.004772  0.682503  1
  Ru  Ru10  1  0.750098  0.499772  0.250326  1
  Ru  Ru11  1  0.500000  0.750000  0.250000  1
  Ru  Ru12  1  0.500000  0.250000  0.750000  1
  Ru  Ru13  1  0.750098  0.250326  0.499772  1
  Ru  Ru14  1  0.249902  0.749674  0.500228  1
  Ru  Ru15  1  0.249902  0.500228  0.749674  1
  Ru  Ru16  1  0.000000  0.000000  0.000000  1
