# generated using pymatgen
data_Lu4In2HgAu3
_symmetry_space_group_name_H-M   'P 1'
_cell_length_a   7.94098614
_cell_length_b   7.94098614
_cell_length_c   7.29425700
_cell_angle_alpha   90.00000000
_cell_angle_beta   90.00000000
_cell_angle_gamma   89.91588523
_symmetry_Int_Tables_number   1
_chemical_formula_structural   Lu4In2HgAu3
_chemical_formula_sum   'Lu8 In4 Hg2 Au6'
_cell_volume   459.96995931
_cell_formula_units_Z   2
loop_
 _symmetry_equiv_pos_site_id
 _symmetry_equiv_pos_as_xyz
  1  'x, y, z'
loop_
 _atom_site_type_symbol
 _atom_site_label
 _atom_site_symmetry_multiplicity
 _atom_site_fract_x
 _atom_site_fract_y
 _atom_site_fract_z
 _atom_site_occupancy
  Lu  Lu0  1  0.846792  0.153208  0.504469  1
  Lu  Lu1  1  0.153208  0.846792  0.504469  1
  Lu  Lu2  1  0.340131  0.340131  0.991080  1
  Lu  Lu3  1  0.659869  0.659869  0.991080  1
  Lu  Lu4  1  0.686368  0.686368  0.508012  1
  Lu  Lu5  1  0.313632  0.313632  0.508012  1
  Lu  Lu6  1  0.178474  0.821527  0.994742  1
  Lu  Lu7  1  0.821527  0.178474  0.994742  1
  In  In8  1  0.500000  0.000000  0.247990  1
  In  In9  1  0.000000  0.500000  0.751601  1
  In  In10  1  0.500000  0.000000  0.751601  1
  In  In11  1  0.000000  0.500000  0.247990  1
  Hg  Hg12  1  0.629742  0.370258  0.278128  1
  Hg  Hg13  1  0.370258  0.629742  0.278128  1
  Au  Au14  1  0.129024  0.129024  0.774295  1
  Au  Au15  1  0.870976  0.870976  0.774295  1
  Au  Au16  1  0.371174  0.628826  0.723878  1
  Au  Au17  1  0.628826  0.371174  0.723878  1
  Au  Au18  1  0.870040  0.870040  0.225807  1
  Au  Au19  1  0.129960  0.129960  0.225807  1
