# generated using pymatgen
data_TbY3(GaRu)4
_symmetry_space_group_name_H-M   'P 1'
_cell_length_a   7.20443414
_cell_length_b   4.50662100
_cell_length_c   7.16894551
_cell_angle_alpha   90.00000000
_cell_angle_beta   89.78779965
_cell_angle_gamma   90.00000000
_symmetry_Int_Tables_number   1
_chemical_formula_structural   TbY3(GaRu)4
_chemical_formula_sum   'Tb1 Y3 Ga4 Ru4'
_cell_volume   232.75724722
_cell_formula_units_Z   1
loop_
 _symmetry_equiv_pos_site_id
 _symmetry_equiv_pos_as_xyz
  1  'x, y, z'
loop_
 _atom_site_type_symbol
 _atom_site_label
 _atom_site_symmetry_multiplicity
 _atom_site_fract_x
 _atom_site_fract_y
 _atom_site_fract_z
 _atom_site_occupancy
  Tb  Tb0  1  0.017477  0.749999  0.197529  1
  Y  Y1  1  0.516900  0.749999  0.303239  1
  Y  Y2  1  0.483453  0.249999  0.696487  1
  Y  Y3  1  0.983261  0.249999  0.803752  1
  Ga  Ga4  1  0.304410  0.249999  0.104421  1
  Ga  Ga5  1  0.802364  0.249999  0.396036  1
  Ga  Ga6  1  0.197142  0.749999  0.604569  1
  Ga  Ga7  1  0.695797  0.749999  0.894983  1
  Ru  Ru8  1  0.661058  0.249999  0.064947  1
  Ru  Ru9  1  0.159829  0.249999  0.434534  1
  Ru  Ru10  1  0.840141  0.749999  0.564368  1
  Ru  Ru11  1  0.338164  0.749999  0.935133  1
