# generated using pymatgen
data_LaErFe3Tc14C3
_symmetry_space_group_name_H-M   'P 1'
_cell_length_a   6.91460635
_cell_length_b   6.91460716
_cell_length_c   6.91460575
_cell_angle_alpha   82.66429890
_cell_angle_beta   82.66429943
_cell_angle_gamma   82.66429646
_symmetry_Int_Tables_number   1
_chemical_formula_structural   LaErFe3Tc14C3
_chemical_formula_sum   'La1 Er1 Fe3 Tc14 C3'
_cell_volume   323.11860598
_cell_formula_units_Z   1
loop_
 _symmetry_equiv_pos_site_id
 _symmetry_equiv_pos_as_xyz
  1  'x, y, z'
loop_
 _atom_site_type_symbol
 _atom_site_label
 _atom_site_symmetry_multiplicity
 _atom_site_fract_x
 _atom_site_fract_y
 _atom_site_fract_z
 _atom_site_occupancy
  La  La0  1  0.648820  0.648820  0.648820  1
  Er  Er1  1  0.346780  0.346780  0.346780  1
  Fe  Fe2  1  0.998241  0.998241  0.501183  1
  Fe  Fe3  1  0.501183  0.998241  0.998241  1
  Fe  Fe4  1  0.998241  0.501183  0.998241  1
  Tc  Tc5  1  0.723646  0.275390  0.001222  1
  Tc  Tc6  1  0.001222  0.723646  0.275390  1
  Tc  Tc7  1  0.275390  0.001222  0.723646  1
  Tc  Tc8  1  0.001222  0.275390  0.723646  1
  Tc  Tc9  1  0.723646  0.001222  0.275390  1
  Tc  Tc10  1  0.275390  0.723646  0.001222  1
  Tc  Tc11  1  0.345943  0.867073  0.345943  1
  Tc  Tc12  1  0.345943  0.345943  0.867073  1
  Tc  Tc13  1  0.867073  0.345943  0.345943  1
  Tc  Tc14  1  0.651619  0.141040  0.651619  1
  Tc  Tc15  1  0.651619  0.651619  0.141040  1
  Tc  Tc16  1  0.141040  0.651619  0.651619  1
  Tc  Tc17  1  0.899982  0.899982  0.899982  1
  Tc  Tc18  1  0.100635  0.100635  0.100635  1
  C  C19  1  0.494510  0.494510  0.013347  1
  C  C20  1  0.013347  0.494510  0.494510  1
  C  C21  1  0.494510  0.013347  0.494510  1
