# generated using pymatgen
data_Dy9Y7Cd2(HgIr2)2
_symmetry_space_group_name_H-M   'P 1'
_cell_length_a   9.64305222
_cell_length_b   9.64305098
_cell_length_c   9.64566300
_cell_angle_alpha   59.99103585
_cell_angle_beta   59.99104008
_cell_angle_gamma   60.09275394
_symmetry_Int_Tables_number   1
_chemical_formula_structural   Dy9Y7Cd2(HgIr2)2
_chemical_formula_sum   'Dy9 Y7 Cd2 Hg2 Ir4'
_cell_volume   634.58624256
_cell_formula_units_Z   1
loop_
 _symmetry_equiv_pos_site_id
 _symmetry_equiv_pos_as_xyz
  1  'x, y, z'
loop_
 _atom_site_type_symbol
 _atom_site_label
 _atom_site_symmetry_multiplicity
 _atom_site_fract_x
 _atom_site_fract_y
 _atom_site_fract_z
 _atom_site_occupancy
  Dy  Dy0  1  0.349472  0.349472  0.348413  1
  Dy  Dy1  1  0.349472  0.349472  0.952644  1
  Dy  Dy2  1  0.351023  0.949917  0.349530  1
  Dy  Dy3  1  0.949917  0.351023  0.349530  1
  Dy  Dy4  1  0.809424  0.188843  0.190862  1
  Dy  Dy5  1  0.188843  0.809424  0.810870  1
  Dy  Dy6  1  0.188843  0.809424  0.190862  1
  Dy  Dy7  1  0.809424  0.188843  0.810870  1
  Dy  Dy8  1  0.189094  0.189094  0.810906  1
  Y  Y9  1  0.809064  0.809064  0.190936  1
  Y  Y10  1  0.937832  0.561132  0.562512  1
  Y  Y11  1  0.561132  0.937832  0.938524  1
  Y  Y12  1  0.561132  0.937832  0.562512  1
  Y  Y13  1  0.937832  0.561132  0.938524  1
  Y  Y14  1  0.561392  0.561392  0.938608  1
  Y  Y15  1  0.938120  0.938120  0.561880  1
  Cd  Cd16  1  0.579926  0.258882  0.580596  1
  Cd  Cd17  1  0.258882  0.579926  0.580596  1
  Hg  Hg18  1  0.583648  0.583648  0.585543  1
  Hg  Hg19  1  0.583648  0.583648  0.247161  1
  Ir  Ir20  1  0.141932  0.141932  0.141396  1
  Ir  Ir21  1  0.141932  0.141932  0.574740  1
  Ir  Ir22  1  0.143577  0.574441  0.140991  1
  Ir  Ir23  1  0.574441  0.143577  0.140991  1
