# generated using pymatgen
data_CeDy7MgGaCo2
_symmetry_space_group_name_H-M   'P 1'
_cell_length_a   9.33140294
_cell_length_b   9.57361806
_cell_length_c   9.61436348
_cell_angle_alpha   58.26721704
_cell_angle_beta   60.69052205
_cell_angle_gamma   60.95403424
_symmetry_Int_Tables_number   1
_chemical_formula_structural   CeDy7MgGaCo2
_chemical_formula_sum   'Ce2 Dy14 Mg2 Ga2 Co4'
_cell_volume   606.13171449
_cell_formula_units_Z   2
loop_
 _symmetry_equiv_pos_site_id
 _symmetry_equiv_pos_as_xyz
  1  'x, y, z'
loop_
 _atom_site_type_symbol
 _atom_site_label
 _atom_site_symmetry_multiplicity
 _atom_site_fract_x
 _atom_site_fract_y
 _atom_site_fract_z
 _atom_site_occupancy
  Ce  Ce0  1  0.816493  0.183111  0.184880  1
  Ce  Ce1  1  0.183011  0.816636  0.815491  1
  Dy  Dy2  1  0.191885  0.807465  0.189767  1
  Dy  Dy3  1  0.807390  0.191943  0.810948  1
  Dy  Dy4  1  0.186942  0.187005  0.813065  1
  Dy  Dy5  1  0.802377  0.802499  0.197592  1
  Dy  Dy6  1  0.922883  0.574647  0.575505  1
  Dy  Dy7  1  0.574648  0.922905  0.926961  1
  Dy  Dy8  1  0.557914  0.935340  0.558394  1
  Dy  Dy9  1  0.935182  0.557603  0.948482  1
  Dy  Dy10  1  0.557536  0.557214  0.942679  1
  Dy  Dy11  1  0.942390  0.942540  0.557381  1
  Dy  Dy12  1  0.335017  0.351192  0.349602  1
  Dy  Dy13  1  0.351294  0.335015  0.964121  1
  Dy  Dy14  1  0.355338  0.959597  0.332982  1
  Dy  Dy15  1  0.959689  0.355213  0.352133  1
  Mg  Mg16  1  0.579944  0.276718  0.571959  1
  Mg  Mg17  1  0.276769  0.579869  0.571347  1
  Ga  Ga18  1  0.587936  0.580178  0.583028  1
  Ga  Ga19  1  0.580245  0.587803  0.248866  1
  Co  Co20  1  0.093712  0.155465  0.157440  1
  Co  Co21  1  0.155365  0.094329  0.592932  1
  Co  Co22  1  0.153089  0.592553  0.096568  1
  Co  Co23  1  0.592954  0.153157  0.157876  1
