# generated using pymatgen
data_La4Cd2Cu2NiPd
_symmetry_space_group_name_H-M   'P 1'
_cell_length_a   7.86961381
_cell_length_b   7.83388316
_cell_length_c   3.91547100
_cell_angle_alpha   90.00000000
_cell_angle_beta   90.00000000
_cell_angle_gamma   90.48014150
_symmetry_Int_Tables_number   1
_chemical_formula_structural   La4Cd2Cu2NiPd
_chemical_formula_sum   'La4 Cd2 Cu2 Ni1 Pd1'
_cell_volume   241.37888287
_cell_formula_units_Z   1
loop_
 _symmetry_equiv_pos_site_id
 _symmetry_equiv_pos_as_xyz
  1  'x, y, z'
loop_
 _atom_site_type_symbol
 _atom_site_label
 _atom_site_symmetry_multiplicity
 _atom_site_fract_x
 _atom_site_fract_y
 _atom_site_fract_z
 _atom_site_occupancy
  La  La0  1  0.671861  0.176331  0.500000  1
  La  La1  1  0.309470  0.814805  0.500000  1
  La  La2  1  0.182886  0.332600  0.500000  1
  La  La3  1  0.837171  0.678414  0.500000  1
  Cd  Cd4  1  0.996398  0.004764  0.000000  1
  Cd  Cd5  1  0.507775  0.505452  0.000000  1
  Cu  Cu6  1  0.885265  0.381682  0.000000  1
  Cu  Cu7  1  0.615897  0.873274  0.000000  1
  Ni  Ni8  1  0.114762  0.615564  0.000000  1
  Pd  Pd9  1  0.378514  0.117114  0.000000  1
