# generated using pymatgen
data_Cr3Bi4PtF28
_symmetry_space_group_name_H-M   'P 1'
_cell_length_a   5.59847149
_cell_length_b   9.09401988
_cell_length_c   12.00239389
_cell_angle_alpha   62.13411768
_cell_angle_beta   90.13952880
_cell_angle_gamma   89.95418025
_symmetry_Int_Tables_number   1
_chemical_formula_structural   Cr3Bi4PtF28
_chemical_formula_sum   'Cr3 Bi4 Pt1 F28'
_cell_volume   540.21277375
_cell_formula_units_Z   1
loop_
 _symmetry_equiv_pos_site_id
 _symmetry_equiv_pos_as_xyz
  1  'x, y, z'
loop_
 _atom_site_type_symbol
 _atom_site_label
 _atom_site_symmetry_multiplicity
 _atom_site_fract_x
 _atom_site_fract_y
 _atom_site_fract_z
 _atom_site_occupancy
  Cr  Cr0  1  0.757469  0.272511  0.958276  1
  Cr  Cr1  1  0.259098  0.726361  0.542660  1
  Cr  Cr2  1  0.241164  0.726210  0.042824  1
  Bi  Bi3  1  0.774030  0.811779  0.761861  1
  Bi  Bi4  1  0.267599  0.184307  0.742543  1
  Bi  Bi5  1  0.228256  0.183456  0.235991  1
  Bi  Bi6  1  0.728053  0.810493  0.262992  1
  Pt  Pt7  1  0.741824  0.271419  0.459111  1
  F  F8  1  0.421007  0.711533  0.921527  1
  F  F9  1  0.926076  0.296397  0.589477  1
  F  F10  1  0.576898  0.288496  0.079173  1
  F  F11  1  0.078203  0.711827  0.420864  1
  F  F12  1  0.438034  0.279069  0.540143  1
  F  F13  1  0.952555  0.723015  0.957940  1
  F  F14  1  0.547447  0.724670  0.456377  1
  F  F15  1  0.048662  0.276534  0.041924  1
  F  F16  1  0.770292  0.498991  0.866235  1
  F  F17  1  0.273760  0.499692  0.634451  1
  F  F18  1  0.228569  0.499960  0.134446  1
  F  F19  1  0.733152  0.514935  0.360493  1
  F  F20  1  0.756699  0.042498  0.048013  1
  F  F21  1  0.255559  0.957693  0.451307  1
  F  F22  1  0.242541  0.958902  0.951774  1
  F  F23  1  0.741178  0.025451  0.549994  1
  F  F24  1  0.978431  0.727998  0.631950  1
  F  F25  1  0.474938  0.269584  0.870993  1
  F  F26  1  0.040062  0.272981  0.371805  1
  F  F27  1  0.523211  0.731866  0.129804  1
  F  F28  1  0.063330  0.747096  0.165090  1
  F  F29  1  0.563257  0.255717  0.323054  1
  F  F30  1  0.936304  0.253324  0.835507  1
  F  F31  1  0.437541  0.745117  0.665744  1
  F  F32  1  0.396849  0.970237  0.222555  1
  F  F33  1  0.898769  0.029787  0.275088  1
  F  F34  1  0.599186  0.029951  0.772304  1
  F  F35  1  0.099996  0.970143  0.725712  1
