# generated using pymatgen
data_CeNp5(Al3Os)8
_symmetry_space_group_name_H-M   'P 1'
_cell_length_a   8.84045894
_cell_length_b   8.84045976
_cell_length_c   9.52333200
_cell_angle_alpha   90.00000000
_cell_angle_beta   90.00000000
_cell_angle_gamma   119.84641584
_symmetry_Int_Tables_number   1
_chemical_formula_structural   CeNp5(Al3Os)8
_chemical_formula_sum   'Ce1 Np5 Al24 Os8'
_cell_volume   645.56393864
_cell_formula_units_Z   1
loop_
 _symmetry_equiv_pos_site_id
 _symmetry_equiv_pos_as_xyz
  1  'x, y, z'
loop_
 _atom_site_type_symbol
 _atom_site_label
 _atom_site_symmetry_multiplicity
 _atom_site_fract_x
 _atom_site_fract_y
 _atom_site_fract_z
 _atom_site_occupancy
  Ce  Ce0  1  0.805870  0.194130  0.750000  1
  Np  Np1  1  0.202703  0.406389  0.250000  1
  Np  Np2  1  0.798461  0.598670  0.750000  1
  Np  Np3  1  0.593611  0.797297  0.250000  1
  Np  Np4  1  0.401330  0.201539  0.750000  1
  Np  Np5  1  0.201408  0.798592  0.250000  1
  Al  Al6  1  0.332654  0.667346  0.007861  1
  Al  Al7  1  0.667147  0.332853  0.988834  1
  Al  Al8  1  0.667147  0.332853  0.511166  1
  Al  Al9  1  0.332654  0.667346  0.492139  1
  Al  Al10  1  0.162266  0.323485  0.577337  1
  Al  Al11  1  0.838902  0.678334  0.419876  1
  Al  Al12  1  0.676515  0.837734  0.577337  1
  Al  Al13  1  0.838902  0.678334  0.080124  1
  Al  Al14  1  0.321666  0.161098  0.419876  1
  Al  Al15  1  0.162266  0.323485  0.922663  1
  Al  Al16  1  0.160984  0.839016  0.578542  1
  Al  Al17  1  0.321666  0.161098  0.080124  1
  Al  Al18  1  0.838438  0.161562  0.419407  1
  Al  Al19  1  0.676515  0.837734  0.922663  1
  Al  Al20  1  0.838438  0.161562  0.080593  1
  Al  Al21  1  0.160984  0.839016  0.921458  1
  Al  Al22  1  0.560883  0.123344  0.250000  1
  Al  Al23  1  0.437919  0.877318  0.750000  1
  Al  Al24  1  0.876656  0.439117  0.250000  1
  Al  Al25  1  0.122682  0.562081  0.750000  1
  Al  Al26  1  0.561718  0.438282  0.250000  1
  Al  Al27  1  0.438330  0.561670  0.750000  1
  Al  Al28  1  0.999536  0.000464  0.250000  1
  Al  Al29  1  0.005504  0.994496  0.750000  1
  Os  Os30  1  0.498688  0.999382  0.000919  1
  Os  Os31  1  0.000618  0.501312  0.000919  1
  Os  Os32  1  0.498688  0.999382  0.499081  1
  Os  Os33  1  0.499492  0.500508  0.001053  1
  Os  Os34  1  0.000618  0.501312  0.499081  1
  Os  Os35  1  0.499492  0.500508  0.498947  1
  Os  Os36  1  0.999327  0.000673  0.999978  1
  Os  Os37  1  0.999327  0.000673  0.500022  1
