# generated using pymatgen
data_Th2GePdI2
_symmetry_space_group_name_H-M   'P 1'
_cell_length_a   4.34042400
_cell_length_b   4.34042498
_cell_length_c   12.17921500
_cell_angle_alpha   90.00000000
_cell_angle_beta   90.00000000
_cell_angle_gamma   120.00000778
_symmetry_Int_Tables_number   1
_chemical_formula_structural   Th2GePdI2
_chemical_formula_sum   'Th2 Ge1 Pd1 I2'
_cell_volume   198.70752093
_cell_formula_units_Z   1
loop_
 _symmetry_equiv_pos_site_id
 _symmetry_equiv_pos_as_xyz
  1  'x, y, z'
loop_
 _atom_site_type_symbol
 _atom_site_label
 _atom_site_symmetry_multiplicity
 _atom_site_fract_x
 _atom_site_fract_y
 _atom_site_fract_z
 _atom_site_occupancy
  Th  Th0  1  0.000000  0.000000  0.159863  1
  Th  Th1  1  0.000000  0.000000  0.845017  1
  Ge  Ge2  1  0.666667  0.333333  0.019980  1
  Pd  Pd3  1  0.333333  0.666667  0.976313  1
  I  I4  1  0.666667  0.333333  0.664272  1
  I  I5  1  0.333333  0.666667  0.334555  1
