# generated using pymatgen
data_AcNd(NiSn2)2
_symmetry_space_group_name_H-M   'P 1'
_cell_length_a   9.46492111
_cell_length_b   9.46491990
_cell_length_c   4.62164000
_cell_angle_alpha   90.00000000
_cell_angle_beta   90.00000000
_cell_angle_gamma   27.82942023
_symmetry_Int_Tables_number   1
_chemical_formula_structural   AcNd(NiSn2)2
_chemical_formula_sum   'Ac1 Nd1 Ni2 Sn4'
_cell_volume   193.28531216
_cell_formula_units_Z   1
loop_
 _symmetry_equiv_pos_site_id
 _symmetry_equiv_pos_as_xyz
  1  'x, y, z'
loop_
 _atom_site_type_symbol
 _atom_site_label
 _atom_site_symmetry_multiplicity
 _atom_site_fract_x
 _atom_site_fract_y
 _atom_site_fract_z
 _atom_site_occupancy
  Ac  Ac0  1  0.109404  0.109404  0.250000  1
  Nd  Nd1  1  0.889732  0.889732  0.750000  1
  Ni  Ni2  1  0.317860  0.317860  0.250000  1
  Ni  Ni3  1  0.682264  0.682264  0.750000  1
  Sn  Sn4  1  0.751196  0.751196  0.250000  1
  Sn  Sn5  1  0.253827  0.253827  0.750000  1
  Sn  Sn6  1  0.451483  0.451483  0.250000  1
  Sn  Sn7  1  0.544233  0.544233  0.750000  1
