# generated using pymatgen
data_Eu5HgIr2
_symmetry_space_group_name_H-M   'P 1'
_cell_length_a   8.07275900
_cell_length_b   8.07275900
_cell_length_c   14.61389700
_cell_angle_alpha   90.00000000
_cell_angle_beta   90.00000000
_cell_angle_gamma   90.00000000
_symmetry_Int_Tables_number   1
_chemical_formula_structural   Eu5HgIr2
_chemical_formula_sum   'Eu20 Hg4 Ir8'
_cell_volume   952.37945261
_cell_formula_units_Z   4
loop_
 _symmetry_equiv_pos_site_id
 _symmetry_equiv_pos_as_xyz
  1  'x, y, z'
loop_
 _atom_site_type_symbol
 _atom_site_label
 _atom_site_symmetry_multiplicity
 _atom_site_fract_x
 _atom_site_fract_y
 _atom_site_fract_z
 _atom_site_occupancy
  Eu  Eu0  1  0.840642  0.839987  0.878224  1
  Eu  Eu1  1  0.160013  0.159358  0.621776  1
  Eu  Eu2  1  0.840642  0.160013  0.378224  1
  Eu  Eu3  1  0.159358  0.839987  0.378224  1
  Eu  Eu4  1  0.339987  0.340642  0.378224  1
  Eu  Eu5  1  0.839987  0.159358  0.121776  1
  Eu  Eu6  1  0.339987  0.659358  0.878224  1
  Eu  Eu7  1  0.160013  0.840642  0.121776  1
  Eu  Eu8  1  0.500000  0.000000  0.750550  1
  Eu  Eu9  1  0.000000  0.500000  0.249450  1
  Eu  Eu10  1  0.340642  0.660013  0.621776  1
  Eu  Eu11  1  0.659358  0.660013  0.121776  1
  Eu  Eu12  1  0.659358  0.339987  0.621776  1
  Eu  Eu13  1  0.000000  0.500000  0.749450  1
  Eu  Eu14  1  0.839987  0.840642  0.621776  1
  Eu  Eu15  1  0.660013  0.340642  0.878224  1
  Eu  Eu16  1  0.159358  0.160013  0.878224  1
  Eu  Eu17  1  0.500000  0.000000  0.250550  1
  Eu  Eu18  1  0.660013  0.659358  0.378224  1
  Eu  Eu19  1  0.340642  0.339987  0.121776  1
  Hg  Hg20  1  0.000000  0.500000  0.000005  1
  Hg  Hg21  1  0.500000  0.000000  0.999995  1
  Hg  Hg22  1  0.500000  0.000000  0.499995  1
  Hg  Hg23  1  0.000000  0.500000  0.500005  1
  Ir  Ir24  1  0.638821  0.361179  0.250000  1
  Ir  Ir25  1  0.361179  0.638821  0.250000  1
  Ir  Ir26  1  0.138821  0.138821  0.250000  1
  Ir  Ir27  1  0.361179  0.361179  0.750000  1
  Ir  Ir28  1  0.138821  0.861179  0.750000  1
  Ir  Ir29  1  0.861179  0.861179  0.250000  1
  Ir  Ir30  1  0.638821  0.638821  0.750000  1
  Ir  Ir31  1  0.861179  0.138821  0.750000  1
