# generated using pymatgen
data_Ac3Cd11
_symmetry_space_group_name_H-M   'P 1'
_cell_length_a   5.07417425
_cell_length_b   9.28152750
_cell_length_c   9.28152762
_cell_angle_alpha   103.74668975
_cell_angle_beta   105.86358758
_cell_angle_gamma   105.86358026
_symmetry_Int_Tables_number   1
_chemical_formula_structural   Ac3Cd11
_chemical_formula_sum   'Ac3 Cd11'
_cell_volume   380.72013377
_cell_formula_units_Z   1
loop_
 _symmetry_equiv_pos_site_id
 _symmetry_equiv_pos_as_xyz
  1  'x, y, z'
loop_
 _atom_site_type_symbol
 _atom_site_label
 _atom_site_symmetry_multiplicity
 _atom_site_fract_x
 _atom_site_fract_y
 _atom_site_fract_z
 _atom_site_occupancy
  Ac  Ac0  1  0.000000  0.000000  0.000000  1
  Ac  Ac1  1  0.000001  0.708277  0.291723  1
  Ac  Ac2  1  0.000001  0.291723  0.708277  1
  Cd  Cd3  1  0.359232  0.702745  0.015718  1
  Cd  Cd4  1  0.283348  0.423817  0.142879  1
  Cd  Cd5  1  0.640770  0.984283  0.297255  1
  Cd  Cd6  1  0.824323  0.324323  0.324323  1
  Cd  Cd7  1  0.283348  0.142879  0.423817  1
  Cd  Cd8  1  0.500000  0.500000  0.500000  1
  Cd  Cd9  1  0.716653  0.857121  0.576183  1
  Cd  Cd10  1  0.175678  0.675677  0.675677  1
  Cd  Cd11  1  0.359232  0.015718  0.702745  1
  Cd  Cd12  1  0.716653  0.576183  0.857121  1
  Cd  Cd13  1  0.640770  0.297255  0.984283  1
