# generated using pymatgen
data_Yb12CdAg11Ge12
_symmetry_space_group_name_H-M   'P 1'
_cell_length_a   4.58595500
_cell_length_b   7.86964000
_cell_length_c   21.37531085
_cell_angle_alpha   89.97166453
_cell_angle_beta   90.00000000
_cell_angle_gamma   90.00000000
_symmetry_Int_Tables_number   1
_chemical_formula_structural   Yb12CdAg11Ge12
_chemical_formula_sum   'Yb12 Cd1 Ag11 Ge12'
_cell_volume   771.43091804
_cell_formula_units_Z   1
loop_
 _symmetry_equiv_pos_site_id
 _symmetry_equiv_pos_as_xyz
  1  'x, y, z'
loop_
 _atom_site_type_symbol
 _atom_site_label
 _atom_site_symmetry_multiplicity
 _atom_site_fract_x
 _atom_site_fract_y
 _atom_site_fract_z
 _atom_site_occupancy
  Yb  Yb0  1  0.250000  0.788043  0.166120  1
  Yb  Yb1  1  0.250000  0.775646  0.499238  1
  Yb  Yb2  1  0.250000  0.712022  0.333109  1
  Yb  Yb3  1  0.750000  0.224970  0.499156  1
  Yb  Yb4  1  0.750000  0.280586  0.663860  1
  Yb  Yb5  1  0.750000  0.276962  0.000265  1
  Yb  Yb6  1  0.250000  0.792611  0.836712  1
  Yb  Yb7  1  0.250000  0.724791  0.001292  1
  Yb  Yb8  1  0.750000  0.212096  0.166772  1
  Yb  Yb9  1  0.750000  0.288388  0.333814  1
  Yb  Yb10  1  0.250000  0.716888  0.663406  1
  Yb  Yb11  1  0.750000  0.209197  0.835562  1
  Cd  Cd12  1  0.750000  0.591899  0.763826  1
  Ag  Ag13  1  0.750000  0.582613  0.906118  1
  Ag  Ag14  1  0.250000  0.416214  0.433563  1
  Ag  Ag15  1  0.750000  0.583566  0.566279  1
  Ag  Ag16  1  0.750000  0.917962  0.406279  1
  Ag  Ag17  1  0.250000  0.418120  0.093768  1
  Ag  Ag18  1  0.250000  0.412453  0.238325  1
  Ag  Ag19  1  0.750000  0.912529  0.261801  1
  Ag  Ag20  1  0.250000  0.084647  0.738244  1
  Ag  Ag21  1  0.250000  0.083804  0.935454  1
  Ag  Ag22  1  0.750000  0.916639  0.066692  1
  Ag  Ag23  1  0.250000  0.082126  0.592490  1
  Ge  Ge24  1  0.250000  0.412084  0.898367  1
  Ge  Ge25  1  0.750000  0.923413  0.727226  1
  Ge  Ge26  1  0.750000  0.581401  0.228535  1
  Ge  Ge27  1  0.250000  0.089573  0.071641  1
  Ge  Ge28  1  0.750000  0.908832  0.926517  1
  Ge  Ge29  1  0.750000  0.913167  0.601003  1
  Ge  Ge30  1  0.250000  0.411223  0.573207  1
  Ge  Ge31  1  0.250000  0.085892  0.397276  1
  Ge  Ge32  1  0.250000  0.081923  0.271568  1
  Ge  Ge33  1  0.750000  0.588537  0.428594  1
  Ge  Ge34  1  0.250000  0.412168  0.770922  1
  Ge  Ge35  1  0.750000  0.587013  0.103000  1
