# generated using pymatgen
data_Er8CdInPd2
_symmetry_space_group_name_H-M   'P 1'
_cell_length_a   9.61496774
_cell_length_b   9.61496698
_cell_length_c   9.62209200
_cell_angle_alpha   59.97549062
_cell_angle_beta   59.97549324
_cell_angle_gamma   60.00793290
_symmetry_Int_Tables_number   1
_chemical_formula_structural   Er8CdInPd2
_chemical_formula_sum   'Er16 Cd2 In2 Pd4'
_cell_volume   628.80381420
_cell_formula_units_Z   2
loop_
 _symmetry_equiv_pos_site_id
 _symmetry_equiv_pos_as_xyz
  1  'x, y, z'
loop_
 _atom_site_type_symbol
 _atom_site_label
 _atom_site_symmetry_multiplicity
 _atom_site_fract_x
 _atom_site_fract_y
 _atom_site_fract_z
 _atom_site_occupancy
  Er  Er0  1  0.353125  0.353125  0.353286  1
  Er  Er1  1  0.353125  0.353125  0.940463  1
  Er  Er2  1  0.353633  0.939548  0.353409  1
  Er  Er3  1  0.939548  0.353633  0.353409  1
  Er  Er4  1  0.810550  0.189737  0.189324  1
  Er  Er5  1  0.189737  0.810550  0.810389  1
  Er  Er6  1  0.189737  0.810550  0.189324  1
  Er  Er7  1  0.810550  0.189737  0.810389  1
  Er  Er8  1  0.188937  0.188937  0.811063  1
  Er  Er9  1  0.809982  0.809982  0.190018  1
  Er  Er10  1  0.935330  0.565831  0.565736  1
  Er  Er11  1  0.565831  0.935330  0.933104  1
  Er  Er12  1  0.565831  0.935330  0.565736  1
  Er  Er13  1  0.935330  0.565831  0.933104  1
  Er  Er14  1  0.566072  0.566072  0.933928  1
  Er  Er15  1  0.934644  0.934644  0.565356  1
  Cd  Cd16  1  0.582317  0.251157  0.583262  1
  Cd  Cd17  1  0.251157  0.582317  0.583262  1
  In  In18  1  0.582435  0.582435  0.583285  1
  In  In19  1  0.582435  0.582435  0.251844  1
  Pd  Pd20  1  0.144214  0.144214  0.144424  1
  Pd  Pd21  1  0.144214  0.144214  0.567148  1
  Pd  Pd22  1  0.143937  0.567326  0.144368  1
  Pd  Pd23  1  0.567326  0.143937  0.144368  1
