# generated using pymatgen
data_Zr4P3Se
_symmetry_space_group_name_H-M   'P 1'
_cell_length_a   3.74543600
_cell_length_b   3.74543537
_cell_length_c   12.68597400
_cell_angle_alpha   90.00000000
_cell_angle_beta   90.00000000
_cell_angle_gamma   120.00000554
_symmetry_Int_Tables_number   1
_chemical_formula_structural   Zr4P3Se
_chemical_formula_sum   'Zr4 P3 Se1'
_cell_volume   154.12003986
_cell_formula_units_Z   1
loop_
 _symmetry_equiv_pos_site_id
 _symmetry_equiv_pos_as_xyz
  1  'x, y, z'
loop_
 _atom_site_type_symbol
 _atom_site_label
 _atom_site_symmetry_multiplicity
 _atom_site_fract_x
 _atom_site_fract_y
 _atom_site_fract_z
 _atom_site_occupancy
  Zr  Zr0  1  0.333333  0.666667  0.396250  1
  Zr  Zr1  1  0.666667  0.333333  0.882395  1
  Zr  Zr2  1  0.666667  0.333333  0.617605  1
  Zr  Zr3  1  0.333333  0.666667  0.103750  1
  P  P4  1  0.333333  0.666667  0.750000  1
  P  P5  1  0.000000  0.000000  0.504885  1
  P  P6  1  0.000000  0.000000  0.995115  1
  Se  Se7  1  0.666667  0.333333  0.250000  1
