# generated using pymatgen
data_CsSbAsPt2
_symmetry_space_group_name_H-M   'P 1'
_cell_length_a   4.59736266
_cell_length_b   4.59736261
_cell_length_c   7.41294503
_cell_angle_alpha   101.73168809
_cell_angle_beta   101.73168355
_cell_angle_gamma   101.11106225
_symmetry_Int_Tables_number   1
_chemical_formula_structural   CsSbAsPt2
_chemical_formula_sum   'Cs1 Sb1 As1 Pt2'
_cell_volume   145.65525925
_cell_formula_units_Z   1
loop_
 _symmetry_equiv_pos_site_id
 _symmetry_equiv_pos_as_xyz
  1  'x, y, z'
loop_
 _atom_site_type_symbol
 _atom_site_label
 _atom_site_symmetry_multiplicity
 _atom_site_fract_x
 _atom_site_fract_y
 _atom_site_fract_z
 _atom_site_occupancy
  Cs  Cs0  1  0.989693  0.989693  0.988971  1
  Sb  Sb1  1  0.620995  0.620995  0.333741  1
  As  As2  1  0.373754  0.373754  0.648234  1
  Pt  Pt3  1  0.804211  0.211345  0.514526  1
  Pt  Pt4  1  0.211345  0.804211  0.514526  1
