# generated using pymatgen
data_Hf6Ga5SnIrRh5
_symmetry_space_group_name_H-M   'P 1'
_cell_length_a   7.21884953
_cell_length_b   7.21815278
_cell_length_c   6.90719601
_cell_angle_alpha   90.02624776
_cell_angle_beta   89.97688358
_cell_angle_gamma   119.88032609
_symmetry_Int_Tables_number   1
_chemical_formula_structural   Hf6Ga5SnIrRh5
_chemical_formula_sum   'Hf6 Ga5 Sn1 Ir1 Rh5'
_cell_volume   312.06774064
_cell_formula_units_Z   1
loop_
 _symmetry_equiv_pos_site_id
 _symmetry_equiv_pos_as_xyz
  1  'x, y, z'
loop_
 _atom_site_type_symbol
 _atom_site_label
 _atom_site_symmetry_multiplicity
 _atom_site_fract_x
 _atom_site_fract_y
 _atom_site_fract_z
 _atom_site_occupancy
  Hf  Hf0  1  0.999445  0.401829  0.747773  1
  Hf  Hf1  1  0.606895  0.612404  0.746233  1
  Hf  Hf2  1  0.396027  0.987495  0.748318  1
  Hf  Hf3  1  0.987900  0.396221  0.251503  1
  Hf  Hf4  1  0.612230  0.607273  0.253628  1
  Hf  Hf5  1  0.401499  0.999097  0.252227  1
  Ga  Ga6  1  0.276140  0.275090  0.499895  1
  Ga  Ga7  1  0.002125  0.722263  0.499714  1
  Ga  Ga8  1  0.000189  0.741175  0.999821  1
  Ga  Ga9  1  0.723380  0.004418  0.500092  1
  Ga  Ga10  1  0.741245  0.000187  0.000156  1
  Sn  Sn11  1  0.255682  0.255676  0.999959  1
  Ir  Ir12  1  0.335476  0.666250  0.492236  1
  Rh  Rh13  1  0.666393  0.335320  0.508262  1
  Rh  Rh14  1  0.335624  0.672017  0.008696  1
  Rh  Rh15  1  0.994003  0.993696  0.723338  1
  Rh  Rh16  1  0.993752  0.993909  0.276537  1
  Rh  Rh17  1  0.671995  0.335680  0.991612  1
