# generated using pymatgen
data_Tm3ZrAl7Tc
_symmetry_space_group_name_H-M   'P 1'
_cell_length_a   5.45716800
_cell_length_b   5.45716776
_cell_length_c   8.82520500
_cell_angle_alpha   90.00000000
_cell_angle_beta   90.00000000
_cell_angle_gamma   119.99997720
_symmetry_Int_Tables_number   1
_chemical_formula_structural   Tm3ZrAl7Tc
_chemical_formula_sum   'Tm3 Zr1 Al7 Tc1'
_cell_volume   227.60938354
_cell_formula_units_Z   1
loop_
 _symmetry_equiv_pos_site_id
 _symmetry_equiv_pos_as_xyz
  1  'x, y, z'
loop_
 _atom_site_type_symbol
 _atom_site_label
 _atom_site_symmetry_multiplicity
 _atom_site_fract_x
 _atom_site_fract_y
 _atom_site_fract_z
 _atom_site_occupancy
  Tm  Tm0  1  0.333333  0.666667  0.442623  1
  Tm  Tm1  1  0.666667  0.333333  0.936406  1
  Tm  Tm2  1  0.666667  0.333333  0.555927  1
  Zr  Zr3  1  0.333333  0.666667  0.062733  1
  Al  Al4  1  0.169317  0.338634  0.761425  1
  Al  Al5  1  0.832026  0.167974  0.239575  1
  Al  Al6  1  0.335946  0.167974  0.239575  1
  Al  Al7  1  0.661366  0.830683  0.761425  1
  Al  Al8  1  0.000000  0.000000  0.499350  1
  Al  Al9  1  0.832026  0.664054  0.239575  1
  Al  Al10  1  0.169317  0.830683  0.761425  1
  Tc  Tc11  1  0.000000  0.000000  0.999961  1
