# generated using pymatgen
data_Y3GaSiIrRh
_symmetry_space_group_name_H-M   'P 1'
_cell_length_a   5.54966800
_cell_length_b   7.99303900
_cell_length_c   13.22016600
_cell_angle_alpha   90.00000000
_cell_angle_beta   90.00000000
_cell_angle_gamma   90.00000000
_symmetry_Int_Tables_number   1
_chemical_formula_structural   Y3GaSiIrRh
_chemical_formula_sum   'Y12 Ga4 Si4 Ir4 Rh4'
_cell_volume   586.42954625
_cell_formula_units_Z   4
loop_
 _symmetry_equiv_pos_site_id
 _symmetry_equiv_pos_as_xyz
  1  'x, y, z'
loop_
 _atom_site_type_symbol
 _atom_site_label
 _atom_site_symmetry_multiplicity
 _atom_site_fract_x
 _atom_site_fract_y
 _atom_site_fract_z
 _atom_site_occupancy
  Y  Y0  1  0.147534  0.601597  0.102914  1
  Y  Y1  1  0.147534  0.898403  0.897086  1
  Y  Y2  1  0.852466  0.101597  0.397086  1
  Y  Y3  1  0.852466  0.398403  0.602914  1
  Y  Y4  1  0.851823  0.396749  0.897635  1
  Y  Y5  1  0.851823  0.103251  0.102365  1
  Y  Y6  1  0.148177  0.896749  0.602365  1
  Y  Y7  1  0.148177  0.603251  0.397635  1
  Y  Y8  1  0.365252  0.243266  0.249890  1
  Y  Y9  1  0.365252  0.256734  0.750110  1
  Y  Y10  1  0.634748  0.743266  0.250110  1
  Y  Y11  1  0.634748  0.756734  0.749890  1
  Ga  Ga12  1  0.367489  0.250000  0.000000  1
  Ga  Ga13  1  0.632511  0.750000  0.500000  1
  Ga  Ga14  1  0.633420  0.750000  0.000000  1
  Ga  Ga15  1  0.366580  0.250000  0.500000  1
  Si  Si16  1  0.862133  0.389540  0.250070  1
  Si  Si17  1  0.862133  0.110460  0.749930  1
  Si  Si18  1  0.137867  0.889540  0.249930  1
  Si  Si19  1  0.137867  0.610460  0.750070  1
  Ir  Ir20  1  0.646699  0.469519  0.095245  1
  Ir  Ir21  1  0.646699  0.030481  0.904755  1
  Ir  Ir22  1  0.353301  0.969519  0.404755  1
  Ir  Ir23  1  0.353301  0.530481  0.595245  1
  Rh  Rh24  1  0.353940  0.531151  0.904951  1
  Rh  Rh25  1  0.353940  0.968849  0.095049  1
  Rh  Rh26  1  0.646060  0.031151  0.595049  1
  Rh  Rh27  1  0.646060  0.468849  0.404951  1
