# generated using pymatgen
data_Sm2MgCo6(P2Rh)3
_symmetry_space_group_name_H-M   'P 1'
_cell_length_a   3.76450900
_cell_length_b   10.55947600
_cell_length_c   12.27593800
_cell_angle_alpha   90.00000000
_cell_angle_beta   90.00000000
_cell_angle_gamma   90.00000000
_symmetry_Int_Tables_number   1
_chemical_formula_structural   Sm2MgCo6(P2Rh)3
_chemical_formula_sum   'Sm4 Mg2 Co12 P12 Rh6'
_cell_volume   487.98378758
_cell_formula_units_Z   2
loop_
 _symmetry_equiv_pos_site_id
 _symmetry_equiv_pos_as_xyz
  1  'x, y, z'
loop_
 _atom_site_type_symbol
 _atom_site_label
 _atom_site_symmetry_multiplicity
 _atom_site_fract_x
 _atom_site_fract_y
 _atom_site_fract_z
 _atom_site_occupancy
  Sm  Sm0  1  0.250000  0.582249  0.707841  1
  Sm  Sm1  1  0.250000  0.917751  0.207841  1
  Sm  Sm2  1  0.750000  0.417270  0.290600  1
  Sm  Sm3  1  0.750000  0.082730  0.790600  1
  Mg  Mg4  1  0.250000  0.704211  0.991431  1
  Mg  Mg5  1  0.250000  0.795789  0.491431  1
  Co  Co6  1  0.250000  0.223614  0.176695  1
  Co  Co7  1  0.250000  0.276386  0.676695  1
  Co  Co8  1  0.750000  0.778359  0.823901  1
  Co  Co9  1  0.750000  0.721641  0.323901  1
  Co  Co10  1  0.250000  0.884503  0.696449  1
  Co  Co11  1  0.250000  0.615497  0.196449  1
  Co  Co12  1  0.750000  0.119198  0.302526  1
  Co  Co13  1  0.750000  0.380802  0.802526  1
  Co  Co14  1  0.250000  0.463745  0.933597  1
  Co  Co15  1  0.250000  0.036255  0.433597  1
  Co  Co16  1  0.750000  0.535730  0.064909  1
  Co  Co17  1  0.750000  0.964270  0.564909  1
  P  P18  1  0.250000  0.422733  0.109966  1
  P  P19  1  0.250000  0.077267  0.609966  1
  P  P20  1  0.750000  0.573319  0.884417  1
  P  P21  1  0.750000  0.926681  0.384417  1
  P  P22  1  0.250000  0.276073  0.859825  1
  P  P23  1  0.250000  0.223927  0.359825  1
  P  P24  1  0.750000  0.721886  0.144335  1
  P  P25  1  0.750000  0.778114  0.644335  1
  P  P26  1  0.250000  0.600192  0.379299  1
  P  P27  1  0.250000  0.899808  0.879299  1
  P  P28  1  0.750000  0.393405  0.618186  1
  P  P29  1  0.750000  0.106595  0.118186  1
  Rh  Rh30  1  0.750000  0.294277  0.016609  1
  Rh  Rh31  1  0.750000  0.205723  0.516609  1
  Rh  Rh32  1  0.250000  0.400699  0.482782  1
  Rh  Rh33  1  0.250000  0.099301  0.982782  1
  Rh  Rh34  1  0.750000  0.595199  0.516632  1
  Rh  Rh35  1  0.750000  0.904801  0.016632  1
