# generated using pymatgen
data_Sc3Si2GeRu3
_symmetry_space_group_name_H-M   'P 1'
_cell_length_a   6.95217300
_cell_length_b   6.95217288
_cell_length_c   3.39083800
_cell_angle_alpha   90.00000000
_cell_angle_beta   90.00000000
_cell_angle_gamma   120.00000534
_symmetry_Int_Tables_number   1
_chemical_formula_structural   Sc3Si2GeRu3
_chemical_formula_sum   'Sc3 Si2 Ge1 Ru3'
_cell_volume   141.93149705
_cell_formula_units_Z   1
loop_
 _symmetry_equiv_pos_site_id
 _symmetry_equiv_pos_as_xyz
  1  'x, y, z'
loop_
 _atom_site_type_symbol
 _atom_site_label
 _atom_site_symmetry_multiplicity
 _atom_site_fract_x
 _atom_site_fract_y
 _atom_site_fract_z
 _atom_site_occupancy
  Sc  Sc0  1  0.403055  0.398684  0.000000  1
  Sc  Sc1  1  0.601316  0.004371  0.000000  1
  Sc  Sc2  1  0.995629  0.596945  0.000000  1
  Si  Si3  1  0.666667  0.333333  0.500000  1
  Si  Si4  1  0.000000  0.000000  0.000000  1
  Ge  Ge5  1  0.333333  0.666667  0.500000  1
  Ru  Ru6  1  0.995740  0.247959  0.500000  1
  Ru  Ru7  1  0.752041  0.747781  0.500000  1
  Ru  Ru8  1  0.252219  0.004260  0.500000  1
