# generated using pymatgen
data_CsCaVF6
_symmetry_space_group_name_H-M   'P 1'
_cell_length_a   7.84590583
_cell_length_b   7.84590546
_cell_length_c   7.84590548
_cell_angle_alpha   120.73479862
_cell_angle_beta   118.84876678
_cell_angle_gamma   90.36873757
_symmetry_Int_Tables_number   1
_chemical_formula_structural   CsCaVF6
_chemical_formula_sum   'Cs2 Ca2 V2 F12'
_cell_volume   342.47054002
_cell_formula_units_Z   2
loop_
 _symmetry_equiv_pos_site_id
 _symmetry_equiv_pos_as_xyz
  1  'x, y, z'
loop_
 _atom_site_type_symbol
 _atom_site_label
 _atom_site_symmetry_multiplicity
 _atom_site_fract_x
 _atom_site_fract_y
 _atom_site_fract_z
 _atom_site_occupancy
  Cs  Cs0  1  0.619444  0.869444  0.750000  1
  Cs  Cs1  1  0.380556  0.130556  0.250000  1
  Ca  Ca2  1  0.500000  0.500000  0.000000  1
  Ca  Ca3  1  0.000000  0.500000  0.500000  1
  V  V4  1  0.000000  0.500000  0.000000  1
  V  V5  1  0.000000  0.000000  0.500000  1
  F  F6  1  0.040322  0.790322  0.250000  1
  F  F7  1  0.658129  0.408129  0.250000  1
  F  F8  1  0.052856  0.845604  0.643348  1
  F  F9  1  0.702256  0.409508  0.856652  1
  F  F10  1  0.702256  0.845604  0.292748  1
  F  F11  1  0.052856  0.409508  0.207252  1
  F  F12  1  0.959678  0.209678  0.750000  1
  F  F13  1  0.341871  0.591871  0.750000  1
  F  F14  1  0.947144  0.154396  0.356652  1
  F  F15  1  0.297744  0.590492  0.143348  1
  F  F16  1  0.297744  0.154396  0.707252  1
  F  F17  1  0.947144  0.590492  0.792748  1
