# generated using pymatgen
data_Hf6Tl4PBr18
_symmetry_space_group_name_H-M   'P 1'
_cell_length_a   10.62793341
_cell_length_b   10.85346599
_cell_length_c   10.95789000
_cell_angle_alpha   118.42404886
_cell_angle_beta   100.39178693
_cell_angle_gamma   104.02763507
_symmetry_Int_Tables_number   1
_chemical_formula_structural   Hf6Tl4PBr18
_chemical_formula_sum   'Hf6 Tl4 P1 Br18'
_cell_volume   1011.60291423
_cell_formula_units_Z   1
loop_
 _symmetry_equiv_pos_site_id
 _symmetry_equiv_pos_as_xyz
  1  'x, y, z'
loop_
 _atom_site_type_symbol
 _atom_site_label
 _atom_site_symmetry_multiplicity
 _atom_site_fract_x
 _atom_site_fract_y
 _atom_site_fract_z
 _atom_site_occupancy
  Hf  Hf0  1  0.151592  0.056140  0.229668  1
  Hf  Hf1  1  0.848408  0.943860  0.770332  1
  Hf  Hf2  1  0.862177  0.125623  0.131849  1
  Hf  Hf3  1  0.137823  0.874377  0.868151  1
  Hf  Hf4  1  0.146022  0.238199  0.045113  1
  Hf  Hf5  1  0.853978  0.761801  0.954887  1
  Tl  Tl6  1  0.655477  0.536357  0.228210  1
  Tl  Tl7  1  0.344523  0.463643  0.771790  1
  Tl  Tl8  1  0.690399  0.227164  0.563250  1
  Tl  Tl9  1  0.309601  0.772836  0.436750  1
  P  P10  1  0.000000  0.000000  0.000000  1
  Br  Br11  1  0.009369  0.403254  0.193570  1
  Br  Br12  1  0.990631  0.596746  0.806430  1
  Br  Br13  1  0.327328  0.328557  0.306485  1
  Br  Br14  1  0.672672  0.671443  0.693515  1
  Br  Br15  1  0.319261  0.511883  0.099557  1
  Br  Br16  1  0.680739  0.488117  0.900443  1
  Br  Br17  1  0.004934  0.799199  0.206050  1
  Br  Br18  1  0.995066  0.200801  0.793950  1
  Br  Br19  1  0.707628  0.268767  0.282267  1
  Br  Br20  1  0.292372  0.731233  0.717733  1
  Br  Br21  1  0.313535  0.126093  0.905593  1
  Br  Br22  1  0.686465  0.873907  0.094407  1
  Br  Br23  1  0.016472  0.201130  0.401239  1
  Br  Br24  1  0.983528  0.798870  0.598761  1
  Br  Br25  1  0.317987  0.923966  0.109049  1
  Br  Br26  1  0.682013  0.076034  0.890951  1
  Br  Br27  1  0.330825  0.120886  0.493223  1
  Br  Br28  1  0.669175  0.879114  0.506777  1
