# generated using pymatgen
data_Hf6Al8Co6Si8Ir
_symmetry_space_group_name_H-M   'P 1'
_cell_length_a   8.32798116
_cell_length_b   8.32798012
_cell_length_c   8.32798100
_cell_angle_alpha   59.99999255
_cell_angle_beta   59.99999665
_cell_angle_gamma   60.00000055
_symmetry_Int_Tables_number   1
_chemical_formula_structural   Hf6Al8Co6Si8Ir
_chemical_formula_sum   'Hf6 Al8 Co6 Si8 Ir1'
_cell_volume   408.41727939
_cell_formula_units_Z   1
loop_
 _symmetry_equiv_pos_site_id
 _symmetry_equiv_pos_as_xyz
  1  'x, y, z'
loop_
 _atom_site_type_symbol
 _atom_site_label
 _atom_site_symmetry_multiplicity
 _atom_site_fract_x
 _atom_site_fract_y
 _atom_site_fract_z
 _atom_site_occupancy
  Hf  Hf0  1  0.693388  0.306612  0.306612  1
  Hf  Hf1  1  0.306612  0.693388  0.693388  1
  Hf  Hf2  1  0.306612  0.693388  0.306612  1
  Hf  Hf3  1  0.693388  0.306612  0.693388  1
  Hf  Hf4  1  0.306612  0.306612  0.693388  1
  Hf  Hf5  1  0.693388  0.693388  0.306612  1
  Al  Al6  1  0.123041  0.123041  0.123041  1
  Al  Al7  1  0.876959  0.876959  0.876959  1
  Al  Al8  1  0.123041  0.123041  0.630878  1
  Al  Al9  1  0.123041  0.630878  0.123041  1
  Al  Al10  1  0.876959  0.876959  0.369122  1
  Al  Al11  1  0.876959  0.369122  0.876959  1
  Al  Al12  1  0.630878  0.123041  0.123041  1
  Al  Al13  1  0.369122  0.876959  0.876959  1
  Co  Co14  1  0.500000  0.000000  0.000000  1
  Co  Co15  1  0.000000  0.500000  0.500000  1
  Co  Co16  1  0.000000  0.500000  0.000000  1
  Co  Co17  1  0.500000  0.000000  0.500000  1
  Co  Co18  1  0.000000  0.000000  0.500000  1
  Co  Co19  1  0.500000  0.500000  0.000000  1
  Si  Si20  1  0.339477  0.339477  0.339477  1
  Si  Si21  1  0.660523  0.660523  0.660523  1
  Si  Si22  1  0.339477  0.339477  0.981570  1
  Si  Si23  1  0.339477  0.981570  0.339477  1
  Si  Si24  1  0.660523  0.660523  0.018430  1
  Si  Si25  1  0.660523  0.018430  0.660523  1
  Si  Si26  1  0.981570  0.339477  0.339477  1
  Si  Si27  1  0.018430  0.660523  0.660523  1
  Ir  Ir28  1  0.000000  0.000000  0.000000  1
