# generated using pymatgen
data_Y9Tm7(Ga3Co)2
_symmetry_space_group_name_H-M   'P 1'
_cell_length_a   9.93826200
_cell_length_b   9.93826292
_cell_length_c   7.00708100
_cell_angle_alpha   90.00000000
_cell_angle_beta   90.00000000
_cell_angle_gamma   119.99999028
_symmetry_Int_Tables_number   1
_chemical_formula_structural   Y9Tm7(Ga3Co)2
_chemical_formula_sum   'Y9 Tm7 Ga6 Co2'
_cell_volume   599.36135255
_cell_formula_units_Z   1
loop_
 _symmetry_equiv_pos_site_id
 _symmetry_equiv_pos_as_xyz
  1  'x, y, z'
loop_
 _atom_site_type_symbol
 _atom_site_label
 _atom_site_symmetry_multiplicity
 _atom_site_fract_x
 _atom_site_fract_y
 _atom_site_fract_z
 _atom_site_occupancy
  Y  Y0  1  0.666667  0.333333  0.328769  1
  Y  Y1  1  0.463385  0.536615  0.207200  1
  Y  Y2  1  0.073230  0.536615  0.207200  1
  Y  Y3  1  0.463385  0.926770  0.207200  1
  Y  Y4  1  0.535696  0.464304  0.708876  1
  Y  Y5  1  0.928609  0.464304  0.708876  1
  Y  Y6  1  0.535696  0.071391  0.708876  1
  Y  Y7  1  0.000000  0.000000  0.232484  1
  Y  Y8  1  0.000000  0.000000  0.731163  1
  Tm  Tm9  1  0.174042  0.825958  0.513000  1
  Tm  Tm10  1  0.651916  0.825958  0.513000  1
  Tm  Tm11  1  0.174042  0.348084  0.513000  1
  Tm  Tm12  1  0.826737  0.173263  0.011951  1
  Tm  Tm13  1  0.346527  0.173263  0.011951  1
  Tm  Tm14  1  0.826737  0.653473  0.011951  1
  Tm  Tm15  1  0.333333  0.666667  0.824895  1
  Ga  Ga16  1  0.163919  0.836081  0.955407  1
  Ga  Ga17  1  0.672163  0.836081  0.955407  1
  Ga  Ga18  1  0.163919  0.327837  0.955407  1
  Ga  Ga19  1  0.837255  0.162745  0.456922  1
  Ga  Ga20  1  0.325488  0.162745  0.456922  1
  Ga  Ga21  1  0.837255  0.674512  0.456922  1
  Co  Co22  1  0.333333  0.666667  0.449977  1
  Co  Co23  1  0.666667  0.333333  0.947481  1
