# generated using pymatgen
data_Tb(NdSn)4
_symmetry_space_group_name_H-M   'P 1'
_cell_length_a   8.19507300
_cell_length_b   8.35376900
_cell_length_c   15.89614200
_cell_angle_alpha   90.00000000
_cell_angle_beta   90.00000000
_cell_angle_gamma   90.00000000
_symmetry_Int_Tables_number   1
_chemical_formula_structural   Tb(NdSn)4
_chemical_formula_sum   'Tb4 Nd16 Sn16'
_cell_volume   1088.24585610
_cell_formula_units_Z   4
loop_
 _symmetry_equiv_pos_site_id
 _symmetry_equiv_pos_as_xyz
  1  'x, y, z'
loop_
 _atom_site_type_symbol
 _atom_site_label
 _atom_site_symmetry_multiplicity
 _atom_site_fract_x
 _atom_site_fract_y
 _atom_site_fract_z
 _atom_site_occupancy
  Tb  Tb0  1  0.197511  0.502354  0.250000  1
  Tb  Tb1  1  0.697511  0.997646  0.250000  1
  Tb  Tb2  1  0.302489  0.002354  0.750000  1
  Tb  Tb3  1  0.802489  0.497646  0.750000  1
  Nd  Nd4  1  0.018340  0.180834  0.401935  1
  Nd  Nd5  1  0.365565  0.838397  0.121052  1
  Nd  Nd6  1  0.134435  0.338397  0.621052  1
  Nd  Nd7  1  0.481660  0.680834  0.901935  1
  Nd  Nd8  1  0.865565  0.661603  0.121052  1
  Nd  Nd9  1  0.134435  0.338397  0.878948  1
  Nd  Nd10  1  0.481660  0.680834  0.598065  1
  Nd  Nd11  1  0.634435  0.161603  0.621052  1
  Nd  Nd12  1  0.865565  0.661603  0.378948  1
  Nd  Nd13  1  0.018340  0.180834  0.098065  1
  Nd  Nd14  1  0.981660  0.819166  0.901935  1
  Nd  Nd15  1  0.634435  0.161603  0.878948  1
  Nd  Nd16  1  0.518340  0.319166  0.098065  1
  Nd  Nd17  1  0.365565  0.838397  0.378948  1
  Nd  Nd18  1  0.981660  0.819166  0.598065  1
  Nd  Nd19  1  0.518340  0.319166  0.401935  1
  Sn  Sn20  1  0.793396  0.465207  0.544280  1
  Sn  Sn21  1  0.706604  0.965207  0.455720  1
  Sn  Sn22  1  0.675701  0.852370  0.750000  1
  Sn  Sn23  1  0.206604  0.534793  0.455720  1
  Sn  Sn24  1  0.293396  0.034793  0.955720  1
  Sn  Sn25  1  0.824299  0.352370  0.250000  1
  Sn  Sn26  1  0.793396  0.465207  0.955720  1
  Sn  Sn27  1  0.563082  0.615712  0.250000  1
  Sn  Sn28  1  0.206604  0.534793  0.044280  1
  Sn  Sn29  1  0.436918  0.384288  0.750000  1
  Sn  Sn30  1  0.175701  0.647630  0.750000  1
  Sn  Sn31  1  0.936918  0.115712  0.750000  1
  Sn  Sn32  1  0.293396  0.034793  0.544280  1
  Sn  Sn33  1  0.706604  0.965207  0.044280  1
  Sn  Sn34  1  0.324299  0.147630  0.250000  1
  Sn  Sn35  1  0.063082  0.884288  0.250000  1
