# generated using pymatgen
data_Tb2Fe5P6Ir3Rh2
_symmetry_space_group_name_H-M   'P 1'
_cell_length_a   3.82626500
_cell_length_b   10.39651700
_cell_length_c   12.28897200
_cell_angle_alpha   90.00000000
_cell_angle_beta   90.00000000
_cell_angle_gamma   90.00000000
_symmetry_Int_Tables_number   1
_chemical_formula_structural   Tb2Fe5P6Ir3Rh2
_chemical_formula_sum   'Tb4 Fe10 P12 Ir6 Rh4'
_cell_volume   488.85320621
_cell_formula_units_Z   2
loop_
 _symmetry_equiv_pos_site_id
 _symmetry_equiv_pos_as_xyz
  1  'x, y, z'
loop_
 _atom_site_type_symbol
 _atom_site_label
 _atom_site_symmetry_multiplicity
 _atom_site_fract_x
 _atom_site_fract_y
 _atom_site_fract_z
 _atom_site_occupancy
  Tb  Tb0  1  0.250000  0.583716  0.713956  1
  Tb  Tb1  1  0.250000  0.916284  0.213956  1
  Tb  Tb2  1  0.750000  0.423501  0.288708  1
  Tb  Tb3  1  0.750000  0.076499  0.788708  1
  Fe  Fe4  1  0.750000  0.775467  0.828925  1
  Fe  Fe5  1  0.750000  0.724533  0.328925  1
  Fe  Fe6  1  0.250000  0.873356  0.696198  1
  Fe  Fe7  1  0.250000  0.626644  0.196198  1
  Fe  Fe8  1  0.750000  0.120481  0.302969  1
  Fe  Fe9  1  0.750000  0.379519  0.802969  1
  Fe  Fe10  1  0.250000  0.459050  0.935738  1
  Fe  Fe11  1  0.250000  0.040950  0.435738  1
  Fe  Fe12  1  0.750000  0.541600  0.063935  1
  Fe  Fe13  1  0.750000  0.958400  0.563935  1
  P  P14  1  0.250000  0.439860  0.111321  1
  P  P15  1  0.250000  0.060140  0.611321  1
  P  P16  1  0.750000  0.570637  0.887751  1
  P  P17  1  0.750000  0.929363  0.387751  1
  P  P18  1  0.250000  0.271625  0.862945  1
  P  P19  1  0.250000  0.228375  0.362945  1
  P  P20  1  0.750000  0.726872  0.146775  1
  P  P21  1  0.750000  0.773128  0.646775  1
  P  P22  1  0.250000  0.609466  0.375152  1
  P  P23  1  0.250000  0.890534  0.875152  1
  P  P24  1  0.750000  0.403045  0.620408  1
  P  P25  1  0.750000  0.096955  0.120408  1
  Ir  Ir26  1  0.250000  0.412419  0.475418  1
  Ir  Ir27  1  0.250000  0.087581  0.975418  1
  Ir  Ir28  1  0.750000  0.598304  0.522285  1
  Ir  Ir29  1  0.750000  0.901696  0.022285  1
  Ir  Ir30  1  0.250000  0.228368  0.173656  1
  Ir  Ir31  1  0.250000  0.271632  0.673656  1
  Rh  Rh32  1  0.250000  0.709479  0.983771  1
  Rh  Rh33  1  0.250000  0.790521  0.483771  1
  Rh  Rh34  1  0.750000  0.284594  0.010088  1
  Rh  Rh35  1  0.750000  0.215406  0.510088  1
