# generated using pymatgen
data_Sm2NiRhPb
_symmetry_space_group_name_H-M   'P 1'
_cell_length_a   7.63990219
_cell_length_b   7.63990139
_cell_length_c   3.90012900
_cell_angle_alpha   90.00000000
_cell_angle_beta   90.00000000
_cell_angle_gamma   149.49210060
_symmetry_Int_Tables_number   1
_chemical_formula_structural   Sm2NiRhPb
_chemical_formula_sum   'Sm2 Ni1 Rh1 Pb1'
_cell_volume   115.56465626
_cell_formula_units_Z   1
loop_
 _symmetry_equiv_pos_site_id
 _symmetry_equiv_pos_as_xyz
  1  'x, y, z'
loop_
 _atom_site_type_symbol
 _atom_site_label
 _atom_site_symmetry_multiplicity
 _atom_site_fract_x
 _atom_site_fract_y
 _atom_site_fract_z
 _atom_site_occupancy
  Sm  Sm0  1  0.362814  0.637186  0.500000  1
  Sm  Sm1  1  0.639507  0.360493  0.500000  1
  Ni  Ni2  1  0.195004  0.804996  0.000000  1
  Rh  Rh3  1  0.800123  0.199877  0.000000  1
  Pb  Pb4  1  0.002553  0.997447  0.000000  1
