# generated using pymatgen
data_Y20Hg3Ir2Pd3
_symmetry_space_group_name_H-M   'P 1'
_cell_length_a   9.58015700
_cell_length_b   9.58015609
_cell_length_c   9.53485200
_cell_angle_alpha   90.00000000
_cell_angle_beta   90.00000000
_cell_angle_gamma   120.00000658
_symmetry_Int_Tables_number   1
_chemical_formula_structural   Y20Hg3Ir2Pd3
_chemical_formula_sum   'Y20 Hg3 Ir2 Pd3'
_cell_volume   757.86137054
_cell_formula_units_Z   1
loop_
 _symmetry_equiv_pos_site_id
 _symmetry_equiv_pos_as_xyz
  1  'x, y, z'
loop_
 _atom_site_type_symbol
 _atom_site_label
 _atom_site_symmetry_multiplicity
 _atom_site_fract_x
 _atom_site_fract_y
 _atom_site_fract_z
 _atom_site_occupancy
  Y  Y0  1  0.000000  0.000000  0.541902  1
  Y  Y1  1  0.000000  0.000000  0.958098  1
  Y  Y2  1  0.206308  0.793692  0.442646  1
  Y  Y3  1  0.206308  0.412615  0.442646  1
  Y  Y4  1  0.587385  0.793692  0.442646  1
  Y  Y5  1  0.792149  0.207851  0.558853  1
  Y  Y6  1  0.792149  0.584298  0.558853  1
  Y  Y7  1  0.415702  0.207851  0.558853  1
  Y  Y8  1  0.792149  0.207851  0.941147  1
  Y  Y9  1  0.792149  0.584298  0.941147  1
  Y  Y10  1  0.415702  0.207851  0.941147  1
  Y  Y11  1  0.206308  0.793692  0.057354  1
  Y  Y12  1  0.206308  0.412615  0.057354  1
  Y  Y13  1  0.587385  0.793692  0.057354  1
  Y  Y14  1  0.541174  0.458826  0.250000  1
  Y  Y15  1  0.541174  0.082348  0.250000  1
  Y  Y16  1  0.917652  0.458826  0.250000  1
  Y  Y17  1  0.458427  0.541573  0.750000  1
  Y  Y18  1  0.458427  0.916854  0.750000  1
  Y  Y19  1  0.083146  0.541573  0.750000  1
  Hg  Hg20  1  0.886816  0.113184  0.250000  1
  Hg  Hg21  1  0.886816  0.773633  0.250000  1
  Hg  Hg22  1  0.226367  0.113184  0.250000  1
  Ir  Ir23  1  0.333333  0.666667  0.250000  1
  Ir  Ir24  1  0.666667  0.333333  0.750000  1
  Pd  Pd25  1  0.129072  0.870928  0.750000  1
  Pd  Pd26  1  0.129072  0.258143  0.750000  1
  Pd  Pd27  1  0.741857  0.870928  0.750000  1
