# generated using pymatgen
data_YbYEr6(B6Os)4
_symmetry_space_group_name_H-M   'P 1'
_cell_length_a   3.63442400
_cell_length_b   9.11565271
_cell_length_c   11.49940969
_cell_angle_alpha   89.91414126
_cell_angle_beta   90.00000000
_cell_angle_gamma   90.00000000
_symmetry_Int_Tables_number   1
_chemical_formula_structural   YbYEr6(B6Os)4
_chemical_formula_sum   'Yb1 Y1 Er6 B24 Os4'
_cell_volume   380.97670530
_cell_formula_units_Z   1
loop_
 _symmetry_equiv_pos_site_id
 _symmetry_equiv_pos_as_xyz
  1  'x, y, z'
loop_
 _atom_site_type_symbol
 _atom_site_label
 _atom_site_symmetry_multiplicity
 _atom_site_fract_x
 _atom_site_fract_y
 _atom_site_fract_z
 _atom_site_occupancy
  Yb  Yb0  1  0.000000  0.677530  0.586416  1
  Y  Y1  1  0.000000  0.322946  0.414891  1
  Er  Er2  1  0.000000  0.821042  0.085168  1
  Er  Er3  1  0.000000  0.178301  0.913709  1
  Er  Er4  1  0.000000  0.942142  0.372298  1
  Er  Er5  1  0.000000  0.055866  0.628573  1
  Er  Er6  1  0.000000  0.443812  0.127223  1
  Er  Er7  1  0.000000  0.557061  0.871389  1
  B  B8  1  0.500000  0.554491  0.432704  1
  B  B9  1  0.500000  0.446486  0.567881  1
  B  B10  1  0.500000  0.053737  0.066775  1
  B  B11  1  0.500000  0.946897  0.933767  1
  B  B12  1  0.500000  0.748417  0.418796  1
  B  B13  1  0.500000  0.251340  0.581557  1
  B  B14  1  0.500000  0.248524  0.080141  1
  B  B15  1  0.500000  0.752128  0.919485  1
  B  B16  1  0.500000  0.790721  0.265183  1
  B  B17  1  0.500000  0.208350  0.734656  1
  B  B18  1  0.500000  0.290502  0.233403  1
  B  B19  1  0.500000  0.709990  0.766248  1
  B  B20  1  0.500000  0.631192  0.184333  1
  B  B21  1  0.500000  0.368658  0.814716  1
  B  B22  1  0.500000  0.130512  0.314473  1
  B  B23  1  0.500000  0.869188  0.685994  1
  B  B24  1  0.500000  0.982265  0.212437  1
  B  B25  1  0.500000  0.017472  0.788254  1
  B  B26  1  0.500000  0.483339  0.286809  1
  B  B27  1  0.500000  0.517071  0.712704  1
  B  B28  1  0.500000  0.606529  0.029067  1
  B  B29  1  0.500000  0.393402  0.970303  1
  B  B30  1  0.500000  0.103628  0.471348  1
  B  B31  1  0.500000  0.897008  0.528650  1
  Os  Os32  1  0.000000  0.638101  0.319629  1
  Os  Os33  1  0.000000  0.360742  0.680049  1
  Os  Os34  1  0.000000  0.136902  0.178257  1
  Os  Os35  1  0.000000  0.863712  0.822712  1
