# generated using pymatgen
data_Ho7Th(Si4W3)4
_symmetry_space_group_name_H-M   'P 1'
_cell_length_a   6.78785609
_cell_length_b   6.94389357
_cell_length_c   12.95079280
_cell_angle_alpha   89.89602315
_cell_angle_beta   90.02347985
_cell_angle_gamma   90.02854623
_symmetry_Int_Tables_number   1
_chemical_formula_structural   Ho7Th(Si4W3)4
_chemical_formula_sum   'Ho7 Th1 Si16 W12'
_cell_volume   610.42348169
_cell_formula_units_Z   1
loop_
 _symmetry_equiv_pos_site_id
 _symmetry_equiv_pos_as_xyz
  1  'x, y, z'
loop_
 _atom_site_type_symbol
 _atom_site_label
 _atom_site_symmetry_multiplicity
 _atom_site_fract_x
 _atom_site_fract_y
 _atom_site_fract_z
 _atom_site_occupancy
  Ho  Ho0  1  0.494734  0.667707  0.593398  1
  Ho  Ho1  1  0.995541  0.832891  0.906889  1
  Ho  Ho2  1  0.504323  0.332229  0.093961  1
  Ho  Ho3  1  0.004513  0.167345  0.404072  1
  Ho  Ho4  1  0.504963  0.332441  0.404297  1
  Ho  Ho5  1  0.003997  0.167812  0.093776  1
  Ho  Ho6  1  0.496033  0.666893  0.908646  1
  Th  Th7  1  0.996843  0.832159  0.593404  1
  Si  Si8  1  0.660004  0.958216  0.450943  1
  Si  Si9  1  0.161508  0.541755  0.047112  1
  Si  Si10  1  0.338432  0.041724  0.953792  1
  Si  Si11  1  0.834691  0.450470  0.545013  1
  Si  Si12  1  0.344359  0.047290  0.545023  1
  Si  Si13  1  0.839639  0.459004  0.953353  1
  Si  Si14  1  0.660951  0.958055  0.047072  1
  Si  Si15  1  0.164019  0.538268  0.451152  1
  Si  Si16  1  0.463733  0.370194  0.750381  1
  Si  Si17  1  0.962401  0.134430  0.753144  1
  Si  Si18  1  0.536414  0.630279  0.249052  1
  Si  Si19  1  0.036748  0.870205  0.249225  1
  Si  Si20  1  0.690699  0.867825  0.753150  1
  Si  Si21  1  0.200445  0.628988  0.753500  1
  Si  Si22  1  0.303654  0.132993  0.249136  1
  Si  Si23  1  0.802810  0.367113  0.248861  1
  W  W24  1  0.667420  0.162136  0.627097  1
  W  W25  1  0.168138  0.335852  0.876262  1
  W  W26  1  0.331873  0.836231  0.124936  1
  W  W27  1  0.833461  0.663186  0.373926  1
  W  W28  1  0.333036  0.836888  0.373849  1
  W  W29  1  0.834083  0.664141  0.125095  1
  W  W30  1  0.665785  0.165569  0.876092  1
  W  W31  1  0.166490  0.337338  0.626241  1
  W  W32  1  0.833704  0.502200  0.749273  1
  W  W33  1  0.332307  0.000797  0.749790  1
  W  W34  1  0.165940  0.499874  0.249837  1
  W  W35  1  0.666307  0.999502  0.249247  1
