# generated using pymatgen
data_Nd4GaBr6
_symmetry_space_group_name_H-M   'P 1'
_cell_length_a   4.20741900
_cell_length_b   13.84406900
_cell_length_c   14.62291200
_cell_angle_alpha   90.00000000
_cell_angle_beta   90.00000000
_cell_angle_gamma   90.00000000
_symmetry_Int_Tables_number   1
_chemical_formula_structural   Nd4GaBr6
_chemical_formula_sum   'Nd8 Ga2 Br12'
_cell_volume   851.75243821
_cell_formula_units_Z   2
loop_
 _symmetry_equiv_pos_site_id
 _symmetry_equiv_pos_as_xyz
  1  'x, y, z'
loop_
 _atom_site_type_symbol
 _atom_site_label
 _atom_site_symmetry_multiplicity
 _atom_site_fract_x
 _atom_site_fract_y
 _atom_site_fract_z
 _atom_site_occupancy
  Nd  Nd0  1  0.500000  0.119588  0.338379  1
  Nd  Nd1  1  0.500000  0.880412  0.661621  1
  Nd  Nd2  1  0.500000  0.619588  0.161621  1
  Nd  Nd3  1  0.500000  0.380412  0.838379  1
  Nd  Nd4  1  0.000000  0.122969  0.581470  1
  Nd  Nd5  1  0.000000  0.877031  0.418530  1
  Nd  Nd6  1  0.000000  0.622969  0.918530  1
  Nd  Nd7  1  0.000000  0.377031  0.081470  1
  Ga  Ga8  1  0.500000  0.000000  0.500000  1
  Ga  Ga9  1  0.500000  0.500000  0.000000  1
  Br  Br10  1  0.500000  0.244823  0.164406  1
  Br  Br11  1  0.500000  0.755177  0.835594  1
  Br  Br12  1  0.500000  0.744823  0.335594  1
  Br  Br13  1  0.500000  0.255177  0.664406  1
  Br  Br14  1  0.000000  0.253867  0.411130  1
  Br  Br15  1  0.000000  0.746133  0.588870  1
  Br  Br16  1  0.000000  0.753867  0.088870  1
  Br  Br17  1  0.000000  0.246133  0.911130  1
  Br  Br18  1  0.000000  0.001840  0.244195  1
  Br  Br19  1  0.000000  0.998160  0.755805  1
  Br  Br20  1  0.000000  0.501840  0.255805  1
  Br  Br21  1  0.000000  0.498160  0.744195  1
