# generated using pymatgen
data_Zr3MnTc3As2
_symmetry_space_group_name_H-M   'P 1'
_cell_length_a   6.89850700
_cell_length_b   6.89850785
_cell_length_c   3.65528200
_cell_angle_alpha   90.00000000
_cell_angle_beta   90.00000000
_cell_angle_gamma   120.00000073
_symmetry_Int_Tables_number   1
_chemical_formula_structural   Zr3MnTc3As2
_chemical_formula_sum   'Zr3 Mn1 Tc3 As2'
_cell_volume   150.64745121
_cell_formula_units_Z   1
loop_
 _symmetry_equiv_pos_site_id
 _symmetry_equiv_pos_as_xyz
  1  'x, y, z'
loop_
 _atom_site_type_symbol
 _atom_site_label
 _atom_site_symmetry_multiplicity
 _atom_site_fract_x
 _atom_site_fract_y
 _atom_site_fract_z
 _atom_site_occupancy
  Zr  Zr0  1  0.401769  0.401769  0.500000  1
  Zr  Zr1  1  0.598231  0.000000  0.500000  1
  Zr  Zr2  1  0.000000  0.598231  0.500000  1
  Mn  Mn3  1  0.000000  0.000000  0.500000  1
  Tc  Tc4  1  0.000000  0.240122  0.000000  1
  Tc  Tc5  1  0.240122  0.000000  0.000000  1
  Tc  Tc6  1  0.759878  0.759878  0.000000  1
  As  As7  1  0.666667  0.333333  0.000000  1
  As  As8  1  0.333333  0.666667  0.000000  1
