# generated using pymatgen
data_Mg2Co9Tc3As7
_symmetry_space_group_name_H-M   'P 1'
_cell_length_a   3.74853900
_cell_length_b   9.30795706
_cell_length_c   9.30795900
_cell_angle_alpha   120.00000334
_cell_angle_beta   90.00000000
_cell_angle_gamma   90.00000000
_symmetry_Int_Tables_number   1
_chemical_formula_structural   Mg2Co9Tc3As7
_chemical_formula_sum   'Mg2 Co9 Tc3 As7'
_cell_volume   281.25579760
_cell_formula_units_Z   1
loop_
 _symmetry_equiv_pos_site_id
 _symmetry_equiv_pos_as_xyz
  1  'x, y, z'
loop_
 _atom_site_type_symbol
 _atom_site_label
 _atom_site_symmetry_multiplicity
 _atom_site_fract_x
 _atom_site_fract_y
 _atom_site_fract_z
 _atom_site_occupancy
  Mg  Mg0  1  0.000000  0.666667  0.333333  1
  Mg  Mg1  1  0.500000  0.333333  0.666667  1
  Co  Co2  1  0.000000  0.565837  0.938722  1
  Co  Co3  1  0.000000  0.372885  0.434163  1
  Co  Co4  1  0.000000  0.061278  0.627115  1
  Co  Co5  1  0.000000  0.875979  0.159887  1
  Co  Co6  1  0.000000  0.283907  0.124021  1
  Co  Co7  1  0.000000  0.840113  0.716093  1
  Co  Co8  1  0.500000  0.947395  0.384018  1
  Co  Co9  1  0.500000  0.436623  0.052605  1
  Co  Co10  1  0.500000  0.615982  0.563377  1
  Tc  Tc11  1  0.500000  0.783268  0.903876  1
  Tc  Tc12  1  0.500000  0.120608  0.216732  1
  Tc  Tc13  1  0.500000  0.096124  0.879392  1
  As  As14  1  0.000000  0.000000  0.000000  1
  As  As15  1  0.500000  0.707479  0.123327  1
  As  As16  1  0.500000  0.415849  0.292521  1
  As  As17  1  0.500000  0.876673  0.584151  1
  As  As18  1  0.000000  0.584244  0.703161  1
  As  As19  1  0.000000  0.118917  0.415756  1
  As  As20  1  0.000000  0.296839  0.881083  1
