# generated using pymatgen
data_Cs5K2TaIn3As5
_symmetry_space_group_name_H-M   'P 1'
_cell_length_a   8.67547874
_cell_length_b   9.66230585
_cell_length_c   15.23108235
_cell_angle_alpha   85.08119526
_cell_angle_beta   84.41617010
_cell_angle_gamma   88.04207836
_symmetry_Int_Tables_number   1
_chemical_formula_structural   Cs5K2TaIn3As5
_chemical_formula_sum   'Cs10 K4 Ta2 In6 As10'
_cell_volume   1265.58011419
_cell_formula_units_Z   2
loop_
 _symmetry_equiv_pos_site_id
 _symmetry_equiv_pos_as_xyz
  1  'x, y, z'
loop_
 _atom_site_type_symbol
 _atom_site_label
 _atom_site_symmetry_multiplicity
 _atom_site_fract_x
 _atom_site_fract_y
 _atom_site_fract_z
 _atom_site_occupancy
  Cs  Cs0  1  0.745144  0.504528  0.973850  1
  Cs  Cs1  1  0.254856  0.495472  0.026150  1
  Cs  Cs2  1  0.688747  0.077804  0.886972  1
  Cs  Cs3  1  0.311253  0.922196  0.113028  1
  Cs  Cs4  1  0.685788  0.662173  0.398819  1
  Cs  Cs5  1  0.314212  0.337827  0.601181  1
  Cs  Cs6  1  0.754366  0.987215  0.534092  1
  Cs  Cs7  1  0.245634  0.012785  0.465908  1
  Cs  Cs8  1  0.827491  0.366693  0.643705  1
  Cs  Cs9  1  0.172509  0.633307  0.356295  1
  K  K10  1  0.811957  0.809284  0.142905  1
  K  K11  1  0.188043  0.190716  0.857095  1
  K  K12  1  0.271296  0.259898  0.250121  1
  K  K13  1  0.728704  0.740102  0.749879  1
  Ta  Ta14  1  0.650064  0.392924  0.226859  1
  Ta  Ta15  1  0.349936  0.607076  0.773141  1
  In  In16  1  0.912006  0.272654  0.370442  1
  In  In17  1  0.087994  0.727346  0.629558  1
  In  In18  1  0.942928  0.185997  0.129131  1
  In  In19  1  0.057072  0.814003  0.870869  1
  In  In20  1  0.634697  0.043734  0.295398  1
  In  In21  1  0.365303  0.956266  0.704602  1
  As  As22  1  0.494045  0.598976  0.190728  1
  As  As23  1  0.505955  0.401024  0.809272  1
  As  As24  1  0.932341  0.451942  0.210023  1
  As  As25  1  0.067659  0.548058  0.789977  1
  As  As26  1  0.580149  0.294779  0.384745  1
  As  As27  1  0.419851  0.705221  0.615255  1
  As  As28  1  0.613104  0.199411  0.128557  1
  As  As29  1  0.386896  0.800589  0.871443  1
  As  As30  1  0.973998  0.003798  0.291690  1
  As  As31  1  0.026002  0.996202  0.708310  1
