# generated using pymatgen
data_Ho8ReOsBr8
_symmetry_space_group_name_H-M   'P 1'
_cell_length_a   9.00287528
_cell_length_b   9.00287621
_cell_length_c   6.51484660
_cell_angle_alpha   89.61246312
_cell_angle_beta   89.61245986
_cell_angle_gamma   89.36021590
_symmetry_Int_Tables_number   1
_chemical_formula_structural   Ho8ReOsBr8
_chemical_formula_sum   'Ho8 Re1 Os1 Br8'
_cell_volume   527.98305055
_cell_formula_units_Z   1
loop_
 _symmetry_equiv_pos_site_id
 _symmetry_equiv_pos_as_xyz
  1  'x, y, z'
loop_
 _atom_site_type_symbol
 _atom_site_label
 _atom_site_symmetry_multiplicity
 _atom_site_fract_x
 _atom_site_fract_y
 _atom_site_fract_z
 _atom_site_occupancy
  Ho  Ho0  1  0.247027  0.901424  0.011760  1
  Ho  Ho1  1  0.752049  0.099012  0.989316  1
  Ho  Ho2  1  0.098576  0.752973  0.488240  1
  Ho  Ho3  1  0.900988  0.247951  0.510684  1
  Ho  Ho4  1  0.753809  0.903078  0.505989  1
  Ho  Ho5  1  0.246047  0.096976  0.493017  1
  Ho  Ho6  1  0.096922  0.246191  0.994011  1
  Ho  Ho7  1  0.903024  0.753953  0.006983  1
  Re  Re8  1  0.995111  0.004889  0.250000  1
  Os  Os9  1  0.004845  0.995155  0.750000  1
  Br  Br10  1  0.417605  0.818678  0.413077  1
  Br  Br11  1  0.582804  0.181181  0.588272  1
  Br  Br12  1  0.181322  0.582395  0.086923  1
  Br  Br13  1  0.818819  0.417196  0.911728  1
  Br  Br14  1  0.412936  0.187849  0.090111  1
  Br  Br15  1  0.587937  0.811972  0.909404  1
  Br  Br16  1  0.812151  0.587064  0.409889  1
  Br  Br17  1  0.188028  0.412063  0.590596  1
