# generated using pymatgen
data_La3Y(As3Rh5)4
_symmetry_space_group_name_H-M   'P 1'
_cell_length_a   4.05342400
_cell_length_b   12.98338931
_cell_length_c   11.41420016
_cell_angle_alpha   90.05159232
_cell_angle_beta   90.00000000
_cell_angle_gamma   90.00000000
_symmetry_Int_Tables_number   1
_chemical_formula_structural   La3Y(As3Rh5)4
_chemical_formula_sum   'La3 Y1 As12 Rh20'
_cell_volume   600.69694385
_cell_formula_units_Z   1
loop_
 _symmetry_equiv_pos_site_id
 _symmetry_equiv_pos_as_xyz
  1  'x, y, z'
loop_
 _atom_site_type_symbol
 _atom_site_label
 _atom_site_symmetry_multiplicity
 _atom_site_fract_x
 _atom_site_fract_y
 _atom_site_fract_z
 _atom_site_occupancy
  La  La0  1  0.750000  0.701806  0.081960  1
  La  La1  1  0.250000  0.298284  0.917981  1
  La  La2  1  0.250000  0.798077  0.581257  1
  Y  Y3  1  0.750000  0.200474  0.419375  1
  As  As4  1  0.750000  0.610793  0.582736  1
  As  As5  1  0.250000  0.383331  0.417340  1
  As  As6  1  0.250000  0.887778  0.083678  1
  As  As7  1  0.750000  0.112947  0.917416  1
  As  As8  1  0.750000  0.890856  0.396887  1
  As  As9  1  0.250000  0.110422  0.600050  1
  As  As10  1  0.250000  0.609389  0.896797  1
  As  As11  1  0.750000  0.390676  0.103091  1
  As  As12  1  0.750000  0.870951  0.770074  1
  As  As13  1  0.250000  0.132232  0.233216  1
  As  As14  1  0.250000  0.629393  0.270875  1
  As  As15  1  0.750000  0.370520  0.728819  1
  Rh  Rh16  1  0.750000  0.699491  0.383239  1
  Rh  Rh17  1  0.250000  0.298236  0.614082  1
  Rh  Rh18  1  0.250000  0.800626  0.882513  1
  Rh  Rh19  1  0.750000  0.200140  0.119247  1
  Rh  Rh20  1  0.750000  0.996066  0.221067  1
  Rh  Rh21  1  0.250000  0.006081  0.778004  1
  Rh  Rh22  1  0.250000  0.504156  0.720866  1
  Rh  Rh23  1  0.750000  0.495700  0.278748  1
  Rh  Rh24  1  0.750000  0.675357  0.781109  1
  Rh  Rh25  1  0.250000  0.324209  0.220774  1
  Rh  Rh26  1  0.250000  0.825323  0.282916  1
  Rh  Rh27  1  0.750000  0.175496  0.717768  1
  Rh  Rh28  1  0.750000  0.930513  0.968933  1
  Rh  Rh29  1  0.250000  0.070729  0.033695  1
  Rh  Rh30  1  0.250000  0.567731  0.468343  1
  Rh  Rh31  1  0.750000  0.426764  0.528837  1
  Rh  Rh32  1  0.750000  0.982872  0.589826  1
  Rh  Rh33  1  0.250000  0.022788  0.408476  1
  Rh  Rh34  1  0.250000  0.517620  0.090850  1
  Rh  Rh35  1  0.750000  0.482173  0.909153  1
