# generated using pymatgen
data_RbGeAsIr2
_symmetry_space_group_name_H-M   'P 1'
_cell_length_a   7.68764434
_cell_length_b   7.68764402
_cell_length_c   7.68764388
_cell_angle_alpha   149.16152004
_cell_angle_beta   149.16152257
_cell_angle_gamma   44.17361142
_symmetry_Int_Tables_number   1
_chemical_formula_structural   RbGeAsIr2
_chemical_formula_sum   'Rb1 Ge1 As1 Ir2'
_cell_volume   119.04469360
_cell_formula_units_Z   1
loop_
 _symmetry_equiv_pos_site_id
 _symmetry_equiv_pos_as_xyz
  1  'x, y, z'
loop_
 _atom_site_type_symbol
 _atom_site_label
 _atom_site_symmetry_multiplicity
 _atom_site_fract_x
 _atom_site_fract_y
 _atom_site_fract_z
 _atom_site_occupancy
  Rb  Rb0  1  0.001842  0.001842  0.000000  1
  Ge  Ge1  1  0.348168  0.348168  0.000000  1
  As  As2  1  0.653297  0.653297  0.000000  1
  Ir  Ir3  1  0.748347  0.248347  0.500000  1
  Ir  Ir4  1  0.248347  0.748347  0.500000  1
