# generated using pymatgen
data_Dy2PaSn3IrRh2
_symmetry_space_group_name_H-M   'P 1'
_cell_length_a   7.56494975
_cell_length_b   7.55510417
_cell_length_c   3.85374700
_cell_angle_alpha   90.00000000
_cell_angle_beta   90.00000000
_cell_angle_gamma   119.10114250
_symmetry_Int_Tables_number   1
_chemical_formula_structural   Dy2PaSn3IrRh2
_chemical_formula_sum   'Dy2 Pa1 Sn3 Ir1 Rh2'
_cell_volume   192.45230566
_cell_formula_units_Z   1
loop_
 _symmetry_equiv_pos_site_id
 _symmetry_equiv_pos_as_xyz
  1  'x, y, z'
loop_
 _atom_site_type_symbol
 _atom_site_label
 _atom_site_symmetry_multiplicity
 _atom_site_fract_x
 _atom_site_fract_y
 _atom_site_fract_z
 _atom_site_occupancy
  Dy  Dy0  1  0.596355  0.001451  0.500000  1
  Dy  Dy1  1  0.997721  0.594300  0.500000  1
  Pa  Pa2  1  0.413247  0.412609  0.500000  1
  Sn  Sn3  1  0.755156  0.756327  0.000000  1
  Sn  Sn4  1  0.258157  0.985032  0.000000  1
  Sn  Sn5  1  0.987758  0.259622  0.000000  1
  Ir  Ir6  1  0.639070  0.336360  0.000000  1
  Rh  Rh7  1  0.336574  0.638739  0.000000  1
  Rh  Rh8  1  0.015962  0.015559  0.500000  1
