# generated using pymatgen
data_Ce3Dy13CdHg3Ir4
_symmetry_space_group_name_H-M   'P 1'
_cell_length_a   9.63865302
_cell_length_b   9.66642884
_cell_length_c   9.66643000
_cell_angle_alpha   60.00000286
_cell_angle_beta   59.90463074
_cell_angle_gamma   59.90462887
_symmetry_Int_Tables_number   1
_chemical_formula_structural   Ce3Dy13CdHg3Ir4
_chemical_formula_sum   'Ce3 Dy13 Cd1 Hg3 Ir4'
_cell_volume   635.92511268
_cell_formula_units_Z   1
loop_
 _symmetry_equiv_pos_site_id
 _symmetry_equiv_pos_as_xyz
  1  'x, y, z'
loop_
 _atom_site_type_symbol
 _atom_site_label
 _atom_site_symmetry_multiplicity
 _atom_site_fract_x
 _atom_site_fract_y
 _atom_site_fract_z
 _atom_site_occupancy
  Ce  Ce0  1  0.598089  0.599546  0.599546  1
  Ce  Ce1  1  0.598089  0.599546  0.202818  1
  Ce  Ce2  1  0.598089  0.202818  0.599546  1
  Dy  Dy3  1  0.192726  0.602425  0.602425  1
  Dy  Dy4  1  0.061096  0.439707  0.439707  1
  Dy  Dy5  1  0.438625  0.061661  0.061661  1
  Dy  Dy6  1  0.438625  0.061661  0.438052  1
  Dy  Dy7  1  0.061096  0.439707  0.059491  1
  Dy  Dy8  1  0.438625  0.438052  0.061661  1
  Dy  Dy9  1  0.061096  0.059491  0.439707  1
  Dy  Dy10  1  0.186058  0.813086  0.813086  1
  Dy  Dy11  1  0.812150  0.187352  0.187352  1
  Dy  Dy12  1  0.812150  0.187352  0.813145  1
  Dy  Dy13  1  0.186058  0.813086  0.187768  1
  Dy  Dy14  1  0.812150  0.813145  0.187352  1
  Dy  Dy15  1  0.186058  0.187768  0.813086  1
  Cd  Cd16  1  0.505311  0.831563  0.831563  1
  Hg  Hg17  1  0.834866  0.836228  0.836228  1
  Hg  Hg18  1  0.834866  0.836228  0.492679  1
  Hg  Hg19  1  0.834866  0.492679  0.836228  1
  Ir  Ir20  1  0.396033  0.391209  0.391209  1
  Ir  Ir21  1  0.396033  0.391209  0.821550  1
  Ir  Ir22  1  0.396033  0.821550  0.391209  1
  Ir  Ir23  1  0.821210  0.392930  0.392930  1
