# generated using pymatgen
data_TbYHf4F22
_symmetry_space_group_name_H-M   'P 1'
_cell_length_a   8.27829488
_cell_length_b   8.27829492
_cell_length_c   8.27829514
_cell_angle_alpha   124.19820013
_cell_angle_beta   106.29174660
_cell_angle_gamma   99.05683514
_symmetry_Int_Tables_number   1
_chemical_formula_structural   TbYHf4F22
_chemical_formula_sum   'Tb1 Y1 Hf4 F22'
_cell_volume   413.39020957
_cell_formula_units_Z   1
loop_
 _symmetry_equiv_pos_site_id
 _symmetry_equiv_pos_as_xyz
  1  'x, y, z'
loop_
 _atom_site_type_symbol
 _atom_site_label
 _atom_site_symmetry_multiplicity
 _atom_site_fract_x
 _atom_site_fract_y
 _atom_site_fract_z
 _atom_site_occupancy
  Tb  Tb0  1  0.750000  0.250000  0.500000  1
  Y  Y1  1  0.250000  0.750000  0.500000  1
  Hf  Hf2  1  0.681361  0.636429  0.317765  1
  Hf  Hf3  1  0.318664  0.363596  0.682235  1
  Hf  Hf4  1  0.181336  0.863571  0.044932  1
  Hf  Hf5  1  0.818639  0.136404  0.955068  1
  F  F6  1  0.707484  0.899997  0.343121  1
  F  F7  1  0.292498  0.099759  0.656750  1
  F  F8  1  0.556877  0.364363  0.656879  1
  F  F9  1  0.943123  0.600003  0.807486  1
  F  F10  1  0.443008  0.635748  0.343250  1
  F  F11  1  0.056992  0.400241  0.192740  1
  F  F12  1  0.792516  0.135637  0.192514  1
  F  F13  1  0.207502  0.864252  0.807260  1
  F  F14  1  0.499995  0.499995  0.000000  1
  F  F15  1  0.000005  0.000005  0.000000  1
  F  F16  1  0.781812  0.870765  0.652556  1
  F  F17  1  0.218209  0.129256  0.347444  1
  F  F18  1  0.281791  0.629235  0.911048  1
  F  F19  1  0.718188  0.370744  0.088952  1
  F  F20  1  0.957164  0.738922  0.418679  1
  F  F21  1  0.043090  0.261037  0.581382  1
  F  F22  1  0.320243  0.538486  0.581321  1
  F  F23  1  0.179757  0.761078  0.218242  1
  F  F24  1  0.679655  0.461708  0.418618  1
  F  F25  1  0.820345  0.238963  0.782053  1
  F  F26  1  0.542836  0.961514  0.781758  1
  F  F27  1  0.456910  0.038292  0.217947  1
