# generated using pymatgen
data_BaEu2(H6Pt)2
_symmetry_space_group_name_H-M   'P 1'
_cell_length_a   5.19196100
_cell_length_b   5.19196064
_cell_length_c   8.80306500
_cell_angle_alpha   90.00000000
_cell_angle_beta   90.00000000
_cell_angle_gamma   119.99999589
_symmetry_Int_Tables_number   1
_chemical_formula_structural   BaEu2(H6Pt)2
_chemical_formula_sum   'Ba1 Eu2 H12 Pt2'
_cell_volume   205.50735595
_cell_formula_units_Z   1
loop_
 _symmetry_equiv_pos_site_id
 _symmetry_equiv_pos_as_xyz
  1  'x, y, z'
loop_
 _atom_site_type_symbol
 _atom_site_label
 _atom_site_symmetry_multiplicity
 _atom_site_fract_x
 _atom_site_fract_y
 _atom_site_fract_z
 _atom_site_occupancy
  Ba  Ba0  1  0.000000  0.000000  0.000000  1
  Eu  Eu1  1  0.666667  0.333333  0.368278  1
  Eu  Eu2  1  0.333333  0.666667  0.631722  1
  H  H3  1  0.178292  0.821708  0.368815  1
  H  H4  1  0.643418  0.821708  0.368815  1
  H  H5  1  0.178292  0.356582  0.368815  1
  H  H6  1  0.821708  0.178292  0.631185  1
  H  H7  1  0.356582  0.178292  0.631185  1
  H  H8  1  0.821708  0.643418  0.631185  1
  H  H9  1  0.512498  0.024997  0.855957  1
  H  H10  1  0.512498  0.487502  0.855957  1
  H  H11  1  0.975003  0.487502  0.855957  1
  H  H12  1  0.487502  0.975003  0.144043  1
  H  H13  1  0.487502  0.512498  0.144043  1
  H  H14  1  0.024997  0.512498  0.144043  1
  Pt  Pt15  1  0.666667  0.333333  0.743785  1
  Pt  Pt16  1  0.333333  0.666667  0.256215  1
