# generated using pymatgen
data_Sc(Co3Si2)2
_symmetry_space_group_name_H-M   'P 1'
_cell_length_a   6.56369000
_cell_length_b   6.56369112
_cell_length_c   3.52767100
_cell_angle_alpha   90.00000000
_cell_angle_beta   90.00000000
_cell_angle_gamma   120.00000443
_symmetry_Int_Tables_number   1
_chemical_formula_structural   Sc(Co3Si2)2
_chemical_formula_sum   'Sc1 Co6 Si4'
_cell_volume   131.61787783
_cell_formula_units_Z   1
loop_
 _symmetry_equiv_pos_site_id
 _symmetry_equiv_pos_as_xyz
  1  'x, y, z'
loop_
 _atom_site_type_symbol
 _atom_site_label
 _atom_site_symmetry_multiplicity
 _atom_site_fract_x
 _atom_site_fract_y
 _atom_site_fract_z
 _atom_site_occupancy
  Sc  Sc0  1  0.000000  0.000000  0.000000  1
  Co  Co1  1  0.466218  0.931571  0.000000  1
  Co  Co2  1  0.465352  0.533782  0.000000  1
  Co  Co3  1  0.068429  0.534648  0.000000  1
  Co  Co4  1  0.797505  0.595020  0.500000  1
  Co  Co5  1  0.797516  0.202495  0.500000  1
  Co  Co6  1  0.404980  0.202484  0.500000  1
  Si  Si7  1  0.666667  0.333333  0.000000  1
  Si  Si8  1  0.195883  0.392169  0.500000  1
  Si  Si9  1  0.196284  0.804117  0.500000  1
  Si  Si10  1  0.607831  0.803716  0.500000  1
