# generated using pymatgen
data_LiPr4Al3Pt4
_symmetry_space_group_name_H-M   'P 1'
_cell_length_a   4.52289500
_cell_length_b   7.13093012
_cell_length_c   8.01631167
_cell_angle_alpha   89.82408865
_cell_angle_beta   90.00000000
_cell_angle_gamma   90.00000000
_symmetry_Int_Tables_number   1
_chemical_formula_structural   LiPr4Al3Pt4
_chemical_formula_sum   'Li1 Pr4 Al3 Pt4'
_cell_volume   258.54445826
_cell_formula_units_Z   1
loop_
 _symmetry_equiv_pos_site_id
 _symmetry_equiv_pos_as_xyz
  1  'x, y, z'
loop_
 _atom_site_type_symbol
 _atom_site_label
 _atom_site_symmetry_multiplicity
 _atom_site_fract_x
 _atom_site_fract_y
 _atom_site_fract_z
 _atom_site_occupancy
  Li  Li0  1  0.250000  0.136439  0.068538  1
  Pr  Pr1  1  0.250000  0.530749  0.814778  1
  Pr  Pr2  1  0.250000  0.024508  0.686163  1
  Pr  Pr3  1  0.750000  0.972492  0.314573  1
  Pr  Pr4  1  0.750000  0.469541  0.183441  1
  Al  Al5  1  0.750000  0.357176  0.564582  1
  Al  Al6  1  0.250000  0.653106  0.432813  1
  Al  Al7  1  0.750000  0.856476  0.936096  1
  Pt  Pt8  1  0.250000  0.767252  0.111057  1
  Pt  Pt9  1  0.250000  0.289060  0.402365  1
  Pt  Pt10  1  0.750000  0.720709  0.610190  1
  Pt  Pt11  1  0.750000  0.222492  0.875404  1
