# generated using pymatgen
data_Lu4Ga2B4Ru3Rh7
_symmetry_space_group_name_H-M   'P 1'
_cell_length_a   9.50931005
_cell_length_b   9.52349605
_cell_length_c   3.08716100
_cell_angle_alpha   90.00000000
_cell_angle_beta   90.00000000
_cell_angle_gamma   89.98801267
_symmetry_Int_Tables_number   1
_chemical_formula_structural   Lu4Ga2B4Ru3Rh7
_chemical_formula_sum   'Lu4 Ga2 B4 Ru3 Rh7'
_cell_volume   279.57908784
_cell_formula_units_Z   1
loop_
 _symmetry_equiv_pos_site_id
 _symmetry_equiv_pos_as_xyz
  1  'x, y, z'
loop_
 _atom_site_type_symbol
 _atom_site_label
 _atom_site_symmetry_multiplicity
 _atom_site_fract_x
 _atom_site_fract_y
 _atom_site_fract_z
 _atom_site_occupancy
  Lu  Lu0  1  0.828824  0.323918  0.000000  1
  Lu  Lu1  1  0.322569  0.175402  0.000000  1
  Lu  Lu2  1  0.674593  0.825573  0.000000  1
  Lu  Lu3  1  0.174887  0.673766  0.000000  1
  Ga  Ga4  1  0.000508  0.002936  0.000000  1
  Ga  Ga5  1  0.499498  0.499984  0.000000  1
  B  B6  1  0.621449  0.121039  0.000000  1
  B  B7  1  0.119038  0.373216  0.000000  1
  B  B8  1  0.879676  0.620990  0.000000  1
  B  B9  1  0.378401  0.878596  0.000000  1
  Ru  Ru10  1  0.070813  0.216933  0.500000  1
  Ru  Ru11  1  0.499564  0.000124  0.500000  1
  Ru  Ru12  1  0.000133  0.502022  0.500000  1
  Rh  Rh13  1  0.217193  0.927837  0.500000  1
  Rh  Rh14  1  0.782232  0.070392  0.500000  1
  Rh  Rh15  1  0.928958  0.784803  0.500000  1
  Rh  Rh16  1  0.429718  0.716946  0.500000  1
  Rh  Rh17  1  0.571328  0.283145  0.500000  1
  Rh  Rh18  1  0.716715  0.571493  0.500000  1
  Rh  Rh19  1  0.283903  0.430882  0.500000  1
