# generated using pymatgen
data_LiCaEu2Ag2Pb3
_symmetry_space_group_name_H-M   'P 1'
_cell_length_a   5.01916900
_cell_length_b   5.01916937
_cell_length_c   11.35998400
_cell_angle_alpha   90.00000000
_cell_angle_beta   90.00000000
_cell_angle_gamma   120.00000414
_symmetry_Int_Tables_number   1
_chemical_formula_structural   LiCaEu2Ag2Pb3
_chemical_formula_sum   'Li1 Ca1 Eu2 Ag2 Pb3'
_cell_volume   247.84034412
_cell_formula_units_Z   1
loop_
 _symmetry_equiv_pos_site_id
 _symmetry_equiv_pos_as_xyz
  1  'x, y, z'
loop_
 _atom_site_type_symbol
 _atom_site_label
 _atom_site_symmetry_multiplicity
 _atom_site_fract_x
 _atom_site_fract_y
 _atom_site_fract_z
 _atom_site_occupancy
  Li  Li0  1  0.333333  0.666667  0.005355  1
  Ca  Ca1  1  0.666667  0.333333  0.165376  1
  Eu  Eu2  1  0.666667  0.333333  0.830835  1
  Eu  Eu3  1  0.666667  0.333333  0.497010  1
  Ag  Ag4  1  0.000000  0.000000  0.687556  1
  Ag  Ag5  1  0.000000  0.000000  0.297277  1
  Pb  Pb6  1  0.333333  0.666667  0.650355  1
  Pb  Pb7  1  0.333333  0.666667  0.343861  1
  Pb  Pb8  1  0.000000  0.000000  0.000273  1
