# generated using pymatgen
data_Tb16MgHg3Ir4
_symmetry_space_group_name_H-M   'P 1'
_cell_length_a   9.65885726
_cell_length_b   9.66696605
_cell_length_c   9.66696600
_cell_angle_alpha   60.00000017
_cell_angle_beta   59.97222523
_cell_angle_gamma   59.97223003
_symmetry_Int_Tables_number   1
_chemical_formula_structural   Tb16MgHg3Ir4
_chemical_formula_sum   'Tb16 Mg1 Hg3 Ir4'
_cell_volume   637.98240269
_cell_formula_units_Z   1
loop_
 _symmetry_equiv_pos_site_id
 _symmetry_equiv_pos_as_xyz
  1  'x, y, z'
loop_
 _atom_site_type_symbol
 _atom_site_label
 _atom_site_symmetry_multiplicity
 _atom_site_fract_x
 _atom_site_fract_y
 _atom_site_fract_z
 _atom_site_occupancy
  Tb  Tb0  1  0.190276  0.810044  0.810044  1
  Tb  Tb1  1  0.813248  0.187351  0.187351  1
  Tb  Tb2  1  0.064908  0.436703  0.061685  1
  Tb  Tb3  1  0.053167  0.648945  0.648945  1
  Tb  Tb4  1  0.650120  0.651891  0.651891  1
  Tb  Tb5  1  0.064908  0.061685  0.436703  1
  Tb  Tb6  1  0.190276  0.810044  0.189635  1
  Tb  Tb7  1  0.813248  0.812050  0.187351  1
  Tb  Tb8  1  0.813248  0.187351  0.812050  1
  Tb  Tb9  1  0.437762  0.062864  0.436509  1
  Tb  Tb10  1  0.437762  0.436509  0.062864  1
  Tb  Tb11  1  0.437762  0.062864  0.062864  1
  Tb  Tb12  1  0.064908  0.436703  0.436703  1
  Tb  Tb13  1  0.190276  0.189635  0.810044  1
  Tb  Tb14  1  0.650120  0.651891  0.046098  1
  Tb  Tb15  1  0.650120  0.046098  0.651891  1
  Mg  Mg16  1  0.716581  0.427807  0.427807  1
  Hg  Hg17  1  0.419196  0.414062  0.752681  1
  Hg  Hg18  1  0.419196  0.752681  0.414062  1
  Hg  Hg19  1  0.419196  0.414062  0.414062  1
  Ir  Ir20  1  0.859191  0.857478  0.425855  1
  Ir  Ir21  1  0.859191  0.425855  0.857478  1
  Ir  Ir22  1  0.859191  0.857478  0.857478  1
  Ir  Ir23  1  0.426147  0.857951  0.857951  1
