# generated using pymatgen
data_DyY2In3Ag2Ir
_symmetry_space_group_name_H-M   'P 1'
_cell_length_a   7.98410300
_cell_length_b   7.98504631
_cell_length_c   3.74582200
_cell_angle_alpha   90.00000000
_cell_angle_beta   90.00000000
_cell_angle_gamma   119.99400027
_symmetry_Int_Tables_number   1
_chemical_formula_structural   DyY2In3Ag2Ir
_chemical_formula_sum   'Dy1 Y2 In3 Ag2 Ir1'
_cell_volume   206.82717078
_cell_formula_units_Z   1
loop_
 _symmetry_equiv_pos_site_id
 _symmetry_equiv_pos_as_xyz
  1  'x, y, z'
loop_
 _atom_site_type_symbol
 _atom_site_label
 _atom_site_symmetry_multiplicity
 _atom_site_fract_x
 _atom_site_fract_y
 _atom_site_fract_z
 _atom_site_occupancy
  Dy  Dy0  1  0.032448  0.420889  0.000000  1
  Y  Y1  1  0.580908  0.611655  0.000000  1
  Y  Y2  1  0.388109  0.968619  0.000000  1
  In  In3  1  0.992527  0.725133  0.500000  1
  In  In4  1  0.276036  0.268474  0.500000  1
  In  In5  1  0.731193  0.006729  0.500000  1
  Ag  Ag6  1  0.000240  0.001451  0.000000  1
  Ag  Ag7  1  0.667714  0.332862  0.500000  1
  Ir  Ir8  1  0.330824  0.664188  0.500000  1
