# generated using pymatgen
data_Dy3Ho3NiBr10
_symmetry_space_group_name_H-M   'P 1'
_cell_length_a   7.30848793
_cell_length_b   9.12818620
_cell_length_c   9.18410250
_cell_angle_alpha   107.71239201
_cell_angle_beta   97.07972536
_cell_angle_gamma   104.95980534
_symmetry_Int_Tables_number   1
_chemical_formula_structural   Dy3Ho3NiBr10
_chemical_formula_sum   'Dy3 Ho3 Ni1 Br10'
_cell_volume   550.15371224
_cell_formula_units_Z   1
loop_
 _symmetry_equiv_pos_site_id
 _symmetry_equiv_pos_as_xyz
  1  'x, y, z'
loop_
 _atom_site_type_symbol
 _atom_site_label
 _atom_site_symmetry_multiplicity
 _atom_site_fract_x
 _atom_site_fract_y
 _atom_site_fract_z
 _atom_site_occupancy
  Dy  Dy0  1  0.122934  0.045843  0.758340  1
  Dy  Dy1  1  0.877566  0.953493  0.241542  1
  Dy  Dy2  1  0.967938  0.292076  0.090944  1
  Ho  Ho3  1  0.031148  0.707796  0.908707  1
  Ho  Ho4  1  0.351451  0.130169  0.175133  1
  Ho  Ho5  1  0.648963  0.869951  0.825031  1
  Ni  Ni6  1  0.000204  0.999499  0.999861  1
  Br  Br7  1  0.545930  0.179944  0.914792  1
  Br  Br8  1  0.454176  0.820594  0.085451  1
  Br  Br9  1  0.349309  0.451698  0.271495  1
  Br  Br10  1  0.650072  0.548635  0.728841  1
  Br  Br11  1  0.250726  0.083784  0.459024  1
  Br  Br12  1  0.749547  0.916835  0.541195  1
  Br  Br13  1  0.779866  0.254420  0.345198  1
  Br  Br14  1  0.220636  0.745492  0.655034  1
  Br  Br15  1  0.084764  0.371478  0.825941  1
  Br  Br16  1  0.914771  0.628293  0.173471  1
