# generated using pymatgen
data_Dy3HoGa18(Ni2Ru)2
_symmetry_space_group_name_H-M   'P 1'
_cell_length_a   7.47572604
_cell_length_b   7.47575870
_cell_length_c   9.39765301
_cell_angle_alpha   90.00436562
_cell_angle_beta   89.99824047
_cell_angle_gamma   120.01669000
_symmetry_Int_Tables_number   1
_chemical_formula_structural   Dy3HoGa18(Ni2Ru)2
_chemical_formula_sum   'Dy3 Ho1 Ga18 Ni4 Ru2'
_cell_volume   454.76352504
_cell_formula_units_Z   1
loop_
 _symmetry_equiv_pos_site_id
 _symmetry_equiv_pos_as_xyz
  1  'x, y, z'
loop_
 _atom_site_type_symbol
 _atom_site_label
 _atom_site_symmetry_multiplicity
 _atom_site_fract_x
 _atom_site_fract_y
 _atom_site_fract_z
 _atom_site_occupancy
  Dy  Dy0  1  0.666001  0.995820  0.249412  1
  Dy  Dy1  1  0.004172  0.333986  0.750589  1
  Dy  Dy2  1  0.995817  0.666010  0.250585  1
  Ho  Ho3  1  0.333998  0.004159  0.749402  1
  Ga  Ga4  1  0.880412  0.880328  0.749998  1
  Ga  Ga5  1  0.119725  0.119723  0.250002  1
  Ga  Ga6  1  0.668950  0.669652  0.438328  1
  Ga  Ga7  1  0.331055  0.330238  0.938264  1
  Ga  Ga8  1  0.669658  0.668948  0.061676  1
  Ga  Ga9  1  0.330352  0.330948  0.561735  1
  Ga  Ga10  1  0.453545  0.663469  0.752135  1
  Ga  Ga11  1  0.546416  0.336595  0.252137  1
  Ga  Ga12  1  0.663305  0.453436  0.747862  1
  Ga  Ga13  1  0.336598  0.546417  0.247870  1
  Ga  Ga14  1  0.004065  0.333366  0.075439  1
  Ga  Ga15  1  0.996048  0.666754  0.575490  1
  Ga  Ga16  1  0.333378  0.004066  0.424653  1
  Ga  Ga17  1  0.666522  0.995934  0.924511  1
  Ga  Ga18  1  0.005382  0.669282  0.924821  1
  Ga  Ga19  1  0.994749  0.330856  0.424878  1
  Ga  Ga20  1  0.669022  0.005256  0.575177  1
  Ga  Ga21  1  0.330858  0.994747  0.075031  1
  Ni  Ni22  1  0.000098  0.999923  0.500025  1
  Ni  Ni23  1  0.999944  0.000085  0.999974  1
  Ni  Ni24  1  0.669391  0.330560  0.500031  1
  Ni  Ni25  1  0.330590  0.669440  0.999978  1
  Ru  Ru26  1  0.327140  0.672915  0.500074  1
  Ru  Ru27  1  0.672812  0.327088  0.999925  1
