# generated using pymatgen
data_Sr2MgZn21
_symmetry_space_group_name_H-M   'P 1'
_cell_length_a   8.37886540
_cell_length_b   8.37886624
_cell_length_c   8.37886629
_cell_angle_alpha   99.99039687
_cell_angle_beta   99.99040233
_cell_angle_gamma   130.77072601
_symmetry_Int_Tables_number   1
_chemical_formula_structural   Sr2MgZn21
_chemical_formula_sum   'Sr2 Mg1 Zn21'
_cell_volume   405.01028444
_cell_formula_units_Z   1
loop_
 _symmetry_equiv_pos_site_id
 _symmetry_equiv_pos_as_xyz
  1  'x, y, z'
loop_
 _atom_site_type_symbol
 _atom_site_label
 _atom_site_symmetry_multiplicity
 _atom_site_fract_x
 _atom_site_fract_y
 _atom_site_fract_z
 _atom_site_occupancy
  Sr  Sr0  1  0.750000  0.250000  0.500000  1
  Sr  Sr1  1  0.000000  0.000000  0.000000  1
  Mg  Mg2  1  0.250000  0.750000  0.500000  1
  Zn  Zn3  1  0.499999  0.499999  0.000000  1
  Zn  Zn4  1  0.376008  0.623037  0.247029  1
  Zn  Zn5  1  0.376007  0.128979  0.752970  1
  Zn  Zn6  1  0.376963  0.623991  0.752970  1
  Zn  Zn7  1  0.871021  0.623992  0.247029  1
  Zn  Zn8  1  0.573761  0.902712  0.085042  1
  Zn  Zn9  1  0.817669  0.488719  0.914958  1
  Zn  Zn10  1  0.931419  0.345749  0.169389  1
  Zn  Zn11  1  0.176362  0.762030  0.830611  1
  Zn  Zn12  1  0.097290  0.426240  0.914958  1
  Zn  Zn13  1  0.511280  0.182328  0.085041  1
  Zn  Zn14  1  0.237971  0.823641  0.169389  1
  Zn  Zn15  1  0.654249  0.068580  0.830611  1
  Zn  Zn16  1  0.176362  0.345751  0.414332  1
  Zn  Zn17  1  0.931419  0.762029  0.585670  1
  Zn  Zn18  1  0.817671  0.902712  0.328951  1
  Zn  Zn19  1  0.573759  0.488719  0.671048  1
  Zn  Zn20  1  0.654251  0.823642  0.585671  1
  Zn  Zn21  1  0.237970  0.068580  0.414331  1
  Zn  Zn22  1  0.097290  0.182330  0.671048  1
  Zn  Zn23  1  0.511280  0.426239  0.328951  1
