# generated using pymatgen
data_KSnPIr2
_symmetry_space_group_name_H-M   'P 1'
_cell_length_a   7.91222877
_cell_length_b   7.91222863
_cell_length_c   7.91222757
_cell_angle_alpha   150.29752009
_cell_angle_beta   150.29751443
_cell_angle_gamma   42.50485057
_symmetry_Int_Tables_number   1
_chemical_formula_structural   KSnPIr2
_chemical_formula_sum   'K1 Sn1 P1 Ir2'
_cell_volume   121.31123515
_cell_formula_units_Z   1
loop_
 _symmetry_equiv_pos_site_id
 _symmetry_equiv_pos_as_xyz
  1  'x, y, z'
loop_
 _atom_site_type_symbol
 _atom_site_label
 _atom_site_symmetry_multiplicity
 _atom_site_fract_x
 _atom_site_fract_y
 _atom_site_fract_z
 _atom_site_occupancy
  K  K0  1  0.023437  0.023437  0.000000  1
  Sn  Sn1  1  0.353339  0.353339  0.000000  1
  P  P2  1  0.657325  0.657325  0.000000  1
  Ir  Ir3  1  0.732950  0.232950  0.500000  1
  Ir  Ir4  1  0.232950  0.732950  0.500000  1
