# generated using pymatgen
data_Tb(Yb4Pd3)2
_symmetry_space_group_name_H-M   'P 1'
_cell_length_a   7.58113928
_cell_length_b   7.58113966
_cell_length_c   7.58113902
_cell_angle_alpha   70.78409171
_cell_angle_beta   70.78408441
_cell_angle_gamma   70.78408981
_symmetry_Int_Tables_number   1
_chemical_formula_structural   Tb(Yb4Pd3)2
_chemical_formula_sum   'Tb1 Yb8 Pd6'
_cell_volume   376.41640653
_cell_formula_units_Z   1
loop_
 _symmetry_equiv_pos_site_id
 _symmetry_equiv_pos_as_xyz
  1  'x, y, z'
loop_
 _atom_site_type_symbol
 _atom_site_label
 _atom_site_symmetry_multiplicity
 _atom_site_fract_x
 _atom_site_fract_y
 _atom_site_fract_z
 _atom_site_occupancy
  Tb  Tb0  1  0.000000  0.000000  0.000000  1
  Yb  Yb1  1  0.796913  0.796913  0.796913  1
  Yb  Yb2  1  0.203087  0.203087  0.203087  1
  Yb  Yb3  1  0.331329  0.602991  0.844108  1
  Yb  Yb4  1  0.844108  0.331329  0.602991  1
  Yb  Yb5  1  0.602991  0.844108  0.331329  1
  Yb  Yb6  1  0.668671  0.397009  0.155892  1
  Yb  Yb7  1  0.155892  0.668671  0.397009  1
  Yb  Yb8  1  0.397009  0.155892  0.668671  1
  Pd  Pd9  1  0.152804  0.955630  0.597151  1
  Pd  Pd10  1  0.597151  0.152804  0.955630  1
  Pd  Pd11  1  0.955630  0.597151  0.152804  1
  Pd  Pd12  1  0.847196  0.044370  0.402849  1
  Pd  Pd13  1  0.402849  0.847196  0.044370  1
  Pd  Pd14  1  0.044370  0.402849  0.847196  1
