# generated using pymatgen
data_Ac4CoNi
_symmetry_space_group_name_H-M   'P 1'
_cell_length_a   4.26541500
_cell_length_b   6.83570546
_cell_length_c   7.35363081
_cell_angle_alpha   89.74868371
_cell_angle_beta   90.00000000
_cell_angle_gamma   90.00000000
_symmetry_Int_Tables_number   1
_chemical_formula_structural   Ac4CoNi
_chemical_formula_sum   'Ac4 Co1 Ni1'
_cell_volume   214.40863779
_cell_formula_units_Z   1
loop_
 _symmetry_equiv_pos_site_id
 _symmetry_equiv_pos_as_xyz
  1  'x, y, z'
loop_
 _atom_site_type_symbol
 _atom_site_label
 _atom_site_symmetry_multiplicity
 _atom_site_fract_x
 _atom_site_fract_y
 _atom_site_fract_z
 _atom_site_occupancy
  Ac  Ac0  1  0.000000  0.770919  0.328202  1
  Ac  Ac1  1  0.500000  0.770816  0.839696  1
  Ac  Ac2  1  0.500000  0.229184  0.160304  1
  Ac  Ac3  1  0.000000  0.229081  0.671798  1
  Co  Co4  1  0.000000  0.000000  0.000000  1
  Ni  Ni5  1  0.500000  0.000000  0.500000  1
