# generated using pymatgen
data_Rb5Nb2S4Cl9
_symmetry_space_group_name_H-M   'P 1'
_cell_length_a   10.21611932
_cell_length_b   10.21611961
_cell_length_c   10.21611939
_cell_angle_alpha   138.27609497
_cell_angle_beta   120.90763867
_cell_angle_gamma   74.92898293
_symmetry_Int_Tables_number   1
_chemical_formula_structural   Rb5Nb2S4Cl9
_chemical_formula_sum   'Rb5 Nb2 S4 Cl9'
_cell_volume   594.48548398
_cell_formula_units_Z   1
loop_
 _symmetry_equiv_pos_site_id
 _symmetry_equiv_pos_as_xyz
  1  'x, y, z'
loop_
 _atom_site_type_symbol
 _atom_site_label
 _atom_site_symmetry_multiplicity
 _atom_site_fract_x
 _atom_site_fract_y
 _atom_site_fract_z
 _atom_site_occupancy
  Rb  Rb0  1  0.445200  0.666719  0.778481  1
  Rb  Rb1  1  0.888238  0.666719  0.221519  1
  Rb  Rb2  1  0.500000  0.000000  0.500000  1
  Rb  Rb3  1  0.554800  0.333281  0.221519  1
  Rb  Rb4  1  0.111762  0.333281  0.778481  1
  Nb  Nb5  1  0.090412  0.090412  0.000000  1
  Nb  Nb6  1  0.909588  0.909588  0.000000  1
  S  S7  1  0.099852  0.755124  0.854976  1
  S  S8  1  0.900148  0.755124  0.655272  1
  S  S9  1  0.900148  0.244876  0.145024  1
  S  S10  1  0.099852  0.244876  0.344728  1
  Cl  Cl11  1  0.205945  0.966466  0.760519  1
  Cl  Cl12  1  0.614892  0.868930  0.745963  1
  Cl  Cl13  1  0.794055  0.033534  0.239481  1
  Cl  Cl14  1  0.385108  0.131070  0.254037  1
  Cl  Cl15  1  0.122966  0.868930  0.254037  1
  Cl  Cl16  1  0.205945  0.445426  0.239481  1
  Cl  Cl17  1  0.794055  0.554574  0.760519  1
  Cl  Cl18  1  0.877034  0.131070  0.745963  1
  Cl  Cl19  1  0.500000  0.500000  0.000000  1
