# generated using pymatgen
data_Y7Tm3AlSb5
_symmetry_space_group_name_H-M   'P 1'
_cell_length_a   6.34802321
_cell_length_b   8.91104152
_cell_length_c   8.89838072
_cell_angle_alpha   119.96495954
_cell_angle_beta   90.01343989
_cell_angle_gamma   90.01612989
_symmetry_Int_Tables_number   1
_chemical_formula_structural   Y7Tm3AlSb5
_chemical_formula_sum   'Y7 Tm3 Al1 Sb5'
_cell_volume   436.07558046
_cell_formula_units_Z   1
loop_
 _symmetry_equiv_pos_site_id
 _symmetry_equiv_pos_as_xyz
  1  'x, y, z'
loop_
 _atom_site_type_symbol
 _atom_site_label
 _atom_site_symmetry_multiplicity
 _atom_site_fract_x
 _atom_site_fract_y
 _atom_site_fract_z
 _atom_site_occupancy
  Y  Y0  1  0.999404  0.337784  0.672543  1
  Y  Y1  1  0.749926  0.248280  0.000130  1
  Y  Y2  1  0.749848  0.752596  0.761577  1
  Y  Y3  1  0.749780  0.990869  0.238141  1
  Y  Y4  1  0.250291  0.756516  0.000176  1
  Y  Y5  1  0.250068  0.246477  0.245653  1
  Y  Y6  1  0.250024  0.001043  0.754534  1
  Tm  Tm7  1  0.500906  0.338352  0.673065  1
  Tm  Tm8  1  0.501177  0.665450  0.326950  1
  Tm  Tm9  1  0.998573  0.665293  0.326566  1
  Al  Al10  1  0.748886  0.604442  0.001447  1
  Sb  Sb11  1  0.749124  0.388882  0.389861  1
  Sb  Sb12  1  0.749214  0.997140  0.608787  1
  Sb  Sb13  1  0.251063  0.393510  0.001045  1
  Sb  Sb14  1  0.250770  0.611297  0.607687  1
  Sb  Sb15  1  0.250946  0.002072  0.391837  1
