# generated using pymatgen
data_NdHfReB6
_symmetry_space_group_name_H-M   'P 1'
_cell_length_a   3.64441200
_cell_length_b   9.08915300
_cell_length_c   11.54177300
_cell_angle_alpha   90.00000000
_cell_angle_beta   90.00000000
_cell_angle_gamma   90.00000000
_symmetry_Int_Tables_number   1
_chemical_formula_structural   NdHfReB6
_chemical_formula_sum   'Nd4 Hf4 Re4 B24'
_cell_volume   382.31682470
_cell_formula_units_Z   4
loop_
 _symmetry_equiv_pos_site_id
 _symmetry_equiv_pos_as_xyz
  1  'x, y, z'
loop_
 _atom_site_type_symbol
 _atom_site_label
 _atom_site_symmetry_multiplicity
 _atom_site_fract_x
 _atom_site_fract_y
 _atom_site_fract_z
 _atom_site_occupancy
  Nd  Nd0  1  0.000000  0.322554  0.414944  1
  Nd  Nd1  1  0.000000  0.677446  0.585056  1
  Nd  Nd2  1  0.000000  0.822554  0.085056  1
  Nd  Nd3  1  0.000000  0.177446  0.914944  1
  Hf  Hf4  1  0.000000  0.945404  0.372396  1
  Hf  Hf5  1  0.000000  0.054596  0.627604  1
  Hf  Hf6  1  0.000000  0.445404  0.127604  1
  Hf  Hf7  1  0.000000  0.554596  0.872396  1
  Re  Re8  1  0.000000  0.641681  0.316281  1
  Re  Re9  1  0.000000  0.358319  0.683719  1
  Re  Re10  1  0.000000  0.141681  0.183719  1
  Re  Re11  1  0.000000  0.858319  0.816281  1
  B  B12  1  0.500000  0.556379  0.430390  1
  B  B13  1  0.500000  0.443621  0.569610  1
  B  B14  1  0.500000  0.056379  0.069610  1
  B  B15  1  0.500000  0.943621  0.930390  1
  B  B16  1  0.500000  0.753794  0.415691  1
  B  B17  1  0.500000  0.246206  0.584309  1
  B  B18  1  0.500000  0.253794  0.084309  1
  B  B19  1  0.500000  0.746206  0.915691  1
  B  B20  1  0.500000  0.794809  0.265050  1
  B  B21  1  0.500000  0.205191  0.734950  1
  B  B22  1  0.500000  0.294809  0.234950  1
  B  B23  1  0.500000  0.705191  0.765050  1
  B  B24  1  0.500000  0.629113  0.183354  1
  B  B25  1  0.500000  0.370887  0.816646  1
  B  B26  1  0.500000  0.129113  0.316646  1
  B  B27  1  0.500000  0.870887  0.683354  1
  B  B28  1  0.500000  0.983350  0.215192  1
  B  B29  1  0.500000  0.016650  0.784808  1
  B  B30  1  0.500000  0.483350  0.284808  1
  B  B31  1  0.500000  0.516650  0.715192  1
  B  B32  1  0.500000  0.597687  0.025733  1
  B  B33  1  0.500000  0.402313  0.974267  1
  B  B34  1  0.500000  0.097687  0.474267  1
  B  B35  1  0.500000  0.902313  0.525733  1
