# generated using pymatgen
data_CoCuSiS4
_symmetry_space_group_name_H-M   'P 1'
_cell_length_a   6.78424487
_cell_length_b   6.78424534
_cell_length_c   6.78424482
_cell_angle_alpha   119.21530770
_cell_angle_beta   120.07039838
_cell_angle_gamma   90.62129428
_symmetry_Int_Tables_number   1
_chemical_formula_structural   CoCuSiS4
_chemical_formula_sum   'Co2 Cu2 Si2 S8'
_cell_volume   221.95771178
_cell_formula_units_Z   2
loop_
 _symmetry_equiv_pos_site_id
 _symmetry_equiv_pos_as_xyz
  1  'x, y, z'
loop_
 _atom_site_type_symbol
 _atom_site_label
 _atom_site_symmetry_multiplicity
 _atom_site_fract_x
 _atom_site_fract_y
 _atom_site_fract_z
 _atom_site_occupancy
  Co  Co0  1  0.500000  0.000000  0.000000  1
  Co  Co1  1  0.500000  0.500000  0.500000  1
  Cu  Cu2  1  0.879390  0.629390  0.250000  1
  Cu  Cu3  1  0.120610  0.370610  0.750000  1
  Si  Si4  1  0.500000  0.000000  0.500000  1
  Si  Si5  1  0.000000  0.000000  0.000000  1
  S  S6  1  0.737813  0.754471  0.516658  1
  S  S7  1  0.737813  0.221156  0.983342  1
  S  S8  1  0.733618  0.761047  0.972571  1
  S  S9  1  0.288476  0.761047  0.527429  1
  S  S10  1  0.262187  0.245529  0.483342  1
  S  S11  1  0.262187  0.778844  0.016658  1
  S  S12  1  0.266382  0.238953  0.027429  1
  S  S13  1  0.711524  0.238953  0.472571  1
