# generated using pymatgen
data_Li4Y4SnSb3
_symmetry_space_group_name_H-M   'P 1'
_cell_length_a   9.45199300
_cell_length_b   9.45199320
_cell_length_c   7.06511600
_cell_angle_alpha   90.00000000
_cell_angle_beta   90.00000000
_cell_angle_gamma   120.00000279
_symmetry_Int_Tables_number   1
_chemical_formula_structural   Li4Y4SnSb3
_chemical_formula_sum   'Li8 Y8 Sn2 Sb6'
_cell_volume   546.63408490
_cell_formula_units_Z   2
loop_
 _symmetry_equiv_pos_site_id
 _symmetry_equiv_pos_as_xyz
  1  'x, y, z'
loop_
 _atom_site_type_symbol
 _atom_site_label
 _atom_site_symmetry_multiplicity
 _atom_site_fract_x
 _atom_site_fract_y
 _atom_site_fract_z
 _atom_site_occupancy
  Li  Li0  1  0.167590  0.832410  0.201822  1
  Li  Li1  1  0.335178  0.167590  0.701822  1
  Li  Li2  1  0.832410  0.664822  0.701822  1
  Li  Li3  1  0.167590  0.335178  0.201822  1
  Li  Li4  1  0.664822  0.832410  0.201822  1
  Li  Li5  1  0.832410  0.167590  0.701822  1
  Li  Li6  1  0.333333  0.666667  0.805116  1
  Li  Li7  1  0.666667  0.333333  0.305116  1
  Y  Y8  1  0.510518  0.489482  0.992118  1
  Y  Y9  1  0.021037  0.510518  0.492118  1
  Y  Y10  1  0.489482  0.978963  0.492118  1
  Y  Y11  1  0.510518  0.021037  0.992118  1
  Y  Y12  1  0.978963  0.489482  0.992118  1
  Y  Y13  1  0.489482  0.510518  0.492118  1
  Y  Y14  1  0.000000  0.000000  0.982184  1
  Y  Y15  1  0.000000  0.000000  0.482184  1
  Sn  Sn16  1  0.333333  0.666667  0.225777  1
  Sn  Sn17  1  0.666667  0.333333  0.725777  1
  Sb  Sb18  1  0.166418  0.833582  0.750034  1
  Sb  Sb19  1  0.332835  0.166418  0.250034  1
  Sb  Sb20  1  0.833582  0.667165  0.250034  1
  Sb  Sb21  1  0.166418  0.332835  0.750034  1
  Sb  Sb22  1  0.667165  0.833582  0.750034  1
  Sb  Sb23  1  0.833582  0.166418  0.250034  1
