# generated using pymatgen
data_LiZr3(Co3Ir)2
_symmetry_space_group_name_H-M   'P 1'
_cell_length_a   4.87153800
_cell_length_b   4.87153706
_cell_length_c   8.21845600
_cell_angle_alpha   90.00000000
_cell_angle_beta   90.00000000
_cell_angle_gamma   120.00001997
_symmetry_Int_Tables_number   1
_chemical_formula_structural   LiZr3(Co3Ir)2
_chemical_formula_sum   'Li1 Zr3 Co6 Ir2'
_cell_volume   168.90903625
_cell_formula_units_Z   1
loop_
 _symmetry_equiv_pos_site_id
 _symmetry_equiv_pos_as_xyz
  1  'x, y, z'
loop_
 _atom_site_type_symbol
 _atom_site_label
 _atom_site_symmetry_multiplicity
 _atom_site_fract_x
 _atom_site_fract_y
 _atom_site_fract_z
 _atom_site_occupancy
  Li  Li0  1  0.333333  0.666667  0.444099  1
  Zr  Zr1  1  0.666667  0.333333  0.549598  1
  Zr  Zr2  1  0.666667  0.333333  0.924027  1
  Zr  Zr3  1  0.333333  0.666667  0.096501  1
  Co  Co4  1  0.829117  0.170883  0.249644  1
  Co  Co5  1  0.829117  0.658233  0.249644  1
  Co  Co6  1  0.341767  0.170883  0.249644  1
  Co  Co7  1  0.172464  0.827536  0.747544  1
  Co  Co8  1  0.172464  0.344928  0.747544  1
  Co  Co9  1  0.655072  0.827536  0.747544  1
  Ir  Ir10  1  0.000000  0.000000  0.497177  1
  Ir  Ir11  1  0.000000  0.000000  0.997033  1
