# generated using pymatgen
data_In3Ga5Cl16
_symmetry_space_group_name_H-M   'P 1'
_cell_length_a   7.41841600
_cell_length_b   10.22361632
_cell_length_c   10.08806573
_cell_angle_alpha   90.97092251
_cell_angle_beta   90.00000000
_cell_angle_gamma   90.00000000
_symmetry_Int_Tables_number   1
_chemical_formula_structural   In3Ga5Cl16
_chemical_formula_sum   'In3 Ga5 Cl16'
_cell_volume   764.99970989
_cell_formula_units_Z   1
loop_
 _symmetry_equiv_pos_site_id
 _symmetry_equiv_pos_as_xyz
  1  'x, y, z'
loop_
 _atom_site_type_symbol
 _atom_site_label
 _atom_site_symmetry_multiplicity
 _atom_site_fract_x
 _atom_site_fract_y
 _atom_site_fract_z
 _atom_site_occupancy
  In  In0  1  0.826556  0.750000  0.250000  1
  In  In1  1  0.173339  0.250000  0.750000  1
  In  In2  1  0.673661  0.250000  0.250000  1
  Ga  Ga3  1  0.749707  0.996255  0.816439  1
  Ga  Ga4  1  0.250216  0.500877  0.319744  1
  Ga  Ga5  1  0.250216  0.999123  0.180256  1
  Ga  Ga6  1  0.749707  0.503745  0.683561  1
  Ga  Ga7  1  0.344473  0.750000  0.750000  1
  Cl  Cl8  1  0.325821  0.330887  0.439725  1
  Cl  Cl9  1  0.485444  0.539700  0.191540  1
  Cl  Cl10  1  0.667016  0.672483  0.563356  1
  Cl  Cl11  1  0.325821  0.169113  0.060275  1
  Cl  Cl12  1  0.014565  0.039739  0.308997  1
  Cl  Cl13  1  0.667016  0.827517  0.936644  1
  Cl  Cl14  1  0.823581  0.331394  0.560563  1
  Cl  Cl15  1  0.988569  0.544463  0.807812  1
  Cl  Cl16  1  0.174341  0.671128  0.444540  1
  Cl  Cl17  1  0.014565  0.460261  0.191003  1
  Cl  Cl18  1  0.485444  0.960300  0.308460  1
  Cl  Cl19  1  0.823581  0.168606  0.939437  1
  Cl  Cl20  1  0.174341  0.828872  0.055460  1
  Cl  Cl21  1  0.988569  0.955537  0.692188  1
  Cl  Cl22  1  0.511725  0.467774  0.810412  1
  Cl  Cl23  1  0.511725  0.032226  0.689588  1
