# generated using pymatgen
data_Na2Er3Ge3P9Ir19
_symmetry_space_group_name_H-M   'P 1'
_cell_length_a   12.82504037
_cell_length_b   12.81199477
_cell_length_c   3.95645100
_cell_angle_alpha   90.00000000
_cell_angle_beta   90.00000000
_cell_angle_gamma   119.96636517
_symmetry_Int_Tables_number   1
_chemical_formula_structural   Na2Er3Ge3P9Ir19
_chemical_formula_sum   'Na2 Er3 Ge3 P9 Ir19'
_cell_volume   563.19528561
_cell_formula_units_Z   1
loop_
 _symmetry_equiv_pos_site_id
 _symmetry_equiv_pos_as_xyz
  1  'x, y, z'
loop_
 _atom_site_type_symbol
 _atom_site_label
 _atom_site_symmetry_multiplicity
 _atom_site_fract_x
 _atom_site_fract_y
 _atom_site_fract_z
 _atom_site_occupancy
  Na  Na0  1  0.820450  0.819801  0.500000  1
  Na  Na1  1  0.179550  0.999351  0.500000  1
  Er  Er2  1  0.667523  0.333188  0.000000  1
  Er  Er3  1  0.332477  0.665665  0.000000  1
  Er  Er4  1  0.000000  0.176216  0.500000  1
  Ge  Ge5  1  0.646992  0.647275  0.000000  1
  Ge  Ge6  1  0.353008  0.000282  0.000000  1
  Ge  Ge7  1  0.000000  0.356751  0.000000  1
  P  P8  1  0.689192  0.170849  0.500000  1
  P  P9  1  0.827404  0.518077  0.500000  1
  P  P10  1  0.482588  0.310320  0.500000  1
  P  P11  1  0.172596  0.690673  0.500000  1
  P  P12  1  0.517412  0.827732  0.500000  1
  P  P13  1  0.310808  0.481657  0.500000  1
  P  P14  1  0.181277  0.177355  0.000000  1
  P  P15  1  0.818723  0.996078  0.000000  1
  P  P16  1  0.000000  0.821710  0.000000  1
  Ir  Ir17  1  0.797489  0.174946  0.000000  1
  Ir  Ir18  1  0.822757  0.617145  0.000000  1
  Ir  Ir19  1  0.384528  0.207465  0.000000  1
  Ir  Ir20  1  0.177243  0.794389  0.000000  1
  Ir  Ir21  1  0.615472  0.822936  0.000000  1
  Ir  Ir22  1  0.202511  0.377457  0.000000  1
  Ir  Ir23  1  0.453975  0.457308  0.000000  1
  Ir  Ir24  1  0.546025  0.003333  0.000000  1
  Ir  Ir25  1  0.000000  0.546353  0.000000  1
  Ir  Ir26  1  0.283680  0.284484  0.500000  1
  Ir  Ir27  1  0.716320  0.000804  0.500000  1
  Ir  Ir28  1  0.000000  0.714122  0.500000  1
  Ir  Ir29  1  0.863414  0.361206  0.500000  1
  Ir  Ir30  1  0.636145  0.503355  0.500000  1
  Ir  Ir31  1  0.496867  0.134496  0.500000  1
  Ir  Ir32  1  0.363855  0.867209  0.500000  1
  Ir  Ir33  1  0.503133  0.637628  0.500000  1
  Ir  Ir34  1  0.136586  0.497791  0.500000  1
  Ir  Ir35  1  0.000000  0.004592  0.000000  1
