# generated using pymatgen
data_Ho12Co4PtPb
_symmetry_space_group_name_H-M   'P 1'
_cell_length_a   8.30157340
_cell_length_b   8.30157377
_cell_length_c   8.30157359
_cell_angle_alpha   111.05182935
_cell_angle_beta   110.59436350
_cell_angle_gamma   106.80037787
_symmetry_Int_Tables_number   1
_chemical_formula_structural   Ho12Co4PtPb
_chemical_formula_sum   'Ho12 Co4 Pt1 Pb1'
_cell_volume   439.69134079
_cell_formula_units_Z   1
loop_
 _symmetry_equiv_pos_site_id
 _symmetry_equiv_pos_as_xyz
  1  'x, y, z'
loop_
 _atom_site_type_symbol
 _atom_site_label
 _atom_site_symmetry_multiplicity
 _atom_site_fract_x
 _atom_site_fract_y
 _atom_site_fract_z
 _atom_site_occupancy
  Ho  Ho0  1  0.313772  0.620481  0.306708  1
  Ho  Ho1  1  0.686228  0.379519  0.693292  1
  Ho  Ho2  1  0.313772  0.007063  0.693292  1
  Ho  Ho3  1  0.686228  0.992937  0.306708  1
  Ho  Ho4  1  0.184387  0.290420  0.474808  1
  Ho  Ho5  1  0.815613  0.709580  0.525192  1
  Ho  Ho6  1  0.184387  0.709580  0.893968  1
  Ho  Ho7  1  0.815613  0.290420  0.106032  1
  Ho  Ho8  1  0.413463  0.213503  0.199960  1
  Ho  Ho9  1  0.586537  0.786497  0.800040  1
  Ho  Ho10  1  0.013543  0.213503  0.800040  1
  Ho  Ho11  1  0.986457  0.786497  0.199960  1
  Co  Co12  1  0.111799  0.611799  0.500000  1
  Co  Co13  1  0.888201  0.388201  0.500000  1
  Co  Co14  1  0.378326  0.000000  0.378326  1
  Co  Co15  1  0.621674  0.000000  0.621674  1
  Pt  Pt16  1  0.000000  0.000000  0.000000  1
  Pb  Pb17  1  0.500000  0.500000  0.000000  1
