# generated using pymatgen
data_Zr2Be2MoRu5
_symmetry_space_group_name_H-M   'P 1'
_cell_length_a   9.44553100
_cell_length_b   9.44553100
_cell_length_c   3.22745800
_cell_angle_alpha   90.00000000
_cell_angle_beta   90.00000000
_cell_angle_gamma   90.00000000
_symmetry_Int_Tables_number   1
_chemical_formula_structural   Zr2Be2MoRu5
_chemical_formula_sum   'Zr4 Be4 Mo2 Ru10'
_cell_volume   287.94752817
_cell_formula_units_Z   2
loop_
 _symmetry_equiv_pos_site_id
 _symmetry_equiv_pos_as_xyz
  1  'x, y, z'
loop_
 _atom_site_type_symbol
 _atom_site_label
 _atom_site_symmetry_multiplicity
 _atom_site_fract_x
 _atom_site_fract_y
 _atom_site_fract_z
 _atom_site_occupancy
  Zr  Zr0  1  0.673316  0.173316  0.000000  1
  Zr  Zr1  1  0.326684  0.826684  0.000000  1
  Zr  Zr2  1  0.173316  0.326684  0.000000  1
  Zr  Zr3  1  0.826684  0.673316  0.000000  1
  Be  Be4  1  0.121736  0.621736  0.000000  1
  Be  Be5  1  0.878264  0.378264  0.000000  1
  Be  Be6  1  0.621736  0.878264  0.000000  1
  Be  Be7  1  0.378264  0.121736  0.000000  1
  Mo  Mo8  1  0.000000  0.000000  0.000000  1
  Mo  Mo9  1  0.500000  0.500000  0.000000  1
  Ru  Ru10  1  0.208581  0.070839  0.500000  1
  Ru  Ru11  1  0.791419  0.929161  0.500000  1
  Ru  Ru12  1  0.070839  0.791419  0.500000  1
  Ru  Ru13  1  0.708581  0.429161  0.500000  1
  Ru  Ru14  1  0.929161  0.208581  0.500000  1
  Ru  Ru15  1  0.291419  0.570839  0.500000  1
  Ru  Ru16  1  0.570839  0.708581  0.500000  1
  Ru  Ru17  1  0.429161  0.291419  0.500000  1
  Ru  Ru18  1  0.500000  0.000000  0.500000  1
  Ru  Ru19  1  0.000000  0.500000  0.500000  1
