# generated using pymatgen
data_AcLa2(BN2)2
_symmetry_space_group_name_H-M   'P 1'
_cell_length_a   6.64540236
_cell_length_b   6.64540225
_cell_length_c   6.64540175
_cell_angle_alpha   147.47493417
_cell_angle_beta   121.38996910
_cell_angle_gamma   68.65293082
_symmetry_Int_Tables_number   1
_chemical_formula_structural   AcLa2(BN2)2
_chemical_formula_sum   'Ac1 La2 B2 N4'
_cell_volume   132.87805589
_cell_formula_units_Z   1
loop_
 _symmetry_equiv_pos_site_id
 _symmetry_equiv_pos_as_xyz
  1  'x, y, z'
loop_
 _atom_site_type_symbol
 _atom_site_label
 _atom_site_symmetry_multiplicity
 _atom_site_fract_x
 _atom_site_fract_y
 _atom_site_fract_z
 _atom_site_occupancy
  Ac  Ac0  1  0.000000  0.000000  0.000000  1
  La  La1  1  0.700310  0.200310  0.500000  1
  La  La2  1  0.299690  0.799690  0.500000  1
  B  B3  1  0.360584  0.500000  0.860584  1
  B  B4  1  0.639416  0.500000  0.139416  1
  N  N5  1  0.369566  0.618810  0.750754  1
  N  N6  1  0.131944  0.381190  0.750754  1
  N  N7  1  0.630434  0.381190  0.249246  1
  N  N8  1  0.868056  0.618810  0.249246  1
