# generated using pymatgen
data_Yb5Sm5Ru4
_symmetry_space_group_name_H-M   'P 1'
_cell_length_a   8.59817412
_cell_length_b   8.63210400
_cell_length_c   7.34049645
_cell_angle_alpha   83.42342086
_cell_angle_beta   83.19767515
_cell_angle_gamma   44.22161322
_symmetry_Int_Tables_number   1
_chemical_formula_structural   Yb5Sm5Ru4
_chemical_formula_sum   'Yb5 Sm5 Ru4'
_cell_volume   376.95201791
_cell_formula_units_Z   1
loop_
 _symmetry_equiv_pos_site_id
 _symmetry_equiv_pos_as_xyz
  1  'x, y, z'
loop_
 _atom_site_type_symbol
 _atom_site_label
 _atom_site_symmetry_multiplicity
 _atom_site_fract_x
 _atom_site_fract_y
 _atom_site_fract_z
 _atom_site_occupancy
  Yb  Yb0  1  0.022123  0.797957  0.917496  1
  Yb  Yb1  1  0.202249  0.977765  0.583521  1
  Yb  Yb2  1  0.978751  0.200272  0.083336  1
  Yb  Yb3  1  0.796956  0.021711  0.415967  1
  Yb  Yb4  1  0.358365  0.205465  0.816531  1
  Sm  Sm5  1  0.794714  0.639493  0.681510  1
  Sm  Sm6  1  0.636472  0.799111  0.180720  1
  Sm  Sm7  1  0.206445  0.360871  0.317400  1
  Sm  Sm8  1  0.568181  0.427590  0.752559  1
  Sm  Sm9  1  0.431987  0.567970  0.250571  1
  Ru  Ru10  1  0.173395  0.601185  0.567310  1
  Ru  Ru11  1  0.409300  0.813198  0.928658  1
  Ru  Ru12  1  0.824032  0.407687  0.428919  1
  Ru  Ru13  1  0.597032  0.179725  0.075502  1
