# generated using pymatgen
data_Eu2Cl3O
_symmetry_space_group_name_H-M   'P 1'
_cell_length_a   13.73787700
_cell_length_b   7.07207700
_cell_length_c   6.45587900
_cell_angle_alpha   90.00000000
_cell_angle_beta   90.00000000
_cell_angle_gamma   90.00000000
_symmetry_Int_Tables_number   1
_chemical_formula_structural   Eu2Cl3O
_chemical_formula_sum   'Eu8 Cl12 O4'
_cell_volume   627.22301569
_cell_formula_units_Z   4
loop_
 _symmetry_equiv_pos_site_id
 _symmetry_equiv_pos_as_xyz
  1  'x, y, z'
loop_
 _atom_site_type_symbol
 _atom_site_label
 _atom_site_symmetry_multiplicity
 _atom_site_fract_x
 _atom_site_fract_y
 _atom_site_fract_z
 _atom_site_occupancy
  Eu  Eu0  1  0.094051  0.175330  0.010327  1
  Eu  Eu1  1  0.405949  0.675330  0.010327  1
  Eu  Eu2  1  0.905949  0.175330  0.489673  1
  Eu  Eu3  1  0.594051  0.675330  0.489673  1
  Eu  Eu4  1  0.405949  0.324670  0.510327  1
  Eu  Eu5  1  0.094051  0.824669  0.510327  1
  Eu  Eu6  1  0.594051  0.324670  0.989673  1
  Eu  Eu7  1  0.905949  0.824669  0.989673  1
  Cl  Cl8  1  0.784440  0.135132  0.114149  1
  Cl  Cl9  1  0.715561  0.635131  0.114149  1
  Cl  Cl10  1  0.000000  0.496285  0.249999  1
  Cl  Cl11  1  0.500000  0.996286  0.249999  1
  Cl  Cl12  1  0.215560  0.135132  0.385850  1
  Cl  Cl13  1  0.284439  0.635131  0.385850  1
  Cl  Cl14  1  0.715561  0.364869  0.614149  1
  Cl  Cl15  1  0.784440  0.864870  0.614149  1
  Cl  Cl16  1  0.500000  0.003714  0.750000  1
  Cl  Cl17  1  0.000000  0.503715  0.750000  1
  Cl  Cl18  1  0.284439  0.364869  0.885850  1
  Cl  Cl19  1  0.215560  0.864870  0.885850  1
  O  O20  1  0.500000  0.489549  0.249999  1
  O  O21  1  0.000000  0.989550  0.249999  1
  O  O22  1  0.000000  0.010450  0.750000  1
  O  O23  1  0.500000  0.510451  0.750000  1
