# generated using pymatgen
data_Sr6Ti2RuO12
_symmetry_space_group_name_H-M   'P 1'
_cell_length_a   8.81097962
_cell_length_b   8.81097979
_cell_length_c   6.90624147
_cell_angle_alpha   67.50870372
_cell_angle_beta   67.50869999
_cell_angle_gamma   36.90916232
_symmetry_Int_Tables_number   1
_chemical_formula_structural   Sr6Ti2RuO12
_chemical_formula_sum   'Sr6 Ti2 Ru1 O12'
_cell_volume   294.64224652
_cell_formula_units_Z   1
loop_
 _symmetry_equiv_pos_site_id
 _symmetry_equiv_pos_as_xyz
  1  'x, y, z'
loop_
 _atom_site_type_symbol
 _atom_site_label
 _atom_site_symmetry_multiplicity
 _atom_site_fract_x
 _atom_site_fract_y
 _atom_site_fract_z
 _atom_site_occupancy
  Sr  Sr0  1  0.880671  0.880671  0.712792  1
  Sr  Sr1  1  0.215386  0.215386  0.710600  1
  Sr  Sr2  1  0.548155  0.548155  0.710722  1
  Sr  Sr3  1  0.451845  0.451845  0.289278  1
  Sr  Sr4  1  0.784614  0.784614  0.289400  1
  Sr  Sr5  1  0.119329  0.119329  0.287208  1
  Ti  Ti6  1  0.666800  0.666800  0.999669  1
  Ti  Ti7  1  0.333200  0.333200  0.000331  1
  Ru  Ru8  1  0.000000  0.000000  0.000000  1
  O  O9  1  0.946752  0.946752  0.320411  1
  O  O10  1  0.279730  0.279730  0.317756  1
  O  O11  1  0.614119  0.614119  0.318401  1
  O  O12  1  0.385881  0.385881  0.681599  1
  O  O13  1  0.720270  0.720270  0.682244  1
  O  O14  1  0.053248  0.053248  0.679589  1
  O  O15  1  0.500000  0.000000  0.000000  1
  O  O16  1  0.831569  0.337303  0.000095  1
  O  O17  1  0.168431  0.662697  0.999905  1
  O  O18  1  0.000000  0.500000  0.000000  1
  O  O19  1  0.337303  0.831569  0.000095  1
  O  O20  1  0.662697  0.168431  0.999905  1
