# generated using pymatgen
data_Rb5Au(BrO)2
_symmetry_space_group_name_H-M   'P 1'
_cell_length_a   5.71827300
_cell_length_b   7.54963500
_cell_length_c   14.48482000
_cell_angle_alpha   90.00000000
_cell_angle_beta   90.00000000
_cell_angle_gamma   90.00000000
_symmetry_Int_Tables_number   1
_chemical_formula_structural   Rb5Au(BrO)2
_chemical_formula_sum   'Rb10 Au2 Br4 O4'
_cell_volume   625.32233885
_cell_formula_units_Z   2
loop_
 _symmetry_equiv_pos_site_id
 _symmetry_equiv_pos_as_xyz
  1  'x, y, z'
loop_
 _atom_site_type_symbol
 _atom_site_label
 _atom_site_symmetry_multiplicity
 _atom_site_fract_x
 _atom_site_fract_y
 _atom_site_fract_z
 _atom_site_occupancy
  Rb  Rb0  1  0.500000  0.321427  0.602884  1
  Rb  Rb1  1  0.500000  0.178573  0.102884  1
  Rb  Rb2  1  0.000000  0.612921  0.734525  1
  Rb  Rb3  1  0.000000  0.500000  0.000000  1
  Rb  Rb4  1  0.500000  0.678573  0.397116  1
  Rb  Rb5  1  0.500000  0.821427  0.897116  1
  Rb  Rb6  1  0.000000  0.887079  0.234525  1
  Rb  Rb7  1  0.000000  0.387079  0.265475  1
  Rb  Rb8  1  0.000000  0.112921  0.765475  1
  Rb  Rb9  1  0.000000  0.000000  0.500000  1
  Au  Au10  1  0.000000  0.500000  0.500000  1
  Au  Au11  1  0.000000  0.000000  0.000000  1
  Br  Br12  1  0.500000  0.639360  0.150702  1
  Br  Br13  1  0.500000  0.360640  0.849298  1
  Br  Br14  1  0.500000  0.139360  0.349298  1
  Br  Br15  1  0.500000  0.860640  0.650702  1
  O  O16  1  0.000000  0.676046  0.392098  1
  O  O17  1  0.000000  0.823954  0.892098  1
  O  O18  1  0.000000  0.176046  0.107902  1
  O  O19  1  0.000000  0.323954  0.607902  1
