# generated using pymatgen
data_TlV2P5O16
_symmetry_space_group_name_H-M   'P 1'
_cell_length_a   9.59337100
_cell_length_b   7.67878890
_cell_length_c   10.42910500
_cell_angle_alpha   68.08820562
_cell_angle_beta   90.00000000
_cell_angle_gamma   90.00000000
_symmetry_Int_Tables_number   1
_chemical_formula_structural   TlV2P5O16
_chemical_formula_sum   'Tl2 V4 P10 O32'
_cell_volume   712.76505162
_cell_formula_units_Z   2
loop_
 _symmetry_equiv_pos_site_id
 _symmetry_equiv_pos_as_xyz
  1  'x, y, z'
loop_
 _atom_site_type_symbol
 _atom_site_label
 _atom_site_symmetry_multiplicity
 _atom_site_fract_x
 _atom_site_fract_y
 _atom_site_fract_z
 _atom_site_occupancy
  Tl  Tl0  1  0.803493  0.996369  0.756813  1
  Tl  Tl1  1  0.196507  0.996369  0.256813  1
  V  V2  1  0.368456  0.924046  0.862876  1
  V  V3  1  0.631544  0.924046  0.362876  1
  V  V4  1  0.143743  0.378271  0.466369  1
  V  V5  1  0.856257  0.378271  0.966369  1
  P  P6  1  0.874676  0.277790  0.302397  1
  P  P7  1  0.125324  0.277790  0.802397  1
  P  P8  1  0.861138  0.612164  0.373122  1
  P  P9  1  0.138862  0.612164  0.873122  1
  P  P10  1  0.706558  0.571709  0.627525  1
  P  P11  1  0.293442  0.571709  0.127525  1
  P  P12  1  0.460025  0.515306  0.492820  1
  P  P13  1  0.539975  0.515306  0.992820  1
  P  P14  1  0.418460  0.126341  0.524116  1
  P  P15  1  0.581540  0.126341  0.024116  1
  O  O16  1  0.990673  0.229746  0.410718  1
  O  O17  1  0.009327  0.229746  0.910718  1
  O  O18  1  0.748627  0.151422  0.348543  1
  O  O19  1  0.251373  0.151422  0.848543  1
  O  O20  1  0.931338  0.299689  0.159101  1
  O  O21  1  0.068662  0.299689  0.659101  1
  O  O22  1  0.819728  0.490346  0.285871  1
  O  O23  1  0.180272  0.490346  0.785871  1
  O  O24  1  0.799005  0.805628  0.305929  1
  O  O25  1  0.200995  0.805628  0.805929  1
  O  O26  1  0.017646  0.611729  0.396253  1
  O  O27  1  0.982354  0.611729  0.896253  1
  O  O28  1  0.787751  0.497406  0.521549  1
  O  O29  1  0.212249  0.497406  0.021549  1
  O  O30  1  0.769409  0.480384  0.767157  1
  O  O31  1  0.230591  0.480384  0.267157  1
  O  O32  1  0.702680  0.784098  0.565971  1
  O  O33  1  0.297320  0.784098  0.065971  1
  O  O34  1  0.552194  0.484810  0.631413  1
  O  O35  1  0.447806  0.484810  0.131413  1
  O  O36  1  0.307211  0.515034  0.525540  1
  O  O37  1  0.692789  0.515034  0.025540  1
  O  O38  1  0.518002  0.685490  0.378781  1
  O  O39  1  0.481998  0.685490  0.878781  1
  O  O40  1  0.496223  0.332390  0.460307  1
  O  O41  1  0.503777  0.332390  0.960307  1
  O  O42  1  0.260922  0.155118  0.502324  1
  O  O43  1  0.739078  0.155118  0.002324  1
  O  O44  1  0.459589  0.041848  0.675484  1
  O  O45  1  0.540411  0.041848  0.175484  1
  O  O46  1  0.471793  0.020464  0.437321  1
  O  O47  1  0.528207  0.020464  0.937321  1
