# generated using pymatgen
data_NiTeF34
_symmetry_space_group_name_H-M   'P 1'
_cell_length_a   9.00649375
_cell_length_b   8.30930931
_cell_length_c   10.17495763
_cell_angle_alpha   83.39617852
_cell_angle_beta   87.62466833
_cell_angle_gamma   64.54478788
_symmetry_Int_Tables_number   1
_chemical_formula_structural   NiTeF34
_chemical_formula_sum   'Ni1 Te1 F34'
_cell_volume   682.95956374
_cell_formula_units_Z   1
loop_
 _symmetry_equiv_pos_site_id
 _symmetry_equiv_pos_as_xyz
  1  'x, y, z'
loop_
 _atom_site_type_symbol
 _atom_site_label
 _atom_site_symmetry_multiplicity
 _atom_site_fract_x
 _atom_site_fract_y
 _atom_site_fract_z
 _atom_site_occupancy
  Ni  Ni0  1  0.137872  0.744293  0.245748  1
  Te  Te1  1  0.866694  0.248241  0.763049  1
  F  F2  1  0.608727  0.207135  0.479589  1
  F  F3  1  0.388328  0.789641  0.505790  1
  F  F4  1  0.838654  0.735905  0.722624  1
  F  F5  1  0.160439  0.327276  0.315517  1
  F  F6  1  0.120422  0.726686  0.880105  1
  F  F7  1  0.919049  0.220201  0.154264  1
  F  F8  1  0.561694  0.145125  0.370341  1
  F  F9  1  0.437043  0.851998  0.614559  1
  F  F10  1  0.651651  0.332793  0.699562  1
  F  F11  1  0.341834  0.675168  0.306298  1
  F  F12  1  0.935887  0.061049  0.656934  1
  F  F13  1  0.060534  0.923065  0.348423  1
  F  F14  1  0.909851  0.389287  0.624642  1
  F  F15  1  0.089383  0.621327  0.383869  1
  F  F16  1  0.880699  0.771376  0.589740  1
  F  F17  1  0.159691  0.162423  0.371821  1
  F  F18  1  0.799194  0.436936  0.868062  1
  F  F19  1  0.207190  0.550968  0.158318  1
  F  F20  1  0.211700  0.693376  0.760827  1
  F  F21  1  0.768756  0.329137  0.213596  1
  F  F22  1  0.939985  0.819609  0.172164  1
  F  F23  1  0.080217  0.165156  0.828280  1
  F  F24  1  0.820178  0.107036  0.899354  1
  F  F25  1  0.182954  0.875834  0.113264  1
  F  F26  1  0.479749  0.606428  0.986620  1
  F  F27  1  0.495868  0.427740  0.008394  1
  F  F28  1  0.443748  0.102226  0.867638  1
  F  F29  1  0.522186  0.919806  0.134331  1
  F  F30  1  0.289536  0.245655  0.602702  1
  F  F31  1  0.704704  0.755527  0.382357  1
  F  F32  1  0.256275  0.402223  0.665758  1
  F  F33  1  0.747395  0.599484  0.316429  1
  F  F34  1  0.541639  0.925993  0.833141  1
  F  F35  1  0.440275  0.103877  0.155894  1
