# generated using pymatgen
data_Ta(Ti3As2)2
_symmetry_space_group_name_H-M   'P 1'
_cell_length_a   7.79516417
_cell_length_b   7.79516379
_cell_length_c   14.11173930
_cell_angle_alpha   75.63506182
_cell_angle_beta   75.63506329
_cell_angle_gamma   25.86508144
_symmetry_Int_Tables_number   1
_chemical_formula_structural   Ta(Ti3As2)2
_chemical_formula_sum   'Ta2 Ti12 As8'
_cell_volume   361.76181498
_cell_formula_units_Z   2
loop_
 _symmetry_equiv_pos_site_id
 _symmetry_equiv_pos_as_xyz
  1  'x, y, z'
loop_
 _atom_site_type_symbol
 _atom_site_label
 _atom_site_symmetry_multiplicity
 _atom_site_fract_x
 _atom_site_fract_y
 _atom_site_fract_z
 _atom_site_occupancy
  Ta  Ta0  1  0.000000  0.000000  0.000000  1
  Ta  Ta1  1  0.500000  0.500000  0.500000  1
  Ti  Ti2  1  0.429176  0.429176  0.166877  1
  Ti  Ti3  1  0.570824  0.570824  0.833123  1
  Ti  Ti4  1  0.195241  0.195241  0.694532  1
  Ti  Ti5  1  0.804759  0.804759  0.305468  1
  Ti  Ti6  1  0.209013  0.209013  0.205946  1
  Ti  Ti7  1  0.790987  0.790987  0.794054  1
  Ti  Ti8  1  0.339043  0.339043  0.966658  1
  Ti  Ti9  1  0.660957  0.660957  0.033342  1
  Ti  Ti10  1  0.002779  0.002779  0.342846  1
  Ti  Ti11  1  0.997221  0.997221  0.657154  1
  Ti  Ti12  1  0.179789  0.179789  0.456442  1
  Ti  Ti13  1  0.820211  0.820211  0.543558  1
  As  As14  1  0.178543  0.178543  0.892488  1
  As  As15  1  0.821457  0.821457  0.107512  1
  As  As16  1  0.370368  0.370368  0.396921  1
  As  As17  1  0.629632  0.629632  0.603079  1
  As  As18  1  0.367891  0.367891  0.661363  1
  As  As19  1  0.632109  0.632109  0.338637  1
  As  As20  1  0.062616  0.062616  0.155150  1
  As  As21  1  0.937384  0.937384  0.844850  1
