# generated using pymatgen
data_Dy16In4IrRu3
_symmetry_space_group_name_H-M   'P 1'
_cell_length_a   9.64003996
_cell_length_b   9.64004014
_cell_length_c   9.65015105
_cell_angle_alpha   60.03464722
_cell_angle_beta   60.03465547
_cell_angle_gamma   60.00000190
_symmetry_Int_Tables_number   1
_chemical_formula_structural   Dy16In4IrRu3
_chemical_formula_sum   'Dy16 In4 Ir1 Ru3'
_cell_volume   634.45972899
_cell_formula_units_Z   1
loop_
 _symmetry_equiv_pos_site_id
 _symmetry_equiv_pos_as_xyz
  1  'x, y, z'
loop_
 _atom_site_type_symbol
 _atom_site_label
 _atom_site_symmetry_multiplicity
 _atom_site_fract_x
 _atom_site_fract_y
 _atom_site_fract_z
 _atom_site_occupancy
  Dy  Dy0  1  0.439984  0.439984  0.059976  1
  Dy  Dy1  1  0.650747  0.650747  0.047762  1
  Dy  Dy2  1  0.192154  0.809187  0.189471  1
  Dy  Dy3  1  0.060054  0.439984  0.059976  1
  Dy  Dy4  1  0.190683  0.809405  0.809230  1
  Dy  Dy5  1  0.060412  0.439061  0.440114  1
  Dy  Dy6  1  0.809187  0.192154  0.189471  1
  Dy  Dy7  1  0.650579  0.650579  0.651264  1
  Dy  Dy8  1  0.809405  0.190683  0.809230  1
  Dy  Dy9  1  0.190683  0.190683  0.809230  1
  Dy  Dy10  1  0.047579  0.650579  0.651264  1
  Dy  Dy11  1  0.439984  0.060054  0.059976  1
  Dy  Dy12  1  0.060412  0.060412  0.440114  1
  Dy  Dy13  1  0.650579  0.047579  0.651264  1
  Dy  Dy14  1  0.809187  0.809187  0.189471  1
  Dy  Dy15  1  0.439061  0.060412  0.440114  1
  In  In16  1  0.417564  0.417564  0.417526  1
  In  In17  1  0.417460  0.417460  0.747621  1
  In  In18  1  0.417564  0.747348  0.417526  1
  In  In19  1  0.747348  0.417564  0.417526  1
  Ir  Ir20  1  0.858556  0.858556  0.424332  1
  Ru  Ru21  1  0.422577  0.859120  0.859181  1
  Ru  Ru22  1  0.859120  0.859120  0.859181  1
  Ru  Ru23  1  0.859120  0.422577  0.859181  1
