# generated using pymatgen
data_BaCr2(FeSb6)2
_symmetry_space_group_name_H-M   'P 1'
_cell_length_a   8.10861836
_cell_length_b   8.18490305
_cell_length_c   8.10861801
_cell_angle_alpha   109.28814064
_cell_angle_beta   109.47192793
_cell_angle_gamma   109.27622333
_symmetry_Int_Tables_number   1
_chemical_formula_structural   BaCr2(FeSb6)2
_chemical_formula_sum   'Ba1 Cr2 Fe2 Sb12'
_cell_volume   416.18882088
_cell_formula_units_Z   1
loop_
 _symmetry_equiv_pos_site_id
 _symmetry_equiv_pos_as_xyz
  1  'x, y, z'
loop_
 _atom_site_type_symbol
 _atom_site_label
 _atom_site_symmetry_multiplicity
 _atom_site_fract_x
 _atom_site_fract_y
 _atom_site_fract_z
 _atom_site_occupancy
  Ba  Ba0  1  0.000000  0.000000  0.000000  1
  Cr  Cr1  1  0.000000  0.000000  0.500000  1
  Cr  Cr2  1  0.500000  0.000000  0.000000  1
  Fe  Fe3  1  0.000000  0.500000  0.000000  1
  Fe  Fe4  1  0.500000  0.500000  0.500000  1
  Sb  Sb5  1  0.349587  0.195270  0.845682  1
  Sb  Sb6  1  0.650413  0.804730  0.154318  1
  Sb  Sb7  1  0.666305  0.503503  0.837198  1
  Sb  Sb8  1  0.333695  0.496497  0.162802  1
  Sb  Sb9  1  0.181754  0.830494  0.330457  1
  Sb  Sb10  1  0.818246  0.169506  0.669543  1
  Sb  Sb11  1  0.500037  0.830494  0.648741  1
  Sb  Sb12  1  0.499963  0.169506  0.351259  1
  Sb  Sb13  1  0.850470  0.351590  0.182492  1
  Sb  Sb14  1  0.149530  0.648410  0.817508  1
  Sb  Sb15  1  0.830901  0.648410  0.498880  1
  Sb  Sb16  1  0.169099  0.351590  0.501120  1
