# generated using pymatgen
data_HoMn3Bi5O18
_symmetry_space_group_name_H-M   'P 1'
_cell_length_a   9.00199241
_cell_length_b   9.00383525
_cell_length_c   5.11794854
_cell_angle_alpha   89.99999475
_cell_angle_beta   90.01956263
_cell_angle_gamma   120.00677150
_symmetry_Int_Tables_number   1
_chemical_formula_structural   HoMn3Bi5O18
_chemical_formula_sum   'Ho1 Mn3 Bi5 O18'
_cell_volume   359.22210815
_cell_formula_units_Z   1
loop_
 _symmetry_equiv_pos_site_id
 _symmetry_equiv_pos_as_xyz
  1  'x, y, z'
loop_
 _atom_site_type_symbol
 _atom_site_label
 _atom_site_symmetry_multiplicity
 _atom_site_fract_x
 _atom_site_fract_y
 _atom_site_fract_z
 _atom_site_occupancy
  Ho  Ho0  1  0.000000  0.378724  0.500000  1
  Mn  Mn1  1  0.000000  0.001765  0.500000  1
  Mn  Mn2  1  0.332036  0.665232  0.997353  1
  Mn  Mn3  1  0.667964  0.333195  0.002647  1
  Bi  Bi4  1  0.289441  0.292584  0.000204  1
  Bi  Bi5  1  0.000000  0.704221  0.000000  1
  Bi  Bi6  1  0.622881  0.623047  0.497100  1
  Bi  Bi7  1  0.377119  0.000165  0.502900  1
  Bi  Bi8  1  0.710559  0.003144  0.999796  1
  O  O9  1  0.086458  0.204527  0.713508  1
  O  O10  1  0.226793  0.459575  0.217454  1
  O  O11  1  0.132907  0.595236  0.781402  1
  O  O12  1  0.396980  0.533111  0.785153  1
  O  O13  1  0.227606  0.765751  0.215938  1
  O  O14  1  0.112794  0.912059  0.719580  1
  O  O15  1  0.539861  0.771425  0.212975  1
  O  O16  1  0.200044  0.087769  0.280661  1
  O  O17  1  0.466456  0.864458  0.786537  1
  O  O18  1  0.799956  0.887726  0.719339  1
  O  O19  1  0.460139  0.231564  0.787025  1
  O  O20  1  0.603020  0.136131  0.214847  1
  O  O21  1  0.533544  0.398002  0.213463  1
  O  O22  1  0.773207  0.232782  0.782546  1
  O  O23  1  0.913542  0.118068  0.286492  1
  O  O24  1  0.772394  0.538145  0.784062  1
  O  O25  1  0.867093  0.462329  0.218598  1
  O  O26  1  0.887206  0.799264  0.280420  1
