# generated using pymatgen
data_Ba3Pu7Au8
_symmetry_space_group_name_H-M   'P 1'
_cell_length_a   8.33749824
_cell_length_b   8.13722861
_cell_length_c   8.05906726
_cell_angle_alpha   71.37155623
_cell_angle_beta   89.73790737
_cell_angle_gamma   90.44248216
_symmetry_Int_Tables_number   1
_chemical_formula_structural   Ba3Pu7Au8
_chemical_formula_sum   'Ba3 Pu7 Au8'
_cell_volume   518.08584116
_cell_formula_units_Z   1
loop_
 _symmetry_equiv_pos_site_id
 _symmetry_equiv_pos_as_xyz
  1  'x, y, z'
loop_
 _atom_site_type_symbol
 _atom_site_label
 _atom_site_symmetry_multiplicity
 _atom_site_fract_x
 _atom_site_fract_y
 _atom_site_fract_z
 _atom_site_occupancy
  Ba  Ba0  1  0.331942  0.062346  0.317525  1
  Ba  Ba1  1  0.174202  0.566915  0.312542  1
  Ba  Ba2  1  0.825686  0.436667  0.683008  1
  Pu  Pu3  1  0.341664  0.256009  0.754054  1
  Pu  Pu4  1  0.997505  0.999064  0.998177  1
  Pu  Pu5  1  0.687398  0.925448  0.706732  1
  Pu  Pu6  1  0.830047  0.239188  0.246214  1
  Pu  Pu7  1  0.158480  0.754095  0.756554  1
  Pu  Pu8  1  0.659750  0.747541  0.240087  1
  Pu  Pu9  1  0.500395  0.503084  0.997152  1
  Au  Au10  1  0.864976  0.626024  0.000808  1
  Au  Au11  1  0.940021  0.864844  0.420853  1
  Au  Au12  1  0.126969  0.374282  0.994339  1
  Au  Au13  1  0.547800  0.364844  0.412548  1
  Au  Au14  1  0.378354  0.876283  0.980421  1
  Au  Au15  1  0.463472  0.650990  0.593852  1
  Au  Au16  1  0.039092  0.130233  0.591075  1
  Au  Au17  1  0.632245  0.122143  0.994058  1
