# generated using pymatgen
data_Nd16Cd4Ir3Au
_symmetry_space_group_name_H-M   'P 1'
_cell_length_a   9.99275896
_cell_length_b   9.99275948
_cell_length_c   9.99275959
_cell_angle_alpha   60.25655205
_cell_angle_beta   60.25654676
_cell_angle_gamma   60.25655611
_symmetry_Int_Tables_number   1
_chemical_formula_structural   Nd16Cd4Ir3Au
_chemical_formula_sum   'Nd16 Cd4 Ir3 Au1'
_cell_volume   709.66930483
_cell_formula_units_Z   1
loop_
 _symmetry_equiv_pos_site_id
 _symmetry_equiv_pos_as_xyz
  1  'x, y, z'
loop_
 _atom_site_type_symbol
 _atom_site_label
 _atom_site_symmetry_multiplicity
 _atom_site_fract_x
 _atom_site_fract_y
 _atom_site_fract_z
 _atom_site_occupancy
  Nd  Nd0  1  0.346227  0.346227  0.346227  1
  Nd  Nd1  1  0.356572  0.356572  0.944793  1
  Nd  Nd2  1  0.356572  0.944793  0.356572  1
  Nd  Nd3  1  0.944793  0.356572  0.356572  1
  Nd  Nd4  1  0.800187  0.191198  0.191198  1
  Nd  Nd5  1  0.188660  0.809978  0.809978  1
  Nd  Nd6  1  0.191198  0.800187  0.191198  1
  Nd  Nd7  1  0.809978  0.188660  0.809978  1
  Nd  Nd8  1  0.191198  0.191198  0.800187  1
  Nd  Nd9  1  0.809978  0.809978  0.188660  1
  Nd  Nd10  1  0.940297  0.562812  0.562812  1
  Nd  Nd11  1  0.562174  0.939524  0.939524  1
  Nd  Nd12  1  0.562812  0.940297  0.562812  1
  Nd  Nd13  1  0.939524  0.562174  0.939524  1
  Nd  Nd14  1  0.562812  0.562812  0.940297  1
  Nd  Nd15  1  0.939524  0.939524  0.562174  1
  Cd  Cd16  1  0.580941  0.580941  0.580941  1
  Cd  Cd17  1  0.579998  0.579998  0.258423  1
  Cd  Cd18  1  0.579998  0.258423  0.579998  1
  Cd  Cd19  1  0.258423  0.579998  0.579998  1
  Ir  Ir20  1  0.140636  0.140636  0.572726  1
  Ir  Ir21  1  0.140636  0.572726  0.140636  1
  Ir  Ir22  1  0.572726  0.140636  0.140636  1
  Au  Au23  1  0.144137  0.144137  0.144137  1
