# generated using pymatgen
data_Cs4Ni3PbF12
_symmetry_space_group_name_H-M   'P 1'
_cell_length_a   11.01204835
_cell_length_b   11.01204838
_cell_length_c   11.01204962
_cell_angle_alpha   34.01057316
_cell_angle_beta   34.01057332
_cell_angle_gamma   34.01057863
_symmetry_Int_Tables_number   1
_chemical_formula_structural   Cs4Ni3PbF12
_chemical_formula_sum   'Cs4 Ni3 Pb1 F12'
_cell_volume   372.42082383
_cell_formula_units_Z   1
loop_
 _symmetry_equiv_pos_site_id
 _symmetry_equiv_pos_as_xyz
  1  'x, y, z'
loop_
 _atom_site_type_symbol
 _atom_site_label
 _atom_site_symmetry_multiplicity
 _atom_site_fract_x
 _atom_site_fract_y
 _atom_site_fract_z
 _atom_site_occupancy
  Cs  Cs0  1  0.715982  0.715982  0.715982  1
  Cs  Cs1  1  0.868830  0.868830  0.868830  1
  Cs  Cs2  1  0.284018  0.284018  0.284018  1
  Cs  Cs3  1  0.131170  0.131170  0.131170  1
  Ni  Ni4  1  0.412357  0.412357  0.412357  1
  Ni  Ni5  1  0.587643  0.587643  0.587643  1
  Ni  Ni6  1  0.500000  0.500000  0.500000  1
  Pb  Pb7  1  0.000000  0.000000  0.000000  1
  F  F8  1  0.178719  0.596764  0.596764  1
  F  F9  1  0.596764  0.596764  0.178719  1
  F  F10  1  0.680295  0.225902  0.225902  1
  F  F11  1  0.319705  0.774098  0.774098  1
  F  F12  1  0.225902  0.225902  0.680295  1
  F  F13  1  0.821281  0.403236  0.403236  1
  F  F14  1  0.774098  0.774098  0.319705  1
  F  F15  1  0.403236  0.403236  0.821281  1
  F  F16  1  0.403236  0.821281  0.403236  1
  F  F17  1  0.225902  0.680295  0.225902  1
  F  F18  1  0.774098  0.319705  0.774098  1
  F  F19  1  0.596764  0.178719  0.596764  1
