# generated using pymatgen
data_Ca2GaB2Pt7
_symmetry_space_group_name_H-M   'P 1'
_cell_length_a   5.63104300
_cell_length_b   5.63104300
_cell_length_c   7.23008700
_cell_angle_alpha   90.00000000
_cell_angle_beta   90.00000000
_cell_angle_gamma   120.00000587
_symmetry_Int_Tables_number   1
_chemical_formula_structural   Ca2GaB2Pt7
_chemical_formula_sum   'Ca2 Ga1 B2 Pt7'
_cell_volume   198.54173683
_cell_formula_units_Z   1
loop_
 _symmetry_equiv_pos_site_id
 _symmetry_equiv_pos_as_xyz
  1  'x, y, z'
loop_
 _atom_site_type_symbol
 _atom_site_label
 _atom_site_symmetry_multiplicity
 _atom_site_fract_x
 _atom_site_fract_y
 _atom_site_fract_z
 _atom_site_occupancy
  Ca  Ca0  1  0.000000  0.000000  0.000000  1
  Ca  Ca1  1  0.000000  0.000000  0.500000  1
  Ga  Ga2  1  0.666667  0.333334  0.500000  1
  B  B3  1  0.666667  0.333334  0.000000  1
  B  B4  1  0.333334  0.666667  0.000000  1
  Pt  Pt5  1  0.501137  0.002275  0.201202  1
  Pt  Pt6  1  0.997725  0.498863  0.201202  1
  Pt  Pt7  1  0.501136  0.498863  0.201202  1
  Pt  Pt8  1  0.333334  0.666667  0.500000  1
  Pt  Pt9  1  0.501137  0.002275  0.798798  1
  Pt  Pt10  1  0.997725  0.498863  0.798798  1
  Pt  Pt11  1  0.501136  0.498863  0.798798  1
