# generated using pymatgen
data_Li4Ca3PrSi8
_symmetry_space_group_name_H-M   'P 1'
_cell_length_a   3.82942000
_cell_length_b   7.89556337
_cell_length_c   10.62844489
_cell_angle_alpha   89.87943698
_cell_angle_beta   90.00000000
_cell_angle_gamma   90.00000000
_symmetry_Int_Tables_number   1
_chemical_formula_structural   Li4Ca3PrSi8
_chemical_formula_sum   'Li4 Ca3 Pr1 Si8'
_cell_volume   321.35487153
_cell_formula_units_Z   1
loop_
 _symmetry_equiv_pos_site_id
 _symmetry_equiv_pos_as_xyz
  1  'x, y, z'
loop_
 _atom_site_type_symbol
 _atom_site_label
 _atom_site_symmetry_multiplicity
 _atom_site_fract_x
 _atom_site_fract_y
 _atom_site_fract_z
 _atom_site_occupancy
  Li  Li0  1  0.250000  0.998204  0.388325  1
  Li  Li1  1  0.750000  0.001012  0.610833  1
  Li  Li2  1  0.250000  0.498263  0.111625  1
  Li  Li3  1  0.750000  0.503207  0.888203  1
  Ca  Ca4  1  0.750000  0.865843  0.135483  1
  Ca  Ca5  1  0.250000  0.634881  0.635960  1
  Ca  Ca6  1  0.750000  0.365931  0.364531  1
  Pr  Pr7  1  0.250000  0.132427  0.864826  1
  Si  Si8  1  0.750000  0.269888  0.068232  1
  Si  Si9  1  0.250000  0.731989  0.932614  1
  Si  Si10  1  0.750000  0.768340  0.432139  1
  Si  Si11  1  0.250000  0.230140  0.567924  1
  Si  Si12  1  0.750000  0.833203  0.824376  1
  Si  Si13  1  0.250000  0.166167  0.174446  1
  Si  Si14  1  0.750000  0.333880  0.674992  1
  Si  Si15  1  0.250000  0.666624  0.325492  1
