# generated using pymatgen
data_LiCa2Co2N3
_symmetry_space_group_name_H-M   'P 1'
_cell_length_a   6.26896838
_cell_length_b   6.26896913
_cell_length_c   6.25800484
_cell_angle_alpha   88.44071846
_cell_angle_beta   88.44072362
_cell_angle_gamma   120.67172060
_symmetry_Int_Tables_number   1
_chemical_formula_structural   LiCa2Co2N3
_chemical_formula_sum   'Li2 Ca4 Co4 N6'
_cell_volume   211.21352590
_cell_formula_units_Z   2
loop_
 _symmetry_equiv_pos_site_id
 _symmetry_equiv_pos_as_xyz
  1  'x, y, z'
loop_
 _atom_site_type_symbol
 _atom_site_label
 _atom_site_symmetry_multiplicity
 _atom_site_fract_x
 _atom_site_fract_y
 _atom_site_fract_z
 _atom_site_occupancy
  Li  Li0  1  0.810025  0.189975  0.750000  1
  Li  Li1  1  0.189975  0.810025  0.250000  1
  Ca  Ca2  1  0.819540  0.689506  0.902871  1
  Ca  Ca3  1  0.310494  0.180460  0.597129  1
  Ca  Ca4  1  0.180460  0.310494  0.097129  1
  Ca  Ca5  1  0.689506  0.819540  0.402871  1
  Co  Co6  1  0.571530  0.163921  0.107515  1
  Co  Co7  1  0.428470  0.836079  0.892485  1
  Co  Co8  1  0.836079  0.428470  0.392485  1
  Co  Co9  1  0.163921  0.571530  0.607515  1
  N  N10  1  0.418826  0.581174  0.750000  1
  N  N11  1  0.581174  0.418826  0.250000  1
  N  N12  1  0.996060  0.731464  0.528164  1
  N  N13  1  0.731464  0.996060  0.028164  1
  N  N14  1  0.003940  0.268536  0.471836  1
  N  N15  1  0.268536  0.003940  0.971836  1
