# generated using pymatgen
data_Zr10BeSiBiSb5
_symmetry_space_group_name_H-M   'P 1'
_cell_length_a   8.66101336
_cell_length_b   8.65494333
_cell_length_c   5.85459224
_cell_angle_alpha   89.98347928
_cell_angle_beta   90.03301828
_cell_angle_gamma   120.02319890
_symmetry_Int_Tables_number   1
_chemical_formula_structural   Zr10BeSiBiSb5
_chemical_formula_sum   'Zr10 Be1 Si1 Bi1 Sb5'
_cell_volume   379.97811017
_cell_formula_units_Z   1
loop_
 _symmetry_equiv_pos_site_id
 _symmetry_equiv_pos_as_xyz
  1  'x, y, z'
loop_
 _atom_site_type_symbol
 _atom_site_label
 _atom_site_symmetry_multiplicity
 _atom_site_fract_x
 _atom_site_fract_y
 _atom_site_fract_z
 _atom_site_occupancy
  Zr  Zr0  1  0.252902  0.000000  0.244309  1
  Zr  Zr1  1  0.256314  0.256605  0.755336  1
  Zr  Zr2  1  0.999709  0.743395  0.755336  1
  Zr  Zr3  1  0.004504  0.259269  0.244534  1
  Zr  Zr4  1  0.745235  0.740731  0.244534  1
  Zr  Zr5  1  0.745848  0.000000  0.755049  1
  Zr  Zr6  1  0.330690  0.663449  0.998756  1
  Zr  Zr7  1  0.667210  0.336664  0.501308  1
  Zr  Zr8  1  0.667242  0.336551  0.998756  1
  Zr  Zr9  1  0.330545  0.663336  0.501308  1
  Be  Be10  1  0.999630  0.000000  0.000061  1
  Si  Si11  1  0.999593  0.000000  0.499778  1
  Bi  Bi12  1  0.607796  0.000000  0.250655  1
  Sb  Sb13  1  0.606694  0.607297  0.750272  1
  Sb  Sb14  1  0.999397  0.392703  0.750272  1
  Sb  Sb15  1  0.000216  0.606497  0.249720  1
  Sb  Sb16  1  0.393719  0.393503  0.249720  1
  Sb  Sb17  1  0.392756  0.000000  0.750293  1
