# generated using pymatgen
data_Dy8TiSi16Tc11
_symmetry_space_group_name_H-M   'P 1'
_cell_length_a   6.82456797
_cell_length_b   6.81222764
_cell_length_c   12.72749331
_cell_angle_alpha   90.33139805
_cell_angle_beta   89.88660919
_cell_angle_gamma   89.80837556
_symmetry_Int_Tables_number   1
_chemical_formula_structural   Dy8TiSi16Tc11
_chemical_formula_sum   'Dy8 Ti1 Si16 Tc11'
_cell_volume   591.69327402
_cell_formula_units_Z   1
loop_
 _symmetry_equiv_pos_site_id
 _symmetry_equiv_pos_as_xyz
  1  'x, y, z'
loop_
 _atom_site_type_symbol
 _atom_site_label
 _atom_site_symmetry_multiplicity
 _atom_site_fract_x
 _atom_site_fract_y
 _atom_site_fract_z
 _atom_site_occupancy
  Dy  Dy0  1  0.007827  0.661483  0.032069  1
  Dy  Dy1  1  0.999752  0.335851  0.529179  1
  Dy  Dy2  1  0.665935  0.000881  0.970662  1
  Dy  Dy3  1  0.161388  0.498790  0.779844  1
  Dy  Dy4  1  0.838983  0.503278  0.280522  1
  Dy  Dy5  1  0.497750  0.162351  0.220549  1
  Dy  Dy6  1  0.505699  0.834297  0.717744  1
  Dy  Dy7  1  0.338741  0.994747  0.469023  1
  Ti  Ti8  1  0.671738  0.494063  0.870962  1
  Si  Si9  1  0.021284  0.725276  0.436248  1
  Si  Si10  1  0.978443  0.279979  0.938349  1
  Si  Si11  1  0.722276  0.025465  0.563714  1
  Si  Si12  1  0.232322  0.480762  0.188271  1
  Si  Si13  1  0.778506  0.529917  0.678862  1
  Si  Si14  1  0.459146  0.208176  0.814593  1
  Si  Si15  1  0.518066  0.770175  0.311466  1
  Si  Si16  1  0.281485  0.975827  0.063953  1
  Si  Si17  1  0.809001  0.885823  0.188182  1
  Si  Si18  1  0.304734  0.617377  0.563348  1
  Si  Si19  1  0.697617  0.385996  0.064894  1
  Si  Si20  1  0.615306  0.308263  0.438488  1
  Si  Si21  1  0.381798  0.700263  0.935229  1
  Si  Si22  1  0.113618  0.190388  0.313441  1
  Si  Si23  1  0.190339  0.114164  0.689306  1
  Si  Si24  1  0.883684  0.810294  0.811374  1
  Tc  Tc25  1  0.315813  0.475835  0.381131  1
  Tc  Tc26  1  0.815835  0.019404  0.373242  1
  Tc  Tc27  1  0.991936  0.177587  0.128257  1
  Tc  Tc28  1  0.016646  0.822455  0.624969  1
  Tc  Tc29  1  0.476793  0.324460  0.626235  1
  Tc  Tc30  1  0.178042  0.992036  0.875525  1
  Tc  Tc31  1  0.667597  0.666459  0.498350  1
  Tc  Tc32  1  0.834054  0.172460  0.752064  1
  Tc  Tc33  1  0.164920  0.831583  0.251376  1
  Tc  Tc34  1  0.339108  0.336074  0.998995  1
  Tc  Tc35  1  0.523818  0.687764  0.119582  1
