# generated using pymatgen
data_Zr6Sc8Al8Ir5Pt2
_symmetry_space_group_name_H-M   'P 1'
_cell_length_a   9.09734045
_cell_length_b   9.11242522
_cell_length_c   9.09734082
_cell_angle_alpha   59.94513192
_cell_angle_beta   60.04575495
_cell_angle_gamma   59.94513683
_symmetry_Int_Tables_number   1
_chemical_formula_structural   Zr6Sc8Al8Ir5Pt2
_chemical_formula_sum   'Zr6 Sc8 Al8 Ir5 Pt2'
_cell_volume   533.01193951
_cell_formula_units_Z   1
loop_
 _symmetry_equiv_pos_site_id
 _symmetry_equiv_pos_as_xyz
  1  'x, y, z'
loop_
 _atom_site_type_symbol
 _atom_site_label
 _atom_site_symmetry_multiplicity
 _atom_site_fract_x
 _atom_site_fract_y
 _atom_site_fract_z
 _atom_site_occupancy
  Zr  Zr0  1  0.679796  0.681723  0.320204  1
  Zr  Zr1  1  0.321849  0.678151  0.321849  1
  Zr  Zr2  1  0.679796  0.318277  0.320204  1
  Zr  Zr3  1  0.320204  0.318277  0.679796  1
  Zr  Zr4  1  0.678151  0.321849  0.678151  1
  Zr  Zr5  1  0.320204  0.681723  0.679796  1
  Sc  Sc6  1  0.875896  0.877172  0.369762  1
  Sc  Sc7  1  0.875435  0.366570  0.875435  1
  Sc  Sc8  1  0.369762  0.877172  0.875896  1
  Sc  Sc9  1  0.875435  0.882562  0.875435  1
  Sc  Sc10  1  0.124104  0.122828  0.630238  1
  Sc  Sc11  1  0.124565  0.633430  0.124565  1
  Sc  Sc12  1  0.630238  0.122828  0.124104  1
  Sc  Sc13  1  0.124565  0.117438  0.124565  1
  Al  Al14  1  0.660525  0.661029  0.017415  1
  Al  Al15  1  0.661013  0.016719  0.661013  1
  Al  Al16  1  0.017415  0.661029  0.660525  1
  Al  Al17  1  0.661013  0.661254  0.661013  1
  Al  Al18  1  0.339475  0.338971  0.982585  1
  Al  Al19  1  0.338987  0.983281  0.338987  1
  Al  Al20  1  0.982585  0.338971  0.339475  1
  Al  Al21  1  0.338987  0.338746  0.338987  1
  Ir  Ir22  1  0.000000  0.000000  0.500000  1
  Ir  Ir23  1  0.500000  0.000000  0.500000  1
  Ir  Ir24  1  0.000000  0.500000  0.500000  1
  Ir  Ir25  1  0.500000  0.500000  0.000000  1
  Ir  Ir26  1  0.500000  0.000000  0.000000  1
  Pt  Pt27  1  0.000000  0.000000  0.000000  1
  Pt  Pt28  1  0.000000  0.500000  0.000000  1
