# generated using pymatgen
data_Y16In6FeNi
_symmetry_space_group_name_H-M   'P 1'
_cell_length_a   10.41894600
_cell_length_b   10.41894471
_cell_length_c   7.03754500
_cell_angle_alpha   90.00000000
_cell_angle_beta   90.00000000
_cell_angle_gamma   119.99999776
_symmetry_Int_Tables_number   1
_chemical_formula_structural   Y16In6FeNi
_chemical_formula_sum   'Y16 In6 Fe1 Ni1'
_cell_volume   661.60586537
_cell_formula_units_Z   1
loop_
 _symmetry_equiv_pos_site_id
 _symmetry_equiv_pos_as_xyz
  1  'x, y, z'
loop_
 _atom_site_type_symbol
 _atom_site_label
 _atom_site_symmetry_multiplicity
 _atom_site_fract_x
 _atom_site_fract_y
 _atom_site_fract_z
 _atom_site_occupancy
  Y  Y0  1  0.536405  0.072810  0.522495  1
  Y  Y1  1  0.927190  0.463595  0.522495  1
  Y  Y2  1  0.536405  0.463595  0.522495  1
  Y  Y3  1  0.466859  0.933719  0.024339  1
  Y  Y4  1  0.066281  0.533141  0.024339  1
  Y  Y5  1  0.466859  0.533141  0.024339  1
  Y  Y6  1  0.177201  0.354402  0.727540  1
  Y  Y7  1  0.645598  0.822799  0.727540  1
  Y  Y8  1  0.177201  0.822799  0.727540  1
  Y  Y9  1  0.821932  0.643864  0.230089  1
  Y  Y10  1  0.356136  0.178068  0.230089  1
  Y  Y11  1  0.821932  0.178068  0.230089  1
  Y  Y12  1  0.666667  0.333333  0.909877  1
  Y  Y13  1  0.333333  0.666667  0.409094  1
  Y  Y14  1  0.000000  0.000000  0.509650  1
  Y  Y15  1  0.000000  0.000000  0.007104  1
  In  In16  1  0.837476  0.674953  0.769027  1
  In  In17  1  0.325047  0.162524  0.769027  1
  In  In18  1  0.837476  0.162524  0.769027  1
  In  In19  1  0.162854  0.325708  0.268407  1
  In  In20  1  0.674292  0.837146  0.268407  1
  In  In21  1  0.162854  0.837146  0.268407  1
  Fe  Fe22  1  0.666667  0.333333  0.297556  1
  Ni  Ni23  1  0.333333  0.666667  0.796712  1
