# generated using pymatgen
data_Li8TbDy7Sn7Sb
_symmetry_space_group_name_H-M   'P 1'
_cell_length_a   9.37919300
_cell_length_b   9.37913893
_cell_length_c   7.28453900
_cell_angle_alpha   90.07190391
_cell_angle_beta   90.00000000
_cell_angle_gamma   120.00018718
_symmetry_Int_Tables_number   1
_chemical_formula_structural   Li8TbDy7Sn7Sb
_chemical_formula_sum   'Li8 Tb1 Dy7 Sn7 Sb1'
_cell_volume   554.95768646
_cell_formula_units_Z   1
loop_
 _symmetry_equiv_pos_site_id
 _symmetry_equiv_pos_as_xyz
  1  'x, y, z'
loop_
 _atom_site_type_symbol
 _atom_site_label
 _atom_site_symmetry_multiplicity
 _atom_site_fract_x
 _atom_site_fract_y
 _atom_site_fract_z
 _atom_site_occupancy
  Li  Li0  1  0.166719  0.333437  0.288597  1
  Li  Li1  1  0.166723  0.833174  0.289019  1
  Li  Li2  1  0.666451  0.833174  0.289019  1
  Li  Li3  1  0.833352  0.666703  0.788739  1
  Li  Li4  1  0.832654  0.166374  0.789656  1
  Li  Li5  1  0.333719  0.166374  0.789656  1
  Li  Li6  1  0.333568  0.667136  0.668583  1
  Li  Li7  1  0.666717  0.333433  0.169388  1
  Tb  Tb8  1  0.512513  0.025025  0.494018  1
  Dy  Dy9  1  0.515170  0.489486  0.491948  1
  Dy  Dy10  1  0.974318  0.489486  0.491948  1
  Dy  Dy11  1  0.487565  0.975133  0.994471  1
  Dy  Dy12  1  0.489638  0.512880  0.995195  1
  Dy  Dy13  1  0.023242  0.512880  0.995195  1
  Dy  Dy14  1  0.998909  0.997817  0.498701  1
  Dy  Dy15  1  0.999007  0.998012  0.001643  1
  Sn  Sn16  1  0.166309  0.832614  0.729893  1
  Sn  Sn17  1  0.666305  0.832614  0.729893  1
  Sn  Sn18  1  0.833258  0.666517  0.230455  1
  Sn  Sn19  1  0.833917  0.167312  0.229869  1
  Sn  Sn20  1  0.333394  0.167312  0.229869  1
  Sn  Sn21  1  0.332771  0.665544  0.261621  1
  Sn  Sn22  1  0.667008  0.334016  0.762483  1
  Sb  Sb23  1  0.166773  0.333546  0.732137  1
