# generated using pymatgen
data_Sm5Sn15Ir8
_symmetry_space_group_name_H-M   'P 1'
_cell_length_a   4.52959700
_cell_length_b   7.36348976
_cell_length_c   18.77925700
_cell_angle_alpha   89.89760893
_cell_angle_beta   90.00000000
_cell_angle_gamma   90.00000000
_symmetry_Int_Tables_number   1
_chemical_formula_structural   Sm5Sn15Ir8
_chemical_formula_sum   'Sm5 Sn15 Ir8'
_cell_volume   626.35559826
_cell_formula_units_Z   1
loop_
 _symmetry_equiv_pos_site_id
 _symmetry_equiv_pos_as_xyz
  1  'x, y, z'
loop_
 _atom_site_type_symbol
 _atom_site_label
 _atom_site_symmetry_multiplicity
 _atom_site_fract_x
 _atom_site_fract_y
 _atom_site_fract_z
 _atom_site_occupancy
  Sm  Sm0  1  0.500000  0.001854  0.856045  1
  Sm  Sm1  1  0.500000  0.499383  0.357565  1
  Sm  Sm2  1  0.000000  0.999983  0.143576  1
  Sm  Sm3  1  0.000000  0.501187  0.642061  1
  Sm  Sm4  1  0.500000  0.490137  0.930727  1
  Sn  Sn5  1  0.000000  0.719312  0.805925  1
  Sn  Sn6  1  0.000000  0.778370  0.306538  1
  Sn  Sn7  1  0.500000  0.275683  0.193673  1
  Sn  Sn8  1  0.500000  0.220216  0.692642  1
  Sn  Sn9  1  0.000000  0.854487  0.969224  1
  Sn  Sn10  1  0.000000  0.630567  0.467559  1
  Sn  Sn11  1  0.500000  0.133732  0.032833  1
  Sn  Sn12  1  0.500000  0.367187  0.531903  1
  Sn  Sn13  1  0.000000  0.303683  0.819091  1
  Sn  Sn14  1  0.000000  0.200484  0.317999  1
  Sn  Sn15  1  0.500000  0.698789  0.185678  1
  Sn  Sn16  1  0.500000  0.806578  0.678664  1
  Sn  Sn17  1  0.500000  0.021022  0.433561  1
  Sn  Sn18  1  0.000000  0.513803  0.067206  1
  Sn  Sn19  1  0.000000  0.979330  0.567725  1
  Ir  Ir20  1  0.000000  0.229754  0.964289  1
  Ir  Ir21  1  0.000000  0.248867  0.464295  1
  Ir  Ir22  1  0.500000  0.764883  0.044857  1
  Ir  Ir23  1  0.500000  0.749534  0.533815  1
  Ir  Ir24  1  0.000000  0.019139  0.716175  1
  Ir  Ir25  1  0.000000  0.483102  0.214914  1
  Ir  Ir26  1  0.500000  0.987102  0.288303  1
  Ir  Ir27  1  0.500000  0.521830  0.773153  1
