# generated using pymatgen
data_CeY2Co2Si7
_symmetry_space_group_name_H-M   'P 1'
_cell_length_a   12.45313227
_cell_length_b   12.45313130
_cell_length_c   4.02944300
_cell_angle_alpha   90.00000000
_cell_angle_beta   90.00000000
_cell_angle_gamma   161.10902308
_symmetry_Int_Tables_number   1
_chemical_formula_structural   CeY2Co2Si7
_chemical_formula_sum   'Ce1 Y2 Co2 Si7'
_cell_volume   202.31900186
_cell_formula_units_Z   1
loop_
 _symmetry_equiv_pos_site_id
 _symmetry_equiv_pos_as_xyz
  1  'x, y, z'
loop_
 _atom_site_type_symbol
 _atom_site_label
 _atom_site_symmetry_multiplicity
 _atom_site_fract_x
 _atom_site_fract_y
 _atom_site_fract_z
 _atom_site_occupancy
  Ce  Ce0  1  0.218129  0.781871  0.000000  1
  Y  Y1  1  0.902863  0.097137  0.500000  1
  Y  Y2  1  0.533780  0.466220  0.500000  1
  Co  Co3  1  0.348992  0.651008  0.000000  1
  Co  Co4  1  0.088155  0.911845  0.000000  1
  Si  Si5  1  0.628748  0.371252  0.000000  1
  Si  Si6  1  0.441370  0.558630  0.000000  1
  Si  Si7  1  0.129995  0.870005  0.500000  1
  Si  Si8  1  0.995094  0.004906  0.000000  1
  Si  Si9  1  0.807259  0.192741  0.000000  1
  Si  Si10  1  0.701888  0.298112  0.500000  1
  Si  Si11  1  0.307025  0.692975  0.500000  1
