# generated using pymatgen
data_Er6Al24GaOs7
_symmetry_space_group_name_H-M   'P 1'
_cell_length_a   8.84402213
_cell_length_b   8.84402162
_cell_length_c   9.53653647
_cell_angle_alpha   90.16034208
_cell_angle_beta   89.83965826
_cell_angle_gamma   119.91425416
_symmetry_Int_Tables_number   1
_chemical_formula_structural   Er6Al24GaOs7
_chemical_formula_sum   'Er6 Al24 Ga1 Os7'
_cell_volume   646.53679890
_cell_formula_units_Z   1
loop_
 _symmetry_equiv_pos_site_id
 _symmetry_equiv_pos_as_xyz
  1  'x, y, z'
loop_
 _atom_site_type_symbol
 _atom_site_label
 _atom_site_symmetry_multiplicity
 _atom_site_fract_x
 _atom_site_fract_y
 _atom_site_fract_z
 _atom_site_occupancy
  Er  Er0  1  0.191299  0.386864  0.247283  1
  Er  Er1  1  0.808701  0.613136  0.752717  1
  Er  Er2  1  0.613136  0.808701  0.247283  1
  Er  Er3  1  0.386864  0.191299  0.752717  1
  Er  Er4  1  0.195404  0.804596  0.254223  1
  Er  Er5  1  0.804596  0.195404  0.745777  1
  Al  Al6  1  0.327702  0.672298  0.023048  1
  Al  Al7  1  0.672298  0.327702  0.976952  1
  Al  Al8  1  0.666015  0.333985  0.519156  1
  Al  Al9  1  0.333985  0.666015  0.480844  1
  Al  Al10  1  0.162585  0.325427  0.572414  1
  Al  Al11  1  0.837415  0.674573  0.427586  1
  Al  Al12  1  0.674573  0.837415  0.572414  1
  Al  Al13  1  0.852198  0.678769  0.082238  1
  Al  Al14  1  0.325427  0.162585  0.427586  1
  Al  Al15  1  0.147802  0.321231  0.917762  1
  Al  Al16  1  0.163017  0.836983  0.576356  1
  Al  Al17  1  0.321231  0.147802  0.082238  1
  Al  Al18  1  0.836983  0.163017  0.423644  1
  Al  Al19  1  0.678769  0.852198  0.917762  1
  Al  Al20  1  0.836794  0.163206  0.077747  1
  Al  Al21  1  0.163206  0.836794  0.922253  1
  Al  Al22  1  0.561894  0.121252  0.249599  1
  Al  Al23  1  0.438106  0.878748  0.750401  1
  Al  Al24  1  0.878748  0.438106  0.249599  1
  Al  Al25  1  0.121252  0.561894  0.750401  1
  Al  Al26  1  0.565141  0.434859  0.257633  1
  Al  Al27  1  0.434859  0.565141  0.742367  1
  Al  Al28  1  0.998835  0.001165  0.250694  1
  Al  Al29  1  0.001165  0.998835  0.749306  1
  Ga  Ga30  1  0.500000  0.500000  0.000000  1
  Os  Os31  1  0.500000  0.000000  0.000000  1
  Os  Os32  1  0.000000  0.500000  0.000000  1
  Os  Os33  1  0.500000  0.000000  0.500000  1
  Os  Os34  1  0.000000  0.500000  0.500000  1
  Os  Os35  1  0.500000  0.500000  0.500000  1
  Os  Os36  1  0.000000  0.000000  0.000000  1
  Os  Os37  1  0.000000  0.000000  0.500000  1
