# generated using pymatgen
data_CeDyPa(SnIr)3
_symmetry_space_group_name_H-M   'P 1'
_cell_length_a   7.45703099
_cell_length_b   7.45422612
_cell_length_c   4.02921100
_cell_angle_alpha   90.00000000
_cell_angle_beta   90.00000000
_cell_angle_gamma   119.12936461
_symmetry_Int_Tables_number   1
_chemical_formula_structural   CeDyPa(SnIr)3
_chemical_formula_sum   'Ce1 Dy1 Pa1 Sn3 Ir3'
_cell_volume   195.64231575
_cell_formula_units_Z   1
loop_
 _symmetry_equiv_pos_site_id
 _symmetry_equiv_pos_as_xyz
  1  'x, y, z'
loop_
 _atom_site_type_symbol
 _atom_site_label
 _atom_site_symmetry_multiplicity
 _atom_site_fract_x
 _atom_site_fract_y
 _atom_site_fract_z
 _atom_site_occupancy
  Ce  Ce0  1  0.000957  0.589404  0.000000  1
  Dy  Dy1  1  0.593679  0.000736  0.000000  1
  Pa  Pa2  1  0.413752  0.413757  0.000000  1
  Sn  Sn3  1  0.987792  0.251822  0.500000  1
  Sn  Sn4  1  0.753138  0.757454  0.500000  1
  Sn  Sn5  1  0.258136  0.991987  0.500000  1
  Ir  Ir6  1  0.014522  0.014058  0.000000  1
  Ir  Ir7  1  0.647161  0.339875  0.500000  1
  Ir  Ir8  1  0.330862  0.640908  0.500000  1
