# generated using pymatgen
data_Pr9HoAlSi4Ge
_symmetry_space_group_name_H-M   'P 1'
_cell_length_a   7.78340500
_cell_length_b   9.14980387
_cell_length_c   7.78340500
_cell_angle_alpha   115.17167710
_cell_angle_beta   90.00000000
_cell_angle_gamma   115.17167710
_symmetry_Int_Tables_number   1
_chemical_formula_structural   Pr9HoAlSi4Ge
_chemical_formula_sum   'Pr9 Ho1 Al1 Si4 Ge1'
_cell_volume   442.81721118
_cell_formula_units_Z   1
loop_
 _symmetry_equiv_pos_site_id
 _symmetry_equiv_pos_as_xyz
  1  'x, y, z'
loop_
 _atom_site_type_symbol
 _atom_site_label
 _atom_site_symmetry_multiplicity
 _atom_site_fract_x
 _atom_site_fract_y
 _atom_site_fract_z
 _atom_site_occupancy
  Pr  Pr0  1  0.525473  0.050947  0.525473  1
  Pr  Pr1  1  0.527307  0.716922  0.673258  1
  Pr  Pr2  1  0.189617  0.716922  0.043667  1
  Pr  Pr3  1  0.673258  0.716922  0.189617  1
  Pr  Pr4  1  0.043667  0.716922  0.527307  1
  Pr  Pr5  1  0.455470  0.281885  0.307849  1
  Pr  Pr6  1  0.826414  0.281885  0.974034  1
  Pr  Pr7  1  0.307849  0.281885  0.826414  1
  Pr  Pr8  1  0.974034  0.281885  0.455470  1
  Ho  Ho9  1  0.980984  0.961967  0.980984  1
  Al  Al10  1  0.753770  0.507541  0.753770  1
  Si  Si11  1  0.884794  0.996938  0.618026  1
  Si  Si12  1  0.112144  0.996938  0.378912  1
  Si  Si13  1  0.618026  0.996938  0.112144  1
  Si  Si14  1  0.378912  0.996938  0.884794  1
  Ge  Ge15  1  0.248281  0.496562  0.248281  1
