# generated using pymatgen
data_Lu5GaNiSb
_symmetry_space_group_name_H-M   'P 1'
_cell_length_a   8.36955834
_cell_length_b   8.36955871
_cell_length_c   8.50216397
_cell_angle_alpha   125.23497387
_cell_angle_beta   125.23498304
_cell_angle_gamma   80.08751771
_symmetry_Int_Tables_number   1
_chemical_formula_structural   Lu5GaNiSb
_chemical_formula_sum   'Lu10 Ga2 Ni2 Sb2'
_cell_volume   385.63648129
_cell_formula_units_Z   2
loop_
 _symmetry_equiv_pos_site_id
 _symmetry_equiv_pos_as_xyz
  1  'x, y, z'
loop_
 _atom_site_type_symbol
 _atom_site_label
 _atom_site_symmetry_multiplicity
 _atom_site_fract_x
 _atom_site_fract_y
 _atom_site_fract_z
 _atom_site_occupancy
  Lu  Lu0  1  0.000000  0.000000  0.000000  1
  Lu  Lu1  1  0.500000  0.500000  0.000000  1
  Lu  Lu2  1  0.784813  0.284813  0.792904  1
  Lu  Lu3  1  0.215187  0.715187  0.207096  1
  Lu  Lu4  1  0.491909  0.991909  0.207096  1
  Lu  Lu5  1  0.308103  0.463813  0.500000  1
  Lu  Lu6  1  0.036187  0.191897  0.500000  1
  Lu  Lu7  1  0.508091  0.008091  0.792904  1
  Lu  Lu8  1  0.691897  0.536187  0.500000  1
  Lu  Lu9  1  0.963813  0.808103  0.500000  1
  Ga  Ga10  1  0.136495  0.636495  0.772990  1
  Ga  Ga11  1  0.863505  0.363505  0.227010  1
  Ni  Ni12  1  0.627773  0.872227  0.500000  1
  Ni  Ni13  1  0.372227  0.127773  0.500000  1
  Sb  Sb14  1  0.250000  0.250000  0.000000  1
  Sb  Sb15  1  0.750000  0.750000  0.000000  1
