# generated using pymatgen
data_Ti4ReB2P
_symmetry_space_group_name_H-M   'P 1'
_cell_length_a   5.95328862
_cell_length_b   5.95328899
_cell_length_c   7.10544028
_cell_angle_alpha   114.76670689
_cell_angle_beta   114.76671675
_cell_angle_gamma   89.99999807
_symmetry_Int_Tables_number   1
_chemical_formula_structural   Ti4ReB2P
_chemical_formula_sum   'Ti8 Re2 B4 P2'
_cell_volume   202.87508062
_cell_formula_units_Z   2
loop_
 _symmetry_equiv_pos_site_id
 _symmetry_equiv_pos_as_xyz
  1  'x, y, z'
loop_
 _atom_site_type_symbol
 _atom_site_label
 _atom_site_symmetry_multiplicity
 _atom_site_fract_x
 _atom_site_fract_y
 _atom_site_fract_z
 _atom_site_occupancy
  Ti  Ti0  1  0.038156  0.538156  0.727956  1
  Ti  Ti1  1  0.689800  0.189800  0.727956  1
  Ti  Ti2  1  0.189800  0.038156  0.727956  1
  Ti  Ti3  1  0.538156  0.689800  0.727956  1
  Ti  Ti4  1  0.961844  0.461844  0.272044  1
  Ti  Ti5  1  0.310200  0.810200  0.272044  1
  Ti  Ti6  1  0.810200  0.961844  0.272044  1
  Ti  Ti7  1  0.461844  0.310200  0.272044  1
  Re  Re8  1  0.500000  0.500000  0.000000  1
  Re  Re9  1  0.000000  0.000000  0.000000  1
  B  B10  1  0.388419  0.888419  0.000000  1
  B  B11  1  0.611581  0.111581  0.000000  1
  B  B12  1  0.111581  0.388419  0.000000  1
  B  B13  1  0.888419  0.611581  0.000000  1
  P  P14  1  0.250000  0.250000  0.500000  1
  P  P15  1  0.750000  0.750000  0.500000  1
