# generated using pymatgen
data_Yb10PdRh
_symmetry_space_group_name_H-M   'P 1'
_cell_length_a   6.75957820
_cell_length_b   7.41998393
_cell_length_c   15.97241700
_cell_angle_alpha   90.00000000
_cell_angle_beta   90.00000000
_cell_angle_gamma   89.78015987
_symmetry_Int_Tables_number   1
_chemical_formula_structural   Yb10PdRh
_chemical_formula_sum   'Yb20 Pd2 Rh2'
_cell_volume   801.10603746
_cell_formula_units_Z   2
loop_
 _symmetry_equiv_pos_site_id
 _symmetry_equiv_pos_as_xyz
  1  'x, y, z'
loop_
 _atom_site_type_symbol
 _atom_site_label
 _atom_site_symmetry_multiplicity
 _atom_site_fract_x
 _atom_site_fract_y
 _atom_site_fract_z
 _atom_site_occupancy
  Yb  Yb0  1  0.353024  0.310785  0.061323  1
  Yb  Yb1  1  0.646976  0.689215  0.938677  1
  Yb  Yb2  1  0.852576  0.189163  0.936185  1
  Yb  Yb3  1  0.646976  0.689215  0.561323  1
  Yb  Yb4  1  0.147424  0.810837  0.063815  1
  Yb  Yb5  1  0.353024  0.310785  0.438677  1
  Yb  Yb6  1  0.147424  0.810837  0.436185  1
  Yb  Yb7  1  0.852576  0.189163  0.563815  1
  Yb  Yb8  1  0.149536  0.091011  0.250000  1
  Yb  Yb9  1  0.850464  0.908989  0.750000  1
  Yb  Yb10  1  0.661793  0.400732  0.750000  1
  Yb  Yb11  1  0.338207  0.599268  0.250000  1
  Yb  Yb12  1  0.321197  0.042320  0.644180  1
  Yb  Yb13  1  0.678803  0.957680  0.355820  1
  Yb  Yb14  1  0.828443  0.467808  0.355701  1
  Yb  Yb15  1  0.678803  0.957680  0.144180  1
  Yb  Yb16  1  0.171557  0.532192  0.644299  1
  Yb  Yb17  1  0.321197  0.042320  0.855820  1
  Yb  Yb18  1  0.171557  0.532192  0.855701  1
  Yb  Yb19  1  0.828443  0.467808  0.144299  1
  Pd  Pd20  1  0.539334  0.258713  0.250000  1
  Pd  Pd21  1  0.460666  0.741287  0.750000  1
  Rh  Rh22  1  0.037743  0.240111  0.750000  1
  Rh  Rh23  1  0.962257  0.759889  0.250000  1
