# generated using pymatgen
data_Tb11CeCo5Pb
_symmetry_space_group_name_H-M   'P 1'
_cell_length_a   8.34537693
_cell_length_b   8.34537575
_cell_length_c   8.34674500
_cell_angle_alpha   107.17397208
_cell_angle_beta   110.53744053
_cell_angle_gamma   110.71995652
_symmetry_Int_Tables_number   1
_chemical_formula_structural   Tb11CeCo5Pb
_chemical_formula_sum   'Tb11 Ce1 Co5 Pb1'
_cell_volume   446.99241312
_cell_formula_units_Z   1
loop_
 _symmetry_equiv_pos_site_id
 _symmetry_equiv_pos_as_xyz
  1  'x, y, z'
loop_
 _atom_site_type_symbol
 _atom_site_label
 _atom_site_symmetry_multiplicity
 _atom_site_fract_x
 _atom_site_fract_y
 _atom_site_fract_z
 _atom_site_occupancy
  Tb  Tb0  1  0.483184  0.298045  0.183055  1
  Tb  Tb1  1  0.111279  0.296192  0.809105  1
  Tb  Tb2  1  0.885011  0.699872  0.183055  1
  Tb  Tb3  1  0.512912  0.697825  0.809105  1
  Tb  Tb4  1  0.305618  0.623774  0.311167  1
  Tb  Tb5  1  0.304483  0.990631  0.684174  1
  Tb  Tb6  1  0.693544  0.379690  0.684174  1
  Tb  Tb7  1  0.687393  0.005548  0.311167  1
  Tb  Tb8  1  0.197701  0.200653  0.398353  1
  Tb  Tb9  1  0.803092  0.781219  0.584311  1
  Tb  Tb10  1  0.186068  0.810723  0.996790  1
  Ce  Ce11  1  0.805776  0.187153  0.992930  1
  Co  Co12  1  0.510480  0.613439  0.123919  1
  Co  Co13  1  0.492949  0.387789  0.880738  1
  Co  Co14  1  0.393641  0.002493  0.396135  1
  Co  Co15  1  0.652801  0.011909  0.664709  1
  Co  Co16  1  0.974534  0.017409  0.991944  1
  Pb  Pb17  1  0.999531  0.495638  0.495169  1
