# generated using pymatgen
data_SmPt2Au3
_symmetry_space_group_name_H-M   'P 1'
_cell_length_a   5.46746260
_cell_length_b   5.46746328
_cell_length_c   5.46746239
_cell_angle_alpha   119.88378656
_cell_angle_beta   119.29877463
_cell_angle_gamma   90.71012732
_symmetry_Int_Tables_number   1
_chemical_formula_structural   SmPt2Au3
_chemical_formula_sum   'Sm1 Pt2 Au3'
_cell_volume   116.26987101
_cell_formula_units_Z   1
loop_
 _symmetry_equiv_pos_site_id
 _symmetry_equiv_pos_as_xyz
  1  'x, y, z'
loop_
 _atom_site_type_symbol
 _atom_site_label
 _atom_site_symmetry_multiplicity
 _atom_site_fract_x
 _atom_site_fract_y
 _atom_site_fract_z
 _atom_site_occupancy
  Sm  Sm0  1  0.006155  0.006155  0.000000  1
  Pt  Pt1  1  0.125190  0.374199  0.750991  1
  Pt  Pt2  1  0.623208  0.374199  0.249009  1
  Au  Au3  1  0.623289  0.872636  0.249346  1
  Au  Au4  1  0.623289  0.373943  0.750654  1
  Au  Au5  1  0.248869  0.748869  0.500000  1
