# generated using pymatgen
data_Dy7ErCrOs3C8
_symmetry_space_group_name_H-M   'P 1'
_cell_length_a   5.09474500
_cell_length_b   6.48058848
_cell_length_c   9.75342121
_cell_angle_alpha   90.17883991
_cell_angle_beta   90.00000000
_cell_angle_gamma   90.00000000
_symmetry_Int_Tables_number   1
_chemical_formula_structural   Dy7ErCrOs3C8
_chemical_formula_sum   'Dy7 Er1 Cr1 Os3 C8'
_cell_volume   322.02661034
_cell_formula_units_Z   1
loop_
 _symmetry_equiv_pos_site_id
 _symmetry_equiv_pos_as_xyz
  1  'x, y, z'
loop_
 _atom_site_type_symbol
 _atom_site_label
 _atom_site_symmetry_multiplicity
 _atom_site_fract_x
 _atom_site_fract_y
 _atom_site_fract_z
 _atom_site_occupancy
  Dy  Dy0  1  0.250000  0.683066  0.556388  1
  Dy  Dy1  1  0.750000  0.818369  0.052465  1
  Dy  Dy2  1  0.250000  0.177922  0.945571  1
  Dy  Dy3  1  0.250000  0.528832  0.212244  1
  Dy  Dy4  1  0.750000  0.471692  0.782396  1
  Dy  Dy5  1  0.750000  0.974675  0.715584  1
  Dy  Dy6  1  0.250000  0.029607  0.288070  1
  Er  Er7  1  0.750000  0.322638  0.446019  1
  Cr  Cr8  1  0.250000  0.726205  0.861845  1
  Os  Os9  1  0.750000  0.276556  0.136098  1
  Os  Os10  1  0.750000  0.777571  0.364708  1
  Os  Os11  1  0.250000  0.226426  0.637327  1
  C  C12  1  0.250000  0.464976  0.763857  1
  C  C13  1  0.750000  0.541657  0.242106  1
  C  C14  1  0.750000  0.041789  0.259099  1
  C  C15  1  0.250000  0.954441  0.743496  1
  C  C16  1  0.250000  0.813333  0.041557  1
  C  C17  1  0.750000  0.174488  0.949679  1
  C  C18  1  0.750000  0.673159  0.551359  1
  C  C19  1  0.250000  0.322599  0.450132  1
