# generated using pymatgen
data_SrZr(NiSb)2
_symmetry_space_group_name_H-M   'P 1'
_cell_length_a   4.24710000
_cell_length_b   8.25596388
_cell_length_c   7.47485275
_cell_angle_alpha   88.38615484
_cell_angle_beta   90.00000000
_cell_angle_gamma   90.00000000
_symmetry_Int_Tables_number   1
_chemical_formula_structural   SrZr(NiSb)2
_chemical_formula_sum   'Sr2 Zr2 Ni4 Sb4'
_cell_volume   261.99355662
_cell_formula_units_Z   2
loop_
 _symmetry_equiv_pos_site_id
 _symmetry_equiv_pos_as_xyz
  1  'x, y, z'
loop_
 _atom_site_type_symbol
 _atom_site_label
 _atom_site_symmetry_multiplicity
 _atom_site_fract_x
 _atom_site_fract_y
 _atom_site_fract_z
 _atom_site_occupancy
  Sr  Sr0  1  0.750000  0.010971  0.747915  1
  Sr  Sr1  1  0.250000  0.989029  0.252085  1
  Zr  Zr2  1  0.750000  0.486545  0.714444  1
  Zr  Zr3  1  0.250000  0.513455  0.285556  1
  Ni  Ni4  1  0.250000  0.594395  0.931278  1
  Ni  Ni5  1  0.750000  0.405605  0.068722  1
  Ni  Ni6  1  0.250000  0.306934  0.580089  1
  Ni  Ni7  1  0.750000  0.693066  0.419911  1
  Sb  Sb8  1  0.250000  0.734431  0.606202  1
  Sb  Sb9  1  0.750000  0.265569  0.393798  1
  Sb  Sb10  1  0.250000  0.276152  0.923993  1
  Sb  Sb11  1  0.750000  0.723848  0.076007  1
