# generated using pymatgen
data_Er6ZnGa17Pd4
_symmetry_space_group_name_H-M   'P 1'
_cell_length_a   8.12832753
_cell_length_b   8.12832724
_cell_length_c   15.67625579
_cell_angle_alpha   75.00438282
_cell_angle_beta   75.00438248
_cell_angle_gamma   30.66272318
_symmetry_Int_Tables_number   1
_chemical_formula_structural   Er6ZnGa17Pd4
_chemical_formula_sum   'Er6 Zn1 Ga17 Pd4'
_cell_volume   508.83755267
_cell_formula_units_Z   1
loop_
 _symmetry_equiv_pos_site_id
 _symmetry_equiv_pos_as_xyz
  1  'x, y, z'
loop_
 _atom_site_type_symbol
 _atom_site_label
 _atom_site_symmetry_multiplicity
 _atom_site_fract_x
 _atom_site_fract_y
 _atom_site_fract_z
 _atom_site_occupancy
  Er  Er0  1  0.750129  0.750129  0.750613  1
  Er  Er1  1  0.249871  0.249871  0.249387  1
  Er  Er2  1  0.599813  0.599813  0.600177  1
  Er  Er3  1  0.098825  0.098825  0.099020  1
  Er  Er4  1  0.901175  0.901175  0.900980  1
  Er  Er5  1  0.400187  0.400187  0.399823  1
  Zn  Zn6  1  0.500000  0.500000  0.000000  1
  Ga  Ga7  1  0.821369  0.821369  0.539493  1
  Ga  Ga8  1  0.324001  0.324001  0.040320  1
  Ga  Ga9  1  0.675999  0.675999  0.959680  1
  Ga  Ga10  1  0.178631  0.178631  0.460507  1
  Ga  Ga11  1  0.540603  0.540603  0.824387  1
  Ga  Ga12  1  0.039418  0.039418  0.321303  1
  Ga  Ga13  1  0.960582  0.960582  0.678697  1
  Ga  Ga14  1  0.459397  0.459397  0.175613  1
  Ga  Ga15  1  0.262227  0.262227  0.895303  1
  Ga  Ga16  1  0.760996  0.760996  0.393839  1
  Ga  Ga17  1  0.239004  0.239004  0.606161  1
  Ga  Ga18  1  0.737773  0.737773  0.104697  1
  Ga  Ga19  1  0.394886  0.394886  0.761763  1
  Ga  Ga20  1  0.894107  0.894107  0.261202  1
  Ga  Ga21  1  0.105893  0.105893  0.738798  1
  Ga  Ga22  1  0.605114  0.605114  0.238237  1
  Ga  Ga23  1  0.000000  0.000000  0.500000  1
  Pd  Pd24  1  0.093345  0.093345  0.907286  1
  Pd  Pd25  1  0.590796  0.590796  0.408855  1
  Pd  Pd26  1  0.409204  0.409204  0.591145  1
  Pd  Pd27  1  0.906655  0.906655  0.092714  1
