# generated using pymatgen
data_Nd4Y4Tc3B24Ru
_symmetry_space_group_name_H-M   'P 1'
_cell_length_a   3.73755700
_cell_length_b   9.24451022
_cell_length_c   11.69218707
_cell_angle_alpha   89.92974323
_cell_angle_beta   90.00000000
_cell_angle_gamma   90.00000000
_symmetry_Int_Tables_number   1
_chemical_formula_structural   Nd4Y4Tc3B24Ru
_chemical_formula_sum   'Nd4 Y4 Tc3 B24 Ru1'
_cell_volume   403.98678619
_cell_formula_units_Z   1
loop_
 _symmetry_equiv_pos_site_id
 _symmetry_equiv_pos_as_xyz
  1  'x, y, z'
loop_
 _atom_site_type_symbol
 _atom_site_label
 _atom_site_symmetry_multiplicity
 _atom_site_fract_x
 _atom_site_fract_y
 _atom_site_fract_z
 _atom_site_occupancy
  Nd  Nd0  1  0.000000  0.323244  0.413965  1
  Nd  Nd1  1  0.000000  0.675452  0.584342  1
  Nd  Nd2  1  0.000000  0.823128  0.087028  1
  Nd  Nd3  1  0.000000  0.177733  0.914677  1
  Y  Y4  1  0.000000  0.942419  0.369560  1
  Y  Y5  1  0.000000  0.058112  0.631174  1
  Y  Y6  1  0.000000  0.442873  0.130735  1
  Y  Y7  1  0.000000  0.557789  0.868586  1
  Tc  Tc8  1  0.000000  0.638987  0.319563  1
  Tc  Tc9  1  0.000000  0.361066  0.680935  1
  Tc  Tc10  1  0.000000  0.138412  0.179533  1
  B  B11  1  0.500000  0.554525  0.430589  1
  B  B12  1  0.500000  0.445123  0.568970  1
  B  B13  1  0.500000  0.054726  0.069172  1
  B  B14  1  0.500000  0.944705  0.930638  1
  B  B15  1  0.500000  0.748622  0.416344  1
  B  B16  1  0.500000  0.250761  0.583817  1
  B  B17  1  0.500000  0.249311  0.083615  1
  B  B18  1  0.500000  0.751466  0.916045  1
  B  B19  1  0.500000  0.790659  0.266283  1
  B  B20  1  0.500000  0.209729  0.734276  1
  B  B21  1  0.500000  0.290551  0.233779  1
  B  B22  1  0.500000  0.710371  0.766033  1
  B  B23  1  0.500000  0.630077  0.186491  1
  B  B24  1  0.500000  0.370105  0.813960  1
  B  B25  1  0.500000  0.129622  0.313161  1
  B  B26  1  0.500000  0.869944  0.686730  1
  B  B27  1  0.500000  0.983717  0.212707  1
  B  B28  1  0.500000  0.014859  0.787683  1
  B  B29  1  0.500000  0.484163  0.287007  1
  B  B30  1  0.500000  0.515573  0.712462  1
  B  B31  1  0.500000  0.598870  0.027065  1
  B  B32  1  0.500000  0.402537  0.972530  1
  B  B33  1  0.500000  0.098141  0.473172  1
  B  B34  1  0.500000  0.901693  0.527723  1
  Ru  Ru35  1  0.000000  0.860933  0.819651  1
