# generated using pymatgen
data_YEr7B24(IrRh)2
_symmetry_space_group_name_H-M   'P 1'
_cell_length_a   3.63240200
_cell_length_b   9.15143059
_cell_length_c   11.48449837
_cell_angle_alpha   90.08704265
_cell_angle_beta   90.00000000
_cell_angle_gamma   90.00000000
_symmetry_Int_Tables_number   1
_chemical_formula_structural   YEr7B24(IrRh)2
_chemical_formula_sum   'Y1 Er7 B24 Ir2 Rh2'
_cell_volume   381.76351948
_cell_formula_units_Z   1
loop_
 _symmetry_equiv_pos_site_id
 _symmetry_equiv_pos_as_xyz
  1  'x, y, z'
loop_
 _atom_site_type_symbol
 _atom_site_label
 _atom_site_symmetry_multiplicity
 _atom_site_fract_x
 _atom_site_fract_y
 _atom_site_fract_z
 _atom_site_occupancy
  Y  Y0  1  0.500000  0.322982  0.413939  1
  Er  Er1  1  0.500000  0.677110  0.586136  1
  Er  Er2  1  0.500000  0.178589  0.912871  1
  Er  Er3  1  0.500000  0.821397  0.086963  1
  Er  Er4  1  0.500000  0.445403  0.126299  1
  Er  Er5  1  0.500000  0.554657  0.873546  1
  Er  Er6  1  0.500000  0.056208  0.626243  1
  Er  Er7  1  0.500000  0.943542  0.373988  1
  B  B8  1  0.000000  0.109352  0.470212  1
  B  B9  1  0.000000  0.889838  0.530125  1
  B  B10  1  0.000000  0.389427  0.969919  1
  B  B11  1  0.000000  0.610732  0.029925  1
  B  B12  1  0.000000  0.132331  0.315734  1
  B  B13  1  0.000000  0.867027  0.683949  1
  B  B14  1  0.000000  0.366449  0.816269  1
  B  B15  1  0.000000  0.633728  0.183608  1
  B  B16  1  0.000000  0.053730  0.065591  1
  B  B17  1  0.000000  0.946109  0.934167  1
  B  B18  1  0.000000  0.446992  0.565937  1
  B  B19  1  0.000000  0.554174  0.434754  1
  B  B20  1  0.000000  0.483431  0.286535  1
  B  B21  1  0.000000  0.517467  0.713124  1
  B  B22  1  0.000000  0.017449  0.786800  1
  B  B23  1  0.000000  0.982222  0.213161  1
  B  B24  1  0.000000  0.249842  0.078986  1
  B  B25  1  0.000000  0.750122  0.920738  1
  B  B26  1  0.000000  0.250502  0.580065  1
  B  B27  1  0.000000  0.749345  0.420833  1
  B  B28  1  0.000000  0.294191  0.234632  1
  B  B29  1  0.000000  0.705583  0.764787  1
  B  B30  1  0.000000  0.205421  0.736028  1
  B  B31  1  0.000000  0.794474  0.264134  1
  Ir  Ir32  1  0.500000  0.138523  0.177626  1
  Ir  Ir33  1  0.500000  0.860993  0.822009  1
  Rh  Rh34  1  0.500000  0.360243  0.680227  1
  Rh  Rh35  1  0.500000  0.640415  0.320140  1
