# generated using pymatgen
data_Ho6LuU(Nb3Si4)4
_symmetry_space_group_name_H-M   'P 1'
_cell_length_a   7.05441065
_cell_length_b   7.06167673
_cell_length_c   13.03566027
_cell_angle_alpha   90.05269474
_cell_angle_beta   89.96046117
_cell_angle_gamma   89.93453408
_symmetry_Int_Tables_number   1
_chemical_formula_structural   Ho6LuU(Nb3Si4)4
_chemical_formula_sum   'Ho6 Lu1 U1 Nb12 Si16'
_cell_volume   649.38317559
_cell_formula_units_Z   1
loop_
 _symmetry_equiv_pos_site_id
 _symmetry_equiv_pos_as_xyz
  1  'x, y, z'
loop_
 _atom_site_type_symbol
 _atom_site_label
 _atom_site_symmetry_multiplicity
 _atom_site_fract_x
 _atom_site_fract_y
 _atom_site_fract_z
 _atom_site_occupancy
  Ho  Ho0  1  0.001609  0.659269  0.717083  1
  Ho  Ho1  1  0.158953  0.499215  0.467284  1
  Ho  Ho2  1  0.501507  0.841684  0.032711  1
  Ho  Ho3  1  0.842103  0.501925  0.967558  1
  Ho  Ho4  1  0.498927  0.158507  0.532075  1
  Ho  Ho5  1  0.341529  0.997338  0.782645  1
  Lu  Lu6  1  0.998297  0.340102  0.217953  1
  U  U7  1  0.659240  0.999428  0.283577  1
  Nb  Nb8  1  0.170896  0.171780  0.999897  1
  Nb  Nb9  1  0.826878  0.831590  0.497246  1
  Nb  Nb10  1  0.333330  0.674219  0.250764  1
  Nb  Nb11  1  0.671708  0.329506  0.749914  1
  Nb  Nb12  1  0.151145  0.992473  0.374957  1
  Nb  Nb13  1  0.846972  0.006798  0.876494  1
  Nb  Nb14  1  0.506281  0.653075  0.625549  1
  Nb  Nb15  1  0.346586  0.493098  0.874742  1
  Nb  Nb16  1  0.495686  0.343289  0.127437  1
  Nb  Nb17  1  0.652671  0.503202  0.373237  1
  Nb  Nb18  1  0.992360  0.154897  0.624029  1
  Nb  Nb19  1  0.002827  0.850052  0.126035  1
  Si  Si20  1  0.293682  0.044970  0.185429  1
  Si  Si21  1  0.706583  0.954599  0.686503  1
  Si  Si22  1  0.454909  0.794354  0.436837  1
  Si  Si23  1  0.206322  0.545318  0.064970  1
  Si  Si24  1  0.545448  0.206773  0.936576  1
  Si  Si25  1  0.794369  0.456623  0.562642  1
  Si  Si26  1  0.045194  0.294773  0.813024  1
  Si  Si27  1  0.954837  0.702625  0.312879  1
  Si  Si28  1  0.366232  0.291978  0.317590  1
  Si  Si29  1  0.634306  0.703354  0.817340  1
  Si  Si30  1  0.203783  0.867240  0.567356  1
  Si  Si31  1  0.132810  0.795928  0.933218  1
  Si  Si32  1  0.795291  0.134483  0.069249  1
  Si  Si33  1  0.866254  0.206244  0.430959  1
  Si  Si34  1  0.295639  0.366445  0.682373  1
  Si  Si35  1  0.704836  0.632846  0.181868  1
