# generated using pymatgen
data_Gd8TcMo3C8
_symmetry_space_group_name_H-M   'P 1'
_cell_length_a   5.73493948
_cell_length_b   5.73493948
_cell_length_c   10.06859400
_cell_angle_alpha   90.00000000
_cell_angle_beta   90.00000000
_cell_angle_gamma   89.60846562
_symmetry_Int_Tables_number   1
_chemical_formula_structural   Gd8TcMo3C8
_chemical_formula_sum   'Gd8 Tc1 Mo3 C8'
_cell_volume   331.14360045
_cell_formula_units_Z   1
loop_
 _symmetry_equiv_pos_site_id
 _symmetry_equiv_pos_as_xyz
  1  'x, y, z'
loop_
 _atom_site_type_symbol
 _atom_site_label
 _atom_site_symmetry_multiplicity
 _atom_site_fract_x
 _atom_site_fract_y
 _atom_site_fract_z
 _atom_site_occupancy
  Gd  Gd0  1  0.198706  0.799465  0.155409  1
  Gd  Gd1  1  0.799465  0.198706  0.844591  1
  Gd  Gd2  1  0.198706  0.799465  0.844591  1
  Gd  Gd3  1  0.299316  0.299316  0.343029  1
  Gd  Gd4  1  0.699380  0.699380  0.343481  1
  Gd  Gd5  1  0.299316  0.299316  0.656971  1
  Gd  Gd6  1  0.799465  0.198706  0.155409  1
  Gd  Gd7  1  0.699380  0.699380  0.656519  1
  Tc  Tc8  1  0.324970  0.324970  0.000000  1
  Mo  Mo9  1  0.176958  0.822441  0.500000  1
  Mo  Mo10  1  0.677224  0.677224  0.000000  1
  Mo  Mo11  1  0.822441  0.176958  0.500000  1
  C  C12  1  0.000645  0.499790  0.500000  1
  C  C13  1  0.999808  0.999808  0.348185  1
  C  C14  1  0.498952  0.002965  0.000000  1
  C  C15  1  0.999808  0.999808  0.651815  1
  C  C16  1  0.501353  0.501353  0.848446  1
  C  C17  1  0.501353  0.501353  0.151554  1
  C  C18  1  0.499790  0.000645  0.500000  1
  C  C19  1  0.002965  0.498952  0.000000  1
