# generated using pymatgen
data_Cs3TlS3
_symmetry_space_group_name_H-M   'P 1'
_cell_length_a   8.54583408
_cell_length_b   8.54583377
_cell_length_c   8.54193261
_cell_angle_alpha   82.89826004
_cell_angle_beta   82.89826412
_cell_angle_gamma   112.63586897
_symmetry_Int_Tables_number   1
_chemical_formula_structural   Cs3TlS3
_chemical_formula_sum   'Cs6 Tl2 S6'
_cell_volume   561.28517841
_cell_formula_units_Z   2
loop_
 _symmetry_equiv_pos_site_id
 _symmetry_equiv_pos_as_xyz
  1  'x, y, z'
loop_
 _atom_site_type_symbol
 _atom_site_label
 _atom_site_symmetry_multiplicity
 _atom_site_fract_x
 _atom_site_fract_y
 _atom_site_fract_z
 _atom_site_occupancy
  Cs  Cs0  1  0.613576  0.613576  0.649393  1
  Cs  Cs1  1  0.386424  0.386424  0.350607  1
  Cs  Cs2  1  0.179406  0.820594  0.500000  1
  Cs  Cs3  1  0.820594  0.179406  0.500000  1
  Cs  Cs4  1  0.249150  0.750850  0.000000  1
  Cs  Cs5  1  0.750850  0.249150  0.000000  1
  Tl  Tl6  1  0.173378  0.173378  0.844778  1
  Tl  Tl7  1  0.826622  0.826622  0.155222  1
  S  S8  1  0.444719  0.150001  0.717835  1
  S  S9  1  0.849999  0.555281  0.282165  1
  S  S10  1  0.555281  0.849999  0.282165  1
  S  S11  1  0.150001  0.444719  0.717835  1
  S  S12  1  0.104402  0.104402  0.163372  1
  S  S13  1  0.895598  0.895598  0.836628  1
