# generated using pymatgen
data_Li8DyY7(SnSb3)2
_symmetry_space_group_name_H-M   'P 1'
_cell_length_a   9.48035600
_cell_length_b   9.48035675
_cell_length_c   7.03685700
_cell_angle_alpha   90.00000000
_cell_angle_beta   90.00000000
_cell_angle_gamma   119.99999738
_symmetry_Int_Tables_number   1
_chemical_formula_structural   Li8DyY7(SnSb3)2
_chemical_formula_sum   'Li8 Dy1 Y7 Sn2 Sb6'
_cell_volume   547.72012058
_cell_formula_units_Z   1
loop_
 _symmetry_equiv_pos_site_id
 _symmetry_equiv_pos_as_xyz
  1  'x, y, z'
loop_
 _atom_site_type_symbol
 _atom_site_label
 _atom_site_symmetry_multiplicity
 _atom_site_fract_x
 _atom_site_fract_y
 _atom_site_fract_z
 _atom_site_occupancy
  Li  Li0  1  0.166895  0.333789  0.274580  1
  Li  Li1  1  0.166895  0.833105  0.274580  1
  Li  Li2  1  0.666211  0.833105  0.274580  1
  Li  Li3  1  0.833107  0.666215  0.774600  1
  Li  Li4  1  0.833107  0.166893  0.774600  1
  Li  Li5  1  0.333785  0.166893  0.774600  1
  Li  Li6  1  0.333333  0.666667  0.692701  1
  Li  Li7  1  0.666667  0.333333  0.192729  1
  Dy  Dy8  1  0.000000  0.000000  0.001123  1
  Y  Y9  1  0.508316  0.016631  0.494055  1
  Y  Y10  1  0.508316  0.491684  0.494055  1
  Y  Y11  1  0.983369  0.491684  0.494055  1
  Y  Y12  1  0.491680  0.983361  0.994055  1
  Y  Y13  1  0.491680  0.508320  0.994055  1
  Y  Y14  1  0.016639  0.508320  0.994055  1
  Y  Y15  1  0.000000  0.000000  0.501078  1
  Sn  Sn16  1  0.333333  0.666667  0.259626  1
  Sn  Sn17  1  0.666667  0.333333  0.759618  1
  Sb  Sb18  1  0.166452  0.332903  0.737334  1
  Sb  Sb19  1  0.166452  0.833548  0.737334  1
  Sb  Sb20  1  0.667097  0.833548  0.737334  1
  Sb  Sb21  1  0.833569  0.667138  0.237081  1
  Sb  Sb22  1  0.833569  0.166431  0.237081  1
  Sb  Sb23  1  0.332862  0.166431  0.237081  1
