# generated using pymatgen
data_Hf2Sc(TcP)3
_symmetry_space_group_name_H-M   'P 1'
_cell_length_a   6.75925244
_cell_length_b   6.74438994
_cell_length_c   3.48297800
_cell_angle_alpha   90.00000000
_cell_angle_beta   90.00000000
_cell_angle_gamma   119.92728763
_symmetry_Int_Tables_number   1
_chemical_formula_structural   Hf2Sc(TcP)3
_chemical_formula_sum   'Hf2 Sc1 Tc3 P3'
_cell_volume   137.60697313
_cell_formula_units_Z   1
loop_
 _symmetry_equiv_pos_site_id
 _symmetry_equiv_pos_as_xyz
  1  'x, y, z'
loop_
 _atom_site_type_symbol
 _atom_site_label
 _atom_site_symmetry_multiplicity
 _atom_site_fract_x
 _atom_site_fract_y
 _atom_site_fract_z
 _atom_site_occupancy
  Hf  Hf0  1  0.405962  0.404289  0.500000  1
  Hf  Hf1  1  0.594038  0.998327  0.500000  1
  Sc  Sc2  1  0.000000  0.594738  0.500000  1
  Tc  Tc3  1  0.000000  0.246578  0.000000  1
  Tc  Tc4  1  0.249167  0.002086  0.000000  1
  Tc  Tc5  1  0.750833  0.752919  0.000000  1
  P  P6  1  0.668390  0.334949  0.000000  1
  P  P7  1  0.331610  0.666560  0.000000  1
  P  P8  1  0.000000  0.999554  0.500000  1
