# generated using pymatgen
data_Dy6Mn2Co(Ni5As4)3
_symmetry_space_group_name_H-M   'P 1'
_cell_length_a   3.88677400
_cell_length_b   10.95543800
_cell_length_c   12.75708900
_cell_angle_alpha   90.00000000
_cell_angle_beta   90.00000000
_cell_angle_gamma   90.00000000
_symmetry_Int_Tables_number   1
_chemical_formula_structural   Dy6Mn2Co(Ni5As4)3
_chemical_formula_sum   'Dy6 Mn2 Co1 Ni15 As12'
_cell_volume   543.21358152
_cell_formula_units_Z   1
loop_
 _symmetry_equiv_pos_site_id
 _symmetry_equiv_pos_as_xyz
  1  'x, y, z'
loop_
 _atom_site_type_symbol
 _atom_site_label
 _atom_site_symmetry_multiplicity
 _atom_site_fract_x
 _atom_site_fract_y
 _atom_site_fract_z
 _atom_site_occupancy
  Dy  Dy0  1  0.000000  0.500000  0.523748  1
  Dy  Dy1  1  0.500000  0.000000  0.476959  1
  Dy  Dy2  1  0.500000  0.817263  0.206231  1
  Dy  Dy3  1  0.500000  0.182737  0.206231  1
  Dy  Dy4  1  0.000000  0.682488  0.793701  1
  Dy  Dy5  1  0.000000  0.317512  0.793701  1
  Mn  Mn6  1  0.500000  0.500000  0.151095  1
  Mn  Mn7  1  0.000000  0.000000  0.849174  1
  Co  Co8  1  0.500000  0.000000  0.017150  1
  Ni  Ni9  1  0.500000  0.500000  0.698259  1
  Ni  Ni10  1  0.000000  0.000000  0.300280  1
  Ni  Ni11  1  0.000000  0.500000  0.982445  1
  Ni  Ni12  1  0.500000  0.333424  0.993891  1
  Ni  Ni13  1  0.500000  0.666576  0.993891  1
  Ni  Ni14  1  0.000000  0.166028  0.005940  1
  Ni  Ni15  1  0.000000  0.833972  0.005940  1
  Ni  Ni16  1  0.500000  0.302404  0.427077  1
  Ni  Ni17  1  0.500000  0.697596  0.427077  1
  Ni  Ni18  1  0.000000  0.197278  0.572796  1
  Ni  Ni19  1  0.000000  0.802722  0.572796  1
  Ni  Ni20  1  0.500000  0.879870  0.708643  1
  Ni  Ni21  1  0.500000  0.120130  0.708643  1
  Ni  Ni22  1  0.000000  0.620174  0.292138  1
  Ni  Ni23  1  0.000000  0.379826  0.292138  1
  As  As24  1  0.500000  0.500000  0.875724  1
  As  As25  1  0.000000  0.000000  0.122328  1
  As  As26  1  0.500000  0.500000  0.348056  1
  As  As27  1  0.000000  0.000000  0.652525  1
  As  As28  1  0.500000  0.313884  0.613952  1
  As  As29  1  0.500000  0.686116  0.613952  1
  As  As30  1  0.000000  0.185476  0.385991  1
  As  As31  1  0.000000  0.814524  0.385991  1
  As  As32  1  0.500000  0.845666  0.891791  1
  As  As33  1  0.500000  0.154334  0.891791  1
  As  As34  1  0.000000  0.654909  0.108976  1
  As  As35  1  0.000000  0.345091  0.108976  1
