# generated using pymatgen
data_FeNi(S2O7)2
_symmetry_space_group_name_H-M   'P 1'
_cell_length_a   4.97252965
_cell_length_b   7.10857176
_cell_length_c   8.36574238
_cell_angle_alpha   92.88903340
_cell_angle_beta   93.59774769
_cell_angle_gamma   105.86432404
_symmetry_Int_Tables_number   1
_chemical_formula_structural   FeNi(S2O7)2
_chemical_formula_sum   'Fe1 Ni1 S4 O14'
_cell_volume   283.18140528
_cell_formula_units_Z   1
loop_
 _symmetry_equiv_pos_site_id
 _symmetry_equiv_pos_as_xyz
  1  'x, y, z'
loop_
 _atom_site_type_symbol
 _atom_site_label
 _atom_site_symmetry_multiplicity
 _atom_site_fract_x
 _atom_site_fract_y
 _atom_site_fract_z
 _atom_site_occupancy
  Fe  Fe0  1  0.500000  0.000000  0.500000  1
  Ni  Ni1  1  0.000000  0.500000  0.000000  1
  S  S2  1  0.506079  0.644041  0.772689  1
  S  S3  1  0.493921  0.355959  0.227311  1
  S  S4  1  0.131562  0.253805  0.690587  1
  S  S5  1  0.868438  0.746195  0.309413  1
  O  O6  1  0.729953  0.558162  0.820279  1
  O  O7  1  0.270047  0.441838  0.179721  1
  O  O8  1  0.338401  0.681501  0.901548  1
  O  O9  1  0.661599  0.318499  0.098452  1
  O  O10  1  0.594240  0.806499  0.672495  1
  O  O11  1  0.405760  0.193501  0.327505  1
  O  O12  1  0.288973  0.477789  0.642759  1
  O  O13  1  0.711027  0.522211  0.357241  1
  O  O14  1  0.906652  0.198409  0.563526  1
  O  O15  1  0.093348  0.801591  0.436474  1
  O  O16  1  0.338319  0.142706  0.682211  1
  O  O17  1  0.661681  0.857294  0.317789  1
  O  O18  1  0.047107  0.270552  0.853458  1
  O  O19  1  0.952893  0.729448  0.146542  1
