# generated using pymatgen
data_HoIn3B4AsIr9
_symmetry_space_group_name_H-M   'P 1'
_cell_length_a   5.57945000
_cell_length_b   5.57944912
_cell_length_c   10.47007000
_cell_angle_alpha   90.00000000
_cell_angle_beta   90.00000000
_cell_angle_gamma   119.99999336
_symmetry_Int_Tables_number   1
_chemical_formula_structural   HoIn3B4AsIr9
_chemical_formula_sum   'Ho1 In3 B4 As1 Ir9'
_cell_volume   282.26885237
_cell_formula_units_Z   1
loop_
 _symmetry_equiv_pos_site_id
 _symmetry_equiv_pos_as_xyz
  1  'x, y, z'
loop_
 _atom_site_type_symbol
 _atom_site_label
 _atom_site_symmetry_multiplicity
 _atom_site_fract_x
 _atom_site_fract_y
 _atom_site_fract_z
 _atom_site_occupancy
  Ho  Ho0  1  0.000000  0.000000  0.917292  1
  In  In1  1  0.666667  0.333333  0.505932  1
  In  In2  1  0.000000  0.000000  0.334144  1
  In  In3  1  0.333333  0.666667  0.505932  1
  B  B4  1  0.666667  0.333333  0.154193  1
  B  B5  1  0.333333  0.666667  0.862518  1
  B  B6  1  0.666667  0.333333  0.862518  1
  B  B7  1  0.333333  0.666667  0.154193  1
  As  As8  1  0.000000  0.000000  0.641145  1
  Ir  Ir9  1  0.000000  0.498261  0.282830  1
  Ir  Ir10  1  0.433708  0.000000  0.728563  1
  Ir  Ir11  1  0.498261  0.000000  0.282830  1
  Ir  Ir12  1  0.000000  0.491897  0.009318  1
  Ir  Ir13  1  0.566292  0.566292  0.728563  1
  Ir  Ir14  1  0.000000  0.433708  0.728563  1
  Ir  Ir15  1  0.508103  0.508103  0.009318  1
  Ir  Ir16  1  0.491897  0.000000  0.009318  1
  Ir  Ir17  1  0.501739  0.501739  0.282830  1
