# generated using pymatgen
data_Ta4V4GaGe3
_symmetry_space_group_name_H-M   'P 1'
_cell_length_a   3.41008900
_cell_length_b   6.70302001
_cell_length_c   8.09929424
_cell_angle_alpha   89.89886298
_cell_angle_beta   90.00000000
_cell_angle_gamma   90.00000000
_symmetry_Int_Tables_number   1
_chemical_formula_structural   Ta4V4GaGe3
_chemical_formula_sum   'Ta4 V4 Ga1 Ge3'
_cell_volume   185.13252722
_cell_formula_units_Z   1
loop_
 _symmetry_equiv_pos_site_id
 _symmetry_equiv_pos_as_xyz
  1  'x, y, z'
loop_
 _atom_site_type_symbol
 _atom_site_label
 _atom_site_symmetry_multiplicity
 _atom_site_fract_x
 _atom_site_fract_y
 _atom_site_fract_z
 _atom_site_occupancy
  Ta  Ta0  1  0.250000  0.553013  0.166093  1
  Ta  Ta1  1  0.750000  0.445562  0.833513  1
  Ta  Ta2  1  0.750000  0.948770  0.664546  1
  Ta  Ta3  1  0.250000  0.051578  0.333362  1
  V  V4  1  0.250000  0.627252  0.561429  1
  V  V5  1  0.750000  0.371752  0.438074  1
  V  V6  1  0.750000  0.874075  0.063524  1
  V  V7  1  0.250000  0.128347  0.938811  1
  Ga  Ga8  1  0.250000  0.749848  0.861549  1
  Ge  Ge9  1  0.750000  0.250642  0.138442  1
  Ge  Ge10  1  0.750000  0.748915  0.362131  1
  Ge  Ge11  1  0.250000  0.250249  0.638527  1
