# generated using pymatgen
data_NaTb5DyCo6Sn23
_symmetry_space_group_name_H-M   'P 1'
_cell_length_a   9.73564102
_cell_length_b   9.73517710
_cell_length_c   9.97667602
_cell_angle_alpha   89.99999951
_cell_angle_beta   89.99437868
_cell_angle_gamma   119.99842488
_symmetry_Int_Tables_number   1
_chemical_formula_structural   NaTb5DyCo6Sn23
_chemical_formula_sum   'Na1 Tb5 Dy1 Co6 Sn23'
_cell_volume   818.90175006
_cell_formula_units_Z   1
loop_
 _symmetry_equiv_pos_site_id
 _symmetry_equiv_pos_as_xyz
  1  'x, y, z'
loop_
 _atom_site_type_symbol
 _atom_site_label
 _atom_site_symmetry_multiplicity
 _atom_site_fract_x
 _atom_site_fract_y
 _atom_site_fract_z
 _atom_site_occupancy
  Na  Na0  1  0.000000  0.000000  0.999997  1
  Tb  Tb1  1  0.479764  0.520216  0.305266  1
  Tb  Tb2  1  0.520226  0.479765  0.694739  1
  Tb  Tb3  1  0.479764  0.959549  0.305266  1
  Tb  Tb4  1  0.520226  0.040461  0.694739  1
  Tb  Tb5  1  0.040458  0.520229  0.305296  1
  Dy  Dy6  1  0.959775  0.479888  0.694738  1
  Co  Co7  1  0.829594  0.170412  0.200917  1
  Co  Co8  1  0.170312  0.829439  0.799046  1
  Co  Co9  1  0.829594  0.659180  0.200917  1
  Co  Co10  1  0.170312  0.340875  0.799046  1
  Co  Co11  1  0.340814  0.170406  0.200905  1
  Co  Co12  1  0.659200  0.829601  0.799077  1
  Sn  Sn13  1  0.343822  0.999974  0.999987  1
  Sn  Sn14  1  0.656170  0.000008  0.999996  1
  Sn  Sn15  1  0.000004  0.343860  0.999927  1
  Sn  Sn16  1  0.000004  0.656144  0.999927  1
  Sn  Sn17  1  0.656170  0.656161  0.999996  1
  Sn  Sn18  1  0.343822  0.343848  0.999987  1
  Sn  Sn19  1  0.333212  0.666606  0.814886  1
  Sn  Sn20  1  0.666679  0.333339  0.185119  1
  Sn  Sn21  1  0.999986  0.999993  0.500006  1
  Sn  Sn22  1  0.781609  0.218549  0.453902  1
  Sn  Sn23  1  0.218273  0.781349  0.546301  1
  Sn  Sn24  1  0.781609  0.563060  0.453902  1
  Sn  Sn25  1  0.218273  0.436923  0.546301  1
  Sn  Sn26  1  0.436929  0.218464  0.453796  1
  Sn  Sn27  1  0.563084  0.781542  0.546208  1
  Sn  Sn28  1  0.333326  0.666663  0.115955  1
  Sn  Sn29  1  0.666903  0.333451  0.883892  1
  Sn  Sn30  1  0.115920  0.884056  0.271811  1
  Sn  Sn31  1  0.884124  0.116103  0.728173  1
  Sn  Sn32  1  0.115920  0.231864  0.271811  1
  Sn  Sn33  1  0.884124  0.768020  0.728173  1
  Sn  Sn34  1  0.768163  0.884081  0.271793  1
  Sn  Sn35  1  0.231841  0.115920  0.728202  1
