# generated using pymatgen
data_Hf6Ti16Ir3Os4
_symmetry_space_group_name_H-M   'P 1'
_cell_length_a   8.94027407
_cell_length_b   8.93577995
_cell_length_c   8.93313998
_cell_angle_alpha   60.04307040
_cell_angle_beta   59.99771050
_cell_angle_gamma   59.96382905
_symmetry_Int_Tables_number   1
_chemical_formula_structural   Hf6Ti16Ir3Os4
_chemical_formula_sum   'Hf6 Ti16 Ir3 Os4'
_cell_volume   504.64636758
_cell_formula_units_Z   1
loop_
 _symmetry_equiv_pos_site_id
 _symmetry_equiv_pos_as_xyz
  1  'x, y, z'
loop_
 _atom_site_type_symbol
 _atom_site_label
 _atom_site_symmetry_multiplicity
 _atom_site_fract_x
 _atom_site_fract_y
 _atom_site_fract_z
 _atom_site_occupancy
  Hf  Hf0  1  0.682959  0.316172  0.317041  1
  Hf  Hf1  1  0.317041  0.683828  0.682959  1
  Hf  Hf2  1  0.316857  0.683143  0.316857  1
  Hf  Hf3  1  0.683143  0.316857  0.683143  1
  Hf  Hf4  1  0.317505  0.316699  0.682495  1
  Hf  Hf5  1  0.682495  0.683301  0.317505  1
  Ti  Ti6  1  0.331046  0.331026  0.332631  1
  Ti  Ti7  1  0.668954  0.668974  0.667369  1
  Ti  Ti8  1  0.331762  0.330174  0.006338  1
  Ti  Ti9  1  0.332631  0.005297  0.331046  1
  Ti  Ti10  1  0.668238  0.669826  0.993662  1
  Ti  Ti11  1  0.667369  0.994703  0.668954  1
  Ti  Ti12  1  0.006338  0.331726  0.331762  1
  Ti  Ti13  1  0.993662  0.668274  0.668238  1
  Ti  Ti14  1  0.119452  0.116393  0.116790  1
  Ti  Ti15  1  0.880548  0.883607  0.883210  1
  Ti  Ti16  1  0.118447  0.117996  0.648175  1
  Ti  Ti17  1  0.116790  0.647365  0.119452  1
  Ti  Ti18  1  0.881553  0.882004  0.351825  1
  Ti  Ti19  1  0.883210  0.352635  0.880548  1
  Ti  Ti20  1  0.648175  0.115382  0.118447  1
  Ti  Ti21  1  0.351825  0.884618  0.881553  1
  Ir  Ir22  1  0.000000  0.500000  0.000000  1
  Ir  Ir23  1  0.000000  0.000000  0.500000  1
  Ir  Ir24  1  0.500000  0.500000  0.000000  1
  Os  Os25  1  0.500000  0.000000  0.000000  1
  Os  Os26  1  0.000000  0.500000  0.500000  1
  Os  Os27  1  0.500000  0.000000  0.500000  1
  Os  Os28  1  0.000000  0.000000  0.000000  1
