# generated using pymatgen
data_Ba4Ni(IrO6)2
_symmetry_space_group_name_H-M   'P 1'
_cell_length_a   5.82512205
_cell_length_b   5.82437775
_cell_length_c   10.11464774
_cell_angle_alpha   90.00207374
_cell_angle_beta   73.27228149
_cell_angle_gamma   119.99439111
_symmetry_Int_Tables_number   1
_chemical_formula_structural   Ba4Ni(IrO6)2
_chemical_formula_sum   'Ba4 Ni1 Ir2 O12'
_cell_volume   280.31766556
_cell_formula_units_Z   1
loop_
 _symmetry_equiv_pos_site_id
 _symmetry_equiv_pos_as_xyz
  1  'x, y, z'
loop_
 _atom_site_type_symbol
 _atom_site_label
 _atom_site_symmetry_multiplicity
 _atom_site_fract_x
 _atom_site_fract_y
 _atom_site_fract_z
 _atom_site_occupancy
  Ba  Ba0  1  0.570045  0.285038  0.144872  1
  Ba  Ba1  1  0.419693  0.710066  0.871019  1
  Ba  Ba2  1  0.250935  0.125535  0.623834  1
  Ba  Ba3  1  0.745288  0.872528  0.381569  1
  Ni  Ni4  1  0.820490  0.410237  0.769651  1
  Ir  Ir5  1  0.999499  0.999820  0.000859  1
  Ir  Ir6  1  0.010063  0.504949  0.484899  1
  O  O7  1  0.769832  0.613455  0.616832  1
  O  O8  1  0.226696  0.613318  0.616884  1
  O  O9  1  0.769839  0.156419  0.616859  1
  O  O10  1  0.238161  0.378774  0.382930  1
  O  O11  1  0.757702  0.378736  0.382998  1
  O  O12  1  0.238090  0.859082  0.382860  1
  O  O13  1  0.079653  0.808236  0.111608  1
  O  O14  1  0.617194  0.808528  0.111747  1
  O  O15  1  0.079756  0.271625  0.111542  1
  O  O16  1  0.921422  0.198640  0.879375  1
  O  O17  1  0.397959  0.198891  0.879414  1
  O  O18  1  0.921685  0.723123  0.879251  1
