# generated using pymatgen
data_V2B6Mo5W3
_symmetry_space_group_name_H-M   'P 1'
_cell_length_a   5.82757162
_cell_length_b   5.82757103
_cell_length_c   6.82724388
_cell_angle_alpha   115.31962663
_cell_angle_beta   115.20786042
_cell_angle_gamma   90.00032749
_symmetry_Int_Tables_number   1
_chemical_formula_structural   V2B6Mo5W3
_chemical_formula_sum   'V2 B6 Mo5 W3'
_cell_volume   184.86228422
_cell_formula_units_Z   1
loop_
 _symmetry_equiv_pos_site_id
 _symmetry_equiv_pos_as_xyz
  1  'x, y, z'
loop_
 _atom_site_type_symbol
 _atom_site_label
 _atom_site_symmetry_multiplicity
 _atom_site_fract_x
 _atom_site_fract_y
 _atom_site_fract_z
 _atom_site_occupancy
  V  V0  1  0.500899  0.501658  0.002079  1
  V  V1  1  0.000421  0.001180  0.002079  1
  B  B2  1  0.250646  0.250649  0.502264  1
  B  B3  1  0.751615  0.751618  0.502264  1
  B  B4  1  0.618419  0.119349  0.999599  1
  B  B5  1  0.380250  0.881180  0.999599  1
  B  B6  1  0.880156  0.618999  0.999155  1
  B  B7  1  0.120049  0.379242  0.999291  1
  Mo  Mo8  1  0.527408  0.686279  0.713686  1
  Mo  Mo9  1  0.972149  0.472253  0.284646  1
  Mo  Mo10  1  0.312393  0.812497  0.284646  1
  Mo  Mo11  1  0.812525  0.973520  0.286045  1
  Mo  Mo12  1  0.473679  0.313591  0.287270  1
  W  W13  1  0.026939  0.526752  0.712852  1
  W  W14  1  0.686100  0.185913  0.712852  1
  W  W15  1  0.186352  0.025321  0.711673  1
