# generated using pymatgen
data_MnZn2(MoO4)3
_symmetry_space_group_name_H-M   'P 1'
_cell_length_a   7.13116582
_cell_length_b   8.57069019
_cell_length_c   9.99826324
_cell_angle_alpha   97.14179105
_cell_angle_beta   106.55664484
_cell_angle_gamma   101.87578055
_symmetry_Int_Tables_number   1
_chemical_formula_structural   MnZn2(MoO4)3
_chemical_formula_sum   'Mn2 Zn4 Mo6 O24'
_cell_volume   562.19990559
_cell_formula_units_Z   2
loop_
 _symmetry_equiv_pos_site_id
 _symmetry_equiv_pos_as_xyz
  1  'x, y, z'
loop_
 _atom_site_type_symbol
 _atom_site_label
 _atom_site_symmetry_multiplicity
 _atom_site_fract_x
 _atom_site_fract_y
 _atom_site_fract_z
 _atom_site_occupancy
  Mn  Mn0  1  0.251777  0.693746  0.910927  1
  Mn  Mn1  1  0.748223  0.306254  0.089073  1
  Zn  Zn2  1  0.531818  0.698613  0.484765  1
  Zn  Zn3  1  0.468182  0.301387  0.515235  1
  Zn  Zn4  1  0.966049  0.885526  0.710027  1
  Zn  Zn5  1  0.033951  0.114474  0.289973  1
  Mo  Mo6  1  0.502893  0.987120  0.752192  1
  Mo  Mo7  1  0.497107  0.012880  0.247808  1
  Mo  Mo8  1  0.698458  0.602839  0.834228  1
  Mo  Mo9  1  0.301542  0.397161  0.165772  1
  Mo  Mo10  1  0.980576  0.710943  0.376426  1
  Mo  Mo11  1  0.019424  0.289057  0.623574  1
  O  O12  1  0.263983  0.870296  0.762817  1
  O  O13  1  0.736017  0.129704  0.237183  1
  O  O14  1  0.558501  0.708101  0.918110  1
  O  O15  1  0.441499  0.291899  0.081890  1
  O  O16  1  0.553752  0.517530  0.647694  1
  O  O17  1  0.446248  0.482470  0.352306  1
  O  O18  1  0.550612  0.868591  0.355285  1
  O  O19  1  0.449388  0.131409  0.644715  1
  O  O20  1  0.658667  0.093719  0.922806  1
  O  O21  1  0.341333  0.906281  0.077194  1
  O  O22  1  0.643790  0.858904  0.677575  1
  O  O23  1  0.356210  0.141096  0.322425  1
  O  O24  1  0.019980  0.119822  0.713644  1
  O  O25  1  0.980020  0.880178  0.286356  1
  O  O26  1  0.053184  0.265178  0.148866  1
  O  O27  1  0.946816  0.734822  0.851134  1
  O  O28  1  0.146394  0.473068  0.749302  1
  O  O29  1  0.853606  0.526932  0.250698  1
  O  O30  1  0.141925  0.264980  0.485083  1
  O  O31  1  0.858075  0.735020  0.514917  1
  O  O32  1  0.253027  0.556895  0.076567  1
  O  O33  1  0.746973  0.443105  0.923433  1
  O  O34  1  0.235413  0.709065  0.460894  1
  O  O35  1  0.764587  0.290935  0.539106  1
