# generated using pymatgen
data_Tm3Lu3Bi2Mo
_symmetry_space_group_name_H-M   'P 1'
_cell_length_a   8.15960700
_cell_length_b   8.15960643
_cell_length_c   4.32930700
_cell_angle_alpha   90.00000000
_cell_angle_beta   90.00000000
_cell_angle_gamma   120.00000637
_symmetry_Int_Tables_number   1
_chemical_formula_structural   Tm3Lu3Bi2Mo
_chemical_formula_sum   'Tm3 Lu3 Bi2 Mo1'
_cell_volume   249.62463384
_cell_formula_units_Z   1
loop_
 _symmetry_equiv_pos_site_id
 _symmetry_equiv_pos_as_xyz
  1  'x, y, z'
loop_
 _atom_site_type_symbol
 _atom_site_label
 _atom_site_symmetry_multiplicity
 _atom_site_fract_x
 _atom_site_fract_y
 _atom_site_fract_z
 _atom_site_occupancy
  Tm  Tm0  1  0.613319  0.000000  0.000000  1
  Tm  Tm1  1  0.000000  0.613319  0.000000  1
  Tm  Tm2  1  0.386681  0.386681  0.000000  1
  Lu  Lu3  1  0.233936  0.000000  0.500000  1
  Lu  Lu4  1  0.000000  0.233936  0.500000  1
  Lu  Lu5  1  0.766064  0.766064  0.500000  1
  Bi  Bi6  1  0.333333  0.666667  0.500000  1
  Bi  Bi7  1  0.666667  0.333333  0.500000  1
  Mo  Mo8  1  0.000000  0.000000  0.000000  1
