# generated using pymatgen
data_Y8Re13B12
_symmetry_space_group_name_H-M   'P 1'
_cell_length_a   7.80781596
_cell_length_b   7.80781638
_cell_length_c   7.80781610
_cell_angle_alpha   86.37499529
_cell_angle_beta   86.37499412
_cell_angle_gamma   86.37500254
_symmetry_Int_Tables_number   1
_chemical_formula_structural   Y8Re13B12
_chemical_formula_sum   'Y8 Re13 B12'
_cell_volume   473.23832291
_cell_formula_units_Z   1
loop_
 _symmetry_equiv_pos_site_id
 _symmetry_equiv_pos_as_xyz
  1  'x, y, z'
loop_
 _atom_site_type_symbol
 _atom_site_label
 _atom_site_symmetry_multiplicity
 _atom_site_fract_x
 _atom_site_fract_y
 _atom_site_fract_z
 _atom_site_occupancy
  Y  Y0  1  0.641057  0.641057  0.641057  1
  Y  Y1  1  0.358943  0.358943  0.358943  1
  Y  Y2  1  0.188857  0.188857  0.687645  1
  Y  Y3  1  0.687645  0.188857  0.188857  1
  Y  Y4  1  0.188857  0.687645  0.188857  1
  Y  Y5  1  0.811143  0.811143  0.312355  1
  Y  Y6  1  0.312355  0.811143  0.811143  1
  Y  Y7  1  0.811143  0.312355  0.811143  1
  Re  Re8  1  0.000000  0.000000  0.000000  1
  Re  Re9  1  0.596784  0.063464  0.596784  1
  Re  Re10  1  0.596784  0.596784  0.063464  1
  Re  Re11  1  0.063464  0.596784  0.596784  1
  Re  Re12  1  0.403216  0.936536  0.403216  1
  Re  Re13  1  0.403216  0.403216  0.936536  1
  Re  Re14  1  0.936536  0.403216  0.403216  1
  Re  Re15  1  0.922766  0.922766  0.670872  1
  Re  Re16  1  0.670872  0.922766  0.922766  1
  Re  Re17  1  0.922766  0.670872  0.922766  1
  Re  Re18  1  0.077234  0.077234  0.329128  1
  Re  Re19  1  0.329128  0.077234  0.077234  1
  Re  Re20  1  0.077234  0.329128  0.077234  1
  B  B21  1  0.151957  0.848043  0.500000  1
  B  B22  1  0.500000  0.151957  0.848043  1
  B  B23  1  0.848043  0.500000  0.151957  1
  B  B24  1  0.500000  0.848043  0.151957  1
  B  B25  1  0.151957  0.500000  0.848043  1
  B  B26  1  0.848043  0.151957  0.500000  1
  B  B27  1  0.671670  0.500000  0.328330  1
  B  B28  1  0.328330  0.671670  0.500000  1
  B  B29  1  0.500000  0.328330  0.671670  1
  B  B30  1  0.328330  0.500000  0.671670  1
  B  B31  1  0.671670  0.328330  0.500000  1
  B  B32  1  0.500000  0.671670  0.328330  1
