# generated using pymatgen
data_SrU4O11
_symmetry_space_group_name_H-M   'P 1'
_cell_length_a   6.80297000
_cell_length_b   6.80296964
_cell_length_c   13.16584600
_cell_angle_alpha   90.00000000
_cell_angle_beta   90.00000000
_cell_angle_gamma   119.99999204
_symmetry_Int_Tables_number   1
_chemical_formula_structural   SrU4O11
_chemical_formula_sum   'Sr2 U8 O22'
_cell_volume   527.68715888
_cell_formula_units_Z   2
loop_
 _symmetry_equiv_pos_site_id
 _symmetry_equiv_pos_as_xyz
  1  'x, y, z'
loop_
 _atom_site_type_symbol
 _atom_site_label
 _atom_site_symmetry_multiplicity
 _atom_site_fract_x
 _atom_site_fract_y
 _atom_site_fract_z
 _atom_site_occupancy
  Sr  Sr0  1  0.666667  0.333333  0.250000  1
  Sr  Sr1  1  0.333333  0.666667  0.750000  1
  U  U2  1  0.333333  0.666667  0.250000  1
  U  U3  1  0.666667  0.333333  0.750000  1
  U  U4  1  0.354319  0.000000  0.000000  1
  U  U5  1  0.354319  0.354319  0.500000  1
  U  U6  1  0.000000  0.645681  0.500000  1
  U  U7  1  0.000000  0.354319  0.000000  1
  U  U8  1  0.645681  0.645681  0.000000  1
  U  U9  1  0.645681  0.000000  0.500000  1
  O  O10  1  0.333333  0.666667  0.536304  1
  O  O11  1  0.666667  0.333333  0.036304  1
  O  O12  1  0.666667  0.333333  0.463696  1
  O  O13  1  0.333333  0.666667  0.963696  1
  O  O14  1  0.742730  0.000000  0.000000  1
  O  O15  1  0.742730  0.742730  0.500000  1
  O  O16  1  0.000000  0.257270  0.500000  1
  O  O17  1  0.000000  0.742730  0.000000  1
  O  O18  1  0.257270  0.257270  0.000000  1
  O  O19  1  0.257270  0.000000  0.500000  1
  O  O20  1  0.363195  0.416266  0.340967  1
  O  O21  1  0.946930  0.363195  0.840967  1
  O  O22  1  0.416266  0.053070  0.840967  1
  O  O23  1  0.583734  0.946930  0.340967  1
  O  O24  1  0.053070  0.636805  0.340967  1
  O  O25  1  0.946930  0.583734  0.659033  1
  O  O26  1  0.636805  0.053070  0.659033  1
  O  O27  1  0.636805  0.583734  0.840967  1
  O  O28  1  0.416266  0.363195  0.659033  1
  O  O29  1  0.583734  0.636805  0.159033  1
  O  O30  1  0.053070  0.416266  0.159033  1
  O  O31  1  0.363195  0.946930  0.159033  1
