# generated using pymatgen
data_TbCe4Y5(AgPb3)2
_symmetry_space_group_name_H-M   'P 1'
_cell_length_a   9.56822900
_cell_length_b   9.56627324
_cell_length_c   6.49504200
_cell_angle_alpha   90.00000000
_cell_angle_beta   90.00000000
_cell_angle_gamma   119.99323909
_symmetry_Int_Tables_number   1
_chemical_formula_structural   TbCe4Y5(AgPb3)2
_chemical_formula_sum   'Tb1 Ce4 Y5 Ag2 Pb6'
_cell_volume   514.89244700
_cell_formula_units_Z   1
loop_
 _symmetry_equiv_pos_site_id
 _symmetry_equiv_pos_as_xyz
  1  'x, y, z'
loop_
 _atom_site_type_symbol
 _atom_site_label
 _atom_site_symmetry_multiplicity
 _atom_site_fract_x
 _atom_site_fract_y
 _atom_site_fract_z
 _atom_site_occupancy
  Tb  Tb0  1  0.000000  0.724806  0.750000  1
  Ce  Ce1  1  0.666829  0.333514  0.500135  1
  Ce  Ce2  1  0.333171  0.666686  0.500135  1
  Ce  Ce3  1  0.333171  0.666686  0.999865  1
  Ce  Ce4  1  0.666829  0.333514  0.999865  1
  Y  Y5  1  0.724480  0.724500  0.250000  1
  Y  Y6  1  0.275520  0.000019  0.250000  1
  Y  Y7  1  0.000000  0.275122  0.250000  1
  Y  Y8  1  0.275503  0.275754  0.750000  1
  Y  Y9  1  0.724497  0.000253  0.750000  1
  Ag  Ag10  1  0.000000  0.999111  0.500928  1
  Ag  Ag11  1  0.000000  0.999111  0.999072  1
  Pb  Pb12  1  0.373435  0.373482  0.250000  1
  Pb  Pb13  1  0.626565  0.000047  0.250000  1
  Pb  Pb14  1  0.000000  0.626767  0.250000  1
  Pb  Pb15  1  0.627122  0.626977  0.750000  1
  Pb  Pb16  1  0.372878  0.999855  0.750000  1
  Pb  Pb17  1  0.000000  0.373794  0.750000  1
