# generated using pymatgen
data_TbLu3Zr3PtF28
_symmetry_space_group_name_H-M   'P 1'
_cell_length_a   5.65034409
_cell_length_b   8.94695492
_cell_length_c   12.04259136
_cell_angle_alpha   62.64887554
_cell_angle_beta   90.13247754
_cell_angle_gamma   89.96814327
_symmetry_Int_Tables_number   1
_chemical_formula_structural   TbLu3Zr3PtF28
_chemical_formula_sum   'Tb1 Lu3 Zr3 Pt1 F28'
_cell_volume   540.73279837
_cell_formula_units_Z   1
loop_
 _symmetry_equiv_pos_site_id
 _symmetry_equiv_pos_as_xyz
  1  'x, y, z'
loop_
 _atom_site_type_symbol
 _atom_site_label
 _atom_site_symmetry_multiplicity
 _atom_site_fract_x
 _atom_site_fract_y
 _atom_site_fract_z
 _atom_site_occupancy
  Tb  Tb0  1  0.241480  0.818033  0.760900  1
  Lu  Lu1  1  0.257625  0.818187  0.269256  1
  Lu  Lu2  1  0.743098  0.187331  0.731709  1
  Lu  Lu3  1  0.757219  0.181848  0.234629  1
  Zr  Zr4  1  0.756421  0.726772  0.047352  1
  Zr  Zr5  1  0.244549  0.271623  0.955212  1
  Zr  Zr6  1  0.257093  0.277781  0.453557  1
  Pt  Pt7  1  0.740853  0.727244  0.542220  1
  F  F8  1  0.939744  0.703734  0.416976  1
  F  F9  1  0.034017  0.288817  0.581323  1
  F  F10  1  0.469399  0.289250  0.080532  1
  F  F11  1  0.534302  0.709838  0.920572  1
  F  F12  1  0.486230  0.734554  0.156682  1
  F  F13  1  0.519234  0.268042  0.847014  1
  F  F14  1  0.982919  0.264634  0.347886  1
  F  F15  1  0.026250  0.726830  0.635838  1
  F  F16  1  0.973666  0.750209  0.175822  1
  F  F17  1  0.031957  0.247918  0.825477  1
  F  F18  1  0.473763  0.254024  0.325046  1
  F  F19  1  0.550628  0.741579  0.674514  1
  F  F20  1  0.772923  0.471331  0.142555  1
  F  F21  1  0.219827  0.525772  0.857208  1
  F  F22  1  0.265491  0.532863  0.358778  1
  F  F23  1  0.731528  0.479827  0.641452  1
  F  F24  1  0.947002  0.271849  0.053493  1
  F  F25  1  0.053752  0.724998  0.950961  1
  F  F26  1  0.445280  0.720026  0.455548  1
  F  F27  1  0.556301  0.281052  0.549286  1
  F  F28  1  0.743505  0.975116  0.449311  1
  F  F29  1  0.261107  0.023103  0.554128  1
  F  F30  1  0.245199  0.018101  0.062391  1
  F  F31  1  0.755839  0.980795  0.940119  1
  F  F32  1  0.564920  0.975198  0.239659  1
  F  F33  1  0.431274  0.032438  0.762278  1
  F  F34  1  0.065769  0.022281  0.268506  1
  F  F35  1  0.919835  0.977003  0.731807  1
