# generated using pymatgen
data_Sc8CoBi4Os
_symmetry_space_group_name_H-M   'P 1'
_cell_length_a   8.31010771
_cell_length_b   8.31011215
_cell_length_c   8.31010707
_cell_angle_alpha   96.33142108
_cell_angle_beta   96.33090101
_cell_angle_gamma   141.21020823
_symmetry_Int_Tables_number   1
_chemical_formula_structural   Sc8CoBi4Os
_chemical_formula_sum   'Sc8 Co1 Bi4 Os1'
_cell_volume   339.11339324
_cell_formula_units_Z   1
loop_
 _symmetry_equiv_pos_site_id
 _symmetry_equiv_pos_as_xyz
  1  'x, y, z'
loop_
 _atom_site_type_symbol
 _atom_site_label
 _atom_site_symmetry_multiplicity
 _atom_site_fract_x
 _atom_site_fract_y
 _atom_site_fract_z
 _atom_site_occupancy
  Sc  Sc0  1  0.696803  0.582685  0.274602  1
  Sc  Sc1  1  0.582681  0.308084  0.885879  1
  Sc  Sc2  1  0.077794  0.191916  0.274597  1
  Sc  Sc3  1  0.917311  0.803197  0.725403  1
  Sc  Sc4  1  0.191917  0.917315  0.114118  1
  Sc  Sc5  1  0.803206  0.077792  0.885885  1
  Sc  Sc6  1  0.308093  0.422208  0.725414  1
  Sc  Sc7  1  0.422207  0.696803  0.114114  1
  Co  Co8  1  0.749987  0.750000  0.999987  1
  Bi  Bi9  1  0.139049  0.639043  0.778093  1
  Bi  Bi10  1  0.360956  0.139049  0.500004  1
  Bi  Bi11  1  0.639048  0.860957  0.500006  1
  Bi  Bi12  1  0.860954  0.360951  0.221904  1
  Os  Os13  1  0.249995  0.250000  0.999995  1
