# generated using pymatgen
data_Tb6Al24CuRu7
_symmetry_space_group_name_H-M   'P 1'
_cell_length_a   8.83099972
_cell_length_b   8.83099915
_cell_length_c   9.55706809
_cell_angle_alpha   89.75954330
_cell_angle_beta   90.24045507
_cell_angle_gamma   119.73158994
_symmetry_Int_Tables_number   1
_chemical_formula_structural   Tb6Al24CuRu7
_chemical_formula_sum   'Tb6 Al24 Cu1 Ru7'
_cell_volume   647.19953513
_cell_formula_units_Z   1
loop_
 _symmetry_equiv_pos_site_id
 _symmetry_equiv_pos_as_xyz
  1  'x, y, z'
loop_
 _atom_site_type_symbol
 _atom_site_label
 _atom_site_symmetry_multiplicity
 _atom_site_fract_x
 _atom_site_fract_y
 _atom_site_fract_z
 _atom_site_occupancy
  Tb  Tb0  1  0.386267  0.192190  0.251206  1
  Tb  Tb1  1  0.805745  0.194255  0.249261  1
  Tb  Tb2  1  0.807810  0.613733  0.251206  1
  Tb  Tb3  1  0.613733  0.807810  0.748794  1
  Tb  Tb4  1  0.194255  0.805745  0.750739  1
  Tb  Tb5  1  0.192190  0.386267  0.748794  1
  Al  Al6  1  0.439131  0.877805  0.251639  1
  Al  Al7  1  0.122195  0.560869  0.251639  1
  Al  Al8  1  0.438654  0.561346  0.249861  1
  Al  Al9  1  0.560869  0.122195  0.748361  1
  Al  Al10  1  0.877805  0.439131  0.748361  1
  Al  Al11  1  0.561346  0.438654  0.750139  1
  Al  Al12  1  0.163067  0.836933  0.423080  1
  Al  Al13  1  0.156648  0.323609  0.420975  1
  Al  Al14  1  0.676391  0.843352  0.420975  1
  Al  Al15  1  0.836933  0.163067  0.576920  1
  Al  Al16  1  0.843352  0.676391  0.579025  1
  Al  Al17  1  0.323609  0.156648  0.579025  1
  Al  Al18  1  0.837456  0.162544  0.922384  1
  Al  Al19  1  0.837082  0.675659  0.922146  1
  Al  Al20  1  0.324341  0.162918  0.922146  1
  Al  Al21  1  0.162544  0.837456  0.077616  1
  Al  Al22  1  0.162918  0.324341  0.077854  1
  Al  Al23  1  0.675659  0.837082  0.077854  1
  Al  Al24  1  0.331926  0.668074  0.518769  1
  Al  Al25  1  0.668074  0.331926  0.481231  1
  Al  Al26  1  0.666621  0.333379  0.014309  1
  Al  Al27  1  0.333379  0.666621  0.985691  1
  Al  Al28  1  0.000726  0.999274  0.249832  1
  Al  Al29  1  0.999274  0.000726  0.750168  1
  Cu  Cu30  1  0.500000  0.500000  0.500000  1
  Ru  Ru31  1  0.000000  0.000000  0.500000  1
  Ru  Ru32  1  0.000000  0.000000  0.000000  1
  Ru  Ru33  1  0.500000  0.000000  0.500000  1
  Ru  Ru34  1  0.000000  0.500000  0.500000  1
  Ru  Ru35  1  0.500000  0.000000  0.000000  1
  Ru  Ru36  1  0.000000  0.500000  0.000000  1
  Ru  Ru37  1  0.500000  0.500000  0.000000  1
