# generated using pymatgen
data_Cs2U(PtS2)3
_symmetry_space_group_name_H-M   'P 1'
_cell_length_a   11.56109546
_cell_length_b   9.87944071
_cell_length_c   9.20536259
_cell_angle_alpha   74.47523127
_cell_angle_beta   55.42294647
_cell_angle_gamma   50.10180807
_symmetry_Int_Tables_number   1
_chemical_formula_structural   Cs2U(PtS2)3
_chemical_formula_sum   'Cs4 U2 Pt6 S12'
_cell_volume   656.37356548
_cell_formula_units_Z   2
loop_
 _symmetry_equiv_pos_site_id
 _symmetry_equiv_pos_as_xyz
  1  'x, y, z'
loop_
 _atom_site_type_symbol
 _atom_site_label
 _atom_site_symmetry_multiplicity
 _atom_site_fract_x
 _atom_site_fract_y
 _atom_site_fract_z
 _atom_site_occupancy
  Cs  Cs0  1  0.250000  0.249999  0.250000  1
  Cs  Cs1  1  0.750000  0.750000  0.750000  1
  Cs  Cs2  1  0.311692  0.688308  0.311693  1
  Cs  Cs3  1  0.688308  0.311693  0.688308  1
  U  U4  1  0.168194  0.168195  0.831806  1
  U  U5  1  0.831805  0.831806  0.168195  1
  Pt  Pt6  1  0.831365  0.168635  0.168635  1
  Pt  Pt7  1  0.168636  0.831365  0.831364  1
  Pt  Pt8  1  0.826276  0.495978  0.173724  1
  Pt  Pt9  1  0.495978  0.826276  0.504022  1
  Pt  Pt10  1  0.504022  0.173724  0.495978  1
  Pt  Pt11  1  0.173725  0.504022  0.826275  1
  S  S12  1  0.014409  0.187700  0.192377  1
  S  S13  1  0.187701  0.014408  0.605513  1
  S  S14  1  0.605513  0.192377  0.187701  1
  S  S15  1  0.192377  0.605512  0.014408  1
  S  S16  1  0.985591  0.812299  0.807623  1
  S  S17  1  0.812299  0.985592  0.394487  1
  S  S18  1  0.394487  0.807623  0.812299  1
  S  S19  1  0.807623  0.394487  0.985592  1
  S  S20  1  0.401507  0.197077  0.802923  1
  S  S21  1  0.197077  0.401507  0.598493  1
  S  S22  1  0.598493  0.802924  0.197077  1
  S  S23  1  0.802923  0.598494  0.401507  1
