# generated using pymatgen
data_TbDy3TmRu2
_symmetry_space_group_name_H-M   'P 1'
_cell_length_a   6.34796245
_cell_length_b   7.24991409
_cell_length_c   8.46479887
_cell_angle_alpha   96.62306450
_cell_angle_beta   112.02198312
_cell_angle_gamma   90.00000480
_symmetry_Int_Tables_number   1
_chemical_formula_structural   TbDy3TmRu2
_chemical_formula_sum   'Tb2 Dy6 Tm2 Ru4'
_cell_volume   358.33964846
_cell_formula_units_Z   2
loop_
 _symmetry_equiv_pos_site_id
 _symmetry_equiv_pos_as_xyz
  1  'x, y, z'
loop_
 _atom_site_type_symbol
 _atom_site_label
 _atom_site_symmetry_multiplicity
 _atom_site_fract_x
 _atom_site_fract_y
 _atom_site_fract_z
 _atom_site_occupancy
  Tb  Tb0  1  0.791914  0.083967  0.814338  1
  Tb  Tb1  1  0.977576  0.416033  0.185662  1
  Dy  Dy2  1  0.208067  0.915856  0.185501  1
  Dy  Dy3  1  0.022566  0.584144  0.814499  1
  Dy  Dy4  1  0.206722  0.185048  0.566924  1
  Dy  Dy5  1  0.639798  0.314952  0.433076  1
  Dy  Dy6  1  0.793019  0.814790  0.432910  1
  Dy  Dy7  1  0.360109  0.685210  0.567090  1
  Tm  Tm8  1  0.422236  0.250000  0.000000  1
  Tm  Tm9  1  0.577475  0.750000  0.000000  1
  Ru  Ru10  1  0.603065  0.424910  0.781354  1
  Ru  Ru11  1  0.821710  0.075090  0.218646  1
  Ru  Ru12  1  0.397085  0.575443  0.218427  1
  Ru  Ru13  1  0.178659  0.924557  0.781573  1
