# generated using pymatgen
data_Dy3Mg3CuAgRu
_symmetry_space_group_name_H-M   'P 1'
_cell_length_a   7.66160400
_cell_length_b   7.66160290
_cell_length_c   3.91319500
_cell_angle_alpha   90.00000000
_cell_angle_beta   90.00000000
_cell_angle_gamma   119.99999613
_symmetry_Int_Tables_number   1
_chemical_formula_structural   Dy3Mg3CuAgRu
_chemical_formula_sum   'Dy3 Mg3 Cu1 Ag1 Ru1'
_cell_volume   198.93054767
_cell_formula_units_Z   1
loop_
 _symmetry_equiv_pos_site_id
 _symmetry_equiv_pos_as_xyz
  1  'x, y, z'
loop_
 _atom_site_type_symbol
 _atom_site_label
 _atom_site_symmetry_multiplicity
 _atom_site_fract_x
 _atom_site_fract_y
 _atom_site_fract_z
 _atom_site_occupancy
  Dy  Dy0  1  0.427097  0.392602  0.500000  1
  Dy  Dy1  1  0.607398  0.034494  0.500000  1
  Dy  Dy2  1  0.965506  0.572903  0.500000  1
  Mg  Mg3  1  0.751022  0.753041  0.000000  1
  Mg  Mg4  1  0.246959  0.997981  0.000000  1
  Mg  Mg5  1  0.002019  0.248978  0.000000  1
  Cu  Cu6  1  0.000000  0.000000  0.500000  1
  Ag  Ag7  1  0.333333  0.666667  0.000000  1
  Ru  Ru8  1  0.666667  0.333333  0.000000  1
