# generated using pymatgen
data_LiSmThAgAs4
_symmetry_space_group_name_H-M   'P 1'
_cell_length_a   4.05623200
_cell_length_b   4.06182100
_cell_length_c   10.38604800
_cell_angle_alpha   90.00000000
_cell_angle_beta   90.00000000
_cell_angle_gamma   90.00000000
_symmetry_Int_Tables_number   1
_chemical_formula_structural   LiSmThAgAs4
_chemical_formula_sum   'Li1 Sm1 Th1 Ag1 As4'
_cell_volume   171.11728971
_cell_formula_units_Z   1
loop_
 _symmetry_equiv_pos_site_id
 _symmetry_equiv_pos_as_xyz
  1  'x, y, z'
loop_
 _atom_site_type_symbol
 _atom_site_label
 _atom_site_symmetry_multiplicity
 _atom_site_fract_x
 _atom_site_fract_y
 _atom_site_fract_z
 _atom_site_occupancy
  Li  Li0  1  0.500000  0.500000  0.505107  1
  Sm  Sm1  1  0.000000  0.500000  0.775801  1
  Th  Th2  1  0.500000  0.000000  0.221290  1
  Ag  Ag3  1  0.000000  0.000000  0.502421  1
  As  As4  1  0.500000  0.000000  0.672056  1
  As  As5  1  0.000000  0.500000  0.324373  1
  As  As6  1  0.500000  0.500000  0.999681  1
  As  As7  1  0.000000  0.000000  0.999271  1
