# generated using pymatgen
data_Tm6Al24Fe2Ru5Pt
_symmetry_space_group_name_H-M   'P 1'
_cell_length_a   8.72628027
_cell_length_b   8.72627867
_cell_length_c   9.49243658
_cell_angle_alpha   90.00023548
_cell_angle_beta   89.99976390
_cell_angle_gamma   119.82892775
_symmetry_Int_Tables_number   1
_chemical_formula_structural   Tm6Al24Fe2Ru5Pt
_chemical_formula_sum   'Tm6 Al24 Fe2 Ru5 Pt1'
_cell_volume   627.06512359
_cell_formula_units_Z   1
loop_
 _symmetry_equiv_pos_site_id
 _symmetry_equiv_pos_as_xyz
  1  'x, y, z'
loop_
 _atom_site_type_symbol
 _atom_site_label
 _atom_site_symmetry_multiplicity
 _atom_site_fract_x
 _atom_site_fract_y
 _atom_site_fract_z
 _atom_site_occupancy
  Tm  Tm0  1  0.805259  0.194741  0.746914  1
  Tm  Tm1  1  0.194741  0.805259  0.253086  1
  Tm  Tm2  1  0.386762  0.191641  0.748392  1
  Tm  Tm3  1  0.613238  0.808359  0.251608  1
  Tm  Tm4  1  0.808359  0.613238  0.748392  1
  Tm  Tm5  1  0.191641  0.386762  0.251608  1
  Al  Al6  1  0.669104  0.330896  0.977739  1
  Al  Al7  1  0.330896  0.669104  0.022261  1
  Al  Al8  1  0.336644  0.663356  0.480477  1
  Al  Al9  1  0.663356  0.336644  0.519523  1
  Al  Al10  1  0.839383  0.160617  0.423703  1
  Al  Al11  1  0.160617  0.839383  0.576297  1
  Al  Al12  1  0.321293  0.163887  0.424436  1
  Al  Al13  1  0.162398  0.837602  0.921010  1
  Al  Al14  1  0.678707  0.836113  0.575564  1
  Al  Al15  1  0.837602  0.162398  0.078990  1
  Al  Al16  1  0.836113  0.678707  0.424436  1
  Al  Al17  1  0.676183  0.841823  0.920854  1
  Al  Al18  1  0.163887  0.321293  0.575564  1
  Al  Al19  1  0.323817  0.158177  0.079146  1
  Al  Al20  1  0.158177  0.323817  0.920854  1
  Al  Al21  1  0.841823  0.676183  0.079146  1
  Al  Al22  1  0.439100  0.560900  0.741292  1
  Al  Al23  1  0.560900  0.439100  0.258708  1
  Al  Al24  1  0.123497  0.561148  0.749604  1
  Al  Al25  1  0.876503  0.438852  0.250396  1
  Al  Al26  1  0.438852  0.876503  0.749604  1
  Al  Al27  1  0.561148  0.123497  0.250396  1
  Al  Al28  1  0.000339  0.999661  0.743786  1
  Al  Al29  1  0.999661  0.000339  0.256214  1
  Fe  Fe30  1  0.500000  0.500000  0.500000  1
  Fe  Fe31  1  0.000000  0.000000  0.500000  1
  Ru  Ru32  1  0.000000  0.500000  0.000000  1
  Ru  Ru33  1  0.500000  0.000000  0.000000  1
  Ru  Ru34  1  0.000000  0.500000  0.500000  1
  Ru  Ru35  1  0.500000  0.000000  0.500000  1
  Ru  Ru36  1  0.000000  0.000000  0.000000  1
  Pt  Pt37  1  0.500000  0.500000  0.000000  1
