# generated using pymatgen
data_Yb8HoLuIr4
_symmetry_space_group_name_H-M   'P 1'
_cell_length_a   6.52988151
_cell_length_b   7.28996048
_cell_length_c   8.49065959
_cell_angle_alpha   97.27287214
_cell_angle_beta   112.61476258
_cell_angle_gamma   90.00000230
_symmetry_Int_Tables_number   1
_chemical_formula_structural   Yb8HoLuIr4
_chemical_formula_sum   'Yb8 Ho1 Lu1 Ir4'
_cell_volume   369.57542029
_cell_formula_units_Z   1
loop_
 _symmetry_equiv_pos_site_id
 _symmetry_equiv_pos_as_xyz
  1  'x, y, z'
loop_
 _atom_site_type_symbol
 _atom_site_label
 _atom_site_symmetry_multiplicity
 _atom_site_fract_x
 _atom_site_fract_y
 _atom_site_fract_z
 _atom_site_occupancy
  Yb  Yb0  1  0.972381  0.921299  0.170968  1
  Yb  Yb1  1  0.801414  0.578701  0.829032  1
  Yb  Yb2  1  0.027514  0.077922  0.828971  1
  Yb  Yb3  1  0.198542  0.422078  0.171029  1
  Yb  Yb4  1  0.643092  0.819718  0.436880  1
  Yb  Yb5  1  0.206212  0.680282  0.563120  1
  Yb  Yb6  1  0.356517  0.180008  0.562488  1
  Yb  Yb7  1  0.794029  0.319992  0.437512  1
  Ho  Ho8  1  0.561861  0.250000  0.000000  1
  Lu  Lu9  1  0.439174  0.750000  0.000000  1
  Ir  Ir10  1  0.812702  0.574670  0.210452  1
  Ir  Ir11  1  0.602251  0.925330  0.789548  1
  Ir  Ir12  1  0.187072  0.427629  0.789832  1
  Ir  Ir13  1  0.397239  0.072371  0.210168  1
