# generated using pymatgen
data_Ba2PaBiO6
_symmetry_space_group_name_H-M   'P 1'
_cell_length_a   6.30847274
_cell_length_b   6.30847314
_cell_length_c   6.36056336
_cell_angle_alpha   59.84830306
_cell_angle_beta   59.84830221
_cell_angle_gamma   60.09642831
_symmetry_Int_Tables_number   1
_chemical_formula_structural   Ba2PaBiO6
_chemical_formula_sum   'Ba2 Pa1 Bi1 O6'
_cell_volume   178.70779506
_cell_formula_units_Z   1
loop_
 _symmetry_equiv_pos_site_id
 _symmetry_equiv_pos_as_xyz
  1  'x, y, z'
loop_
 _atom_site_type_symbol
 _atom_site_label
 _atom_site_symmetry_multiplicity
 _atom_site_fract_x
 _atom_site_fract_y
 _atom_site_fract_z
 _atom_site_occupancy
  Ba  Ba0  1  0.249642  0.249642  0.261617  1
  Ba  Ba1  1  0.750358  0.750358  0.738383  1
  Pa  Pa2  1  0.500000  0.500000  0.500000  1
  Bi  Bi3  1  0.000000  0.000000  0.000000  1
  O  O4  1  0.309529  0.789691  0.689010  1
  O  O5  1  0.210309  0.690471  0.310990  1
  O  O6  1  0.690471  0.210309  0.310990  1
  O  O7  1  0.789691  0.309529  0.689010  1
  O  O8  1  0.737827  0.737827  0.173326  1
  O  O9  1  0.262173  0.262173  0.826674  1
