# generated using pymatgen
data_Nd2ReTcI
_symmetry_space_group_name_H-M   'P 1'
_cell_length_a   4.20077200
_cell_length_b   4.20077350
_cell_length_c   18.37282100
_cell_angle_alpha   90.00000000
_cell_angle_beta   90.00000000
_cell_angle_gamma   119.99998818
_symmetry_Int_Tables_number   1
_chemical_formula_structural   Nd2ReTcI
_chemical_formula_sum   'Nd4 Re2 Tc2 I2'
_cell_volume   280.77918134
_cell_formula_units_Z   2
loop_
 _symmetry_equiv_pos_site_id
 _symmetry_equiv_pos_as_xyz
  1  'x, y, z'
loop_
 _atom_site_type_symbol
 _atom_site_label
 _atom_site_symmetry_multiplicity
 _atom_site_fract_x
 _atom_site_fract_y
 _atom_site_fract_z
 _atom_site_occupancy
  Nd  Nd0  1  0.000000  0.000000  0.113101  1
  Nd  Nd1  1  0.000000  0.000000  0.886899  1
  Nd  Nd2  1  0.000000  0.000000  0.614071  1
  Nd  Nd3  1  0.000000  0.000000  0.385929  1
  Re  Re4  1  0.333333  0.666667  0.515523  1
  Re  Re5  1  0.666667  0.333333  0.484477  1
  Tc  Tc6  1  0.666667  0.333333  0.015041  1
  Tc  Tc7  1  0.333333  0.666667  0.984959  1
  I  I8  1  0.333333  0.666667  0.249701  1
  I  I9  1  0.666667  0.333333  0.750299  1
