# generated using pymatgen
data_Tb5(FeTe)2
_symmetry_space_group_name_H-M   'P 1'
_cell_length_a   7.81879568
_cell_length_b   7.81879587
_cell_length_c   15.20979000
_cell_angle_alpha   90.00000000
_cell_angle_beta   90.00000000
_cell_angle_gamma   150.54113209
_symmetry_Int_Tables_number   1
_chemical_formula_structural   Tb5(FeTe)2
_chemical_formula_sum   'Tb10 Fe4 Te4'
_cell_volume   457.28847634
_cell_formula_units_Z   2
loop_
 _symmetry_equiv_pos_site_id
 _symmetry_equiv_pos_as_xyz
  1  'x, y, z'
loop_
 _atom_site_type_symbol
 _atom_site_label
 _atom_site_symmetry_multiplicity
 _atom_site_fract_x
 _atom_site_fract_y
 _atom_site_fract_z
 _atom_site_occupancy
  Tb  Tb0  1  0.961430  0.038570  0.380643  1
  Tb  Tb1  1  0.038570  0.961430  0.619357  1
  Tb  Tb2  1  0.038570  0.961430  0.880643  1
  Tb  Tb3  1  0.961430  0.038570  0.119357  1
  Tb  Tb4  1  0.742597  0.257403  0.629337  1
  Tb  Tb5  1  0.257403  0.742597  0.370663  1
  Tb  Tb6  1  0.257403  0.742597  0.129337  1
  Tb  Tb7  1  0.742597  0.257403  0.870663  1
  Tb  Tb8  1  0.397312  0.602688  0.750000  1
  Tb  Tb9  1  0.602688  0.397312  0.250000  1
  Fe  Fe10  1  0.829354  0.170646  0.250000  1
  Fe  Fe11  1  0.170646  0.829354  0.750000  1
  Fe  Fe12  1  0.407812  0.592188  0.250000  1
  Fe  Fe13  1  0.592188  0.407812  0.750000  1
  Te  Te14  1  0.617948  0.382052  0.039374  1
  Te  Te15  1  0.382052  0.617948  0.960626  1
  Te  Te16  1  0.382052  0.617948  0.539374  1
  Te  Te17  1  0.617948  0.382052  0.460626  1
