# generated using pymatgen
data_Ta6Si6TcMo5
_symmetry_space_group_name_H-M   'P 1'
_cell_length_a   7.68761435
_cell_length_b   7.68771871
_cell_length_c   7.68771882
_cell_angle_alpha   126.50910574
_cell_angle_beta   128.58755327
_cell_angle_gamma   77.36995913
_symmetry_Int_Tables_number   1
_chemical_formula_structural   Ta6Si6TcMo5
_chemical_formula_sum   'Ta6 Si6 Tc1 Mo5'
_cell_volume   276.92197034
_cell_formula_units_Z   1
loop_
 _symmetry_equiv_pos_site_id
 _symmetry_equiv_pos_as_xyz
  1  'x, y, z'
loop_
 _atom_site_type_symbol
 _atom_site_label
 _atom_site_symmetry_multiplicity
 _atom_site_fract_x
 _atom_site_fract_y
 _atom_site_fract_z
 _atom_site_occupancy
  Ta  Ta0  1  0.545328  0.094783  0.047510  1
  Ta  Ta1  1  0.454672  0.502182  0.549454  1
  Ta  Ta2  1  0.952895  0.502156  0.047373  1
  Ta  Ta3  1  0.047105  0.094477  0.549260  1
  Ta  Ta4  1  0.749018  0.894793  0.643522  1
  Ta  Ta5  1  0.250982  0.894505  0.145776  1
  Si  Si6  1  0.333883  0.832192  0.498730  1
  Si  Si7  1  0.666117  0.164846  0.498309  1
  Si  Si8  1  0.835260  0.836493  0.000931  1
  Si  Si9  1  0.164740  0.165670  0.001232  1
  Si  Si10  1  0.750726  0.491259  0.241819  1
  Si  Si11  1  0.249274  0.491094  0.740534  1
  Tc  Tc12  1  0.000000  0.237459  0.237459  1
  Mo  Mo13  1  0.128763  0.754429  0.625818  1
  Mo  Mo14  1  0.871237  0.497053  0.625665  1
  Mo  Mo15  1  0.629203  0.755828  0.126464  1
  Mo  Mo16  1  0.370797  0.497261  0.126626  1
  Mo  Mo17  1  0.500000  0.235517  0.735517  1
