# generated using pymatgen
data_Li5Al4
_symmetry_space_group_name_H-M   'P 1'
_cell_length_a   4.45324500
_cell_length_b   4.45324586
_cell_length_c   8.40977900
_cell_angle_alpha   90.00000000
_cell_angle_beta   90.00000000
_cell_angle_gamma   120.00000106
_symmetry_Int_Tables_number   1
_chemical_formula_structural   Li5Al4
_chemical_formula_sum   'Li5 Al4'
_cell_volume   144.43367833
_cell_formula_units_Z   1
loop_
 _symmetry_equiv_pos_site_id
 _symmetry_equiv_pos_as_xyz
  1  'x, y, z'
loop_
 _atom_site_type_symbol
 _atom_site_label
 _atom_site_symmetry_multiplicity
 _atom_site_fract_x
 _atom_site_fract_y
 _atom_site_fract_z
 _atom_site_occupancy
  Li  Li0  1  0.333333  0.666667  0.115687  1
  Li  Li1  1  0.666667  0.333333  0.884313  1
  Li  Li2  1  0.333333  0.666667  0.445526  1
  Li  Li3  1  0.666667  0.333333  0.554474  1
  Li  Li4  1  0.000000  0.000000  0.000000  1
  Al  Al5  1  0.333333  0.666667  0.777629  1
  Al  Al6  1  0.666667  0.333333  0.222371  1
  Al  Al7  1  0.000000  0.000000  0.332906  1
  Al  Al8  1  0.000000  0.000000  0.667094  1
