# generated using pymatgen
data_TbHo5Tm10TlCd3Pt4
_symmetry_space_group_name_H-M   'P 1'
_cell_length_a   9.59102385
_cell_length_b   9.59102425
_cell_length_c   9.58679300
_cell_angle_alpha   60.01458919
_cell_angle_beta   60.01458782
_cell_angle_gamma   59.96973137
_symmetry_Int_Tables_number   1
_chemical_formula_structural   TbHo5Tm10TlCd3Pt4
_chemical_formula_sum   'Tb1 Ho5 Tm10 Tl1 Cd3 Pt4'
_cell_volume   623.56905095
_cell_formula_units_Z   1
loop_
 _symmetry_equiv_pos_site_id
 _symmetry_equiv_pos_as_xyz
  1  'x, y, z'
loop_
 _atom_site_type_symbol
 _atom_site_label
 _atom_site_symmetry_multiplicity
 _atom_site_fract_x
 _atom_site_fract_y
 _atom_site_fract_z
 _atom_site_occupancy
  Tb  Tb0  1  0.936641  0.936641  0.563360  1
  Ho  Ho1  1  0.937056  0.564190  0.564560  1
  Ho  Ho2  1  0.563157  0.936652  0.936934  1
  Ho  Ho3  1  0.564190  0.937056  0.564560  1
  Ho  Ho4  1  0.936652  0.563157  0.936934  1
  Ho  Ho5  1  0.565021  0.565021  0.936539  1
  Tm  Tm6  1  0.350739  0.350739  0.350282  1
  Tm  Tm7  1  0.353494  0.353494  0.942891  1
  Tm  Tm8  1  0.354652  0.941152  0.353681  1
  Tm  Tm9  1  0.941152  0.354652  0.353681  1
  Tm  Tm10  1  0.810812  0.189701  0.188788  1
  Tm  Tm11  1  0.189124  0.810634  0.810569  1
  Tm  Tm12  1  0.189701  0.810812  0.188788  1
  Tm  Tm13  1  0.810634  0.189124  0.810569  1
  Tm  Tm14  1  0.189380  0.189380  0.810581  1
  Tm  Tm15  1  0.810935  0.810935  0.188443  1
  Tl  Tl16  1  0.583132  0.583132  0.583668  1
  Cd  Cd17  1  0.580969  0.580969  0.252887  1
  Cd  Cd18  1  0.580331  0.253196  0.581516  1
  Cd  Cd19  1  0.253196  0.580331  0.581516  1
  Pt  Pt20  1  0.143671  0.143671  0.143911  1
  Pt  Pt21  1  0.142434  0.142434  0.570409  1
  Pt  Pt22  1  0.141825  0.571106  0.142467  1
  Pt  Pt23  1  0.571106  0.141825  0.142467  1
