# generated using pymatgen
data_Yb2Ce(MgIr)3
_symmetry_space_group_name_H-M   'P 1'
_cell_length_a   7.13672083
_cell_length_b   7.30231162
_cell_length_c   4.18897300
_cell_angle_alpha   90.00000000
_cell_angle_beta   90.00000000
_cell_angle_gamma   120.77055363
_symmetry_Int_Tables_number   1
_chemical_formula_structural   Yb2Ce(MgIr)3
_chemical_formula_sum   'Yb2 Ce1 Mg3 Ir3'
_cell_volume   187.57393788
_cell_formula_units_Z   1
loop_
 _symmetry_equiv_pos_site_id
 _symmetry_equiv_pos_as_xyz
  1  'x, y, z'
loop_
 _atom_site_type_symbol
 _atom_site_label
 _atom_site_symmetry_multiplicity
 _atom_site_fract_x
 _atom_site_fract_y
 _atom_site_fract_z
 _atom_site_occupancy
  Yb  Yb0  1  0.585517  0.586864  0.500000  1
  Yb  Yb1  1  0.414483  0.001347  0.500000  1
  Ce  Ce2  1  0.000000  0.410664  0.500000  1
  Mg  Mg3  1  0.000000  0.766266  0.000000  1
  Mg  Mg4  1  0.254241  0.245286  0.000000  1
  Mg  Mg5  1  0.745759  0.991045  0.000000  1
  Ir  Ir6  1  0.308918  0.646876  0.000000  1
  Ir  Ir7  1  0.691082  0.337958  0.000000  1
  Ir  Ir8  1  0.000000  0.013695  0.500000  1
