# generated using pymatgen
data_Ca10CrMo3N14
_symmetry_space_group_name_H-M   'P 1'
_cell_length_a   6.17088784
_cell_length_b   8.87493776
_cell_length_c   8.93014140
_cell_angle_alpha   115.42380225
_cell_angle_beta   95.56017579
_cell_angle_gamma   88.68646550
_symmetry_Int_Tables_number   1
_chemical_formula_structural   Ca10CrMo3N14
_chemical_formula_sum   'Ca10 Cr1 Mo3 N14'
_cell_volume   439.53418929
_cell_formula_units_Z   1
loop_
 _symmetry_equiv_pos_site_id
 _symmetry_equiv_pos_as_xyz
  1  'x, y, z'
loop_
 _atom_site_type_symbol
 _atom_site_label
 _atom_site_symmetry_multiplicity
 _atom_site_fract_x
 _atom_site_fract_y
 _atom_site_fract_z
 _atom_site_occupancy
  Ca  Ca0  1  0.829121  0.596807  0.319931  1
  Ca  Ca1  1  0.257166  0.981313  0.542464  1
  Ca  Ca2  1  0.707060  0.418240  0.850917  1
  Ca  Ca3  1  0.294830  0.577569  0.143420  1
  Ca  Ca4  1  0.403979  0.789296  0.927376  1
  Ca  Ca5  1  0.597120  0.208727  0.076605  1
  Ca  Ca6  1  0.170548  0.401267  0.679435  1
  Ca  Ca7  1  0.901135  0.847552  0.751482  1
  Ca  Ca8  1  0.101814  0.157933  0.249675  1
  Ca  Ca9  1  0.741582  0.024180  0.455987  1
  Cr  Cr10  1  0.578206  0.353366  0.476907  1
  Mo  Mo11  1  0.418744  0.642919  0.524410  1
  Mo  Mo12  1  0.125419  0.212426  0.920738  1
  Mo  Mo13  1  0.877177  0.787534  0.079245  1
  N  N14  1  0.515920  0.541380  0.679013  1
  N  N15  1  0.486502  0.443155  0.320966  1
  N  N16  1  0.132694  0.705024  0.530655  1
  N  N17  1  0.845316  0.299403  0.468954  1
  N  N18  1  0.412610  0.191407  0.462984  1
  N  N19  1  0.592871  0.818138  0.538637  1
  N  N20  1  0.957725  0.124357  0.713750  1
  N  N21  1  0.045383  0.882919  0.285497  1
  N  N22  1  0.239739  0.046638  0.977902  1
  N  N23  1  0.759172  0.951223  0.020842  1
  N  N24  1  0.368801  0.325480  0.902077  1
  N  N25  1  0.959368  0.356811  0.091357  1
  N  N26  1  0.045250  0.641619  0.910336  1
  N  N27  1  0.634747  0.673317  0.098436  1
