# generated using pymatgen
data_YbTh3Pt4
_symmetry_space_group_name_H-M   'P 1'
_cell_length_a   4.58252800
_cell_length_b   5.78594720
_cell_length_c   7.27210652
_cell_angle_alpha   88.92254703
_cell_angle_beta   90.00000000
_cell_angle_gamma   90.00000000
_symmetry_Int_Tables_number   1
_chemical_formula_structural   YbTh3Pt4
_chemical_formula_sum   'Yb1 Th3 Pt4'
_cell_volume   192.78046803
_cell_formula_units_Z   1
loop_
 _symmetry_equiv_pos_site_id
 _symmetry_equiv_pos_as_xyz
  1  'x, y, z'
loop_
 _atom_site_type_symbol
 _atom_site_label
 _atom_site_symmetry_multiplicity
 _atom_site_fract_x
 _atom_site_fract_y
 _atom_site_fract_z
 _atom_site_occupancy
  Yb  Yb0  1  0.250000  0.355233  0.684518  1
  Th  Th1  1  0.250000  0.142792  0.181994  1
  Th  Th2  1  0.750000  0.639300  0.319571  1
  Th  Th3  1  0.750000  0.857821  0.813125  1
  Pt  Pt4  1  0.750000  0.157587  0.450711  1
  Pt  Pt5  1  0.250000  0.843411  0.542884  1
  Pt  Pt6  1  0.250000  0.667363  0.045463  1
  Pt  Pt7  1  0.750000  0.336493  0.961734  1
