# generated using pymatgen
data_Ca4Si10PdPt5
_symmetry_space_group_name_H-M   'P 1'
_cell_length_a   8.28404573
_cell_length_b   8.28404595
_cell_length_c   8.28404513
_cell_angle_alpha   138.19805934
_cell_angle_beta   104.66329331
_cell_angle_gamma   90.08069070
_symmetry_Int_Tables_number   1
_chemical_formula_structural   Ca4Si10PdPt5
_chemical_formula_sum   'Ca4 Si10 Pd1 Pt5'
_cell_volume   350.30002111
_cell_formula_units_Z   1
loop_
 _symmetry_equiv_pos_site_id
 _symmetry_equiv_pos_as_xyz
  1  'x, y, z'
loop_
 _atom_site_type_symbol
 _atom_site_label
 _atom_site_symmetry_multiplicity
 _atom_site_fract_x
 _atom_site_fract_y
 _atom_site_fract_z
 _atom_site_occupancy
  Ca  Ca0  1  0.636636  0.370892  0.265688  1
  Ca  Ca1  1  0.363364  0.629052  0.734256  1
  Ca  Ca2  1  0.105204  0.870948  0.234312  1
  Ca  Ca3  1  0.894796  0.129108  0.765744  1
  Si  Si4  1  0.463528  0.111837  0.349073  1
  Si  Si5  1  0.536472  0.885544  0.648309  1
  Si  Si6  1  0.762765  0.614456  0.150927  1
  Si  Si7  1  0.237235  0.388163  0.851691  1
  Si  Si8  1  0.270368  0.520368  0.250000  1
  Si  Si9  1  0.729826  0.479826  0.750000  1
  Si  Si10  1  0.729632  0.979632  0.250000  1
  Si  Si11  1  0.270174  0.020174  0.750000  1
  Si  Si12  1  0.000000  0.250000  0.250000  1
  Si  Si13  1  0.000000  0.750000  0.750000  1
  Pd  Pd14  1  0.500000  0.250000  0.750000  1
  Pt  Pt15  1  0.500000  0.750000  0.250000  1
  Pt  Pt16  1  0.250835  0.135265  0.114791  1
  Pt  Pt17  1  0.749165  0.863956  0.884430  1
  Pt  Pt18  1  0.020475  0.636044  0.385209  1
  Pt  Pt19  1  0.979525  0.364735  0.615570  1
