# generated using pymatgen
data_LaDy2BiO7
_symmetry_space_group_name_H-M   'P 1'
_cell_length_a   6.64196293
_cell_length_b   6.64196302
_cell_length_c   7.80573400
_cell_angle_alpha   90.00000000
_cell_angle_beta   90.00000000
_cell_angle_gamma   109.01479370
_symmetry_Int_Tables_number   1
_chemical_formula_structural   LaDy2BiO7
_chemical_formula_sum   'La2 Dy4 Bi2 O14'
_cell_volume   325.56528237
_cell_formula_units_Z   2
loop_
 _symmetry_equiv_pos_site_id
 _symmetry_equiv_pos_as_xyz
  1  'x, y, z'
loop_
 _atom_site_type_symbol
 _atom_site_label
 _atom_site_symmetry_multiplicity
 _atom_site_fract_x
 _atom_site_fract_y
 _atom_site_fract_z
 _atom_site_occupancy
  La  La0  1  0.500000  0.500000  0.500000  1
  La  La1  1  0.500000  0.500000  0.000000  1
  Dy  Dy2  1  0.531136  0.002529  0.750000  1
  Dy  Dy3  1  0.002529  0.531136  0.250000  1
  Dy  Dy4  1  0.468864  0.997471  0.250000  1
  Dy  Dy5  1  0.997471  0.468864  0.750000  1
  Bi  Bi6  1  0.000000  0.000000  0.500000  1
  Bi  Bi7  1  0.000000  0.000000  0.000000  1
  O  O8  1  0.666365  0.926395  0.470262  1
  O  O9  1  0.926395  0.666365  0.529738  1
  O  O10  1  0.666365  0.926395  0.029738  1
  O  O11  1  0.926395  0.666365  0.970262  1
  O  O12  1  0.333635  0.073605  0.529738  1
  O  O13  1  0.073605  0.333635  0.470262  1
  O  O14  1  0.333635  0.073605  0.970262  1
  O  O15  1  0.073605  0.333635  0.029738  1
  O  O16  1  0.916613  0.083387  0.750000  1
  O  O17  1  0.083387  0.916613  0.250000  1
  O  O18  1  0.362207  0.637793  0.750000  1
  O  O19  1  0.637793  0.362207  0.250000  1
  O  O20  1  0.643147  0.356853  0.750000  1
  O  O21  1  0.356853  0.643147  0.250000  1
