# generated using pymatgen
data_HfSc5Si2(Tc3As2)2
_symmetry_space_group_name_H-M   'P 1'
_cell_length_a   7.79019972
_cell_length_b   7.78946403
_cell_length_c   7.79020063
_cell_angle_alpha   126.69642432
_cell_angle_beta   127.31866269
_cell_angle_gamma   78.24159554
_symmetry_Int_Tables_number   1
_chemical_formula_structural   HfSc5Si2(Tc3As2)2
_chemical_formula_sum   'Hf1 Sc5 Si2 Tc6 As4'
_cell_volume   291.97685758
_cell_formula_units_Z   1
loop_
 _symmetry_equiv_pos_site_id
 _symmetry_equiv_pos_as_xyz
  1  'x, y, z'
loop_
 _atom_site_type_symbol
 _atom_site_label
 _atom_site_symmetry_multiplicity
 _atom_site_fract_x
 _atom_site_fract_y
 _atom_site_fract_z
 _atom_site_occupancy
  Hf  Hf0  1  0.947517  0.648792  0.201276  1
  Sc  Sc1  1  0.449374  0.652406  0.703032  1
  Sc  Sc2  1  0.551024  0.253347  0.202323  1
  Sc  Sc3  1  0.750267  0.856693  0.606425  1
  Sc  Sc4  1  0.249570  0.854935  0.105364  1
  Sc  Sc5  1  0.051539  0.253390  0.701852  1
  Si  Si6  1  0.250560  0.253580  0.503021  1
  Si  Si7  1  0.747764  0.249035  0.001271  1
  Tc  Tc8  1  0.502827  0.504692  0.005195  1
  Tc  Tc9  1  0.999497  0.504692  0.501866  1
  Tc  Tc10  1  0.123517  0.255469  0.127378  1
  Tc  Tc11  1  0.876619  0.000632  0.129770  1
  Tc  Tc12  1  0.370862  0.000632  0.624012  1
  Tc  Tc13  1  0.628092  0.255469  0.631952  1
  As  As14  1  0.334157  0.586299  0.252418  1
  As  As15  1  0.666240  0.921620  0.254925  1
  As  As16  1  0.166696  0.921620  0.755381  1
  As  As17  1  0.833880  0.586299  0.752141  1
