# generated using pymatgen
data_TbSm4YNiI10
_symmetry_space_group_name_H-M   'P 1'
_cell_length_a   7.79316063
_cell_length_b   9.82517909
_cell_length_c   9.82796867
_cell_angle_alpha   107.17770255
_cell_angle_beta   96.57607558
_cell_angle_gamma   104.52476353
_symmetry_Int_Tables_number   1
_chemical_formula_structural   TbSm4YNiI10
_chemical_formula_sum   'Tb1 Sm4 Y1 Ni1 I10'
_cell_volume   681.35077480
_cell_formula_units_Z   1
loop_
 _symmetry_equiv_pos_site_id
 _symmetry_equiv_pos_as_xyz
  1  'x, y, z'
loop_
 _atom_site_type_symbol
 _atom_site_label
 _atom_site_symmetry_multiplicity
 _atom_site_fract_x
 _atom_site_fract_y
 _atom_site_fract_z
 _atom_site_occupancy
  Tb  Tb0  1  0.660540  0.879956  0.838860  1
  Sm  Sm1  1  0.885383  0.958816  0.238597  1
  Sm  Sm2  1  0.115215  0.041254  0.761530  1
  Sm  Sm3  1  0.032730  0.717941  0.915159  1
  Sm  Sm4  1  0.967802  0.282190  0.085057  1
  Y  Y5  1  0.339744  0.120059  0.161078  1
  Ni  Ni6  1  0.000448  0.000105  0.999508  1
  I  I7  1  0.646887  0.552879  0.729395  1
  I  I8  1  0.353332  0.446445  0.270897  1
  I  I9  1  0.739550  0.912502  0.541260  1
  I  I10  1  0.260684  0.087768  0.458547  1
  I  I11  1  0.085114  0.371505  0.818381  1
  I  I12  1  0.914851  0.628481  0.181784  1
  I  I13  1  0.454726  0.818074  0.091355  1
  I  I14  1  0.544978  0.182553  0.909240  1
  I  I15  1  0.231041  0.745192  0.655767  1
  I  I16  1  0.766974  0.254279  0.343584  1
