# generated using pymatgen
data_Pr11In9Pt4
_symmetry_space_group_name_H-M   'P 1'
_cell_length_a   3.86826500
_cell_length_b   13.59408179
_cell_length_c   13.59441038
_cell_angle_alpha   111.51935293
_cell_angle_beta   90.00000000
_cell_angle_gamma   90.00000000
_symmetry_Int_Tables_number   1
_chemical_formula_structural   Pr11In9Pt4
_chemical_formula_sum   'Pr11 In9 Pt4'
_cell_volume   665.03815509
_cell_formula_units_Z   1
loop_
 _symmetry_equiv_pos_site_id
 _symmetry_equiv_pos_as_xyz
  1  'x, y, z'
loop_
 _atom_site_type_symbol
 _atom_site_label
 _atom_site_symmetry_multiplicity
 _atom_site_fract_x
 _atom_site_fract_y
 _atom_site_fract_z
 _atom_site_occupancy
  Pr  Pr0  1  0.000000  0.999996  0.000008  1
  Pr  Pr1  1  0.000000  0.417289  0.072381  1
  Pr  Pr2  1  0.000000  0.840181  0.159817  1
  Pr  Pr3  1  0.000000  0.310410  0.310409  1
  Pr  Pr4  1  0.000000  0.627984  0.372018  1
  Pr  Pr5  1  0.000000  0.072374  0.417280  1
  Pr  Pr6  1  0.000000  0.927616  0.582707  1
  Pr  Pr7  1  0.000000  0.372021  0.627973  1
  Pr  Pr8  1  0.000000  0.689592  0.689592  1
  Pr  Pr9  1  0.000000  0.159823  0.840175  1
  Pr  Pr10  1  0.000000  0.582718  0.927622  1
  In  In11  1  0.499999  0.218158  0.076445  1
  In  In12  1  0.499999  0.633395  0.161866  1
  In  In13  1  0.499999  0.076438  0.218158  1
  In  In14  1  0.499999  0.838132  0.366600  1
  In  In15  1  0.499999  0.499993  0.500032  1
  In  In16  1  0.499999  0.161867  0.633387  1
  In  In17  1  0.499999  0.923555  0.781842  1
  In  In18  1  0.499999  0.366616  0.838133  1
  In  In19  1  0.499999  0.781844  0.923564  1
  Pt  Pt20  1  0.499999  0.449050  0.246677  1
  Pt  Pt21  1  0.499999  0.246673  0.449042  1
  Pt  Pt22  1  0.499999  0.753321  0.550950  1
  Pt  Pt23  1  0.499999  0.550957  0.753327  1
