# generated using pymatgen
data_Ni4Pt4W
_symmetry_space_group_name_H-M   'P 1'
_cell_length_a   6.01861199
_cell_length_b   6.01861254
_cell_length_c   6.01861176
_cell_angle_alpha   95.53346452
_cell_angle_beta   95.53348079
_cell_angle_gamma   143.81797359
_symmetry_Int_Tables_number   1
_chemical_formula_structural   Ni4Pt4W
_chemical_formula_sum   'Ni4 Pt4 W1'
_cell_volume   122.34381537
_cell_formula_units_Z   1
loop_
 _symmetry_equiv_pos_site_id
 _symmetry_equiv_pos_as_xyz
  1  'x, y, z'
loop_
 _atom_site_type_symbol
 _atom_site_label
 _atom_site_symmetry_multiplicity
 _atom_site_fract_x
 _atom_site_fract_y
 _atom_site_fract_z
 _atom_site_occupancy
  Ni  Ni0  1  0.340711  0.340711  0.681421  1
  Ni  Ni1  1  0.659289  0.659289  0.318579  1
  Ni  Ni2  1  0.659289  0.340711  0.000000  1
  Ni  Ni3  1  0.340711  0.659289  0.000000  1
  Pt  Pt4  1  0.000000  0.321795  0.321795  1
  Pt  Pt5  1  0.000000  0.678205  0.678205  1
  Pt  Pt6  1  0.678205  0.000000  0.678205  1
  Pt  Pt7  1  0.321795  0.000000  0.321795  1
  W  W8  1  0.000000  0.000000  0.000000  1
