# generated using pymatgen
data_Tb3Lu2(In2Au)2
_symmetry_space_group_name_H-M   'P 1'
_cell_length_a   3.66732000
_cell_length_b   8.19040200
_cell_length_c   18.31946900
_cell_angle_alpha   90.00000000
_cell_angle_beta   90.00000000
_cell_angle_gamma   90.00000000
_symmetry_Int_Tables_number   1
_chemical_formula_structural   Tb3Lu2(In2Au)2
_chemical_formula_sum   'Tb6 Lu4 In8 Au4'
_cell_volume   550.25868559
_cell_formula_units_Z   2
loop_
 _symmetry_equiv_pos_site_id
 _symmetry_equiv_pos_as_xyz
  1  'x, y, z'
loop_
 _atom_site_type_symbol
 _atom_site_label
 _atom_site_symmetry_multiplicity
 _atom_site_fract_x
 _atom_site_fract_y
 _atom_site_fract_z
 _atom_site_occupancy
  Tb  Tb0  1  0.000000  0.237977  0.215378  1
  Tb  Tb1  1  0.000000  0.762023  0.784622  1
  Tb  Tb2  1  0.000000  0.262023  0.715378  1
  Tb  Tb3  1  0.000000  0.737977  0.284622  1
  Tb  Tb4  1  0.000000  0.000000  0.000000  1
  Tb  Tb5  1  0.000000  0.500000  0.500000  1
  Lu  Lu6  1  0.000000  0.121307  0.419238  1
  Lu  Lu7  1  0.000000  0.878693  0.580762  1
  Lu  Lu8  1  0.000000  0.378693  0.919238  1
  Lu  Lu9  1  0.000000  0.621307  0.080762  1
  In  In10  1  0.500000  0.417875  0.352950  1
  In  In11  1  0.500000  0.582125  0.647050  1
  In  In12  1  0.500000  0.082125  0.852950  1
  In  In13  1  0.500000  0.917875  0.147050  1
  In  In14  1  0.500000  0.296837  0.062953  1
  In  In15  1  0.500000  0.703163  0.937047  1
  In  In16  1  0.500000  0.203163  0.562953  1
  In  In17  1  0.500000  0.796837  0.437047  1
  Au  Au18  1  0.500000  0.030513  0.305482  1
  Au  Au19  1  0.500000  0.969487  0.694518  1
  Au  Au20  1  0.500000  0.469487  0.805482  1
  Au  Au21  1  0.500000  0.530513  0.194518  1
