# generated using pymatgen
data_Dy5Lu11(AlCo)4
_symmetry_space_group_name_H-M   'P 1'
_cell_length_a   9.26154102
_cell_length_b   9.26153964
_cell_length_c   9.25600200
_cell_angle_alpha   60.01978412
_cell_angle_beta   60.01978906
_cell_angle_gamma   59.95193766
_symmetry_Int_Tables_number   1
_chemical_formula_structural   Dy5Lu11(AlCo)4
_chemical_formula_sum   'Dy5 Lu11 Al4 Co4'
_cell_volume   561.36666002
_cell_formula_units_Z   1
loop_
 _symmetry_equiv_pos_site_id
 _symmetry_equiv_pos_as_xyz
  1  'x, y, z'
loop_
 _atom_site_type_symbol
 _atom_site_label
 _atom_site_symmetry_multiplicity
 _atom_site_fract_x
 _atom_site_fract_y
 _atom_site_fract_z
 _atom_site_occupancy
  Dy  Dy0  1  0.935798  0.935798  0.564202  1
  Dy  Dy1  1  0.350716  0.350716  0.349727  1
  Dy  Dy2  1  0.350716  0.350716  0.948841  1
  Dy  Dy3  1  0.350132  0.949058  0.350405  1
  Dy  Dy4  1  0.949058  0.350132  0.350405  1
  Lu  Lu5  1  0.808719  0.192098  0.189926  1
  Lu  Lu6  1  0.192098  0.808719  0.809256  1
  Lu  Lu7  1  0.192098  0.808719  0.189926  1
  Lu  Lu8  1  0.808719  0.192098  0.809256  1
  Lu  Lu9  1  0.191288  0.191288  0.808712  1
  Lu  Lu10  1  0.808933  0.808933  0.191067  1
  Lu  Lu11  1  0.937595  0.560994  0.562255  1
  Lu  Lu12  1  0.560994  0.937595  0.939155  1
  Lu  Lu13  1  0.560994  0.937595  0.562255  1
  Lu  Lu14  1  0.937595  0.560994  0.939155  1
  Lu  Lu15  1  0.563054  0.563054  0.936946  1
  Al  Al16  1  0.578834  0.578834  0.578516  1
  Al  Al17  1  0.578834  0.578834  0.263816  1
  Al  Al18  1  0.577686  0.265908  0.578203  1
  Al  Al19  1  0.265908  0.577686  0.578203  1
  Co  Co20  1  0.140608  0.140608  0.138464  1
  Co  Co21  1  0.140608  0.140608  0.580318  1
  Co  Co22  1  0.139713  0.579297  0.140494  1
  Co  Co23  1  0.579297  0.139713  0.140494  1
