# generated using pymatgen
data_DyHo3(As4O9)2
_symmetry_space_group_name_H-M   'P 1'
_cell_length_a   6.73799240
_cell_length_b   7.53966100
_cell_length_c   9.81081301
_cell_angle_alpha   94.90952906
_cell_angle_beta   104.15957371
_cell_angle_gamma   104.72460962
_symmetry_Int_Tables_number   1
_chemical_formula_structural   DyHo3(As4O9)2
_chemical_formula_sum   'Dy1 Ho3 As8 O18'
_cell_volume   461.55854437
_cell_formula_units_Z   1
loop_
 _symmetry_equiv_pos_site_id
 _symmetry_equiv_pos_as_xyz
  1  'x, y, z'
loop_
 _atom_site_type_symbol
 _atom_site_label
 _atom_site_symmetry_multiplicity
 _atom_site_fract_x
 _atom_site_fract_y
 _atom_site_fract_z
 _atom_site_occupancy
  Dy  Dy0  1  0.243939  0.939136  0.615216  1
  Ho  Ho1  1  0.755903  0.061249  0.384764  1
  Ho  Ho2  1  0.720961  0.529816  0.409396  1
  Ho  Ho3  1  0.278965  0.470096  0.590546  1
  As  As4  1  0.682130  0.774520  0.078140  1
  As  As5  1  0.317917  0.225679  0.922070  1
  As  As6  1  0.171223  0.752401  0.912587  1
  As  As7  1  0.828712  0.247481  0.087521  1
  As  As8  1  0.744408  0.915082  0.709136  1
  As  As9  1  0.255792  0.084930  0.290744  1
  As  As10  1  0.809639  0.351085  0.701235  1
  As  As11  1  0.190474  0.648830  0.298645  1
  O  O12  1  0.723259  0.749355  0.258930  1
  O  O13  1  0.276821  0.251170  0.741299  1
  O  O14  1  0.316175  0.978732  0.870095  1
  O  O15  1  0.684064  0.021383  0.130506  1
  O  O16  1  0.608110  0.324938  0.985366  1
  O  O17  1  0.391862  0.675050  0.014628  1
  O  O18  1  0.128239  0.646298  0.737454  1
  O  O19  1  0.871712  0.353556  0.262563  1
  O  O20  1  0.846786  0.875006  0.558435  1
  O  O21  1  0.152258  0.125458  0.440873  1
  O  O22  1  0.483444  0.767775  0.666372  1
  O  O23  1  0.517165  0.231725  0.333813  1
  O  O24  1  0.373164  0.533713  0.380045  1
  O  O25  1  0.626879  0.466199  0.619908  1
  O  O26  1  0.089001  0.668931  0.453756  1
  O  O27  1  0.910571  0.330267  0.545875  1
  O  O28  1  0.376770  0.899527  0.359313  1
  O  O29  1  0.623657  0.100614  0.640769  1
