# generated using pymatgen
data_DyTm2Mg(AlPt)4
_symmetry_space_group_name_H-M   'P 1'
_cell_length_a   4.32949800
_cell_length_b   6.81072382
_cell_length_c   7.71989645
_cell_angle_alpha   92.65041788
_cell_angle_beta   90.00000000
_cell_angle_gamma   90.00000000
_symmetry_Int_Tables_number   1
_chemical_formula_structural   DyTm2Mg(AlPt)4
_chemical_formula_sum   'Dy1 Tm2 Mg1 Al4 Pt4'
_cell_volume   227.39319294
_cell_formula_units_Z   1
loop_
 _symmetry_equiv_pos_site_id
 _symmetry_equiv_pos_as_xyz
  1  'x, y, z'
loop_
 _atom_site_type_symbol
 _atom_site_label
 _atom_site_symmetry_multiplicity
 _atom_site_fract_x
 _atom_site_fract_y
 _atom_site_fract_z
 _atom_site_occupancy
  Dy  Dy0  1  0.250000  0.527531  0.817227  1
  Tm  Tm1  1  0.750000  0.974845  0.328603  1
  Tm  Tm2  1  0.750000  0.469754  0.181046  1
  Mg  Mg3  1  0.250000  0.026693  0.677215  1
  Al  Al4  1  0.250000  0.138728  0.056285  1
  Al  Al5  1  0.250000  0.648719  0.439216  1
  Al  Al6  1  0.750000  0.859454  0.936893  1
  Al  Al7  1  0.750000  0.354702  0.563361  1
  Pt  Pt8  1  0.250000  0.271556  0.381712  1
  Pt  Pt9  1  0.250000  0.773071  0.126156  1
  Pt  Pt10  1  0.750000  0.732324  0.617502  1
  Pt  Pt11  1  0.750000  0.222623  0.874785  1
