# generated using pymatgen
data_Dy7Er3(SiBi)4
_symmetry_space_group_name_H-M   'P 1'
_cell_length_a   8.64369247
_cell_length_b   8.63983453
_cell_length_c   7.91093950
_cell_angle_alpha   90.00768550
_cell_angle_beta   90.02816282
_cell_angle_gamma   125.63921824
_symmetry_Int_Tables_number   1
_chemical_formula_structural   Dy7Er3(SiBi)4
_chemical_formula_sum   'Dy7 Er3 Si4 Bi4'
_cell_volume   480.13578374
_cell_formula_units_Z   1
loop_
 _symmetry_equiv_pos_site_id
 _symmetry_equiv_pos_as_xyz
  1  'x, y, z'
loop_
 _atom_site_type_symbol
 _atom_site_label
 _atom_site_symmetry_multiplicity
 _atom_site_fract_x
 _atom_site_fract_y
 _atom_site_fract_z
 _atom_site_occupancy
  Dy  Dy0  1  0.042515  0.286463  0.335864  1
  Dy  Dy1  1  0.957578  0.713517  0.664006  1
  Dy  Dy2  1  0.457549  0.213406  0.835932  1
  Dy  Dy3  1  0.786609  0.542466  0.164076  1
  Dy  Dy4  1  0.542527  0.786592  0.164113  1
  Dy  Dy5  1  0.213473  0.457494  0.835941  1
  Dy  Dy6  1  0.713588  0.957562  0.664079  1
  Er  Er7  1  0.285866  0.042682  0.336211  1
  Er  Er8  1  0.000147  0.000019  0.000151  1
  Er  Er9  1  0.499886  0.499739  0.499931  1
  Si  Si10  1  0.364682  0.364184  0.134424  1
  Si  Si11  1  0.635293  0.635301  0.865844  1
  Si  Si12  1  0.135393  0.135169  0.633720  1
  Si  Si13  1  0.865229  0.864974  0.365870  1
  Bi  Bi14  1  0.792916  0.207218  0.999937  1
  Bi  Bi15  1  0.207343  0.793180  0.000455  1
  Bi  Bi16  1  0.706570  0.292397  0.499654  1
  Bi  Bi17  1  0.292838  0.707639  0.499790  1
