# generated using pymatgen
data_Yb4Dy2Si24OsRu7
_symmetry_space_group_name_H-M   'P 1'
_cell_length_a   10.15567487
_cell_length_b   10.15567531
_cell_length_c   8.13533895
_cell_angle_alpha   90.01912142
_cell_angle_beta   90.01912533
_cell_angle_gamma   132.78182835
_symmetry_Int_Tables_number   1
_chemical_formula_structural   Yb4Dy2Si24OsRu7
_chemical_formula_sum   'Yb4 Dy2 Si24 Os1 Ru7'
_cell_volume   615.82427058
_cell_formula_units_Z   1
loop_
 _symmetry_equiv_pos_site_id
 _symmetry_equiv_pos_as_xyz
  1  'x, y, z'
loop_
 _atom_site_type_symbol
 _atom_site_label
 _atom_site_symmetry_multiplicity
 _atom_site_fract_x
 _atom_site_fract_y
 _atom_site_fract_z
 _atom_site_occupancy
  Yb  Yb0  1  0.499974  0.500026  0.500000  1
  Yb  Yb1  1  0.000003  0.999997  0.000000  1
  Yb  Yb2  1  0.500900  0.000691  0.749891  1
  Yb  Yb3  1  0.999309  0.499100  0.250109  1
  Dy  Dy4  1  0.499623  0.999754  0.249985  1
  Dy  Dy5  1  0.000246  0.500377  0.750015  1
  Si  Si6  1  0.795790  0.204210  0.500000  1
  Si  Si7  1  0.294980  0.705020  0.000000  1
  Si  Si8  1  0.205070  0.794930  0.500000  1
  Si  Si9  1  0.704730  0.295270  0.000000  1
  Si  Si10  1  0.332118  0.335438  0.832152  1
  Si  Si11  1  0.664562  0.667882  0.167848  1
  Si  Si12  1  0.167943  0.164269  0.331837  1
  Si  Si13  1  0.835731  0.832057  0.668163  1
  Si  Si14  1  0.122772  0.890074  0.730442  1
  Si  Si15  1  0.109926  0.877228  0.269558  1
  Si  Si16  1  0.608472  0.375882  0.229221  1
  Si  Si17  1  0.624118  0.391528  0.770779  1
  Si  Si18  1  0.875446  0.108054  0.269213  1
  Si  Si19  1  0.891946  0.124554  0.730787  1
  Si  Si20  1  0.390773  0.623631  0.769817  1
  Si  Si21  1  0.376369  0.609227  0.230183  1
  Si  Si22  1  0.345857  0.112924  0.506415  1
  Si  Si23  1  0.887076  0.654143  0.493585  1
  Si  Si24  1  0.386280  0.153025  0.008219  1
  Si  Si25  1  0.846975  0.613720  0.991781  1
  Si  Si26  1  0.652742  0.885746  0.490804  1
  Si  Si27  1  0.114254  0.347258  0.509196  1
  Si  Si28  1  0.613234  0.846803  0.993663  1
  Si  Si29  1  0.153197  0.386766  0.006337  1
  Os  Os30  1  0.670957  0.329043  0.500000  1
  Ru  Ru31  1  0.170474  0.829526  0.000000  1
  Ru  Ru32  1  0.329636  0.670364  0.500000  1
  Ru  Ru33  1  0.828946  0.171054  0.000000  1
  Ru  Ru34  1  0.126463  0.127119  0.624980  1
  Ru  Ru35  1  0.872881  0.873537  0.375020  1
  Ru  Ru36  1  0.373268  0.373040  0.124801  1
  Ru  Ru37  1  0.626960  0.626732  0.875199  1
