# generated using pymatgen
data_Zr2U6Bi3Sb7
_symmetry_space_group_name_H-M   'P 1'
_cell_length_a   9.34304900
_cell_length_b   9.34305030
_cell_length_c   6.26640000
_cell_angle_alpha   90.00000000
_cell_angle_beta   90.00000000
_cell_angle_gamma   119.99999892
_symmetry_Int_Tables_number   1
_chemical_formula_structural   Zr2U6Bi3Sb7
_chemical_formula_sum   'Zr2 U6 Bi3 Sb7'
_cell_volume   473.72473730
_cell_formula_units_Z   1
loop_
 _symmetry_equiv_pos_site_id
 _symmetry_equiv_pos_as_xyz
  1  'x, y, z'
loop_
 _atom_site_type_symbol
 _atom_site_label
 _atom_site_symmetry_multiplicity
 _atom_site_fract_x
 _atom_site_fract_y
 _atom_site_fract_z
 _atom_site_occupancy
  Zr  Zr0  1  0.000000  0.000000  0.000000  1
  Zr  Zr1  1  0.000000  0.000000  0.500000  1
  U  U2  1  0.384685  0.003783  0.753357  1
  U  U3  1  0.384685  0.380902  0.246643  1
  U  U4  1  0.996217  0.615315  0.246643  1
  U  U5  1  0.996217  0.380902  0.753357  1
  U  U6  1  0.619098  0.615315  0.753357  1
  U  U7  1  0.619098  0.003783  0.246643  1
  Bi  Bi8  1  0.666667  0.333333  0.500000  1
  Bi  Bi9  1  0.333333  0.666667  0.000000  1
  Bi  Bi10  1  0.333333  0.666667  0.500000  1
  Sb  Sb11  1  0.728152  0.999137  0.749554  1
  Sb  Sb12  1  0.728152  0.729015  0.250446  1
  Sb  Sb13  1  0.666667  0.333333  0.000000  1
  Sb  Sb14  1  0.270985  0.999137  0.250446  1
  Sb  Sb15  1  0.270985  0.271848  0.749554  1
  Sb  Sb16  1  0.000863  0.729015  0.749554  1
  Sb  Sb17  1  0.000863  0.271848  0.250446  1
