# generated using pymatgen
data_Er8ZnSi12PdPt2
_symmetry_space_group_name_H-M   'P 1'
_cell_length_a   8.11251400
_cell_length_b   8.11251382
_cell_length_c   8.04062600
_cell_angle_alpha   90.00000000
_cell_angle_beta   90.00000000
_cell_angle_gamma   120.00000075
_symmetry_Int_Tables_number   1
_chemical_formula_structural   Er8ZnSi12PdPt2
_chemical_formula_sum   'Er8 Zn1 Si12 Pd1 Pt2'
_cell_volume   458.28052192
_cell_formula_units_Z   1
loop_
 _symmetry_equiv_pos_site_id
 _symmetry_equiv_pos_as_xyz
  1  'x, y, z'
loop_
 _atom_site_type_symbol
 _atom_site_label
 _atom_site_symmetry_multiplicity
 _atom_site_fract_x
 _atom_site_fract_y
 _atom_site_fract_z
 _atom_site_occupancy
  Er  Er0  1  0.502592  0.005184  0.251098  1
  Er  Er1  1  0.499102  0.998203  0.748983  1
  Er  Er2  1  0.994816  0.497408  0.251098  1
  Er  Er3  1  0.001797  0.500898  0.748983  1
  Er  Er4  1  0.502592  0.497408  0.251098  1
  Er  Er5  1  0.499102  0.500898  0.748983  1
  Er  Er6  1  0.000000  0.000000  0.250379  1
  Er  Er7  1  0.000000  0.000000  0.748498  1
  Zn  Zn8  1  0.333333  0.666667  0.009149  1
  Si  Si9  1  0.165646  0.331291  0.998436  1
  Si  Si10  1  0.833677  0.667353  0.000678  1
  Si  Si11  1  0.668709  0.834354  0.998436  1
  Si  Si12  1  0.834690  0.669380  0.501124  1
  Si  Si13  1  0.332647  0.166323  0.000678  1
  Si  Si14  1  0.165760  0.331521  0.498638  1
  Si  Si15  1  0.165646  0.834354  0.998436  1
  Si  Si16  1  0.330620  0.165310  0.501124  1
  Si  Si17  1  0.833677  0.166323  0.000678  1
  Si  Si18  1  0.668479  0.834240  0.498638  1
  Si  Si19  1  0.834690  0.165310  0.501124  1
  Si  Si20  1  0.165760  0.834240  0.498638  1
  Pd  Pd21  1  0.333333  0.666667  0.495771  1
  Pt  Pt22  1  0.666667  0.333333  0.995411  1
  Pt  Pt23  1  0.666667  0.333333  0.503923  1
