# generated using pymatgen
data_Ba4NdTcO8
_symmetry_space_group_name_H-M   'P 1'
_cell_length_a   7.47943758
_cell_length_b   7.47943662
_cell_length_c   6.08715300
_cell_angle_alpha   90.00000000
_cell_angle_beta   90.00000000
_cell_angle_gamma   132.38784964
_symmetry_Int_Tables_number   1
_chemical_formula_structural   Ba4NdTcO8
_chemical_formula_sum   'Ba4 Nd1 Tc1 O8'
_cell_volume   251.51295572
_cell_formula_units_Z   1
loop_
 _symmetry_equiv_pos_site_id
 _symmetry_equiv_pos_as_xyz
  1  'x, y, z'
loop_
 _atom_site_type_symbol
 _atom_site_label
 _atom_site_symmetry_multiplicity
 _atom_site_fract_x
 _atom_site_fract_y
 _atom_site_fract_z
 _atom_site_occupancy
  Ba  Ba0  1  0.354691  0.645309  0.000000  1
  Ba  Ba1  1  0.851391  0.148609  0.500000  1
  Ba  Ba2  1  0.148609  0.851391  0.500000  1
  Ba  Ba3  1  0.645309  0.354691  0.000000  1
  Nd  Nd4  1  0.000000  0.000000  0.000000  1
  Tc  Tc5  1  0.500000  0.500000  0.500000  1
  O  O6  1  0.267440  0.267440  0.726246  1
  O  O7  1  0.732560  0.732560  0.273754  1
  O  O8  1  0.732560  0.732560  0.726246  1
  O  O9  1  0.267440  0.267440  0.273754  1
  O  O10  1  0.170963  0.829037  0.000000  1
  O  O11  1  0.650780  0.349220  0.500000  1
  O  O12  1  0.349220  0.650780  0.500000  1
  O  O13  1  0.829037  0.170963  0.000000  1
