# generated using pymatgen
data_TbY9(CoBi2)2
_symmetry_space_group_name_H-M   'P 1'
_cell_length_a   8.06337240
_cell_length_b   8.90459399
_cell_length_c   12.45008066
_cell_angle_alpha   89.94951685
_cell_angle_beta   90.03100628
_cell_angle_gamma   90.01867226
_symmetry_Int_Tables_number   1
_chemical_formula_structural   TbY9(CoBi2)2
_chemical_formula_sum   'Tb2 Y18 Co4 Bi8'
_cell_volume   893.92843074
_cell_formula_units_Z   2
loop_
 _symmetry_equiv_pos_site_id
 _symmetry_equiv_pos_as_xyz
  1  'x, y, z'
loop_
 _atom_site_type_symbol
 _atom_site_label
 _atom_site_symmetry_multiplicity
 _atom_site_fract_x
 _atom_site_fract_y
 _atom_site_fract_z
 _atom_site_occupancy
  Tb  Tb0  1  0.822998  0.466406  0.062893  1
  Tb  Tb1  1  0.177002  0.533594  0.937107  1
  Y  Y2  1  0.847687  0.749883  0.801135  1
  Y  Y3  1  0.152313  0.250117  0.198865  1
  Y  Y4  1  0.348020  0.250052  0.698471  1
  Y  Y5  1  0.651980  0.749948  0.301529  1
  Y  Y6  1  0.379277  0.749834  0.690212  1
  Y  Y7  1  0.620723  0.250166  0.309788  1
  Y  Y8  1  0.878957  0.249843  0.809324  1
  Y  Y9  1  0.121043  0.750157  0.190676  1
  Y  Y10  1  0.955301  0.750013  0.502285  1
  Y  Y11  1  0.044699  0.249987  0.497715  1
  Y  Y12  1  0.455448  0.250617  0.997733  1
  Y  Y13  1  0.544552  0.749383  0.002267  1
  Y  Y14  1  0.676811  0.033867  0.563465  1
  Y  Y15  1  0.323189  0.966133  0.436535  1
  Y  Y16  1  0.176938  0.965798  0.936549  1
  Y  Y17  1  0.323127  0.533880  0.436549  1
  Y  Y18  1  0.823062  0.034202  0.063451  1
  Y  Y19  1  0.676873  0.466120  0.563451  1
  Co  Co20  1  0.559084  0.749978  0.508026  1
  Co  Co21  1  0.440916  0.250022  0.491974  1
  Co  Co22  1  0.059112  0.251186  0.991735  1
  Co  Co23  1  0.940888  0.748814  0.008265  1
  Bi  Bi24  1  0.570931  0.492281  0.825564  1
  Bi  Bi25  1  0.429069  0.507719  0.174436  1
  Bi  Bi26  1  0.070201  0.507649  0.673910  1
  Bi  Bi27  1  0.429801  0.992401  0.174005  1
  Bi  Bi28  1  0.929799  0.492351  0.326090  1
  Bi  Bi29  1  0.570199  0.007599  0.825995  1
  Bi  Bi30  1  0.929829  0.007687  0.325922  1
  Bi  Bi31  1  0.070171  0.992313  0.674078  1
