# generated using pymatgen
data_Tm2Lu2Al15(GaIr2)3
_symmetry_space_group_name_H-M   'P 1'
_cell_length_a   7.50507521
_cell_length_b   7.50682277
_cell_length_c   9.46946300
_cell_angle_alpha   90.00000000
_cell_angle_beta   90.00000000
_cell_angle_gamma   119.40925781
_symmetry_Int_Tables_number   1
_chemical_formula_structural   Tm2Lu2Al15(GaIr2)3
_chemical_formula_sum   'Tm2 Lu2 Al15 Ga3 Ir6'
_cell_volume   464.75253360
_cell_formula_units_Z   1
loop_
 _symmetry_equiv_pos_site_id
 _symmetry_equiv_pos_as_xyz
  1  'x, y, z'
loop_
 _atom_site_type_symbol
 _atom_site_label
 _atom_site_symmetry_multiplicity
 _atom_site_fract_x
 _atom_site_fract_y
 _atom_site_fract_z
 _atom_site_occupancy
  Tm  Tm0  1  0.998365  0.676648  0.250000  1
  Tm  Tm1  1  0.671569  0.991248  0.250000  1
  Lu  Lu2  1  0.005203  0.324334  0.750000  1
  Lu  Lu3  1  0.322953  0.003378  0.750000  1
  Al  Al4  1  0.001308  0.335643  0.073727  1
  Al  Al5  1  0.998919  0.663822  0.925189  1
  Al  Al6  1  0.998919  0.663822  0.574811  1
  Al  Al7  1  0.336468  0.003034  0.426161  1
  Al  Al8  1  0.001308  0.335643  0.426273  1
  Al  Al9  1  0.663925  0.999672  0.574490  1
  Al  Al10  1  0.663925  0.999672  0.925510  1
  Al  Al11  1  0.336468  0.003034  0.073839  1
  Al  Al12  1  0.333511  0.333671  0.558480  1
  Al  Al13  1  0.666581  0.666171  0.446784  1
  Al  Al14  1  0.666581  0.666171  0.053216  1
  Al  Al15  1  0.333511  0.333671  0.941520  1
  Al  Al16  1  0.662005  0.448383  0.750000  1
  Al  Al17  1  0.552615  0.340088  0.250000  1
  Al  Al18  1  0.448747  0.662299  0.750000  1
  Ga  Ga19  1  0.132488  0.132984  0.250000  1
  Ga  Ga20  1  0.863857  0.864208  0.750000  1
  Ga  Ga21  1  0.340265  0.547327  0.250000  1
  Ir  Ir22  1  0.671903  0.328751  0.000088  1
  Ir  Ir23  1  0.328006  0.673178  0.997917  1
  Ir  Ir24  1  0.328006  0.673178  0.502083  1
  Ir  Ir25  1  0.671903  0.328751  0.499912  1
  Ir  Ir26  1  0.000344  0.000611  0.999597  1
  Ir  Ir27  1  0.000344  0.000611  0.500403  1
