# generated using pymatgen
data_Lu13Th3(InRu)4
_symmetry_space_group_name_H-M   'P 1'
_cell_length_a   9.55280989
_cell_length_b   9.57983271
_cell_length_c   9.57965898
_cell_angle_alpha   59.94970800
_cell_angle_beta   59.86725699
_cell_angle_gamma   59.86806428
_symmetry_Int_Tables_number   1
_chemical_formula_structural   Lu13Th3(InRu)4
_chemical_formula_sum   'Lu13 Th3 In4 Ru4'
_cell_volume   618.42610002
_cell_formula_units_Z   1
loop_
 _symmetry_equiv_pos_site_id
 _symmetry_equiv_pos_as_xyz
  1  'x, y, z'
loop_
 _atom_site_type_symbol
 _atom_site_label
 _atom_site_symmetry_multiplicity
 _atom_site_fract_x
 _atom_site_fract_y
 _atom_site_fract_z
 _atom_site_occupancy
  Lu  Lu0  1  0.197894  0.601729  0.601750  1
  Lu  Lu1  1  0.061584  0.439386  0.439379  1
  Lu  Lu2  1  0.434069  0.063175  0.063194  1
  Lu  Lu3  1  0.435608  0.061705  0.439399  1
  Lu  Lu4  1  0.061744  0.439041  0.059282  1
  Lu  Lu5  1  0.435600  0.439409  0.061697  1
  Lu  Lu6  1  0.061733  0.059275  0.439053  1
  Lu  Lu7  1  0.188438  0.811744  0.811738  1
  Lu  Lu8  1  0.814984  0.187160  0.187158  1
  Lu  Lu9  1  0.815179  0.186788  0.811647  1
  Lu  Lu10  1  0.188085  0.812405  0.188556  1
  Lu  Lu11  1  0.815211  0.811634  0.186774  1
  Lu  Lu12  1  0.188071  0.188549  0.812417  1
  Th  Th13  1  0.596139  0.597578  0.597561  1
  Th  Th14  1  0.596506  0.600240  0.206423  1
  Th  Th15  1  0.596498  0.206429  0.600250  1
  In  In16  1  0.836229  0.833010  0.833000  1
  In  In17  1  0.836005  0.833053  0.496337  1
  In  In18  1  0.836032  0.496319  0.833003  1
  In  In19  1  0.496698  0.833537  0.833528  1
  Ru  Ru20  1  0.393499  0.390956  0.390937  1
  Ru  Ru21  1  0.395116  0.389447  0.825340  1
  Ru  Ru22  1  0.395078  0.825336  0.389475  1
  Ru  Ru23  1  0.823999  0.392096  0.392103  1
