# generated using pymatgen
data_CsSm10(C2Cl9)2
_symmetry_space_group_name_H-M   'P 1'
_cell_length_a   10.43107934
_cell_length_b   10.52903928
_cell_length_c   10.73752318
_cell_angle_alpha   112.94550727
_cell_angle_beta   88.19128051
_cell_angle_gamma   117.92965473
_symmetry_Int_Tables_number   1
_chemical_formula_structural   CsSm10(C2Cl9)2
_chemical_formula_sum   'Cs1 Sm10 C4 Cl18'
_cell_volume   942.81364045
_cell_formula_units_Z   1
loop_
 _symmetry_equiv_pos_site_id
 _symmetry_equiv_pos_as_xyz
  1  'x, y, z'
loop_
 _atom_site_type_symbol
 _atom_site_label
 _atom_site_symmetry_multiplicity
 _atom_site_fract_x
 _atom_site_fract_y
 _atom_site_fract_z
 _atom_site_occupancy
  Cs  Cs0  1  0.500000  0.000000  0.500000  1
  Sm  Sm1  1  0.648518  0.711638  0.695599  1
  Sm  Sm2  1  0.283426  0.374447  0.009335  1
  Sm  Sm3  1  0.092960  0.420681  0.308486  1
  Sm  Sm4  1  0.957678  0.037164  0.339860  1
  Sm  Sm5  1  0.907040  0.579319  0.691514  1
  Sm  Sm6  1  0.119124  0.939320  0.001179  1
  Sm  Sm7  1  0.042322  0.962836  0.660140  1
  Sm  Sm8  1  0.351482  0.288362  0.304401  1
  Sm  Sm9  1  0.716574  0.625553  0.990665  1
  Sm  Sm10  1  0.880876  0.060680  0.998821  1
  C  C11  1  0.159297  0.233604  0.126695  1
  C  C12  1  0.840703  0.766396  0.873305  1
  C  C13  1  0.918296  0.845496  0.791649  1
  C  C14  1  0.081704  0.154504  0.208351  1
  Cl  Cl15  1  0.456537  0.532123  0.834349  1
  Cl  Cl16  1  0.383537  0.038683  0.164079  1
  Cl  Cl17  1  0.776304  0.859788  0.504617  1
  Cl  Cl18  1  0.839317  0.314837  0.157238  1
  Cl  Cl19  1  0.543463  0.467877  0.165651  1
  Cl  Cl20  1  0.223696  0.140212  0.495383  1
  Cl  Cl21  1  0.309042  0.102907  0.831223  1
  Cl  Cl22  1  0.690958  0.897093  0.168777  1
  Cl  Cl23  1  0.976108  0.768180  0.175033  1
  Cl  Cl24  1  0.930560  0.302571  0.497684  1
  Cl  Cl25  1  0.023892  0.231820  0.824967  1
  Cl  Cl26  1  0.069440  0.697429  0.502316  1
  Cl  Cl27  1  0.261456  0.625439  0.192615  1
  Cl  Cl28  1  0.738544  0.374561  0.807385  1
  Cl  Cl29  1  0.636187  0.433118  0.501553  1
  Cl  Cl30  1  0.160683  0.685163  0.842762  1
  Cl  Cl31  1  0.616463  0.961317  0.835921  1
  Cl  Cl32  1  0.363813  0.566882  0.498447  1
