# generated using pymatgen
data_Tb3Dy2Bi2Te
_symmetry_space_group_name_H-M   'P 1'
_cell_length_a   8.20507100
_cell_length_b   9.48105500
_cell_length_c   11.97832500
_cell_angle_alpha   90.00000000
_cell_angle_beta   90.00000000
_cell_angle_gamma   90.00000000
_symmetry_Int_Tables_number   1
_chemical_formula_structural   Tb3Dy2Bi2Te
_chemical_formula_sum   'Tb12 Dy8 Bi8 Te4'
_cell_volume   931.82659575
_cell_formula_units_Z   4
loop_
 _symmetry_equiv_pos_site_id
 _symmetry_equiv_pos_as_xyz
  1  'x, y, z'
loop_
 _atom_site_type_symbol
 _atom_site_label
 _atom_site_symmetry_multiplicity
 _atom_site_fract_x
 _atom_site_fract_y
 _atom_site_fract_z
 _atom_site_occupancy
  Tb  Tb0  1  0.353548  0.750000  0.213120  1
  Tb  Tb1  1  0.853548  0.750000  0.286880  1
  Tb  Tb2  1  0.646452  0.250000  0.786880  1
  Tb  Tb3  1  0.146452  0.250000  0.713120  1
  Tb  Tb4  1  0.476254  0.250000  0.488424  1
  Tb  Tb5  1  0.976254  0.250000  0.011576  1
  Tb  Tb6  1  0.523746  0.750000  0.511576  1
  Tb  Tb7  1  0.023746  0.750000  0.988424  1
  Tb  Tb8  1  0.319147  0.250000  0.217941  1
  Tb  Tb9  1  0.819147  0.250000  0.282059  1
  Tb  Tb10  1  0.680853  0.750000  0.782059  1
  Tb  Tb11  1  0.180853  0.750000  0.717941  1
  Dy  Dy12  1  0.689632  0.562039  0.057291  1
  Dy  Dy13  1  0.189632  0.937961  0.442709  1
  Dy  Dy14  1  0.310368  0.062039  0.942709  1
  Dy  Dy15  1  0.810368  0.437961  0.557291  1
  Dy  Dy16  1  0.310368  0.437961  0.942709  1
  Dy  Dy17  1  0.810368  0.062039  0.557291  1
  Dy  Dy18  1  0.689632  0.937961  0.057291  1
  Dy  Dy19  1  0.189632  0.562039  0.442709  1
  Bi  Bi20  1  0.568505  0.995611  0.325164  1
  Bi  Bi21  1  0.068505  0.504389  0.174836  1
  Bi  Bi22  1  0.431495  0.495611  0.674836  1
  Bi  Bi23  1  0.931495  0.004389  0.825164  1
  Bi  Bi24  1  0.431495  0.004389  0.674836  1
  Bi  Bi25  1  0.931495  0.495611  0.825164  1
  Bi  Bi26  1  0.568505  0.504389  0.325164  1
  Bi  Bi27  1  0.068505  0.995611  0.174836  1
  Te  Te28  1  0.407128  0.750000  0.957297  1
  Te  Te29  1  0.907128  0.750000  0.542703  1
  Te  Te30  1  0.592872  0.250000  0.042703  1
  Te  Te31  1  0.092872  0.250000  0.457297  1
