# generated using pymatgen
data_Nd6CrFe3(Co7P6)2
_symmetry_space_group_name_H-M   'P 1'
_cell_length_a   3.75818600
_cell_length_b   10.69501700
_cell_length_c   12.34399100
_cell_angle_alpha   90.00000000
_cell_angle_beta   90.00000000
_cell_angle_gamma   90.00000000
_symmetry_Int_Tables_number   1
_chemical_formula_structural   Nd6CrFe3(Co7P6)2
_chemical_formula_sum   'Nd6 Cr1 Fe3 Co14 P12'
_cell_volume   496.15268509
_cell_formula_units_Z   1
loop_
 _symmetry_equiv_pos_site_id
 _symmetry_equiv_pos_as_xyz
  1  'x, y, z'
loop_
 _atom_site_type_symbol
 _atom_site_label
 _atom_site_symmetry_multiplicity
 _atom_site_fract_x
 _atom_site_fract_y
 _atom_site_fract_z
 _atom_site_occupancy
  Nd  Nd0  1  0.000000  0.500000  0.522827  1
  Nd  Nd1  1  0.500000  0.000000  0.479462  1
  Nd  Nd2  1  0.500000  0.819408  0.204963  1
  Nd  Nd3  1  0.500000  0.180592  0.204963  1
  Nd  Nd4  1  0.000000  0.680872  0.795823  1
  Nd  Nd5  1  0.000000  0.319128  0.795823  1
  Cr  Cr6  1  0.500000  0.500000  0.151676  1
  Fe  Fe7  1  0.000000  0.000000  0.846808  1
  Fe  Fe8  1  0.000000  0.500000  0.989381  1
  Fe  Fe9  1  0.500000  0.000000  0.009782  1
  Co  Co10  1  0.500000  0.500000  0.702122  1
  Co  Co11  1  0.000000  0.000000  0.297037  1
  Co  Co12  1  0.500000  0.331677  0.995625  1
  Co  Co13  1  0.500000  0.668323  0.995625  1
  Co  Co14  1  0.000000  0.167784  0.004165  1
  Co  Co15  1  0.000000  0.832216  0.004165  1
  Co  Co16  1  0.500000  0.296814  0.429554  1
  Co  Co17  1  0.500000  0.703186  0.429554  1
  Co  Co18  1  0.000000  0.203645  0.569523  1
  Co  Co19  1  0.000000  0.796355  0.569523  1
  Co  Co20  1  0.500000  0.880733  0.710294  1
  Co  Co21  1  0.500000  0.119267  0.710294  1
  Co  Co22  1  0.000000  0.618611  0.289471  1
  Co  Co23  1  0.000000  0.381389  0.289471  1
  P  P24  1  0.500000  0.500000  0.888030  1
  P  P25  1  0.000000  0.000000  0.111118  1
  P  P26  1  0.500000  0.500000  0.341970  1
  P  P27  1  0.000000  0.000000  0.663329  1
  P  P28  1  0.500000  0.305621  0.614677  1
  P  P29  1  0.500000  0.694379  0.614677  1
  P  P30  1  0.000000  0.193139  0.385819  1
  P  P31  1  0.000000  0.806861  0.385819  1
  P  P32  1  0.500000  0.848869  0.894848  1
  P  P33  1  0.500000  0.151131  0.894848  1
  P  P34  1  0.000000  0.652429  0.103468  1
  P  P35  1  0.000000  0.347571  0.103468  1
