# generated using pymatgen
data_DyHoMg2(AlPt)4
_symmetry_space_group_name_H-M   'P 1'
_cell_length_a   4.18170100
_cell_length_b   6.76925376
_cell_length_c   7.85733466
_cell_angle_alpha   84.97468704
_cell_angle_beta   90.00000000
_cell_angle_gamma   90.00000000
_symmetry_Int_Tables_number   1
_chemical_formula_structural   DyHoMg2(AlPt)4
_chemical_formula_sum   'Dy1 Ho1 Mg2 Al4 Pt4'
_cell_volume   221.56258295
_cell_formula_units_Z   1
loop_
 _symmetry_equiv_pos_site_id
 _symmetry_equiv_pos_as_xyz
  1  'x, y, z'
loop_
 _atom_site_type_symbol
 _atom_site_label
 _atom_site_symmetry_multiplicity
 _atom_site_fract_x
 _atom_site_fract_y
 _atom_site_fract_z
 _atom_site_occupancy
  Dy  Dy0  1  0.250000  0.968780  0.317627  1
  Ho  Ho1  1  0.750000  0.031472  0.682779  1
  Mg  Mg2  1  0.250000  0.468241  0.165812  1
  Mg  Mg3  1  0.750000  0.531683  0.833352  1
  Al  Al4  1  0.250000  0.848806  0.939825  1
  Al  Al5  1  0.750000  0.151255  0.059968  1
  Al  Al6  1  0.750000  0.634917  0.445487  1
  Al  Al7  1  0.250000  0.365220  0.554865  1
  Pt  Pt8  1  0.250000  0.719941  0.634673  1
  Pt  Pt9  1  0.750000  0.280366  0.366050  1
  Pt  Pt10  1  0.750000  0.762059  0.120150  1
  Pt  Pt11  1  0.250000  0.237260  0.879411  1
