# generated using pymatgen
data_Li2Dy5Co16TcP12
_symmetry_space_group_name_H-M   'P 1'
_cell_length_a   12.01476444
_cell_length_b   12.01476319
_cell_length_c   3.70704300
_cell_angle_alpha   90.00000000
_cell_angle_beta   90.00000000
_cell_angle_gamma   119.64467894
_symmetry_Int_Tables_number   1
_chemical_formula_structural   Li2Dy5Co16TcP12
_chemical_formula_sum   'Li2 Dy5 Co16 Tc1 P12'
_cell_volume   465.08527815
_cell_formula_units_Z   1
loop_
 _symmetry_equiv_pos_site_id
 _symmetry_equiv_pos_as_xyz
  1  'x, y, z'
loop_
 _atom_site_type_symbol
 _atom_site_label
 _atom_site_symmetry_multiplicity
 _atom_site_fract_x
 _atom_site_fract_y
 _atom_site_fract_z
 _atom_site_occupancy
  Li  Li0  1  0.439215  0.998994  0.000000  1
  Li  Li1  1  0.998994  0.439215  0.000000  1
  Dy  Dy2  1  0.665360  0.334498  0.000000  1
  Dy  Dy3  1  0.334498  0.665360  0.000000  1
  Dy  Dy4  1  0.185266  0.185266  0.500000  1
  Dy  Dy5  1  0.811867  0.999586  0.500000  1
  Dy  Dy6  1  0.999586  0.811867  0.500000  1
  Co  Co7  1  0.821700  0.199223  0.000000  1
  Co  Co8  1  0.803158  0.626319  0.000000  1
  Co  Co9  1  0.378404  0.179453  0.000000  1
  Co  Co10  1  0.199223  0.821700  0.000000  1
  Co  Co11  1  0.626319  0.803158  0.000000  1
  Co  Co12  1  0.179453  0.378404  0.000000  1
  Co  Co13  1  0.642796  0.123791  0.500000  1
  Co  Co14  1  0.870154  0.515753  0.500000  1
  Co  Co15  1  0.482427  0.358489  0.500000  1
  Co  Co16  1  0.123791  0.642796  0.500000  1
  Co  Co17  1  0.515753  0.870154  0.500000  1
  Co  Co18  1  0.358489  0.482427  0.500000  1
  Co  Co19  1  0.719155  0.719155  0.500000  1
  Co  Co20  1  0.283944  0.000840  0.500000  1
  Co  Co21  1  0.000840  0.283944  0.500000  1
  Co  Co22  1  0.003708  0.003708  0.000000  1
  Tc  Tc23  1  0.554843  0.554843  0.000000  1
  P  P24  1  0.364058  0.364058  0.000000  1
  P  P25  1  0.632398  0.999971  0.000000  1
  P  P26  1  0.999971  0.632398  0.000000  1
  P  P27  1  0.829343  0.309795  0.500000  1
  P  P28  1  0.686600  0.522134  0.500000  1
  P  P29  1  0.481216  0.168885  0.500000  1
  P  P30  1  0.309795  0.829343  0.500000  1
  P  P31  1  0.522134  0.686600  0.500000  1
  P  P32  1  0.168885  0.481216  0.500000  1
  P  P33  1  0.822674  0.822674  0.000000  1
  P  P34  1  0.183387  0.000599  0.000000  1
  P  P35  1  0.000599  0.183387  0.000000  1
