# generated using pymatgen
data_AcScP7Ru12
_symmetry_space_group_name_H-M   'P 1'
_cell_length_a   9.48538600
_cell_length_b   9.48538479
_cell_length_c   3.95869500
_cell_angle_alpha   90.00000000
_cell_angle_beta   90.00000000
_cell_angle_gamma   119.99999631
_symmetry_Int_Tables_number   1
_chemical_formula_structural   AcScP7Ru12
_chemical_formula_sum   'Ac1 Sc1 P7 Ru12'
_cell_volume   308.45559541
_cell_formula_units_Z   1
loop_
 _symmetry_equiv_pos_site_id
 _symmetry_equiv_pos_as_xyz
  1  'x, y, z'
loop_
 _atom_site_type_symbol
 _atom_site_label
 _atom_site_symmetry_multiplicity
 _atom_site_fract_x
 _atom_site_fract_y
 _atom_site_fract_z
 _atom_site_occupancy
  Ac  Ac0  1  0.333333  0.666667  0.000000  1
  Sc  Sc1  1  0.666667  0.333333  0.500000  1
  P  P2  1  0.611295  0.717870  0.500000  1
  P  P3  1  0.000000  0.000000  0.000000  1
  P  P4  1  0.282130  0.893425  0.500000  1
  P  P5  1  0.106575  0.388705  0.500000  1
  P  P6  1  0.886411  0.568582  0.000000  1
  P  P7  1  0.431418  0.317829  0.000000  1
  P  P8  1  0.682171  0.113589  0.000000  1
  Ru  Ru9  1  0.562767  0.963056  0.500000  1
  Ru  Ru10  1  0.400291  0.437233  0.500000  1
  Ru  Ru11  1  0.914046  0.117191  0.500000  1
  Ru  Ru12  1  0.203145  0.085954  0.500000  1
  Ru  Ru13  1  0.882809  0.796855  0.500000  1
  Ru  Ru14  1  0.729009  0.892163  0.000000  1
  Ru  Ru15  1  0.107837  0.836846  0.000000  1
  Ru  Ru16  1  0.163154  0.270991  0.000000  1
  Ru  Ru17  1  0.422958  0.075153  0.000000  1
  Ru  Ru18  1  0.924847  0.347806  0.000000  1
  Ru  Ru19  1  0.652194  0.577042  0.000000  1
  Ru  Ru20  1  0.036944  0.599709  0.500000  1
