# generated using pymatgen
data_Hf12Al4VRh7
_symmetry_space_group_name_H-M   'P 1'
_cell_length_a   8.51401592
_cell_length_b   8.51401517
_cell_length_c   8.51401523
_cell_angle_alpha   59.89079648
_cell_angle_beta   59.89079869
_cell_angle_gamma   59.89080538
_symmetry_Int_Tables_number   1
_chemical_formula_structural   Hf12Al4VRh7
_chemical_formula_sum   'Hf12 Al4 V1 Rh7'
_cell_volume   435.32237535
_cell_formula_units_Z   1
loop_
 _symmetry_equiv_pos_site_id
 _symmetry_equiv_pos_as_xyz
  1  'x, y, z'
loop_
 _atom_site_type_symbol
 _atom_site_label
 _atom_site_symmetry_multiplicity
 _atom_site_fract_x
 _atom_site_fract_y
 _atom_site_fract_z
 _atom_site_occupancy
  Hf  Hf0  1  0.807981  0.807981  0.182836  1
  Hf  Hf1  1  0.192706  0.192706  0.807076  1
  Hf  Hf2  1  0.807981  0.182836  0.807981  1
  Hf  Hf3  1  0.192706  0.807076  0.192706  1
  Hf  Hf4  1  0.182836  0.807981  0.807981  1
  Hf  Hf5  1  0.807076  0.192706  0.192706  1
  Hf  Hf6  1  0.445573  0.445573  0.053735  1
  Hf  Hf7  1  0.056324  0.056324  0.446551  1
  Hf  Hf8  1  0.445573  0.053735  0.445573  1
  Hf  Hf9  1  0.056324  0.446551  0.056324  1
  Hf  Hf10  1  0.053735  0.445573  0.445573  1
  Hf  Hf11  1  0.446551  0.056324  0.056324  1
  Al  Al12  1  0.131261  0.623234  0.623234  1
  Al  Al13  1  0.623234  0.131261  0.623234  1
  Al  Al14  1  0.623234  0.623234  0.131261  1
  Al  Al15  1  0.626423  0.626423  0.626423  1
  V  V16  1  0.831794  0.831794  0.831794  1
  Rh  Rh17  1  0.768480  0.412155  0.412155  1
  Rh  Rh18  1  0.412155  0.768480  0.412155  1
  Rh  Rh19  1  0.412155  0.412155  0.768480  1
  Rh  Rh20  1  0.410116  0.410116  0.410116  1
  Rh  Rh21  1  0.482963  0.841409  0.841409  1
  Rh  Rh22  1  0.841409  0.482963  0.841409  1
  Rh  Rh23  1  0.841409  0.841409  0.482963  1
