# generated using pymatgen
data_Cs12K5Rb(GaBi4)2
_symmetry_space_group_name_H-M   'P 1'
_cell_length_a   11.40786600
_cell_length_b   11.45784221
_cell_length_c   11.96323500
_cell_angle_alpha   90.00000000
_cell_angle_beta   90.00000000
_cell_angle_gamma   119.85581339
_symmetry_Int_Tables_number   1
_chemical_formula_structural   Cs12K5Rb(GaBi4)2
_chemical_formula_sum   'Cs12 K5 Rb1 Ga2 Bi8'
_cell_volume   1356.17482201
_cell_formula_units_Z   1
loop_
 _symmetry_equiv_pos_site_id
 _symmetry_equiv_pos_as_xyz
  1  'x, y, z'
loop_
 _atom_site_type_symbol
 _atom_site_label
 _atom_site_symmetry_multiplicity
 _atom_site_fract_x
 _atom_site_fract_y
 _atom_site_fract_z
 _atom_site_occupancy
  Cs  Cs0  1  0.209198  0.418394  0.541685  1
  Cs  Cs1  1  0.790619  0.208894  0.040572  1
  Cs  Cs2  1  0.418273  0.208894  0.040572  1
  Cs  Cs3  1  0.582144  0.791056  0.540978  1
  Cs  Cs4  1  0.208913  0.791056  0.540978  1
  Cs  Cs5  1  0.791074  0.582149  0.459090  1
  Cs  Cs6  1  0.790619  0.208894  0.459428  1
  Cs  Cs7  1  0.791074  0.582149  0.040910  1
  Cs  Cs8  1  0.418273  0.208894  0.459428  1
  Cs  Cs9  1  0.582144  0.791056  0.959022  1
  Cs  Cs10  1  0.209198  0.418394  0.958315  1
  Cs  Cs11  1  0.208913  0.791056  0.959022  1
  K  K12  1  0.880801  0.119017  0.750000  1
  K  K13  1  0.238216  0.119017  0.750000  1
  K  K14  1  0.761084  0.880171  0.250000  1
  K  K15  1  0.119088  0.880171  0.250000  1
  K  K16  1  0.880749  0.761500  0.750000  1
  Rb  Rb17  1  0.118787  0.237574  0.250000  1
  Ga  Ga18  1  0.333439  0.666880  0.250000  1
  Ga  Ga19  1  0.666443  0.332884  0.750000  1
  Bi  Bi20  1  0.477418  0.528552  0.250000  1
  Bi  Bi21  1  0.948488  0.474040  0.750000  1
  Bi  Bi22  1  0.526047  0.052097  0.750000  1
  Bi  Bi23  1  0.474038  0.948074  0.250000  1
  Bi  Bi24  1  0.051136  0.528552  0.250000  1
  Bi  Bi25  1  0.525551  0.474040  0.750000  1
  Bi  Bi26  1  0.999136  0.998273  0.998256  1
  Bi  Bi27  1  0.999136  0.998273  0.501744  1
