# generated using pymatgen
data_DySnHIr
_symmetry_space_group_name_H-M   'P 1'
_cell_length_a   4.44444800
_cell_length_b   7.23057500
_cell_length_c   8.33033200
_cell_angle_alpha   90.00000000
_cell_angle_beta   90.00000000
_cell_angle_gamma   90.00000000
_symmetry_Int_Tables_number   1
_chemical_formula_structural   DySnHIr
_chemical_formula_sum   'Dy4 Sn4 H4 Ir4'
_cell_volume   267.70283772
_cell_formula_units_Z   4
loop_
 _symmetry_equiv_pos_site_id
 _symmetry_equiv_pos_as_xyz
  1  'x, y, z'
loop_
 _atom_site_type_symbol
 _atom_site_label
 _atom_site_symmetry_multiplicity
 _atom_site_fract_x
 _atom_site_fract_y
 _atom_site_fract_z
 _atom_site_occupancy
  Dy  Dy0  1  0.750000  0.016393  0.691501  1
  Dy  Dy1  1  0.250000  0.983607  0.308499  1
  Dy  Dy2  1  0.250000  0.483607  0.191501  1
  Dy  Dy3  1  0.750000  0.516393  0.808499  1
  Sn  Sn4  1  0.750000  0.656699  0.419753  1
  Sn  Sn5  1  0.250000  0.343301  0.580247  1
  Sn  Sn6  1  0.250000  0.843301  0.919753  1
  Sn  Sn7  1  0.750000  0.156699  0.080247  1
  H  H8  1  0.250000  0.459908  0.920021  1
  H  H9  1  0.750000  0.540092  0.079979  1
  H  H10  1  0.750000  0.040092  0.420021  1
  H  H11  1  0.250000  0.959908  0.579979  1
  Ir  Ir12  1  0.750000  0.773498  0.099288  1
  Ir  Ir13  1  0.250000  0.226502  0.900712  1
  Ir  Ir14  1  0.250000  0.726502  0.599288  1
  Ir  Ir15  1  0.750000  0.273498  0.400712  1
