# generated using pymatgen
data_Rb16Hf3GeS16
_symmetry_space_group_name_H-M   'P 1'
_cell_length_a   8.39979280
_cell_length_b   9.99852100
_cell_length_c   14.82846900
_cell_angle_alpha   90.00000000
_cell_angle_beta   90.08291725
_cell_angle_gamma   90.00000000
_symmetry_Int_Tables_number   1
_chemical_formula_structural   Rb16Hf3GeS16
_chemical_formula_sum   'Rb16 Hf3 Ge1 S16'
_cell_volume   1245.37514828
_cell_formula_units_Z   1
loop_
 _symmetry_equiv_pos_site_id
 _symmetry_equiv_pos_as_xyz
  1  'x, y, z'
loop_
 _atom_site_type_symbol
 _atom_site_label
 _atom_site_symmetry_multiplicity
 _atom_site_fract_x
 _atom_site_fract_y
 _atom_site_fract_z
 _atom_site_occupancy
  Rb  Rb0  1  0.000892  0.007031  0.997640  1
  Rb  Rb1  1  0.499713  0.995780  0.499798  1
  Rb  Rb2  1  0.000892  0.492969  0.997640  1
  Rb  Rb3  1  0.499713  0.504220  0.499798  1
  Rb  Rb4  1  0.991498  0.750000  0.427793  1
  Rb  Rb5  1  0.486834  0.250000  0.071171  1
  Rb  Rb6  1  0.009809  0.250000  0.575049  1
  Rb  Rb7  1  0.505377  0.750000  0.922667  1
  Rb  Rb8  1  0.836193  0.057114  0.280901  1
  Rb  Rb9  1  0.336408  0.942727  0.218867  1
  Rb  Rb10  1  0.163191  0.548434  0.722055  1
  Rb  Rb11  1  0.663732  0.437678  0.781776  1
  Rb  Rb12  1  0.163191  0.951566  0.722055  1
  Rb  Rb13  1  0.663732  0.062322  0.781776  1
  Rb  Rb14  1  0.836193  0.442886  0.280901  1
  Rb  Rb15  1  0.336408  0.557273  0.218867  1
  Hf  Hf16  1  0.756637  0.750000  0.668038  1
  Hf  Hf17  1  0.243134  0.250000  0.333825  1
  Hf  Hf18  1  0.742469  0.750000  0.164382  1
  Ge  Ge19  1  0.260621  0.250000  0.833828  1
  S  S20  1  0.991376  0.250000  0.824821  1
  S  S21  1  0.528134  0.250000  0.326622  1
  S  S22  1  0.471302  0.750000  0.676067  1
  S  S23  1  0.027335  0.750000  0.173306  1
  S  S24  1  0.653768  0.553757  0.088270  1
  S  S25  1  0.156028  0.446433  0.409742  1
  S  S26  1  0.343870  0.066447  0.906002  1
  S  S27  1  0.842940  0.947009  0.592010  1
  S  S28  1  0.343870  0.433553  0.906002  1
  S  S29  1  0.842940  0.552991  0.592010  1
  S  S30  1  0.653768  0.946243  0.088270  1
  S  S31  1  0.156028  0.053567  0.409742  1
  S  S32  1  0.631328  0.750000  0.314504  1
  S  S33  1  0.130204  0.250000  0.184163  1
  S  S34  1  0.362447  0.250000  0.691925  1
  S  S35  1  0.868022  0.750000  0.817710  1
