# generated using pymatgen
data_Er5Co14P12Ru5
_symmetry_space_group_name_H-M   'P 1'
_cell_length_a   12.06781317
_cell_length_b   12.06025487
_cell_length_c   3.71369800
_cell_angle_alpha   90.00000000
_cell_angle_beta   90.00000000
_cell_angle_gamma   119.89612479
_symmetry_Int_Tables_number   1
_chemical_formula_structural   Er5Co14P12Ru5
_chemical_formula_sum   'Er5 Co14 P12 Ru5'
_cell_volume   468.57154441
_cell_formula_units_Z   1
loop_
 _symmetry_equiv_pos_site_id
 _symmetry_equiv_pos_as_xyz
  1  'x, y, z'
loop_
 _atom_site_type_symbol
 _atom_site_label
 _atom_site_symmetry_multiplicity
 _atom_site_fract_x
 _atom_site_fract_y
 _atom_site_fract_z
 _atom_site_occupancy
  Er  Er0  1  0.662598  0.333980  0.000000  1
  Er  Er1  1  0.333280  0.666357  0.000000  1
  Er  Er2  1  0.184669  0.183392  0.500000  1
  Er  Er3  1  0.818286  0.000317  0.500000  1
  Er  Er4  1  0.999746  0.819346  0.500000  1
  Co  Co5  1  0.827989  0.198342  0.000000  1
  Co  Co6  1  0.801378  0.628986  0.000000  1
  Co  Co7  1  0.373726  0.177943  0.000000  1
  Co  Co8  1  0.194336  0.820003  0.000000  1
  Co  Co9  1  0.624119  0.803639  0.000000  1
  Co  Co10  1  0.181070  0.373955  0.000000  1
  Co  Co11  1  0.479480  0.357193  0.500000  1
  Co  Co12  1  0.131883  0.645041  0.500000  1
  Co  Co13  1  0.513775  0.868745  0.500000  1
  Co  Co14  1  0.356125  0.483564  0.500000  1
  Co  Co15  1  0.715829  0.718059  0.500000  1
  Co  Co16  1  0.280896  0.998000  0.500000  1
  Co  Co17  1  0.003246  0.283041  0.500000  1
  Co  Co18  1  0.999410  0.999214  0.000000  1
  P  P19  1  0.361764  0.361391  0.000000  1
  P  P20  1  0.635444  0.995513  0.000000  1
  P  P21  1  0.004129  0.640614  0.000000  1
  P  P22  1  0.839104  0.314668  0.500000  1
  P  P23  1  0.680656  0.521202  0.500000  1
  P  P24  1  0.474467  0.166444  0.500000  1
  P  P25  1  0.313670  0.834514  0.500000  1
  P  P26  1  0.519569  0.685114  0.500000  1
  P  P27  1  0.167492  0.479101  0.500000  1
  P  P28  1  0.819617  0.821878  0.000000  1
  P  P29  1  0.178869  0.999879  0.000000  1
  P  P30  1  0.002603  0.179022  0.000000  1
  Ru  Ru31  1  0.550665  0.552811  0.000000  1
  Ru  Ru32  1  0.441467  0.991343  0.000000  1
  Ru  Ru33  1  0.009775  0.451376  0.000000  1
  Ru  Ru34  1  0.643281  0.125014  0.500000  1
  Ru  Ru35  1  0.875588  0.521000  0.500000  1
