# generated using pymatgen
data_Lu3As2PRu3
_symmetry_space_group_name_H-M   'P 1'
_cell_length_a   6.88115000
_cell_length_b   6.88115025
_cell_length_c   3.76341500
_cell_angle_alpha   90.00000000
_cell_angle_beta   90.00000000
_cell_angle_gamma   119.99999878
_symmetry_Int_Tables_number   1
_chemical_formula_structural   Lu3As2PRu3
_chemical_formula_sum   'Lu3 As2 P1 Ru3'
_cell_volume   154.32447727
_cell_formula_units_Z   1
loop_
 _symmetry_equiv_pos_site_id
 _symmetry_equiv_pos_as_xyz
  1  'x, y, z'
loop_
 _atom_site_type_symbol
 _atom_site_label
 _atom_site_symmetry_multiplicity
 _atom_site_fract_x
 _atom_site_fract_y
 _atom_site_fract_z
 _atom_site_occupancy
  Lu  Lu0  1  0.400545  0.400545  0.500000  1
  Lu  Lu1  1  0.599455  0.000000  0.500000  1
  Lu  Lu2  1  0.000000  0.599455  0.500000  1
  As  As3  1  0.666667  0.333333  0.000000  1
  As  As4  1  0.333333  0.666667  0.000000  1
  P  P5  1  0.000000  0.000000  0.500000  1
  Ru  Ru6  1  0.000000  0.233791  0.000000  1
  Ru  Ru7  1  0.233791  0.000000  0.000000  1
  Ru  Ru8  1  0.766209  0.766209  0.000000  1
