# generated using pymatgen
data_Er7Hf(Si4Mo3)4
_symmetry_space_group_name_H-M   'P 1'
_cell_length_a   6.71707835
_cell_length_b   6.89488601
_cell_length_c   12.88409411
_cell_angle_alpha   89.88203036
_cell_angle_beta   90.00590674
_cell_angle_gamma   90.11164072
_symmetry_Int_Tables_number   1
_chemical_formula_structural   Er7Hf(Si4Mo3)4
_chemical_formula_sum   'Er7 Hf1 Si16 Mo12'
_cell_volume   596.70495674
_cell_formula_units_Z   1
loop_
 _symmetry_equiv_pos_site_id
 _symmetry_equiv_pos_as_xyz
  1  'x, y, z'
loop_
 _atom_site_type_symbol
 _atom_site_label
 _atom_site_symmetry_multiplicity
 _atom_site_fract_x
 _atom_site_fract_y
 _atom_site_fract_z
 _atom_site_occupancy
  Er  Er0  1  0.996568  0.167015  0.094179  1
  Er  Er1  1  0.003469  0.832807  0.905141  1
  Er  Er2  1  0.503520  0.666561  0.906478  1
  Er  Er3  1  0.004885  0.832058  0.593256  1
  Er  Er4  1  0.496640  0.332273  0.094045  1
  Er  Er5  1  0.997311  0.167996  0.407126  1
  Er  Er6  1  0.497496  0.333419  0.407677  1
  Hf  Hf7  1  0.505197  0.670749  0.597410  1
  Si  Si8  1  0.033872  0.133761  0.749156  1
  Si  Si9  1  0.964291  0.866340  0.250383  1
  Si  Si10  1  0.465068  0.632085  0.249706  1
  Si  Si11  1  0.534178  0.369354  0.747971  1
  Si  Si12  1  0.304432  0.866697  0.748789  1
  Si  Si13  1  0.696709  0.130825  0.250861  1
  Si  Si14  1  0.197879  0.367580  0.250587  1
  Si  Si15  1  0.800139  0.632773  0.749076  1
  Si  Si16  1  0.167974  0.461210  0.545971  1
  Si  Si17  1  0.837278  0.542480  0.455725  1
  Si  Si18  1  0.340393  0.955561  0.455648  1
  Si  Si19  1  0.840127  0.541809  0.046654  1
  Si  Si20  1  0.659426  0.038804  0.546351  1
  Si  Si21  1  0.158600  0.457901  0.952592  1
  Si  Si22  1  0.658990  0.041682  0.952418  1
  Si  Si23  1  0.339939  0.958570  0.046605  1
  Mo  Mo24  1  0.167178  0.505553  0.747196  1
  Mo  Mo25  1  0.834119  0.497124  0.251416  1
  Mo  Mo26  1  0.333398  0.001701  0.250538  1
  Mo  Mo27  1  0.665685  0.993838  0.747790  1
  Mo  Mo28  1  0.331108  0.163969  0.624208  1
  Mo  Mo29  1  0.666905  0.832751  0.377286  1
  Mo  Mo30  1  0.169721  0.664308  0.375817  1
  Mo  Mo31  1  0.668259  0.834628  0.124993  1
  Mo  Mo32  1  0.830174  0.339828  0.624077  1
  Mo  Mo33  1  0.330938  0.165896  0.873819  1
  Mo  Mo34  1  0.829556  0.336744  0.874508  1
  Mo  Mo35  1  0.168576  0.663351  0.124552  1
