# generated using pymatgen
data_GdLu4In(TeO6)3
_symmetry_space_group_name_H-M   'P 1'
_cell_length_a   9.05137552
_cell_length_b   9.03943638
_cell_length_c   5.11529010
_cell_angle_alpha   90.00000539
_cell_angle_beta   90.38260050
_cell_angle_gamma   119.95638062
_symmetry_Int_Tables_number   1
_chemical_formula_structural   GdLu4In(TeO6)3
_chemical_formula_sum   'Gd1 Lu4 In1 Te3 O18'
_cell_volume   362.60572624
_cell_formula_units_Z   1
loop_
 _symmetry_equiv_pos_site_id
 _symmetry_equiv_pos_as_xyz
  1  'x, y, z'
loop_
 _atom_site_type_symbol
 _atom_site_label
 _atom_site_symmetry_multiplicity
 _atom_site_fract_x
 _atom_site_fract_y
 _atom_site_fract_z
 _atom_site_occupancy
  Gd  Gd0  1  0.000000  0.619432  0.000000  1
  Lu  Lu1  1  0.377530  0.377288  0.997855  1
  Lu  Lu2  1  0.283474  0.998872  0.498698  1
  Lu  Lu3  1  0.716526  0.715398  0.501302  1
  Lu  Lu4  1  0.622470  0.999758  0.002145  1
  In  In5  1  0.000000  0.290855  0.500000  1
  Te  Te6  1  0.337337  0.666047  0.500354  1
  Te  Te7  1  0.000000  0.004713  0.000000  1
  Te  Te8  1  0.662663  0.328709  0.499646  1
  O  O9  1  0.078352  0.883322  0.779216  1
  O  O10  1  0.228900  0.765516  0.289582  1
  O  O11  1  0.134440  0.539405  0.712337  1
  O  O12  1  0.411700  0.868204  0.722116  1
  O  O13  1  0.238426  0.461033  0.277853  1
  O  O14  1  0.118858  0.207853  0.782017  1
  O  O15  1  0.209852  0.123004  0.201289  1
  O  O16  1  0.541650  0.776490  0.284448  1
  O  O17  1  0.461289  0.586372  0.715561  1
  O  O18  1  0.790148  0.913153  0.798711  1
  O  O19  1  0.458350  0.234839  0.715552  1
  O  O20  1  0.588300  0.456505  0.277884  1
  O  O21  1  0.538711  0.125083  0.284439  1
  O  O22  1  0.771100  0.536617  0.710418  1
  O  O23  1  0.921648  0.804970  0.220784  1
  O  O24  1  0.761574  0.222606  0.722147  1
  O  O25  1  0.865560  0.404965  0.287663  1
  O  O26  1  0.881142  0.088994  0.217983  1
