# generated using pymatgen
data_HoLu9In8Pt3Rh
_symmetry_space_group_name_H-M   'P 1'
_cell_length_a   3.57507100
_cell_length_b   8.01761489
_cell_length_c   17.98563552
_cell_angle_alpha   90.07457407
_cell_angle_beta   90.00000000
_cell_angle_gamma   90.00000000
_symmetry_Int_Tables_number   1
_chemical_formula_structural   HoLu9In8Pt3Rh
_chemical_formula_sum   'Ho1 Lu9 In8 Pt3 Rh1'
_cell_volume   515.53159147
_cell_formula_units_Z   1
loop_
 _symmetry_equiv_pos_site_id
 _symmetry_equiv_pos_as_xyz
  1  'x, y, z'
loop_
 _atom_site_type_symbol
 _atom_site_label
 _atom_site_symmetry_multiplicity
 _atom_site_fract_x
 _atom_site_fract_y
 _atom_site_fract_z
 _atom_site_occupancy
  Ho  Ho0  1  0.000000  0.500527  0.499651  1
  Lu  Lu1  1  0.000000  0.114673  0.412165  1
  Lu  Lu2  1  0.000000  0.883158  0.585357  1
  Lu  Lu3  1  0.000000  0.383701  0.914745  1
  Lu  Lu4  1  0.000000  0.616591  0.086720  1
  Lu  Lu5  1  0.000000  0.239246  0.222177  1
  Lu  Lu6  1  0.000000  0.757742  0.778728  1
  Lu  Lu7  1  0.000000  0.257542  0.721487  1
  Lu  Lu8  1  0.000000  0.748298  0.278403  1
  Lu  Lu9  1  0.000000  0.000042  0.000148  1
  In  In10  1  0.500000  0.421960  0.351518  1
  In  In11  1  0.500000  0.576747  0.648390  1
  In  In12  1  0.500000  0.076110  0.852589  1
  In  In13  1  0.500000  0.927441  0.148571  1
  In  In14  1  0.500000  0.291144  0.066649  1
  In  In15  1  0.500000  0.708799  0.934239  1
  In  In16  1  0.500000  0.206432  0.566025  1
  In  In17  1  0.500000  0.793715  0.431347  1
  Pt  Pt18  1  0.500000  0.975695  0.695825  1
  Pt  Pt19  1  0.500000  0.475805  0.804602  1
  Pt  Pt20  1  0.500000  0.522116  0.196026  1
  Rh  Rh21  1  0.500000  0.022514  0.304637  1
