# generated using pymatgen
data_CePr5(Al3Os)8
_symmetry_space_group_name_H-M   'P 1'
_cell_length_a   8.92060937
_cell_length_b   8.92061055
_cell_length_c   9.67398700
_cell_angle_alpha   90.00000000
_cell_angle_beta   90.00000000
_cell_angle_gamma   120.12569789
_symmetry_Int_Tables_number   1
_chemical_formula_structural   CePr5(Al3Os)8
_chemical_formula_sum   'Ce1 Pr5 Al24 Os8'
_cell_volume   665.84593690
_cell_formula_units_Z   1
loop_
 _symmetry_equiv_pos_site_id
 _symmetry_equiv_pos_as_xyz
  1  'x, y, z'
loop_
 _atom_site_type_symbol
 _atom_site_label
 _atom_site_symmetry_multiplicity
 _atom_site_fract_x
 _atom_site_fract_y
 _atom_site_fract_z
 _atom_site_occupancy
  Ce  Ce0  1  0.805712  0.194288  0.750000  1
  Pr  Pr1  1  0.192894  0.385122  0.250000  1
  Pr  Pr2  1  0.808194  0.614159  0.750000  1
  Pr  Pr3  1  0.614878  0.807106  0.250000  1
  Pr  Pr4  1  0.385841  0.191806  0.750000  1
  Pr  Pr5  1  0.191860  0.808140  0.250000  1
  Al  Al6  1  0.333405  0.666595  0.009342  1
  Al  Al7  1  0.666317  0.333683  0.989514  1
  Al  Al8  1  0.666317  0.333683  0.510486  1
  Al  Al9  1  0.333405  0.666595  0.490658  1
  Al  Al10  1  0.162478  0.325443  0.575872  1
  Al  Al11  1  0.837302  0.674164  0.425099  1
  Al  Al12  1  0.674557  0.837522  0.575872  1
  Al  Al13  1  0.837302  0.674164  0.074901  1
  Al  Al14  1  0.325836  0.162698  0.425099  1
  Al  Al15  1  0.162478  0.325443  0.924128  1
  Al  Al16  1  0.162932  0.837068  0.575089  1
  Al  Al17  1  0.325836  0.162698  0.074901  1
  Al  Al18  1  0.837205  0.162795  0.425806  1
  Al  Al19  1  0.674557  0.837522  0.924128  1
  Al  Al20  1  0.837205  0.162795  0.074194  1
  Al  Al21  1  0.162932  0.837068  0.924911  1
  Al  Al22  1  0.562548  0.124154  0.250000  1
  Al  Al23  1  0.438166  0.875157  0.750000  1
  Al  Al24  1  0.875846  0.437452  0.250000  1
  Al  Al25  1  0.124843  0.561834  0.750000  1
  Al  Al26  1  0.562376  0.437624  0.250000  1
  Al  Al27  1  0.437717  0.562283  0.750000  1
  Al  Al28  1  0.999814  0.000186  0.250000  1
  Al  Al29  1  0.998979  0.001021  0.750000  1
  Os  Os30  1  0.501263  0.001028  0.998065  1
  Os  Os31  1  0.998972  0.498737  0.998065  1
  Os  Os32  1  0.501263  0.001028  0.501935  1
  Os  Os33  1  0.499719  0.500281  0.000576  1
  Os  Os34  1  0.998972  0.498737  0.501935  1
  Os  Os35  1  0.499719  0.500281  0.499424  1
  Os  Os36  1  0.000180  0.999820  0.000064  1
  Os  Os37  1  0.000180  0.999820  0.499936  1
