# generated using pymatgen
data_Y12Nb8Re11MoN48
_symmetry_space_group_name_H-M   'P 1'
_cell_length_a   11.15488943
_cell_length_b   11.15488907
_cell_length_c   11.15488991
_cell_angle_alpha   109.49436388
_cell_angle_beta   109.42495341
_cell_angle_gamma   109.49436106
_symmetry_Int_Tables_number   1
_chemical_formula_structural   Y12Nb8Re11MoN48
_chemical_formula_sum   'Y12 Nb8 Re11 Mo1 N48'
_cell_volume   1068.49790720
_cell_formula_units_Z   1
loop_
 _symmetry_equiv_pos_site_id
 _symmetry_equiv_pos_as_xyz
  1  'x, y, z'
loop_
 _atom_site_type_symbol
 _atom_site_label
 _atom_site_symmetry_multiplicity
 _atom_site_fract_x
 _atom_site_fract_y
 _atom_site_fract_z
 _atom_site_occupancy
  Y  Y0  1  0.250596  0.375644  0.122867  1
  Y  Y1  1  0.375419  0.750000  0.125418  1
  Y  Y2  1  0.374543  0.121336  0.248255  1
  Y  Y3  1  0.877133  0.627730  0.252778  1
  Y  Y4  1  0.747222  0.124356  0.374953  1
  Y  Y5  1  0.124959  0.250000  0.374959  1
  Y  Y6  1  0.874582  0.750000  0.624582  1
  Y  Y7  1  0.246794  0.873712  0.625457  1
  Y  Y8  1  0.126919  0.378665  0.753206  1
  Y  Y9  1  0.625048  0.872270  0.749404  1
  Y  Y10  1  0.625041  0.250000  0.875041  1
  Y  Y11  1  0.751745  0.626288  0.873081  1
  Nb  Nb12  1  0.992568  0.003968  0.998904  1
  Nb  Nb13  1  0.511400  0.006336  0.007432  1
  Nb  Nb14  1  0.001096  0.493664  0.005064  1
  Nb  Nb15  1  0.516408  0.498661  0.999256  1
  Nb  Nb16  1  0.000744  0.017152  0.499406  1
  Nb  Nb17  1  0.500594  0.001339  0.517746  1
  Nb  Nb18  1  0.994936  0.496032  0.488600  1
  Nb  Nb19  1  0.482254  0.482848  0.483592  1
  Re  Re20  1  0.745978  0.876374  0.120134  1
  Re  Re21  1  0.630397  0.374155  0.254022  1
  Re  Re22  1  0.127168  0.877403  0.254565  1
  Re  Re23  1  0.243759  0.623625  0.369603  1
  Re  Re24  1  0.625000  0.750000  0.375000  1
  Re  Re25  1  0.375000  0.250000  0.625000  1
  Re  Re26  1  0.745435  0.372603  0.622838  1
  Re  Re27  1  0.879865  0.125845  0.756241  1
  Re  Re28  1  0.377162  0.622597  0.749765  1
  Re  Re29  1  0.250235  0.127397  0.872832  1
  Re  Re30  1  0.125000  0.750000  0.874999  1
  Mo  Mo31  1  0.875000  0.250000  0.125000  1
  N  N32  1  0.314077  0.900213  0.015130  1
  N  N33  1  0.205765  0.119515  0.015470  1
  N  N34  1  0.873875  0.403140  0.086002  1
  N  N35  1  0.702838  0.688379  0.084543  1
  N  N36  1  0.615719  0.413941  0.102760  1
  N  N37  1  0.984530  0.690295  0.104044  1
  N  N38  1  0.594379  0.913113  0.121898  1
  N  N39  1  0.029265  0.212128  0.126126  1
  N  N40  1  0.208785  0.586887  0.181267  1
  N  N41  1  0.481733  0.600596  0.186666  1
  N  N42  1  0.117982  0.017870  0.205011  1
  N  N43  1  0.587129  0.181677  0.206981  1
  N  N44  1  0.485540  0.381705  0.297162  1
  N  N45  1  0.313439  0.913128  0.292040  1
  N  N46  1  0.897240  0.012959  0.311182  1
  N  N47  1  0.913998  0.287873  0.317137  1
  N  N48  1  0.298223  0.487041  0.384281  1
  N  N49  1  0.586070  0.899404  0.381137  1
  N  N50  1  0.818732  0.527518  0.405621  1
  N  N51  1  0.087693  0.880125  0.404420  1
  N  N52  1  0.094548  0.619851  0.412870  1
  N  N53  1  0.813334  0.795066  0.413930  1
  N  N54  1  0.595580  0.183273  0.475705  1
  N  N55  1  0.379440  0.291521  0.477527  1
  N  N56  1  0.618864  0.704935  0.518268  1
  N  N57  1  0.396165  0.811620  0.514460  1
  N  N58  1  0.186006  0.208480  0.587919  1
  N  N59  1  0.895956  0.380486  0.586250  1
  N  N60  1  0.915457  0.118296  0.603835  1
  N  N61  1  0.187140  0.482130  0.600111  1
  N  N62  1  0.412080  0.098087  0.620560  1
  N  N63  1  0.707961  0.521401  0.621089  1
  N  N64  1  0.086136  0.701054  0.685923  1
  N  N65  1  0.099688  0.978600  0.686561  1
  N  N66  1  0.688818  0.086058  0.701777  1
  N  N67  1  0.524296  0.619876  0.707569  1
  N  N68  1  0.413750  0.809706  0.794236  1
  N  N69  1  0.878103  0.972482  0.791216  1
  N  N70  1  0.522473  0.401913  0.813993  1
  N  N71  1  0.794990  0.412971  0.812860  1
  N  N72  1  0.399889  0.087029  0.882019  1
  N  N73  1  0.984870  0.798946  0.885082  1
  N  N74  1  0.025303  0.318323  0.905452  1
  N  N75  1  0.378912  0.586872  0.900312  1
  N  N76  1  0.292432  0.316726  0.912307  1
  N  N77  1  0.114919  0.599787  0.913864  1
  N  N78  1  0.682863  0.096860  0.970735  1
  N  N79  1  0.793020  0.880149  0.974697  1
