# generated using pymatgen
data_ErSc5(CI5)2
_symmetry_space_group_name_H-M   'P 1'
_cell_length_a   7.42058018
_cell_length_b   9.55961633
_cell_length_c   9.50904252
_cell_angle_alpha   106.94424492
_cell_angle_beta   96.73176937
_cell_angle_gamma   104.20986625
_symmetry_Int_Tables_number   1
_chemical_formula_structural   ErSc5(CI5)2
_chemical_formula_sum   'Er1 Sc5 C2 I10'
_cell_volume   612.42861785
_cell_formula_units_Z   1
loop_
 _symmetry_equiv_pos_site_id
 _symmetry_equiv_pos_as_xyz
  1  'x, y, z'
loop_
 _atom_site_type_symbol
 _atom_site_label
 _atom_site_symmetry_multiplicity
 _atom_site_fract_x
 _atom_site_fract_y
 _atom_site_fract_z
 _atom_site_occupancy
  Er  Er0  1  0.618649  0.866588  0.821400  1
  Sc  Sc1  1  0.096901  0.033991  0.798657  1
  Sc  Sc2  1  0.368181  0.128135  0.171532  1
  Sc  Sc3  1  0.910781  0.969660  0.206083  1
  Sc  Sc4  1  0.030028  0.767641  0.934579  1
  Sc  Sc5  1  0.976887  0.234521  0.069853  1
  C  C6  1  0.907778  0.971237  0.960993  1
  C  C7  1  0.098579  0.030767  0.042483  1
  I  I8  1  0.181704  0.745101  0.660354  1
  I  I9  1  0.080755  0.338907  0.829622  1
  I  I10  1  0.453493  0.820197  0.096193  1
  I  I11  1  0.257724  0.086188  0.441839  1
  I  I12  1  0.538585  0.184021  0.909702  1
  I  I13  1  0.803905  0.250335  0.332151  1
  I  I14  1  0.338397  0.434178  0.263742  1
  I  I15  1  0.917073  0.662211  0.172326  1
  I  I16  1  0.667902  0.557027  0.736510  1
  I  I17  1  0.752679  0.919295  0.551982  1
