# generated using pymatgen
data_ErMg(ZnNi)2
_symmetry_space_group_name_H-M   'P 1'
_cell_length_a   5.07865295
_cell_length_b   5.07865347
_cell_length_c   5.07865429
_cell_angle_alpha   119.56322751
_cell_angle_beta   118.29486637
_cell_angle_gamma   91.86857915
_symmetry_Int_Tables_number   1
_chemical_formula_structural   ErMg(ZnNi)2
_chemical_formula_sum   'Er1 Mg1 Zn2 Ni2'
_cell_volume   94.05693330
_cell_formula_units_Z   1
loop_
 _symmetry_equiv_pos_site_id
 _symmetry_equiv_pos_as_xyz
  1  'x, y, z'
loop_
 _atom_site_type_symbol
 _atom_site_label
 _atom_site_symmetry_multiplicity
 _atom_site_fract_x
 _atom_site_fract_y
 _atom_site_fract_z
 _atom_site_occupancy
  Er  Er0  1  0.007569  0.007569  0.000000  1
  Mg  Mg1  1  0.248009  0.748009  0.500000  1
  Zn  Zn2  1  0.622560  0.871588  0.249029  1
  Zn  Zn3  1  0.622560  0.373531  0.750971  1
  Ni  Ni4  1  0.127191  0.374652  0.752540  1
  Ni  Ni5  1  0.622111  0.374652  0.247460  1
