# generated using pymatgen
data_Dy3TmMg2Rh3
_symmetry_space_group_name_H-M   'P 1'
_cell_length_a   7.45065300
_cell_length_b   7.41794732
_cell_length_c   4.09238700
_cell_angle_alpha   90.00000000
_cell_angle_beta   90.00000000
_cell_angle_gamma   120.14595137
_symmetry_Int_Tables_number   1
_chemical_formula_structural   Dy3TmMg2Rh3
_chemical_formula_sum   'Dy3 Tm1 Mg2 Rh3'
_cell_volume   195.58917345
_cell_formula_units_Z   1
loop_
 _symmetry_equiv_pos_site_id
 _symmetry_equiv_pos_as_xyz
  1  'x, y, z'
loop_
 _atom_site_type_symbol
 _atom_site_label
 _atom_site_symmetry_multiplicity
 _atom_site_fract_x
 _atom_site_fract_y
 _atom_site_fract_z
 _atom_site_occupancy
  Dy  Dy0  1  0.392452  0.000000  0.500001  1
  Dy  Dy1  1  0.016799  0.431256  0.500001  1
  Dy  Dy2  1  0.585542  0.568743  0.500001  1
  Tm  Tm3  1  0.751599  0.000000  0.000000  1
  Mg  Mg4  1  0.247254  0.247739  0.000000  1
  Mg  Mg5  1  0.999515  0.752260  0.000000  1
  Rh  Rh6  1  0.668313  0.328244  0.000000  1
  Rh  Rh7  1  0.340069  0.671755  0.000000  1
  Rh  Rh8  1  0.998456  0.000000  0.500001  1
