# generated using pymatgen
data_Y6Tm7Th3(MgRh)4
_symmetry_space_group_name_H-M   'P 1'
_cell_length_a   9.73092675
_cell_length_b   9.72103029
_cell_length_c   9.72103000
_cell_angle_alpha   59.99999418
_cell_angle_beta   60.03363093
_cell_angle_gamma   60.03363155
_symmetry_Int_Tables_number   1
_chemical_formula_structural   Y6Tm7Th3(MgRh)4
_chemical_formula_sum   'Y6 Tm7 Th3 Mg4 Rh4'
_cell_volume   650.55549049
_cell_formula_units_Z   1
loop_
 _symmetry_equiv_pos_site_id
 _symmetry_equiv_pos_as_xyz
  1  'x, y, z'
loop_
 _atom_site_type_symbol
 _atom_site_label
 _atom_site_symmetry_multiplicity
 _atom_site_fract_x
 _atom_site_fract_y
 _atom_site_fract_z
 _atom_site_occupancy
  Y  Y0  1  0.185355  0.814413  0.814413  1
  Y  Y1  1  0.814967  0.184704  0.184704  1
  Y  Y2  1  0.814967  0.184704  0.815626  1
  Y  Y3  1  0.185355  0.814413  0.185819  1
  Y  Y4  1  0.814967  0.815626  0.184704  1
  Y  Y5  1  0.185355  0.185819  0.814413  1
  Tm  Tm6  1  0.202572  0.599143  0.599143  1
  Tm  Tm7  1  0.064204  0.436449  0.436449  1
  Tm  Tm8  1  0.435404  0.064966  0.064966  1
  Tm  Tm9  1  0.435404  0.064966  0.434663  1
  Tm  Tm10  1  0.064204  0.436449  0.062897  1
  Tm  Tm11  1  0.435404  0.434663  0.064966  1
  Tm  Tm12  1  0.064204  0.062897  0.436449  1
  Th  Th13  1  0.596400  0.599366  0.599366  1
  Th  Th14  1  0.596400  0.599366  0.204869  1
  Th  Th15  1  0.596400  0.204869  0.599366  1
  Mg  Mg16  1  0.831592  0.829712  0.829712  1
  Mg  Mg17  1  0.831592  0.829712  0.508982  1
  Mg  Mg18  1  0.831592  0.508982  0.829712  1
  Mg  Mg19  1  0.507119  0.830960  0.830960  1
  Rh  Rh20  1  0.395530  0.391785  0.391785  1
  Rh  Rh21  1  0.395530  0.391785  0.820902  1
  Rh  Rh22  1  0.395530  0.820902  0.391785  1
  Rh  Rh23  1  0.819952  0.393349  0.393349  1
