# generated using pymatgen
data_U7GaSb10
_symmetry_space_group_name_H-M   'P 1'
_cell_length_a   9.37480500
_cell_length_b   9.37480487
_cell_length_c   6.12011200
_cell_angle_alpha   90.00000000
_cell_angle_beta   90.00000000
_cell_angle_gamma   119.99998988
_symmetry_Int_Tables_number   1
_chemical_formula_structural   U7GaSb10
_chemical_formula_sum   'U7 Ga1 Sb10'
_cell_volume   465.81613308
_cell_formula_units_Z   1
loop_
 _symmetry_equiv_pos_site_id
 _symmetry_equiv_pos_as_xyz
  1  'x, y, z'
loop_
 _atom_site_type_symbol
 _atom_site_label
 _atom_site_symmetry_multiplicity
 _atom_site_fract_x
 _atom_site_fract_y
 _atom_site_fract_z
 _atom_site_occupancy
  U  U0  1  0.000000  0.000000  0.000000  1
  U  U1  1  0.386314  0.386314  0.752821  1
  U  U2  1  0.613686  0.000000  0.752821  1
  U  U3  1  0.000000  0.613686  0.752821  1
  U  U4  1  0.613686  0.613686  0.247179  1
  U  U5  1  0.386314  0.000000  0.247179  1
  U  U6  1  0.000000  0.386314  0.247179  1
  Ga  Ga7  1  0.000000  0.000000  0.500000  1
  Sb  Sb8  1  0.723807  0.723807  0.744244  1
  Sb  Sb9  1  0.276193  0.000000  0.744244  1
  Sb  Sb10  1  0.000000  0.276193  0.744244  1
  Sb  Sb11  1  0.276193  0.276193  0.255756  1
  Sb  Sb12  1  0.723807  0.000000  0.255756  1
  Sb  Sb13  1  0.000000  0.723807  0.255756  1
  Sb  Sb14  1  0.666667  0.333333  0.000000  1
  Sb  Sb15  1  0.333333  0.666667  0.000000  1
  Sb  Sb16  1  0.333333  0.666667  0.500000  1
  Sb  Sb17  1  0.666667  0.333333  0.500000  1
