# generated using pymatgen
data_Sc4TcB12Ir
_symmetry_space_group_name_H-M   'P 1'
_cell_length_a   3.50406800
_cell_length_b   8.88373845
_cell_length_c   11.21614533
_cell_angle_alpha   90.14810658
_cell_angle_beta   90.00000000
_cell_angle_gamma   90.00000000
_symmetry_Int_Tables_number   1
_chemical_formula_structural   Sc4TcB12Ir
_chemical_formula_sum   'Sc8 Tc2 B24 Ir2'
_cell_volume   349.14872968
_cell_formula_units_Z   2
loop_
 _symmetry_equiv_pos_site_id
 _symmetry_equiv_pos_as_xyz
  1  'x, y, z'
loop_
 _atom_site_type_symbol
 _atom_site_label
 _atom_site_symmetry_multiplicity
 _atom_site_fract_x
 _atom_site_fract_y
 _atom_site_fract_z
 _atom_site_occupancy
  Sc  Sc0  1  0.500000  0.311468  0.409196  1
  Sc  Sc1  1  0.500000  0.688532  0.590804  1
  Sc  Sc2  1  0.500000  0.176013  0.919050  1
  Sc  Sc3  1  0.500000  0.823987  0.080950  1
  Sc  Sc4  1  0.500000  0.442187  0.125313  1
  Sc  Sc5  1  0.500000  0.557813  0.874687  1
  Sc  Sc6  1  0.500000  0.053172  0.627208  1
  Sc  Sc7  1  0.500000  0.946828  0.372792  1
  Tc  Tc8  1  0.500000  0.139385  0.180883  1
  Tc  Tc9  1  0.500000  0.860615  0.819117  1
  B  B10  1  0.000000  0.102149  0.472320  1
  B  B11  1  0.000000  0.897851  0.527680  1
  B  B12  1  0.000000  0.397786  0.971784  1
  B  B13  1  0.000000  0.602214  0.028216  1
  B  B14  1  0.000000  0.130115  0.317663  1
  B  B15  1  0.000000  0.869885  0.682337  1
  B  B16  1  0.000000  0.369631  0.818658  1
  B  B17  1  0.000000  0.630369  0.181342  1
  B  B18  1  0.000000  0.053004  0.065164  1
  B  B19  1  0.000000  0.946996  0.934836  1
  B  B20  1  0.000000  0.445998  0.563982  1
  B  B21  1  0.000000  0.554002  0.436018  1
  B  B22  1  0.000000  0.479521  0.287186  1
  B  B23  1  0.000000  0.520479  0.712814  1
  B  B24  1  0.000000  0.020785  0.786911  1
  B  B25  1  0.000000  0.979215  0.213089  1
  B  B26  1  0.000000  0.251439  0.078452  1
  B  B27  1  0.000000  0.748561  0.921548  1
  B  B28  1  0.000000  0.247198  0.577465  1
  B  B29  1  0.000000  0.752802  0.422535  1
  B  B30  1  0.000000  0.295089  0.236038  1
  B  B31  1  0.000000  0.704911  0.763962  1
  B  B32  1  0.000000  0.206024  0.735791  1
  B  B33  1  0.000000  0.793976  0.264209  1
  Ir  Ir34  1  0.500000  0.361428  0.678801  1
  Ir  Ir35  1  0.500000  0.638572  0.321199  1
