# generated using pymatgen
data_RbYbPS4
_symmetry_space_group_name_H-M   'P 1'
_cell_length_a   6.38303300
_cell_length_b   6.74982100
_cell_length_c   17.33008400
_cell_angle_alpha   90.00000000
_cell_angle_beta   90.00000000
_cell_angle_gamma   90.00000000
_symmetry_Int_Tables_number   1
_chemical_formula_structural   RbYbPS4
_chemical_formula_sum   'Rb4 Yb4 P4 S16'
_cell_volume   746.65506123
_cell_formula_units_Z   4
loop_
 _symmetry_equiv_pos_site_id
 _symmetry_equiv_pos_as_xyz
  1  'x, y, z'
loop_
 _atom_site_type_symbol
 _atom_site_label
 _atom_site_symmetry_multiplicity
 _atom_site_fract_x
 _atom_site_fract_y
 _atom_site_fract_z
 _atom_site_occupancy
  Rb  Rb0  1  0.004902  0.002563  0.038012  1
  Rb  Rb1  1  0.504902  0.497437  0.961988  1
  Rb  Rb2  1  0.995098  0.502563  0.461988  1
  Rb  Rb3  1  0.495098  0.997437  0.538012  1
  Yb  Yb4  1  0.292872  0.471826  0.228804  1
  Yb  Yb5  1  0.792872  0.028174  0.771196  1
  Yb  Yb6  1  0.707128  0.971826  0.271196  1
  Yb  Yb7  1  0.207128  0.528174  0.728804  1
  P  P8  1  0.216432  0.011189  0.337472  1
  P  P9  1  0.283568  0.988811  0.837472  1
  P  P10  1  0.716432  0.488811  0.662528  1
  P  P11  1  0.783568  0.511189  0.162528  1
  S  S12  1  0.370743  0.947081  0.724831  1
  S  S13  1  0.129257  0.052919  0.224831  1
  S  S14  1  0.419739  0.238887  0.362639  1
  S  S15  1  0.919739  0.261113  0.637361  1
  S  S16  1  0.886443  0.745810  0.648303  1
  S  S17  1  0.959317  0.007850  0.407875  1
  S  S18  1  0.040683  0.507850  0.092125  1
  S  S19  1  0.113557  0.245810  0.851697  1
  S  S20  1  0.629257  0.447081  0.775169  1
  S  S21  1  0.080261  0.761113  0.862639  1
  S  S22  1  0.580261  0.738887  0.137361  1
  S  S23  1  0.870743  0.552919  0.275169  1
  S  S24  1  0.386443  0.754190  0.351697  1
  S  S25  1  0.459317  0.492150  0.592125  1
  S  S26  1  0.540683  0.992150  0.907875  1
  S  S27  1  0.613557  0.254190  0.148303  1
