# generated using pymatgen
data_Li2SmEr(SiO4)2
_symmetry_space_group_name_H-M   'P 1'
_cell_length_a   6.26386516
_cell_length_b   5.46523305
_cell_length_c   10.99468834
_cell_angle_alpha   66.45941388
_cell_angle_beta   90.33602801
_cell_angle_gamma   90.47710801
_symmetry_Int_Tables_number   1
_chemical_formula_structural   Li2SmEr(SiO4)2
_chemical_formula_sum   'Li4 Sm2 Er2 Si4 O16'
_cell_volume   345.04932239
_cell_formula_units_Z   2
loop_
 _symmetry_equiv_pos_site_id
 _symmetry_equiv_pos_as_xyz
  1  'x, y, z'
loop_
 _atom_site_type_symbol
 _atom_site_label
 _atom_site_symmetry_multiplicity
 _atom_site_fract_x
 _atom_site_fract_y
 _atom_site_fract_z
 _atom_site_occupancy
  Li  Li0  1  0.133980  0.917783  0.430946  1
  Li  Li1  1  0.633555  0.076325  0.071408  1
  Li  Li2  1  0.866020  0.082217  0.569054  1
  Li  Li3  1  0.366445  0.923675  0.928592  1
  Sm  Sm4  1  0.117305  0.444839  0.846397  1
  Sm  Sm5  1  0.882695  0.555161  0.153603  1
  Er  Er6  1  0.615779  0.555044  0.650019  1
  Er  Er7  1  0.384221  0.444956  0.349981  1
  Si  Si8  1  0.646516  0.903349  0.361886  1
  Si  Si9  1  0.353484  0.096651  0.638114  1
  Si  Si10  1  0.157366  0.092006  0.144423  1
  Si  Si11  1  0.842634  0.907994  0.855577  1
  O  O12  1  0.851505  0.233684  0.772052  1
  O  O13  1  0.635040  0.228904  0.281194  1
  O  O14  1  0.166595  0.185268  0.523231  1
  O  O15  1  0.830476  0.760783  0.750265  1
  O  O16  1  0.148495  0.766316  0.227948  1
  O  O17  1  0.573019  0.233047  0.551818  1
  O  O18  1  0.655155  0.760532  0.254491  1
  O  O19  1  0.426981  0.766953  0.448182  1
  O  O20  1  0.067916  0.785345  0.939384  1
  O  O21  1  0.660375  0.819027  0.972296  1
  O  O22  1  0.169524  0.239217  0.249735  1
  O  O23  1  0.932084  0.214655  0.060616  1
  O  O24  1  0.339625  0.180973  0.027704  1
  O  O25  1  0.344845  0.239468  0.745509  1
  O  O26  1  0.364960  0.771096  0.718806  1
  O  O27  1  0.833405  0.814732  0.476769  1
