# generated using pymatgen
data_RbFePt3O8
_symmetry_space_group_name_H-M   'P 1'
_cell_length_a   7.51006314
_cell_length_b   7.51006302
_cell_length_c   10.30544907
_cell_angle_alpha   45.92637392
_cell_angle_beta   45.92637626
_cell_angle_gamma   24.38386006
_symmetry_Int_Tables_number   1
_chemical_formula_structural   RbFePt3O8
_chemical_formula_sum   'Rb1 Fe1 Pt3 O8'
_cell_volume   168.58639772
_cell_formula_units_Z   1
loop_
 _symmetry_equiv_pos_site_id
 _symmetry_equiv_pos_as_xyz
  1  'x, y, z'
loop_
 _atom_site_type_symbol
 _atom_site_label
 _atom_site_symmetry_multiplicity
 _atom_site_fract_x
 _atom_site_fract_y
 _atom_site_fract_z
 _atom_site_occupancy
  Rb  Rb0  1  0.495128  0.495128  0.002976  1
  Fe  Fe1  1  0.351658  0.351658  0.812931  1
  Pt  Pt2  1  0.650215  0.650215  0.182907  1
  Pt  Pt3  1  0.168025  0.168025  0.482374  1
  Pt  Pt4  1  0.831223  0.831223  0.522125  1
  O  O5  1  0.150073  0.150073  0.055293  1
  O  O6  1  0.844304  0.844304  0.953848  1
  O  O7  1  0.200342  0.200342  0.648942  1
  O  O8  1  0.797894  0.797894  0.354823  1
  O  O9  1  0.546406  0.546406  0.618878  1
  O  O10  1  0.451484  0.451484  0.377267  1
  O  O11  1  0.175628  0.175628  0.278836  1
  O  O12  1  0.837621  0.837621  0.708801  1
