# generated using pymatgen
data_LuTh3Al15(GaIr2)3
_symmetry_space_group_name_H-M   'P 1'
_cell_length_a   7.62487700
_cell_length_b   7.63447496
_cell_length_c   9.53614500
_cell_angle_alpha   90.00000000
_cell_angle_beta   90.00000000
_cell_angle_gamma   119.53958544
_symmetry_Int_Tables_number   1
_chemical_formula_structural   LuTh3Al15(GaIr2)3
_chemical_formula_sum   'Lu1 Th3 Al15 Ga3 Ir6'
_cell_volume   482.96064266
_cell_formula_units_Z   1
loop_
 _symmetry_equiv_pos_site_id
 _symmetry_equiv_pos_as_xyz
  1  'x, y, z'
loop_
 _atom_site_type_symbol
 _atom_site_label
 _atom_site_symmetry_multiplicity
 _atom_site_fract_x
 _atom_site_fract_y
 _atom_site_fract_z
 _atom_site_occupancy
  Lu  Lu0  1  0.327811  0.005062  0.750000  1
  Th  Th1  1  0.994622  0.670836  0.250000  1
  Th  Th2  1  0.002115  0.328804  0.750000  1
  Th  Th3  1  0.669854  0.993873  0.250000  1
  Al  Al4  1  0.870433  0.868927  0.750000  1
  Al  Al5  1  0.006018  0.335488  0.073599  1
  Al  Al6  1  0.001355  0.670239  0.922039  1
  Al  Al7  1  0.001355  0.670239  0.577961  1
  Al  Al8  1  0.335018  0.004235  0.433636  1
  Al  Al9  1  0.006018  0.335488  0.426401  1
  Al  Al10  1  0.658585  0.995603  0.577852  1
  Al  Al11  1  0.658585  0.995603  0.922148  1
  Al  Al12  1  0.335018  0.004235  0.066364  1
  Al  Al13  1  0.336121  0.332009  0.559130  1
  Al  Al14  1  0.663757  0.663612  0.458001  1
  Al  Al15  1  0.663757  0.663612  0.041999  1
  Al  Al16  1  0.336121  0.332009  0.940870  1
  Al  Al17  1  0.656501  0.449835  0.750000  1
  Al  Al18  1  0.452866  0.663228  0.750000  1
  Ga  Ga19  1  0.136800  0.133184  0.250000  1
  Ga  Ga20  1  0.343826  0.544216  0.250000  1
  Ga  Ga21  1  0.544098  0.339695  0.250000  1
  Ir  Ir22  1  0.673211  0.327995  0.997427  1
  Ir  Ir23  1  0.326838  0.671006  0.997779  1
  Ir  Ir24  1  0.326838  0.671006  0.502221  1
  Ir  Ir25  1  0.673211  0.327995  0.502573  1
  Ir  Ir26  1  0.999635  0.000984  0.997147  1
  Ir  Ir27  1  0.999635  0.000984  0.502853  1
