# generated using pymatgen
data_LiLa3Ag3Sn4
_symmetry_space_group_name_H-M   'P 1'
_cell_length_a   9.03740741
_cell_length_b   9.05807933
_cell_length_c   9.05808047
_cell_angle_alpha   149.41400761
_cell_angle_beta   131.41493722
_cell_angle_gamma   58.52976470
_symmetry_Int_Tables_number   1
_chemical_formula_structural   LiLa3Ag3Sn4
_chemical_formula_sum   'Li1 La3 Ag3 Sn4'
_cell_volume   280.76099521
_cell_formula_units_Z   1
loop_
 _symmetry_equiv_pos_site_id
 _symmetry_equiv_pos_as_xyz
  1  'x, y, z'
loop_
 _atom_site_type_symbol
 _atom_site_label
 _atom_site_symmetry_multiplicity
 _atom_site_fract_x
 _atom_site_fract_y
 _atom_site_fract_z
 _atom_site_occupancy
  Li  Li0  1  0.643903  0.330739  0.313165  1
  La  La1  1  0.366578  0.867685  0.498894  1
  La  La2  1  0.633492  0.130432  0.503059  1
  La  La3  1  0.002210  0.001853  0.000357  1
  Ag  Ag4  1  0.365596  0.670405  0.695192  1
  Ag  Ag5  1  0.015044  0.330904  0.684141  1
  Ag  Ag6  1  0.972503  0.667502  0.305000  1
  Sn  Sn7  1  0.217090  0.217203  0.999887  1
  Sn  Sn8  1  0.783879  0.786577  0.997303  1
  Sn  Sn9  1  0.691828  0.497019  0.194810  1
  Sn  Sn10  1  0.307875  0.499681  0.808194  1
