# generated using pymatgen
data_La7Er3ZnSi7O3
_symmetry_space_group_name_H-M   'P 1'
_cell_length_a   10.81394242
_cell_length_b   10.83086728
_cell_length_c   4.52175200
_cell_angle_alpha   90.00000000
_cell_angle_beta   90.00000000
_cell_angle_gamma   120.05178804
_symmetry_Int_Tables_number   1
_chemical_formula_structural   La7Er3ZnSi7O3
_chemical_formula_sum   'La7 Er3 Zn1 Si7 O3'
_cell_volume   458.41390683
_cell_formula_units_Z   1
loop_
 _symmetry_equiv_pos_site_id
 _symmetry_equiv_pos_as_xyz
  1  'x, y, z'
loop_
 _atom_site_type_symbol
 _atom_site_label
 _atom_site_symmetry_multiplicity
 _atom_site_fract_x
 _atom_site_fract_y
 _atom_site_fract_z
 _atom_site_occupancy
  La  La0  1  0.212954  0.787240  0.000000  1
  La  La1  1  0.575694  0.788319  0.000000  1
  La  La2  1  0.787046  0.574287  0.000000  1
  La  La3  1  0.000000  0.002992  0.000000  1
  La  La4  1  0.211954  0.423180  0.000000  1
  La  La5  1  0.424306  0.212626  0.000000  1
  La  La6  1  0.788046  0.211226  0.000000  1
  Er  Er7  1  0.000000  0.494698  0.500000  1
  Er  Er8  1  0.499844  0.501554  0.500000  1
  Er  Er9  1  0.500156  0.001711  0.500000  1
  Zn  Zn10  1  0.000000  0.776310  0.500000  1
  Si  Si11  1  0.000000  0.221002  0.500000  1
  Si  Si12  1  0.224142  0.224019  0.500000  1
  Si  Si13  1  0.775858  0.999878  0.500000  1
  Si  Si14  1  0.333018  0.665987  0.500000  1
  Si  Si15  1  0.224555  0.003441  0.500000  1
  Si  Si16  1  0.666982  0.332968  0.500000  1
  Si  Si17  1  0.775445  0.778886  0.500000  1
  O  O18  1  0.000000  0.498761  0.000000  1
  O  O19  1  0.499239  0.500076  0.000000  1
  O  O20  1  0.500761  0.000838  0.000000  1
