# generated using pymatgen
data_Tb5Sn3P
_symmetry_space_group_name_H-M   'P 1'
_cell_length_a   9.11744400
_cell_length_b   9.11744389
_cell_length_c   6.75537100
_cell_angle_alpha   90.00000000
_cell_angle_beta   90.00000000
_cell_angle_gamma   120.00000038
_symmetry_Int_Tables_number   1
_chemical_formula_structural   Tb5Sn3P
_chemical_formula_sum   'Tb10 Sn6 P2'
_cell_volume   486.32437710
_cell_formula_units_Z   2
loop_
 _symmetry_equiv_pos_site_id
 _symmetry_equiv_pos_as_xyz
  1  'x, y, z'
loop_
 _atom_site_type_symbol
 _atom_site_label
 _atom_site_symmetry_multiplicity
 _atom_site_fract_x
 _atom_site_fract_y
 _atom_site_fract_z
 _atom_site_occupancy
  Tb  Tb0  1  0.666666  0.333332  0.000000  1
  Tb  Tb1  1  0.333332  0.666666  0.000000  1
  Tb  Tb2  1  0.241009  0.000000  0.249998  1
  Tb  Tb3  1  0.000000  0.241009  0.249998  1
  Tb  Tb4  1  0.758990  0.758990  0.250002  1
  Tb  Tb5  1  0.666665  0.333333  0.500000  1
  Tb  Tb6  1  0.333333  0.666665  0.500000  1
  Tb  Tb7  1  0.758992  0.000000  0.750000  1
  Tb  Tb8  1  0.000000  0.758992  0.750000  1
  Tb  Tb9  1  0.241009  0.241009  0.750001  1
  Sn  Sn10  1  0.600969  0.000000  0.249998  1
  Sn  Sn11  1  0.000000  0.600969  0.249998  1
  Sn  Sn12  1  0.399029  0.399029  0.250002  1
  Sn  Sn13  1  0.399031  0.000000  0.750000  1
  Sn  Sn14  1  0.000000  0.399031  0.750000  1
  Sn  Sn15  1  0.600968  0.600968  0.750001  1
  P  P16  1  0.000000  0.000000  0.000000  1
  P  P17  1  0.000000  0.000000  0.500000  1
