# generated using pymatgen
data_UInCo3
_symmetry_space_group_name_H-M   'P 1'
_cell_length_a   5.11308600
_cell_length_b   7.32442600
_cell_length_c   8.11160600
_cell_angle_alpha   90.00000000
_cell_angle_beta   90.00000000
_cell_angle_gamma   90.00000000
_symmetry_Int_Tables_number   1
_chemical_formula_structural   UInCo3
_chemical_formula_sum   'U4 In4 Co12'
_cell_volume   303.78305189
_cell_formula_units_Z   4
loop_
 _symmetry_equiv_pos_site_id
 _symmetry_equiv_pos_as_xyz
  1  'x, y, z'
loop_
 _atom_site_type_symbol
 _atom_site_label
 _atom_site_symmetry_multiplicity
 _atom_site_fract_x
 _atom_site_fract_y
 _atom_site_fract_z
 _atom_site_occupancy
  U  U0  1  0.750000  0.875570  0.836439  1
  U  U1  1  0.750000  0.375570  0.663561  1
  U  U2  1  0.250000  0.124430  0.163561  1
  U  U3  1  0.250000  0.624430  0.336439  1
  In  In4  1  0.750000  0.936287  0.400635  1
  In  In5  1  0.750000  0.436287  0.099365  1
  In  In6  1  0.250000  0.063713  0.599365  1
  In  In7  1  0.250000  0.563713  0.900635  1
  Co  Co8  1  0.750000  0.557264  0.416854  1
  Co  Co9  1  0.750000  0.057264  0.083146  1
  Co  Co10  1  0.250000  0.442736  0.583146  1
  Co  Co11  1  0.250000  0.942736  0.916854  1
  Co  Co12  1  0.998606  0.262688  0.362639  1
  Co  Co13  1  0.501394  0.762688  0.137361  1
  Co  Co14  1  0.498606  0.737312  0.637361  1
  Co  Co15  1  0.001394  0.237312  0.862639  1
  Co  Co16  1  0.001394  0.737312  0.637361  1
  Co  Co17  1  0.498606  0.237312  0.862639  1
  Co  Co18  1  0.501394  0.262688  0.362639  1
  Co  Co19  1  0.998606  0.762688  0.137361  1
