# generated using pymatgen
data_Tm4AlMoRu6
_symmetry_space_group_name_H-M   'P 1'
_cell_length_a   5.54135309
_cell_length_b   5.17363364
_cell_length_c   8.89789400
_cell_angle_alpha   90.00000000
_cell_angle_beta   90.00000000
_cell_angle_gamma   122.37572176
_symmetry_Int_Tables_number   1
_chemical_formula_structural   Tm4AlMoRu6
_chemical_formula_sum   'Tm4 Al1 Mo1 Ru6'
_cell_volume   215.44013294
_cell_formula_units_Z   1
loop_
 _symmetry_equiv_pos_site_id
 _symmetry_equiv_pos_as_xyz
  1  'x, y, z'
loop_
 _atom_site_type_symbol
 _atom_site_label
 _atom_site_symmetry_multiplicity
 _atom_site_fract_x
 _atom_site_fract_y
 _atom_site_fract_z
 _atom_site_occupancy
  Tm  Tm0  1  0.674343  0.348868  0.565847  1
  Tm  Tm1  1  0.331209  0.662558  0.434074  1
  Tm  Tm2  1  0.331209  0.662558  0.065926  1
  Tm  Tm3  1  0.674343  0.348868  0.934153  1
  Al  Al4  1  0.835216  0.669994  0.250000  1
  Mo  Mo5  1  0.153595  0.307399  0.750000  1
  Ru  Ru6  1  0.009742  0.019393  0.497762  1
  Ru  Ru7  1  0.009742  0.019393  0.002238  1
  Ru  Ru8  1  0.174968  0.817465  0.750000  1
  Ru  Ru9  1  0.642296  0.817140  0.750000  1
  Ru  Ru10  1  0.816445  0.163253  0.250000  1
  Ru  Ru11  1  0.346895  0.163112  0.250000  1
