# generated using pymatgen
data_Dy8Er9Tm3Pb16
_symmetry_space_group_name_H-M   'P 1'
_cell_length_a   8.15628300
_cell_length_b   8.23331924
_cell_length_c   15.55332400
_cell_angle_alpha   90.00000000
_cell_angle_beta   90.00000000
_cell_angle_gamma   89.98626291
_symmetry_Int_Tables_number   1
_chemical_formula_structural   Dy8Er9Tm3Pb16
_chemical_formula_sum   'Dy8 Er9 Tm3 Pb16'
_cell_volume   1044.45671829
_cell_formula_units_Z   1
loop_
 _symmetry_equiv_pos_site_id
 _symmetry_equiv_pos_as_xyz
  1  'x, y, z'
loop_
 _atom_site_type_symbol
 _atom_site_label
 _atom_site_symmetry_multiplicity
 _atom_site_fract_x
 _atom_site_fract_y
 _atom_site_fract_z
 _atom_site_occupancy
  Dy  Dy0  1  0.536535  0.323385  0.900041  1
  Dy  Dy1  1  0.036519  0.176594  0.599985  1
  Dy  Dy2  1  0.463484  0.676500  0.400130  1
  Dy  Dy3  1  0.963389  0.823319  0.099833  1
  Dy  Dy4  1  0.463484  0.676500  0.099870  1
  Dy  Dy5  1  0.963389  0.823319  0.400167  1
  Dy  Dy6  1  0.536535  0.323385  0.599959  1
  Dy  Dy7  1  0.036519  0.176594  0.900015  1
  Er  Er8  1  0.376550  0.841425  0.878772  1
  Er  Er9  1  0.876489  0.658461  0.621172  1
  Er  Er10  1  0.623615  0.158676  0.379004  1
  Er  Er11  1  0.123357  0.341570  0.121018  1
  Er  Er12  1  0.623615  0.158676  0.120996  1
  Er  Er13  1  0.123357  0.341570  0.378982  1
  Er  Er14  1  0.376550  0.841425  0.621228  1
  Er  Er15  1  0.876489  0.658461  0.878828  1
  Er  Er16  1  0.291634  0.004543  0.250000  1
  Tm  Tm17  1  0.208256  0.504605  0.750000  1
  Tm  Tm18  1  0.708315  0.995338  0.750000  1
  Tm  Tm19  1  0.791691  0.495263  0.250000  1
  Pb  Pb20  1  0.282139  0.033651  0.042919  1
  Pb  Pb21  1  0.782064  0.466331  0.456985  1
  Pb  Pb22  1  0.717777  0.966420  0.543310  1
  Pb  Pb23  1  0.217925  0.533777  0.956746  1
  Pb  Pb24  1  0.717777  0.966420  0.956690  1
  Pb  Pb25  1  0.217925  0.533777  0.543254  1
  Pb  Pb26  1  0.282139  0.033651  0.457081  1
  Pb  Pb27  1  0.782064  0.466331  0.043015  1
  Pb  Pb28  1  0.571033  0.626616  0.750000  1
  Pb  Pb29  1  0.070784  0.873358  0.750000  1
  Pb  Pb30  1  0.428900  0.373609  0.250000  1
  Pb  Pb31  1  0.928606  0.126796  0.250000  1
  Pb  Pb32  1  0.348134  0.154402  0.750000  1
  Pb  Pb33  1  0.847950  0.345512  0.750000  1
  Pb  Pb34  1  0.652534  0.845972  0.250000  1
  Pb  Pb35  1  0.152479  0.653769  0.250000  1
