# generated using pymatgen
data_Tm4Al17Ga7Pt9
_symmetry_space_group_name_H-M   'P 1'
_cell_length_a   7.50799569
_cell_length_b   7.50985501
_cell_length_c   13.19339902
_cell_angle_alpha   84.64031461
_cell_angle_beta   100.80969897
_cell_angle_gamma   119.91467278
_symmetry_Int_Tables_number   1
_chemical_formula_structural   Tm4Al17Ga7Pt9
_chemical_formula_sum   'Tm4 Al17 Ga7 Pt9'
_cell_volume   633.34469743
_cell_formula_units_Z   1
loop_
 _symmetry_equiv_pos_site_id
 _symmetry_equiv_pos_as_xyz
  1  'x, y, z'
loop_
 _atom_site_type_symbol
 _atom_site_label
 _atom_site_symmetry_multiplicity
 _atom_site_fract_x
 _atom_site_fract_y
 _atom_site_fract_z
 _atom_site_occupancy
  Tm  Tm0  1  0.736240  0.002594  0.191687  1
  Tm  Tm1  1  0.262241  0.996094  0.807711  1
  Tm  Tm2  1  0.059312  0.665759  0.190658  1
  Tm  Tm3  1  0.940587  0.335366  0.808948  1
  Al  Al4  1  0.118340  0.334851  0.331155  1
  Al  Al5  1  0.601383  0.456185  0.815548  1
  Al  Al6  1  0.397961  0.543423  0.184425  1
  Al  Al7  1  0.230203  0.339378  0.669594  1
  Al  Al8  1  0.769932  0.660717  0.330590  1
  Al  Al9  1  0.853452  0.332404  0.558362  1
  Al  Al10  1  0.186148  0.999786  0.558405  1
  Al  Al11  1  0.813897  0.000759  0.440863  1
  Al  Al12  1  0.352438  0.000003  0.055796  1
  Al  Al13  1  0.647428  0.000392  0.944244  1
  Al  Al14  1  0.556243  0.994661  0.670106  1
  Al  Al15  1  0.443829  0.005098  0.330123  1
  Al  Al16  1  0.520734  0.668088  0.560395  1
  Al  Al17  1  0.479872  0.331888  0.439365  1
  Al  Al18  1  0.684773  0.667425  0.049095  1
  Al  Al19  1  0.314703  0.332349  0.950996  1
  Al  Al20  1  0.146230  0.667010  0.440603  1
  Ga  Ga21  1  0.803404  0.871397  0.815109  1
  Ga  Ga22  1  0.196526  0.130055  0.185172  1
  Ga  Ga23  1  0.982125  0.666063  0.939828  1
  Ga  Ga24  1  0.017553  0.333921  0.060883  1
  Ga  Ga25  1  0.400543  0.663185  0.816393  1
  Ga  Ga26  1  0.599802  0.336732  0.183618  1
  Ga  Ga27  1  0.883902  0.664756  0.671802  1
  Pt  Pt28  1  0.336197  0.674249  0.003172  1
  Pt  Pt29  1  0.543404  0.322044  0.637761  1
  Pt  Pt30  1  0.453505  0.674526  0.362080  1
  Pt  Pt31  1  0.888255  0.011849  0.636950  1
  Pt  Pt32  1  0.111665  0.991199  0.362829  1
  Pt  Pt33  1  0.663490  0.325748  0.996693  1
  Pt  Pt34  1  0.206818  0.666880  0.636413  1
  Pt  Pt35  1  0.796816  0.333113  0.362478  1
  Pt  Pt36  1  0.000049  0.000050  0.000152  1
