# generated using pymatgen
data_Yb2YTm(Ga3Ir)6
_symmetry_space_group_name_H-M   'P 1'
_cell_length_a   7.55030724
_cell_length_b   7.55242857
_cell_length_c   9.57259300
_cell_angle_alpha   90.00000000
_cell_angle_beta   90.00000000
_cell_angle_gamma   119.74451180
_symmetry_Int_Tables_number   1
_chemical_formula_structural   Yb2YTm(Ga3Ir)6
_chemical_formula_sum   'Yb2 Y1 Tm1 Ga18 Ir6'
_cell_volume   473.94048315
_cell_formula_units_Z   1
loop_
 _symmetry_equiv_pos_site_id
 _symmetry_equiv_pos_as_xyz
  1  'x, y, z'
loop_
 _atom_site_type_symbol
 _atom_site_label
 _atom_site_symmetry_multiplicity
 _atom_site_fract_x
 _atom_site_fract_y
 _atom_site_fract_z
 _atom_site_occupancy
  Yb  Yb0  1  0.996579  0.669263  0.750000  1
  Yb  Yb1  1  0.003464  0.330729  0.250000  1
  Y  Y2  1  0.669010  0.997947  0.750000  1
  Tm  Tm3  1  0.331008  0.001893  0.250000  1
  Ga  Ga4  1  0.127381  0.129217  0.750000  1
  Ga  Ga5  1  0.873311  0.871012  0.250000  1
  Ga  Ga6  1  0.000605  0.336085  0.577760  1
  Ga  Ga7  1  0.000020  0.664573  0.421759  1
  Ga  Ga8  1  0.000020  0.664573  0.078241  1
  Ga  Ga9  1  0.332683  0.998481  0.920815  1
  Ga  Ga10  1  0.000605  0.336085  0.922240  1
  Ga  Ga11  1  0.666639  0.001512  0.080127  1
  Ga  Ga12  1  0.666639  0.001512  0.419873  1
  Ga  Ga13  1  0.332683  0.998481  0.579185  1
  Ga  Ga14  1  0.331944  0.332393  0.064895  1
  Ga  Ga15  1  0.668048  0.667036  0.935639  1
  Ga  Ga16  1  0.668048  0.667036  0.564361  1
  Ga  Ga17  1  0.331944  0.332393  0.435105  1
  Ga  Ga18  1  0.338737  0.546358  0.750000  1
  Ga  Ga19  1  0.660698  0.452892  0.250000  1
  Ga  Ga20  1  0.546242  0.336878  0.750000  1
  Ga  Ga21  1  0.453581  0.663514  0.250000  1
  Ir  Ir22  1  0.671071  0.328325  0.499980  1
  Ir  Ir23  1  0.328718  0.671689  0.499467  1
  Ir  Ir24  1  0.328718  0.671689  0.000533  1
  Ir  Ir25  1  0.671071  0.328325  0.000020  1
  Ir  Ir26  1  0.000266  0.000054  0.499730  1
  Ir  Ir27  1  0.000266  0.000054  0.000270  1
