# generated using pymatgen
data_Sm3Th5(ZnRh)8
_symmetry_space_group_name_H-M   'P 1'
_cell_length_a   3.92595900
_cell_length_b   7.51564807
_cell_length_c   16.51130100
_cell_angle_alpha   90.39220620
_cell_angle_beta   90.00000000
_cell_angle_gamma   90.00000000
_symmetry_Int_Tables_number   1
_chemical_formula_structural   Sm3Th5(ZnRh)8
_chemical_formula_sum   'Sm3 Th5 Zn8 Rh8'
_cell_volume   487.17311656
_cell_formula_units_Z   1
loop_
 _symmetry_equiv_pos_site_id
 _symmetry_equiv_pos_as_xyz
  1  'x, y, z'
loop_
 _atom_site_type_symbol
 _atom_site_label
 _atom_site_symmetry_multiplicity
 _atom_site_fract_x
 _atom_site_fract_y
 _atom_site_fract_z
 _atom_site_occupancy
  Sm  Sm0  1  0.750000  0.444670  0.214372  1
  Sm  Sm1  1  0.250000  0.053677  0.713632  1
  Sm  Sm2  1  0.250000  0.553731  0.785857  1
  Th  Th3  1  0.250000  0.174235  0.937841  1
  Th  Th4  1  0.250000  0.673240  0.562220  1
  Th  Th5  1  0.750000  0.326260  0.438742  1
  Th  Th6  1  0.750000  0.945100  0.284096  1
  Th  Th7  1  0.750000  0.829540  0.060470  1
  Zn  Zn8  1  0.750000  0.007627  0.562001  1
  Zn  Zn9  1  0.250000  0.613782  0.344079  1
  Zn  Zn10  1  0.750000  0.380908  0.656506  1
  Zn  Zn11  1  0.250000  0.496150  0.062887  1
  Zn  Zn12  1  0.750000  0.507704  0.937898  1
  Zn  Zn13  1  0.250000  0.991900  0.441753  1
  Zn  Zn14  1  0.250000  0.124589  0.152625  1
  Zn  Zn15  1  0.750000  0.881090  0.843586  1
  Rh  Rh16  1  0.750000  0.741632  0.438179  1
  Rh  Rh17  1  0.250000  0.232535  0.318153  1
  Rh  Rh18  1  0.750000  0.248369  0.819361  1
  Rh  Rh19  1  0.750000  0.749722  0.680214  1
  Rh  Rh20  1  0.250000  0.260680  0.560071  1
  Rh  Rh21  1  0.250000  0.759335  0.185615  1
  Rh  Rh22  1  0.750000  0.244167  0.059331  1
  Rh  Rh23  1  0.250000  0.759356  0.940507  1
