# generated using pymatgen
data_Dy5Y5Si5P
_symmetry_space_group_name_H-M   'P 1'
_cell_length_a   8.43109020
_cell_length_b   8.43108966
_cell_length_c   6.31282700
_cell_angle_alpha   90.00000000
_cell_angle_beta   90.00000000
_cell_angle_gamma   120.03134052
_symmetry_Int_Tables_number   1
_chemical_formula_structural   Dy5Y5Si5P
_chemical_formula_sum   'Dy5 Y5 Si5 P1'
_cell_volume   388.49436398
_cell_formula_units_Z   1
loop_
 _symmetry_equiv_pos_site_id
 _symmetry_equiv_pos_as_xyz
  1  'x, y, z'
loop_
 _atom_site_type_symbol
 _atom_site_label
 _atom_site_symmetry_multiplicity
 _atom_site_fract_x
 _atom_site_fract_y
 _atom_site_fract_z
 _atom_site_occupancy
  Dy  Dy0  1  0.666336  0.332720  0.249536  1
  Dy  Dy1  1  0.332720  0.666336  0.249536  1
  Dy  Dy2  1  0.332720  0.666336  0.750464  1
  Dy  Dy3  1  0.666336  0.332720  0.750464  1
  Dy  Dy4  1  0.754954  0.754954  0.500000  1
  Y  Y5  1  0.243261  0.999224  0.500000  1
  Y  Y6  1  0.999224  0.243261  0.500000  1
  Y  Y7  1  0.247013  0.247013  0.000000  1
  Y  Y8  1  0.756696  0.999249  0.000000  1
  Y  Y9  1  0.999249  0.756696  0.000000  1
  Si  Si10  1  0.392077  0.392077  0.500000  1
  Si  Si11  1  0.605841  0.999263  0.500000  1
  Si  Si12  1  0.999263  0.605841  0.500000  1
  Si  Si13  1  0.393488  0.000151  0.000000  1
  Si  Si14  1  0.000151  0.393488  0.000000  1
  P  P15  1  0.610722  0.610722  0.000000  1
