# generated using pymatgen
data_Pr4ZnI5
_symmetry_space_group_name_H-M   'P 1'
_cell_length_a   4.23648700
_cell_length_b   9.39852500
_cell_length_c   19.15295800
_cell_angle_alpha   90.00000000
_cell_angle_beta   90.00000000
_cell_angle_gamma   90.00000000
_symmetry_Int_Tables_number   1
_chemical_formula_structural   Pr4ZnI5
_chemical_formula_sum   'Pr8 Zn2 I10'
_cell_volume   762.60813788
_cell_formula_units_Z   2
loop_
 _symmetry_equiv_pos_site_id
 _symmetry_equiv_pos_as_xyz
  1  'x, y, z'
loop_
 _atom_site_type_symbol
 _atom_site_label
 _atom_site_symmetry_multiplicity
 _atom_site_fract_x
 _atom_site_fract_y
 _atom_site_fract_z
 _atom_site_occupancy
  Pr  Pr0  1  0.000000  0.371627  0.847261  1
  Pr  Pr1  1  0.500000  0.596757  0.000000  1
  Pr  Pr2  1  0.000000  0.371627  0.152739  1
  Pr  Pr3  1  0.000000  0.849239  0.500000  1
  Pr  Pr4  1  0.500000  0.628373  0.347261  1
  Pr  Pr5  1  0.000000  0.403243  0.500000  1
  Pr  Pr6  1  0.500000  0.628373  0.652739  1
  Pr  Pr7  1  0.500000  0.150761  0.000000  1
  Zn  Zn8  1  0.500000  0.626262  0.500000  1
  Zn  Zn9  1  0.000000  0.373738  0.000000  1
  I  I10  1  0.500000  0.115307  0.168307  1
  I  I11  1  0.000000  0.365276  0.670658  1
  I  I12  1  0.000000  0.871415  0.000000  1
  I  I13  1  0.000000  0.884693  0.331693  1
  I  I14  1  0.500000  0.115307  0.831693  1
  I  I15  1  0.500000  0.634724  0.829342  1
  I  I16  1  0.000000  0.884693  0.668307  1
  I  I17  1  0.000000  0.365276  0.329342  1
  I  I18  1  0.500000  0.634724  0.170658  1
  I  I19  1  0.500000  0.128585  0.500000  1
