# generated using pymatgen
data_TbFeCo3P3W
_symmetry_space_group_name_H-M   'P 1'
_cell_length_a   3.70924800
_cell_length_b   10.41741300
_cell_length_c   11.91051600
_cell_angle_alpha   90.00000000
_cell_angle_beta   90.00000000
_cell_angle_gamma   90.00000000
_symmetry_Int_Tables_number   1
_chemical_formula_structural   TbFeCo3P3W
_chemical_formula_sum   'Tb4 Fe4 Co12 P12 W4'
_cell_volume   460.23148951
_cell_formula_units_Z   4
loop_
 _symmetry_equiv_pos_site_id
 _symmetry_equiv_pos_as_xyz
  1  'x, y, z'
loop_
 _atom_site_type_symbol
 _atom_site_label
 _atom_site_symmetry_multiplicity
 _atom_site_fract_x
 _atom_site_fract_y
 _atom_site_fract_z
 _atom_site_occupancy
  Tb  Tb0  1  0.250000  0.581550  0.705579  1
  Tb  Tb1  1  0.250000  0.918450  0.205579  1
  Tb  Tb2  1  0.750000  0.418450  0.294421  1
  Tb  Tb3  1  0.750000  0.081550  0.794421  1
  Fe  Fe4  1  0.250000  0.463395  0.933607  1
  Fe  Fe5  1  0.250000  0.036605  0.433607  1
  Fe  Fe6  1  0.750000  0.536605  0.066393  1
  Fe  Fe7  1  0.750000  0.963395  0.566393  1
  Co  Co8  1  0.250000  0.405810  0.488743  1
  Co  Co9  1  0.250000  0.094190  0.988743  1
  Co  Co10  1  0.750000  0.594190  0.511257  1
  Co  Co11  1  0.750000  0.905810  0.011257  1
  Co  Co12  1  0.250000  0.224130  0.175576  1
  Co  Co13  1  0.250000  0.275870  0.675576  1
  Co  Co14  1  0.750000  0.775870  0.824424  1
  Co  Co15  1  0.750000  0.724130  0.324424  1
  Co  Co16  1  0.250000  0.884797  0.702064  1
  Co  Co17  1  0.250000  0.615203  0.202064  1
  Co  Co18  1  0.750000  0.115203  0.297936  1
  Co  Co19  1  0.750000  0.384797  0.797936  1
  P  P20  1  0.250000  0.423901  0.113977  1
  P  P21  1  0.250000  0.076099  0.613977  1
  P  P22  1  0.750000  0.576099  0.886023  1
  P  P23  1  0.750000  0.923901  0.386023  1
  P  P24  1  0.250000  0.269764  0.862891  1
  P  P25  1  0.250000  0.230236  0.362891  1
  P  P26  1  0.750000  0.730236  0.137109  1
  P  P27  1  0.750000  0.769764  0.637109  1
  P  P28  1  0.250000  0.596073  0.391486  1
  P  P29  1  0.250000  0.903927  0.891486  1
  P  P30  1  0.750000  0.403927  0.608514  1
  P  P31  1  0.750000  0.096073  0.108514  1
  W  W32  1  0.250000  0.705449  0.990381  1
  W  W33  1  0.250000  0.794551  0.490381  1
  W  W34  1  0.750000  0.294551  0.009619  1
  W  W35  1  0.750000  0.205449  0.509619  1
