# generated using pymatgen
data_Er2Bi5SbO14
_symmetry_space_group_name_H-M   'P 1'
_cell_length_a   6.56721823
_cell_length_b   6.80607431
_cell_length_c   7.74570898
_cell_angle_alpha   106.16051363
_cell_angle_beta   89.94506712
_cell_angle_gamma   99.13880271
_symmetry_Int_Tables_number   1
_chemical_formula_structural   Er2Bi5SbO14
_chemical_formula_sum   'Er2 Bi5 Sb1 O14'
_cell_volume   327.96696764
_cell_formula_units_Z   1
loop_
 _symmetry_equiv_pos_site_id
 _symmetry_equiv_pos_as_xyz
  1  'x, y, z'
loop_
 _atom_site_type_symbol
 _atom_site_label
 _atom_site_symmetry_multiplicity
 _atom_site_fract_x
 _atom_site_fract_y
 _atom_site_fract_z
 _atom_site_occupancy
  Er  Er0  1  0.460153  0.003591  0.245082  1
  Er  Er1  1  0.539847  0.996409  0.754918  1
  Bi  Bi2  1  0.000000  0.000000  0.500000  1
  Bi  Bi3  1  0.258232  0.517832  0.881854  1
  Bi  Bi4  1  0.741768  0.482168  0.118146  1
  Bi  Bi5  1  0.726100  0.465300  0.609616  1
  Bi  Bi6  1  0.273900  0.534700  0.390384  1
  Sb  Sb7  1  0.000000  0.000000  0.000000  1
  O  O8  1  0.462817  0.660385  0.180387  1
  O  O9  1  0.537183  0.339615  0.819613  1
  O  O10  1  0.291850  0.951625  0.950075  1
  O  O11  1  0.708150  0.048375  0.049925  1
  O  O12  1  0.301198  0.922207  0.508986  1
  O  O13  1  0.698802  0.077793  0.491014  1
  O  O14  1  0.530410  0.347588  0.349425  1
  O  O15  1  0.469590  0.652412  0.650575  1
  O  O16  1  0.921017  0.690914  0.966535  1
  O  O17  1  0.078983  0.309086  0.033465  1
  O  O18  1  0.097658  0.327047  0.617608  1
  O  O19  1  0.902342  0.672953  0.382392  1
  O  O20  1  0.886373  0.940427  0.744309  1
  O  O21  1  0.113627  0.059573  0.255691  1
