# generated using pymatgen
data_Ce3Au4
_symmetry_space_group_name_H-M   'P 1'
_cell_length_a   8.28343148
_cell_length_b   8.28343093
_cell_length_c   8.28343026
_cell_angle_alpha   113.87510400
_cell_angle_beta   113.87510467
_cell_angle_gamma   113.87511546
_symmetry_Int_Tables_number   1
_chemical_formula_structural   Ce3Au4
_chemical_formula_sum   'Ce6 Au8'
_cell_volume   348.48847205
_cell_formula_units_Z   2
loop_
 _symmetry_equiv_pos_site_id
 _symmetry_equiv_pos_as_xyz
  1  'x, y, z'
loop_
 _atom_site_type_symbol
 _atom_site_label
 _atom_site_symmetry_multiplicity
 _atom_site_fract_x
 _atom_site_fract_y
 _atom_site_fract_z
 _atom_site_occupancy
  Ce  Ce0  1  0.402216  0.022366  0.282936  1
  Ce  Ce1  1  0.022366  0.282936  0.402216  1
  Ce  Ce2  1  0.282936  0.402216  0.022366  1
  Ce  Ce3  1  0.597784  0.977634  0.717064  1
  Ce  Ce4  1  0.977634  0.717064  0.597784  1
  Ce  Ce5  1  0.717064  0.597784  0.977634  1
  Au  Au6  1  0.063712  0.558705  0.226346  1
  Au  Au7  1  0.226346  0.063712  0.558705  1
  Au  Au8  1  0.558705  0.226346  0.063712  1
  Au  Au9  1  0.773654  0.936288  0.441295  1
  Au  Au10  1  0.936288  0.441295  0.773654  1
  Au  Au11  1  0.441295  0.773654  0.936288  1
  Au  Au12  1  0.500000  0.500000  0.500000  1
  Au  Au13  1  0.000000  0.000000  0.000000  1
