# generated using pymatgen
data_Zr12Si12OsRh3
_symmetry_space_group_name_H-M   'P 1'
_cell_length_a   3.92240200
_cell_length_b   10.42998477
_cell_length_c   11.79794101
_cell_angle_alpha   90.08105008
_cell_angle_beta   90.00000000
_cell_angle_gamma   90.00000000
_symmetry_Int_Tables_number   1
_chemical_formula_structural   Zr12Si12OsRh3
_chemical_formula_sum   'Zr12 Si12 Os1 Rh3'
_cell_volume   482.66028146
_cell_formula_units_Z   1
loop_
 _symmetry_equiv_pos_site_id
 _symmetry_equiv_pos_as_xyz
  1  'x, y, z'
loop_
 _atom_site_type_symbol
 _atom_site_label
 _atom_site_symmetry_multiplicity
 _atom_site_fract_x
 _atom_site_fract_y
 _atom_site_fract_z
 _atom_site_occupancy
  Zr  Zr0  1  0.250000  0.876060  0.022496  1
  Zr  Zr1  1  0.250000  0.623124  0.522354  1
  Zr  Zr2  1  0.750000  0.123065  0.977658  1
  Zr  Zr3  1  0.750000  0.376944  0.479712  1
  Zr  Zr4  1  0.250000  0.927346  0.595509  1
  Zr  Zr5  1  0.250000  0.572977  0.095682  1
  Zr  Zr6  1  0.750000  0.073498  0.404709  1
  Zr  Zr7  1  0.750000  0.426875  0.901351  1
  Zr  Zr8  1  0.250000  0.657769  0.800396  1
  Zr  Zr9  1  0.250000  0.841997  0.300813  1
  Zr  Zr10  1  0.750000  0.341711  0.199490  1
  Zr  Zr11  1  0.750000  0.159605  0.699769  1
  Si  Si12  1  0.250000  0.015876  0.825157  1
  Si  Si13  1  0.250000  0.483592  0.324268  1
  Si  Si14  1  0.750000  0.983169  0.175373  1
  Si  Si15  1  0.750000  0.516067  0.675311  1
  Si  Si16  1  0.250000  0.248601  0.843464  1
  Si  Si17  1  0.250000  0.250248  0.342917  1
  Si  Si18  1  0.750000  0.750122  0.156500  1
  Si  Si19  1  0.750000  0.750380  0.656574  1
  Si  Si20  1  0.250000  0.195507  0.543311  1
  Si  Si21  1  0.250000  0.306858  0.042355  1
  Si  Si22  1  0.750000  0.806960  0.457606  1
  Si  Si23  1  0.750000  0.692498  0.957310  1
  Os  Os24  1  0.250000  0.385519  0.680170  1
  Rh  Rh25  1  0.250000  0.114030  0.181655  1
  Rh  Rh26  1  0.750000  0.614612  0.318814  1
  Rh  Rh27  1  0.750000  0.884990  0.819277  1
