# generated using pymatgen
data_NdRe2NiC
_symmetry_space_group_name_H-M   'P 1'
_cell_length_a   5.65645830
_cell_length_b   5.65645994
_cell_length_c   7.68234400
_cell_angle_alpha   90.00000000
_cell_angle_beta   90.00000000
_cell_angle_gamma   139.61769199
_symmetry_Int_Tables_number   1
_chemical_formula_structural   NdRe2NiC
_chemical_formula_sum   'Nd2 Re4 Ni2 C2'
_cell_volume   159.25049566
_cell_formula_units_Z   2
loop_
 _symmetry_equiv_pos_site_id
 _symmetry_equiv_pos_as_xyz
  1  'x, y, z'
loop_
 _atom_site_type_symbol
 _atom_site_label
 _atom_site_symmetry_multiplicity
 _atom_site_fract_x
 _atom_site_fract_y
 _atom_site_fract_z
 _atom_site_occupancy
  Nd  Nd0  1  0.531643  0.468357  0.250000  1
  Nd  Nd1  1  0.468357  0.531643  0.750000  1
  Re  Re2  1  0.820487  0.179513  0.063768  1
  Re  Re3  1  0.179513  0.820487  0.936232  1
  Re  Re4  1  0.179513  0.820487  0.563768  1
  Re  Re5  1  0.820487  0.179513  0.436232  1
  Ni  Ni6  1  0.255258  0.744742  0.250000  1
  Ni  Ni7  1  0.744742  0.255258  0.750000  1
  C  C8  1  0.000000  0.000000  0.000000  1
  C  C9  1  0.000000  0.000000  0.500000  1
