# generated using pymatgen
data_La2NdBi(Pt2O7)2
_symmetry_space_group_name_H-M   'P 1'
_cell_length_a   7.47643880
_cell_length_b   7.46174998
_cell_length_c   7.46175039
_cell_angle_alpha   60.20071528
_cell_angle_beta   60.22238891
_cell_angle_gamma   60.22239026
_symmetry_Int_Tables_number   1
_chemical_formula_structural   La2NdBi(Pt2O7)2
_chemical_formula_sum   'La2 Nd1 Bi1 Pt4 O14'
_cell_volume   295.78200829
_cell_formula_units_Z   1
loop_
 _symmetry_equiv_pos_site_id
 _symmetry_equiv_pos_as_xyz
  1  'x, y, z'
loop_
 _atom_site_type_symbol
 _atom_site_label
 _atom_site_symmetry_multiplicity
 _atom_site_fract_x
 _atom_site_fract_y
 _atom_site_fract_z
 _atom_site_occupancy
  La  La0  1  0.125000  0.125000  0.625000  1
  La  La1  1  0.125000  0.625000  0.125000  1
  Nd  Nd2  1  0.625000  0.125000  0.125000  1
  Bi  Bi3  1  0.125000  0.125000  0.125000  1
  Pt  Pt4  1  0.625000  0.625000  0.125000  1
  Pt  Pt5  1  0.625000  0.125000  0.625000  1
  Pt  Pt6  1  0.125000  0.625000  0.625000  1
  Pt  Pt7  1  0.625000  0.625000  0.625000  1
  O  O8  1  0.252534  0.248675  0.248675  1
  O  O9  1  0.997466  0.001325  0.001325  1
  O  O10  1  0.543118  0.959236  0.537870  1
  O  O11  1  0.292811  0.708379  0.292352  1
  O  O12  1  0.543118  0.537870  0.959236  1
  O  O13  1  0.957998  0.541468  0.541468  1
  O  O14  1  0.543060  0.958451  0.958451  1
  O  O15  1  0.957189  0.957648  0.541621  1
  O  O16  1  0.957189  0.541621  0.957648  1
  O  O17  1  0.706940  0.291549  0.291549  1
  O  O18  1  0.292002  0.708532  0.708532  1
  O  O19  1  0.706882  0.290764  0.712130  1
  O  O20  1  0.292811  0.292352  0.708379  1
  O  O21  1  0.706882  0.712130  0.290764  1
