# generated using pymatgen
data_Tb6Zn23N
_symmetry_space_group_name_H-M   'P 1'
_cell_length_a   8.96928058
_cell_length_b   8.96928070
_cell_length_c   8.96928100
_cell_angle_alpha   60.00000259
_cell_angle_beta   60.00000213
_cell_angle_gamma   59.99999762
_symmetry_Int_Tables_number   1
_chemical_formula_structural   Tb6Zn23N
_chemical_formula_sum   'Tb6 Zn23 N1'
_cell_volume   510.22045525
_cell_formula_units_Z   1
loop_
 _symmetry_equiv_pos_site_id
 _symmetry_equiv_pos_as_xyz
  1  'x, y, z'
loop_
 _atom_site_type_symbol
 _atom_site_label
 _atom_site_symmetry_multiplicity
 _atom_site_fract_x
 _atom_site_fract_y
 _atom_site_fract_z
 _atom_site_occupancy
  Tb  Tb0  1  0.696421  0.303579  0.303579  1
  Tb  Tb1  1  0.696421  0.303579  0.696421  1
  Tb  Tb2  1  0.696421  0.696421  0.303579  1
  Tb  Tb3  1  0.303579  0.696421  0.696421  1
  Tb  Tb4  1  0.303579  0.696421  0.303579  1
  Tb  Tb5  1  0.303579  0.303579  0.696421  1
  Zn  Zn6  1  0.633407  0.122198  0.122198  1
  Zn  Zn7  1  0.122198  0.633407  0.122198  1
  Zn  Zn8  1  0.122198  0.122198  0.633407  1
  Zn  Zn9  1  0.122198  0.122198  0.122198  1
  Zn  Zn10  1  0.366593  0.877802  0.877802  1
  Zn  Zn11  1  0.877802  0.366593  0.877802  1
  Zn  Zn12  1  0.877802  0.877802  0.366593  1
  Zn  Zn13  1  0.877802  0.877802  0.877802  1
  Zn  Zn14  1  0.500000  0.000000  0.000000  1
  Zn  Zn15  1  0.500000  0.000000  0.500000  1
  Zn  Zn16  1  0.500000  0.500000  0.000000  1
  Zn  Zn17  1  0.000000  0.500000  0.500000  1
  Zn  Zn18  1  0.000000  0.500000  0.000000  1
  Zn  Zn19  1  0.000000  0.000000  0.500000  1
  Zn  Zn20  1  0.000000  0.000000  0.000000  1
  Zn  Zn21  1  0.017283  0.327573  0.327573  1
  Zn  Zn22  1  0.327573  0.017283  0.327573  1
  Zn  Zn23  1  0.327573  0.327573  0.017283  1
  Zn  Zn24  1  0.327573  0.327573  0.327573  1
  Zn  Zn25  1  0.982717  0.672427  0.672427  1
  Zn  Zn26  1  0.672427  0.982717  0.672427  1
  Zn  Zn27  1  0.672427  0.672427  0.982717  1
  Zn  Zn28  1  0.672427  0.672427  0.672427  1
  N  N29  1  0.500000  0.500000  0.500000  1
