# generated using pymatgen
data_CeCdNi3Pt
_symmetry_space_group_name_H-M   'P 1'
_cell_length_a   5.06995180
_cell_length_b   5.14621771
_cell_length_c   5.06995100
_cell_angle_alpha   60.48903468
_cell_angle_beta   59.99999871
_cell_angle_gamma   60.48903511
_symmetry_Int_Tables_number   1
_chemical_formula_structural   CeCdNi3Pt
_chemical_formula_sum   'Ce1 Cd1 Ni3 Pt1'
_cell_volume   94.22186697
_cell_formula_units_Z   1
loop_
 _symmetry_equiv_pos_site_id
 _symmetry_equiv_pos_as_xyz
  1  'x, y, z'
loop_
 _atom_site_type_symbol
 _atom_site_label
 _atom_site_symmetry_multiplicity
 _atom_site_fract_x
 _atom_site_fract_y
 _atom_site_fract_z
 _atom_site_occupancy
  Ce  Ce0  1  0.247763  0.256711  0.247763  1
  Cd  Cd1  1  0.002410  0.992769  0.002410  1
  Ni  Ni2  1  0.625957  0.625944  0.625957  1
  Ni  Ni3  1  0.122142  0.625944  0.625957  1
  Ni  Ni4  1  0.625957  0.625944  0.122142  1
  Pt  Pt5  1  0.625771  0.122687  0.625771  1
