# generated using pymatgen
data_Ni(SbPd)2
_symmetry_space_group_name_H-M   'P 1'
_cell_length_a   6.89775561
_cell_length_b   6.89775543
_cell_length_c   6.89775637
_cell_angle_alpha   136.49756038
_cell_angle_beta   124.53643859
_cell_angle_gamma   73.00578106
_symmetry_Int_Tables_number   1
_chemical_formula_structural   Ni(SbPd)2
_chemical_formula_sum   'Ni2 Sb4 Pd4'
_cell_volume   181.96530298
_cell_formula_units_Z   2
loop_
 _symmetry_equiv_pos_site_id
 _symmetry_equiv_pos_as_xyz
  1  'x, y, z'
loop_
 _atom_site_type_symbol
 _atom_site_label
 _atom_site_symmetry_multiplicity
 _atom_site_fract_x
 _atom_site_fract_y
 _atom_site_fract_z
 _atom_site_occupancy
  Ni  Ni0  1  0.000000  0.750000  0.750000  1
  Ni  Ni1  1  0.000000  0.250000  0.250000  1
  Sb  Sb2  1  0.074074  0.349969  0.724105  1
  Sb  Sb3  1  0.925926  0.650031  0.275895  1
  Sb  Sb4  1  0.374137  0.150031  0.224105  1
  Sb  Sb5  1  0.625863  0.849969  0.775895  1
  Pd  Pd6  1  0.464987  0.602531  0.862456  1
  Pd  Pd7  1  0.259924  0.897469  0.362456  1
  Pd  Pd8  1  0.740076  0.102531  0.637544  1
  Pd  Pd9  1  0.535013  0.397469  0.137544  1
