# generated using pymatgen
data_Tb8Tm3In9Ir4
_symmetry_space_group_name_H-M   'P 1'
_cell_length_a   3.73151500
_cell_length_b   13.05616806
_cell_length_c   13.06304403
_cell_angle_alpha   111.13773267
_cell_angle_beta   90.00000000
_cell_angle_gamma   90.00000000
_symmetry_Int_Tables_number   1
_chemical_formula_structural   Tb8Tm3In9Ir4
_chemical_formula_sum   'Tb8 Tm3 In9 Ir4'
_cell_volume   593.60132134
_cell_formula_units_Z   1
loop_
 _symmetry_equiv_pos_site_id
 _symmetry_equiv_pos_as_xyz
  1  'x, y, z'
loop_
 _atom_site_type_symbol
 _atom_site_label
 _atom_site_symmetry_multiplicity
 _atom_site_fract_x
 _atom_site_fract_y
 _atom_site_fract_z
 _atom_site_occupancy
  Tb  Tb0  1  0.000000  0.418835  0.078751  1
  Tb  Tb1  1  0.000000  0.160582  0.838308  1
  Tb  Tb2  1  0.000000  0.839114  0.161186  1
  Tb  Tb3  1  0.000000  0.373663  0.626281  1
  Tb  Tb4  1  0.000000  0.626230  0.374114  1
  Tb  Tb5  1  0.000000  0.686315  0.686303  1
  Tb  Tb6  1  0.000000  0.313641  0.314125  1
  Tb  Tb7  1  0.000000  0.999889  0.000125  1
  Tm  Tm8  1  0.000000  0.919313  0.580634  1
  Tm  Tm9  1  0.000000  0.080809  0.419244  1
  Tm  Tm10  1  0.000000  0.580974  0.918762  1
  In  In11  1  0.500000  0.156737  0.631143  1
  In  In12  1  0.500000  0.843468  0.368946  1
  In  In13  1  0.500000  0.632538  0.157377  1
  In  In14  1  0.500000  0.368911  0.842081  1
  In  In15  1  0.500000  0.924296  0.780136  1
  In  In16  1  0.500000  0.075612  0.219782  1
  In  In17  1  0.500000  0.779956  0.924053  1
  In  In18  1  0.500000  0.218452  0.076586  1
  In  In19  1  0.500000  0.500156  0.500261  1
  Ir  Ir20  1  0.500000  0.755717  0.548988  1
  Ir  Ir21  1  0.500000  0.244310  0.450861  1
  Ir  Ir22  1  0.500000  0.549144  0.755442  1
  Ir  Ir23  1  0.500000  0.451337  0.246512  1
