# generated using pymatgen
data_TbDy2Y(Al3Rh)6
_symmetry_space_group_name_H-M   'P 1'
_cell_length_a   7.55439800
_cell_length_b   7.55530839
_cell_length_c   9.47390300
_cell_angle_alpha   90.00000000
_cell_angle_beta   90.00000000
_cell_angle_gamma   119.28534336
_symmetry_Int_Tables_number   1
_chemical_formula_structural   TbDy2Y(Al3Rh)6
_chemical_formula_sum   'Tb1 Dy2 Y1 Al18 Rh6'
_cell_volume   471.62226665
_cell_formula_units_Z   1
loop_
 _symmetry_equiv_pos_site_id
 _symmetry_equiv_pos_as_xyz
  1  'x, y, z'
loop_
 _atom_site_type_symbol
 _atom_site_label
 _atom_site_symmetry_multiplicity
 _atom_site_fract_x
 _atom_site_fract_y
 _atom_site_fract_z
 _atom_site_occupancy
  Tb  Tb0  1  0.671726  0.994099  0.750000  1
  Dy  Dy1  1  0.005623  0.328199  0.250000  1
  Dy  Dy2  1  0.328290  0.005755  0.250000  1
  Y  Y3  1  0.994059  0.671593  0.750000  1
  Al  Al4  1  0.128625  0.128877  0.750000  1
  Al  Al5  1  0.871569  0.871609  0.250000  1
  Al  Al6  1  0.001113  0.335646  0.574335  1
  Al  Al7  1  0.999192  0.664236  0.424689  1
  Al  Al8  1  0.999192  0.664236  0.075311  1
  Al  Al9  1  0.335771  0.001141  0.925658  1
  Al  Al10  1  0.001113  0.335646  0.925665  1
  Al  Al11  1  0.664217  0.999168  0.075215  1
  Al  Al12  1  0.664217  0.999168  0.424785  1
  Al  Al13  1  0.335771  0.001141  0.574342  1
  Al  Al14  1  0.332865  0.332878  0.049337  1
  Al  Al15  1  0.667089  0.667123  0.951678  1
  Al  Al16  1  0.667089  0.667123  0.548322  1
  Al  Al17  1  0.332865  0.332878  0.450663  1
  Al  Al18  1  0.339782  0.549761  0.750000  1
  Al  Al19  1  0.660126  0.449917  0.250000  1
  Al  Al20  1  0.549471  0.339073  0.750000  1
  Al  Al21  1  0.449814  0.660211  0.250000  1
  Rh  Rh22  1  0.672164  0.328069  0.499943  1
  Rh  Rh23  1  0.327917  0.672095  0.499943  1
  Rh  Rh24  1  0.327917  0.672095  0.000057  1
  Rh  Rh25  1  0.672164  0.328069  0.000057  1
  Rh  Rh26  1  0.000130  0.000097  0.499863  1
  Rh  Rh27  1  0.000130  0.000097  0.000137  1
