# generated using pymatgen
data_Lu5ZnNiBi
_symmetry_space_group_name_H-M   'P 1'
_cell_length_a   8.35607683
_cell_length_b   8.35607707
_cell_length_c   8.61389700
_cell_angle_alpha   125.17196424
_cell_angle_beta   125.17197094
_cell_angle_gamma   79.18661867
_symmetry_Int_Tables_number   1
_chemical_formula_structural   Lu5ZnNiBi
_chemical_formula_sum   'Lu10 Zn2 Ni2 Bi2'
_cell_volume   392.41501728
_cell_formula_units_Z   2
loop_
 _symmetry_equiv_pos_site_id
 _symmetry_equiv_pos_as_xyz
  1  'x, y, z'
loop_
 _atom_site_type_symbol
 _atom_site_label
 _atom_site_symmetry_multiplicity
 _atom_site_fract_x
 _atom_site_fract_y
 _atom_site_fract_z
 _atom_site_occupancy
  Lu  Lu0  1  0.000000  0.000000  0.000000  1
  Lu  Lu1  1  0.500000  0.500000  0.000000  1
  Lu  Lu2  1  0.778645  0.278645  0.784447  1
  Lu  Lu3  1  0.221355  0.721355  0.215553  1
  Lu  Lu4  1  0.494200  0.994200  0.215553  1
  Lu  Lu5  1  0.305874  0.464068  0.500000  1
  Lu  Lu6  1  0.035932  0.194126  0.500000  1
  Lu  Lu7  1  0.505800  0.005800  0.784447  1
  Lu  Lu8  1  0.694126  0.535932  0.500000  1
  Lu  Lu9  1  0.964068  0.805874  0.500000  1
  Zn  Zn10  1  0.137425  0.637425  0.774851  1
  Zn  Zn11  1  0.862575  0.362575  0.225149  1
  Ni  Ni12  1  0.632597  0.867403  0.500000  1
  Ni  Ni13  1  0.367403  0.132597  0.500000  1
  Bi  Bi14  1  0.250000  0.250000  0.000000  1
  Bi  Bi15  1  0.750000  0.750000  0.000000  1
