# generated using pymatgen
data_Hf9TiFeIr3
_symmetry_space_group_name_H-M   'P 1'
_cell_length_a   8.48486600
_cell_length_b   8.51685857
_cell_length_c   8.51687804
_cell_angle_alpha   119.99854511
_cell_angle_beta   90.00000000
_cell_angle_gamma   90.00000000
_symmetry_Int_Tables_number   1
_chemical_formula_structural   Hf9TiFeIr3
_chemical_formula_sum   'Hf18 Ti2 Fe2 Ir6'
_cell_volume   533.01796908
_cell_formula_units_Z   2
loop_
 _symmetry_equiv_pos_site_id
 _symmetry_equiv_pos_as_xyz
  1  'x, y, z'
loop_
 _atom_site_type_symbol
 _atom_site_label
 _atom_site_symmetry_multiplicity
 _atom_site_fract_x
 _atom_site_fract_y
 _atom_site_fract_z
 _atom_site_occupancy
  Hf  Hf0  1  0.558727  0.798378  0.596772  1
  Hf  Hf1  1  0.558736  0.798416  0.201585  1
  Hf  Hf2  1  0.558727  0.403228  0.201623  1
  Hf  Hf3  1  0.441273  0.201622  0.403228  1
  Hf  Hf4  1  0.441264  0.201584  0.798415  1
  Hf  Hf5  1  0.441273  0.596772  0.798377  1
  Hf  Hf6  1  0.058727  0.201622  0.403228  1
  Hf  Hf7  1  0.058736  0.201584  0.798415  1
  Hf  Hf8  1  0.058727  0.596772  0.798377  1
  Hf  Hf9  1  0.941273  0.798378  0.596772  1
  Hf  Hf10  1  0.941264  0.798416  0.201585  1
  Hf  Hf11  1  0.941273  0.403228  0.201623  1
  Hf  Hf12  1  0.750000  0.460074  0.920161  1
  Hf  Hf13  1  0.750000  0.460075  0.539926  1
  Hf  Hf14  1  0.750000  0.079838  0.539926  1
  Hf  Hf15  1  0.250000  0.539926  0.079839  1
  Hf  Hf16  1  0.250000  0.539925  0.460074  1
  Hf  Hf17  1  0.250000  0.920162  0.460074  1
  Ti  Ti18  1  0.500000  0.000000  0.000000  1
  Ti  Ti19  1  0.000000  0.000000  0.000000  1
  Fe  Fe20  1  0.750000  0.666685  0.333328  1
  Fe  Fe21  1  0.250000  0.333315  0.666672  1
  Ir  Ir22  1  0.750000  0.113120  0.226242  1
  Ir  Ir23  1  0.750000  0.113136  0.886863  1
  Ir  Ir24  1  0.750000  0.773759  0.886880  1
  Ir  Ir25  1  0.250000  0.886880  0.773758  1
  Ir  Ir26  1  0.250000  0.886864  0.113137  1
  Ir  Ir27  1  0.250000  0.226241  0.113120  1
