# generated using pymatgen
data_Dy4Tm4Tc3B24Os
_symmetry_space_group_name_H-M   'P 1'
_cell_length_a   3.65232700
_cell_length_b   9.12119541
_cell_length_c   11.51170201
_cell_angle_alpha   89.95321276
_cell_angle_beta   90.00000000
_cell_angle_gamma   90.00000000
_symmetry_Int_Tables_number   1
_chemical_formula_structural   Dy4Tm4Tc3B24Os
_chemical_formula_sum   'Dy4 Tm4 Tc3 B24 Os1'
_cell_volume   383.49597346
_cell_formula_units_Z   1
loop_
 _symmetry_equiv_pos_site_id
 _symmetry_equiv_pos_as_xyz
  1  'x, y, z'
loop_
 _atom_site_type_symbol
 _atom_site_label
 _atom_site_symmetry_multiplicity
 _atom_site_fract_x
 _atom_site_fract_y
 _atom_site_fract_z
 _atom_site_occupancy
  Dy  Dy0  1  0.000000  0.323187  0.413777  1
  Dy  Dy1  1  0.000000  0.675870  0.584452  1
  Dy  Dy2  1  0.000000  0.822561  0.087309  1
  Dy  Dy3  1  0.000000  0.178404  0.914470  1
  Tm  Tm4  1  0.000000  0.942693  0.370184  1
  Tm  Tm5  1  0.000000  0.058061  0.629841  1
  Tm  Tm6  1  0.000000  0.442997  0.130029  1
  Tm  Tm7  1  0.000000  0.556825  0.869643  1
  Tc  Tc8  1  0.000000  0.638775  0.320060  1
  Tc  Tc9  1  0.000000  0.361249  0.680418  1
  Tc  Tc10  1  0.000000  0.138317  0.178856  1
  B  B11  1  0.500000  0.553295  0.432702  1
  B  B12  1  0.500000  0.446617  0.567060  1
  B  B13  1  0.500000  0.053299  0.067127  1
  B  B14  1  0.500000  0.946112  0.932761  1
  B  B15  1  0.500000  0.749435  0.418609  1
  B  B16  1  0.500000  0.250267  0.581432  1
  B  B17  1  0.500000  0.249984  0.081472  1
  B  B18  1  0.500000  0.750495  0.918325  1
  B  B19  1  0.500000  0.792157  0.265638  1
  B  B20  1  0.500000  0.208070  0.734892  1
  B  B21  1  0.500000  0.292043  0.234598  1
  B  B22  1  0.500000  0.708653  0.765350  1
  B  B23  1  0.500000  0.630416  0.185295  1
  B  B24  1  0.500000  0.369517  0.815196  1
  B  B25  1  0.500000  0.129974  0.314419  1
  B  B26  1  0.500000  0.869557  0.685388  1
  B  B27  1  0.500000  0.981597  0.212254  1
  B  B28  1  0.500000  0.017293  0.787793  1
  B  B29  1  0.500000  0.481819  0.287584  1
  B  B30  1  0.500000  0.517956  0.712221  1
  B  B31  1  0.500000  0.600681  0.027720  1
  B  B32  1  0.500000  0.400391  0.972131  1
  B  B33  1  0.500000  0.100341  0.472204  1
  B  B34  1  0.500000  0.899667  0.528239  1
  Os  Os35  1  0.000000  0.861425  0.820555  1
