# generated using pymatgen
data_RbTb2CuS4
_symmetry_space_group_name_H-M   'P 1'
_cell_length_a   3.99509700
_cell_length_b   7.18207646
_cell_length_c   13.83408100
_cell_angle_alpha   90.00000000
_cell_angle_beta   90.00000000
_cell_angle_gamma   73.85138708
_symmetry_Int_Tables_number   1
_chemical_formula_structural   RbTb2CuS4
_chemical_formula_sum   'Rb2 Tb4 Cu2 S8'
_cell_volume   381.28060411
_cell_formula_units_Z   2
loop_
 _symmetry_equiv_pos_site_id
 _symmetry_equiv_pos_as_xyz
  1  'x, y, z'
loop_
 _atom_site_type_symbol
 _atom_site_label
 _atom_site_symmetry_multiplicity
 _atom_site_fract_x
 _atom_site_fract_y
 _atom_site_fract_z
 _atom_site_occupancy
  Rb  Rb0  1  0.892990  0.214022  0.250000  1
  Rb  Rb1  1  0.107010  0.785977  0.750000  1
  Tb  Tb2  1  0.634197  0.731608  0.062114  1
  Tb  Tb3  1  0.634197  0.731608  0.437886  1
  Tb  Tb4  1  0.365802  0.268392  0.562114  1
  Tb  Tb5  1  0.365802  0.268392  0.937886  1
  Cu  Cu6  1  0.164260  0.671478  0.250000  1
  Cu  Cu7  1  0.835739  0.328523  0.750000  1
  S  S8  1  0.000000  0.000000  0.000000  1
  S  S9  1  0.259553  0.480891  0.108645  1
  S  S10  1  0.575689  0.848623  0.250000  1
  S  S11  1  0.259553  0.480891  0.391355  1
  S  S12  1  0.000000  0.000000  0.500000  1
  S  S13  1  0.740446  0.519109  0.608645  1
  S  S14  1  0.424310  0.151377  0.750000  1
  S  S15  1  0.740446  0.519109  0.891355  1
