# generated using pymatgen
data_Tb2In(PRh2)6
_symmetry_space_group_name_H-M   'P 1'
_cell_length_a   3.89053503
_cell_length_b   9.78019275
_cell_length_c   9.77789701
_cell_angle_alpha   119.99552054
_cell_angle_beta   89.99517482
_cell_angle_gamma   89.99116606
_symmetry_Int_Tables_number   1
_chemical_formula_structural   Tb2In(PRh2)6
_chemical_formula_sum   'Tb2 In1 P6 Rh12'
_cell_volume   322.21994748
_cell_formula_units_Z   1
loop_
 _symmetry_equiv_pos_site_id
 _symmetry_equiv_pos_as_xyz
  1  'x, y, z'
loop_
 _atom_site_type_symbol
 _atom_site_label
 _atom_site_symmetry_multiplicity
 _atom_site_fract_x
 _atom_site_fract_y
 _atom_site_fract_z
 _atom_site_occupancy
  Tb  Tb0  1  0.246575  0.666767  0.333461  1
  Tb  Tb1  1  0.753425  0.333233  0.666539  1
  In  In2  1  0.500000  0.000000  0.000000  1
  P  P3  1  0.746066  0.883259  0.596143  1
  P  P4  1  0.746206  0.404046  0.287203  1
  P  P5  1  0.746226  0.712818  0.116838  1
  P  P6  1  0.253934  0.116741  0.403857  1
  P  P7  1  0.253794  0.595954  0.712797  1
  P  P8  1  0.253774  0.287182  0.883162  1
  Rh  Rh9  1  0.758152  0.128371  0.837250  1
  Rh  Rh10  1  0.758423  0.162905  0.291032  1
  Rh  Rh11  1  0.758140  0.708874  0.871746  1
  Rh  Rh12  1  0.241848  0.871629  0.162750  1
  Rh  Rh13  1  0.241577  0.837095  0.708968  1
  Rh  Rh14  1  0.241860  0.291126  0.128254  1
  Rh  Rh15  1  0.747421  0.612861  0.546566  1
  Rh  Rh16  1  0.747489  0.453560  0.066449  1
  Rh  Rh17  1  0.747500  0.933683  0.387104  1
  Rh  Rh18  1  0.252579  0.387139  0.453434  1
  Rh  Rh19  1  0.252511  0.546440  0.933551  1
  Rh  Rh20  1  0.252500  0.066317  0.612896  1
