# generated using pymatgen
data_Er3Tm7(RuRh)2
_symmetry_space_group_name_H-M   'P 1'
_cell_length_a   6.29863078
_cell_length_b   7.21577893
_cell_length_c   8.38406838
_cell_angle_alpha   96.75924924
_cell_angle_beta   112.05711084
_cell_angle_gamma   89.99762185
_symmetry_Int_Tables_number   1
_chemical_formula_structural   Er3Tm7(RuRh)2
_chemical_formula_sum   'Er3 Tm7 Ru2 Rh2'
_cell_volume   350.30420215
_cell_formula_units_Z   1
loop_
 _symmetry_equiv_pos_site_id
 _symmetry_equiv_pos_as_xyz
  1  'x, y, z'
loop_
 _atom_site_type_symbol
 _atom_site_label
 _atom_site_symmetry_multiplicity
 _atom_site_fract_x
 _atom_site_fract_y
 _atom_site_fract_z
 _atom_site_occupancy
  Er  Er0  1  0.791870  0.081951  0.811909  1
  Er  Er1  1  0.979778  0.418146  0.188049  1
  Er  Er2  1  0.209826  0.914921  0.185063  1
  Tm  Tm3  1  0.024587  0.585250  0.814811  1
  Tm  Tm4  1  0.207246  0.183520  0.565018  1
  Tm  Tm5  1  0.642552  0.316847  0.435130  1
  Tm  Tm6  1  0.792584  0.813157  0.437304  1
  Tm  Tm7  1  0.355219  0.686470  0.562988  1
  Tm  Tm8  1  0.418691  0.250047  0.999878  1
  Tm  Tm9  1  0.578362  0.749910  0.999918  1
  Ru  Ru10  1  0.396972  0.575111  0.220171  1
  Ru  Ru11  1  0.176634  0.924603  0.779470  1
  Rh  Rh12  1  0.602685  0.423734  0.779000  1
  Rh  Rh13  1  0.822989  0.076332  0.221290  1
