# generated using pymatgen
data_Tb9Nd6Th(CdIr)4
_symmetry_space_group_name_H-M   'P 1'
_cell_length_a   9.79524162
_cell_length_b   9.79524167
_cell_length_c   9.79524260
_cell_angle_alpha   60.21367876
_cell_angle_beta   60.21368097
_cell_angle_gamma   60.21367959
_symmetry_Int_Tables_number   1
_chemical_formula_structural   Tb9Nd6Th(CdIr)4
_chemical_formula_sum   'Tb9 Nd6 Th1 Cd4 Ir4'
_cell_volume   667.76952478
_cell_formula_units_Z   1
loop_
 _symmetry_equiv_pos_site_id
 _symmetry_equiv_pos_as_xyz
  1  'x, y, z'
loop_
 _atom_site_type_symbol
 _atom_site_label
 _atom_site_symmetry_multiplicity
 _atom_site_fract_x
 _atom_site_fract_y
 _atom_site_fract_z
 _atom_site_occupancy
  Tb  Tb0  1  0.348916  0.348916  0.953369  1
  Tb  Tb1  1  0.348916  0.953369  0.348916  1
  Tb  Tb2  1  0.953369  0.348916  0.348916  1
  Tb  Tb3  1  0.813128  0.187350  0.187350  1
  Tb  Tb4  1  0.187445  0.811518  0.811518  1
  Tb  Tb5  1  0.187350  0.813128  0.187350  1
  Tb  Tb6  1  0.811518  0.187445  0.811518  1
  Tb  Tb7  1  0.187350  0.187350  0.813128  1
  Tb  Tb8  1  0.811518  0.811518  0.187445  1
  Nd  Nd9  1  0.940081  0.561487  0.561487  1
  Nd  Nd10  1  0.558507  0.941747  0.941747  1
  Nd  Nd11  1  0.561487  0.940081  0.561487  1
  Nd  Nd12  1  0.941747  0.558507  0.941747  1
  Nd  Nd13  1  0.561487  0.561487  0.940081  1
  Nd  Nd14  1  0.941747  0.941747  0.558507  1
  Th  Th15  1  0.345547  0.345547  0.345547  1
  Cd  Cd16  1  0.579034  0.579034  0.579034  1
  Cd  Cd17  1  0.579993  0.579993  0.259901  1
  Cd  Cd18  1  0.579993  0.259901  0.579993  1
  Cd  Cd19  1  0.259901  0.579993  0.579993  1
  Ir  Ir20  1  0.142097  0.142097  0.142097  1
  Ir  Ir21  1  0.142568  0.142568  0.573729  1
  Ir  Ir22  1  0.142568  0.573729  0.142568  1
  Ir  Ir23  1  0.573729  0.142568  0.142568  1
