# generated using pymatgen
data_Na3Tm(Al3Pd)6
_symmetry_space_group_name_H-M   'P 1'
_cell_length_a   7.66221000
_cell_length_b   7.66321081
_cell_length_c   9.52806600
_cell_angle_alpha   90.00000000
_cell_angle_beta   90.00000000
_cell_angle_gamma   119.47889077
_symmetry_Int_Tables_number   1
_chemical_formula_structural   Na3Tm(Al3Pd)6
_chemical_formula_sum   'Na3 Tm1 Al18 Pd6'
_cell_volume   487.03126775
_cell_formula_units_Z   1
loop_
 _symmetry_equiv_pos_site_id
 _symmetry_equiv_pos_as_xyz
  1  'x, y, z'
loop_
 _atom_site_type_symbol
 _atom_site_label
 _atom_site_symmetry_multiplicity
 _atom_site_fract_x
 _atom_site_fract_y
 _atom_site_fract_z
 _atom_site_occupancy
  Na  Na0  1  0.992782  0.670291  0.250000  1
  Na  Na1  1  0.005606  0.328342  0.750000  1
  Na  Na2  1  0.673090  0.994863  0.250000  1
  Tm  Tm3  1  0.330123  0.999189  0.750000  1
  Al  Al4  1  0.128937  0.132508  0.250000  1
  Al  Al5  1  0.872197  0.865780  0.750000  1
  Al  Al6  1  0.997586  0.334668  0.075086  1
  Al  Al7  1  0.999174  0.661617  0.926417  1
  Al  Al8  1  0.999174  0.661617  0.573583  1
  Al  Al9  1  0.334342  0.998450  0.419796  1
  Al  Al10  1  0.997586  0.334668  0.424914  1
  Al  Al11  1  0.669236  0.002846  0.573832  1
  Al  Al12  1  0.669236  0.002846  0.926168  1
  Al  Al13  1  0.334342  0.998450  0.080204  1
  Al  Al14  1  0.330966  0.332515  0.553106  1
  Al  Al15  1  0.667578  0.668529  0.447770  1
  Al  Al16  1  0.667578  0.668529  0.052230  1
  Al  Al17  1  0.330966  0.332515  0.946894  1
  Al  Al18  1  0.337689  0.547159  0.250000  1
  Al  Al19  1  0.656754  0.454210  0.750000  1
  Al  Al20  1  0.546041  0.341402  0.250000  1
  Al  Al21  1  0.459277  0.668261  0.750000  1
  Pd  Pd22  1  0.667392  0.327279  0.997752  1
  Pd  Pd23  1  0.329267  0.671987  0.997395  1
  Pd  Pd24  1  0.329267  0.671987  0.502605  1
  Pd  Pd25  1  0.667392  0.327279  0.502248  1
  Pd  Pd26  1  0.003212  0.001107  0.997143  1
  Pd  Pd27  1  0.003212  0.001107  0.502857  1
