# generated using pymatgen
data_Li2Er2BRh4
_symmetry_space_group_name_H-M   'P 1'
_cell_length_a   5.84954490
_cell_length_b   5.84954402
_cell_length_c   5.65025800
_cell_angle_alpha   61.12071379
_cell_angle_beta   61.12071857
_cell_angle_gamma   60.12165253
_symmetry_Int_Tables_number   1
_chemical_formula_structural   Li2Er2BRh4
_chemical_formula_sum   'Li2 Er2 B1 Rh4'
_cell_volume   139.11077386
_cell_formula_units_Z   1
loop_
 _symmetry_equiv_pos_site_id
 _symmetry_equiv_pos_as_xyz
  1  'x, y, z'
loop_
 _atom_site_type_symbol
 _atom_site_label
 _atom_site_symmetry_multiplicity
 _atom_site_fract_x
 _atom_site_fract_y
 _atom_site_fract_z
 _atom_site_occupancy
  Li  Li0  1  0.762652  0.237347  0.236416  1
  Li  Li1  1  0.237347  0.762652  0.236416  1
  Er  Er2  1  0.253655  0.253655  0.241663  1
  Er  Er3  1  0.746345  0.746345  0.748973  1
  B  B4  1  0.499999  0.499999  0.532113  1
  Rh  Rh5  1  0.745712  0.745712  0.245306  1
  Rh  Rh6  1  0.254287  0.254287  0.736731  1
  Rh  Rh7  1  0.765594  0.234405  0.761189  1
  Rh  Rh8  1  0.234405  0.765594  0.761189  1
