# generated using pymatgen
data_Cr3SiNi2N
_symmetry_space_group_name_H-M   'P 1'
_cell_length_a   7.42289556
_cell_length_b   7.42289598
_cell_length_c   7.42289600
_cell_angle_alpha   59.99999990
_cell_angle_beta   59.99999805
_cell_angle_gamma   59.99999540
_symmetry_Int_Tables_number   1
_chemical_formula_structural   Cr3SiNi2N
_chemical_formula_sum   'Cr12 Si4 Ni8 N4'
_cell_volume   289.20452301
_cell_formula_units_Z   4
loop_
 _symmetry_equiv_pos_site_id
 _symmetry_equiv_pos_as_xyz
  1  'x, y, z'
loop_
 _atom_site_type_symbol
 _atom_site_label
 _atom_site_symmetry_multiplicity
 _atom_site_fract_x
 _atom_site_fract_y
 _atom_site_fract_z
 _atom_site_occupancy
  Cr  Cr0  1  0.813466  0.813466  0.186534  1
  Cr  Cr1  1  0.186534  0.186534  0.813466  1
  Cr  Cr2  1  0.813466  0.186534  0.813466  1
  Cr  Cr3  1  0.186534  0.813466  0.186534  1
  Cr  Cr4  1  0.186534  0.813466  0.813466  1
  Cr  Cr5  1  0.813466  0.186534  0.186534  1
  Cr  Cr6  1  0.436534  0.436534  0.063466  1
  Cr  Cr7  1  0.063466  0.063466  0.436534  1
  Cr  Cr8  1  0.436534  0.063466  0.436534  1
  Cr  Cr9  1  0.063466  0.436534  0.063466  1
  Cr  Cr10  1  0.063466  0.436534  0.436534  1
  Cr  Cr11  1  0.436534  0.063466  0.063466  1
  Si  Si12  1  0.125000  0.625000  0.625000  1
  Si  Si13  1  0.625000  0.125000  0.625000  1
  Si  Si14  1  0.625000  0.625000  0.125000  1
  Si  Si15  1  0.625000  0.625000  0.625000  1
  Ni  Ni16  1  0.753712  0.415429  0.415429  1
  Ni  Ni17  1  0.415429  0.753712  0.415429  1
  Ni  Ni18  1  0.415429  0.415429  0.753712  1
  Ni  Ni19  1  0.415429  0.415429  0.415429  1
  Ni  Ni20  1  0.496288  0.834571  0.834571  1
  Ni  Ni21  1  0.834571  0.496288  0.834571  1
  Ni  Ni22  1  0.834571  0.834571  0.496288  1
  Ni  Ni23  1  0.834571  0.834571  0.834571  1
  N  N24  1  0.625000  0.125000  0.125000  1
  N  N25  1  0.125000  0.625000  0.125000  1
  N  N26  1  0.125000  0.125000  0.625000  1
  N  N27  1  0.125000  0.125000  0.125000  1
