# generated using pymatgen
data_La2Ga3Ni2Ge
_symmetry_space_group_name_H-M   'P 1'
_cell_length_a   8.98829459
_cell_length_b   8.98829430
_cell_length_c   4.25817300
_cell_angle_alpha   90.00000000
_cell_angle_beta   90.00000000
_cell_angle_gamma   152.22148199
_symmetry_Int_Tables_number   1
_chemical_formula_structural   La2Ga3Ni2Ge
_chemical_formula_sum   'La2 Ga3 Ni2 Ge1'
_cell_volume   160.33007980
_cell_formula_units_Z   1
loop_
 _symmetry_equiv_pos_site_id
 _symmetry_equiv_pos_as_xyz
  1  'x, y, z'
loop_
 _atom_site_type_symbol
 _atom_site_label
 _atom_site_symmetry_multiplicity
 _atom_site_fract_x
 _atom_site_fract_y
 _atom_site_fract_z
 _atom_site_occupancy
  La  La0  1  0.145299  0.854701  0.000000  1
  La  La1  1  0.854675  0.145325  0.000000  1
  Ga  Ga2  1  0.500198  0.499802  0.000000  1
  Ga  Ga3  1  0.999352  0.000648  0.500000  1
  Ga  Ga4  1  0.708373  0.291627  0.500000  1
  Ni  Ni5  1  0.428154  0.571846  0.500000  1
  Ni  Ni6  1  0.571627  0.428373  0.500000  1
  Ge  Ge7  1  0.292322  0.707678  0.500000  1
