# generated using pymatgen
data_Cs3K2SrTaP4
_symmetry_space_group_name_H-M   'P 1'
_cell_length_a   10.77943211
_cell_length_b   10.77942945
_cell_length_c   7.73913942
_cell_angle_alpha   88.05702320
_cell_angle_beta   88.05702601
_cell_angle_gamma   120.66663248
_symmetry_Int_Tables_number   1
_chemical_formula_structural   Cs3K2SrTaP4
_chemical_formula_sum   'Cs6 K4 Sr2 Ta2 P8'
_cell_volume   771.67939808
_cell_formula_units_Z   2
loop_
 _symmetry_equiv_pos_site_id
 _symmetry_equiv_pos_as_xyz
  1  'x, y, z'
loop_
 _atom_site_type_symbol
 _atom_site_label
 _atom_site_symmetry_multiplicity
 _atom_site_fract_x
 _atom_site_fract_y
 _atom_site_fract_z
 _atom_site_occupancy
  Cs  Cs0  1  0.867719  0.136615  0.685708  1
  Cs  Cs1  1  0.290564  0.150718  0.735720  1
  Cs  Cs2  1  0.857759  0.722251  0.661626  1
  Cs  Cs3  1  0.136615  0.867719  0.185708  1
  Cs  Cs4  1  0.722251  0.857759  0.161626  1
  Cs  Cs5  1  0.150718  0.290564  0.235720  1
  K  K6  1  0.464477  0.528835  0.499994  1
  K  K7  1  0.059702  0.530306  0.499435  1
  K  K8  1  0.528835  0.464477  0.999994  1
  K  K9  1  0.530306  0.059702  0.999435  1
  Sr  Sr10  1  0.459988  0.931038  0.490026  1
  Sr  Sr11  1  0.931038  0.459988  0.990026  1
  Ta  Ta12  1  0.671296  0.328870  0.388797  1
  Ta  Ta13  1  0.328870  0.671296  0.888797  1
  P  P14  1  0.691992  0.341181  0.700611  1
  P  P15  1  0.341181  0.691992  0.200611  1
  P  P16  1  0.786014  0.203230  0.276439  1
  P  P17  1  0.420878  0.193726  0.321449  1
  P  P18  1  0.793384  0.569453  0.254482  1
  P  P19  1  0.203230  0.786014  0.776439  1
  P  P20  1  0.569453  0.793384  0.754482  1
  P  P21  1  0.193726  0.420878  0.821449  1
