# generated using pymatgen
data_Ga(CuS)8
_symmetry_space_group_name_H-M   'P 1'
_cell_length_a   7.47484000
_cell_length_b   7.47484000
_cell_length_c   5.30092700
_cell_angle_alpha   90.00000000
_cell_angle_beta   90.00000000
_cell_angle_gamma   90.00000000
_symmetry_Int_Tables_number   1
_chemical_formula_structural   Ga(CuS)8
_chemical_formula_sum   'Ga1 Cu8 S8'
_cell_volume   296.17992952
_cell_formula_units_Z   1
loop_
 _symmetry_equiv_pos_site_id
 _symmetry_equiv_pos_as_xyz
  1  'x, y, z'
loop_
 _atom_site_type_symbol
 _atom_site_label
 _atom_site_symmetry_multiplicity
 _atom_site_fract_x
 _atom_site_fract_y
 _atom_site_fract_z
 _atom_site_occupancy
  Ga  Ga0  1  0.000000  0.000000  0.000000  1
  Cu  Cu1  1  0.500000  0.500000  0.500000  1
  Cu  Cu2  1  0.500000  0.500000  0.000000  1
  Cu  Cu3  1  0.751445  0.248555  0.500000  1
  Cu  Cu4  1  0.000000  0.500000  0.989501  1
  Cu  Cu5  1  0.751445  0.751445  0.500000  1
  Cu  Cu6  1  0.248555  0.751445  0.500000  1
  Cu  Cu7  1  0.248555  0.248555  0.500000  1
  Cu  Cu8  1  0.500000  0.000000  0.010499  1
  S  S9  1  0.000000  0.251623  0.746946  1
  S  S10  1  0.000000  0.748377  0.746946  1
  S  S11  1  0.251623  0.000000  0.253054  1
  S  S12  1  0.500000  0.755158  0.754460  1
  S  S13  1  0.755158  0.500000  0.245540  1
  S  S14  1  0.244842  0.500000  0.245540  1
  S  S15  1  0.748377  0.000000  0.253054  1
  S  S16  1  0.500000  0.244842  0.754460  1
