# generated using pymatgen
data_Ac3La(B8Ru7)2
_symmetry_space_group_name_H-M   'P 1'
_cell_length_a   6.52163720
_cell_length_b   6.51628920
_cell_length_c   10.20462500
_cell_angle_alpha   90.00000000
_cell_angle_beta   90.00000000
_cell_angle_gamma   89.97154090
_symmetry_Int_Tables_number   1
_chemical_formula_structural   Ac3La(B8Ru7)2
_chemical_formula_sum   'Ac3 La1 B16 Ru14'
_cell_volume   433.66461002
_cell_formula_units_Z   1
loop_
 _symmetry_equiv_pos_site_id
 _symmetry_equiv_pos_as_xyz
  1  'x, y, z'
loop_
 _atom_site_type_symbol
 _atom_site_label
 _atom_site_symmetry_multiplicity
 _atom_site_fract_x
 _atom_site_fract_y
 _atom_site_fract_z
 _atom_site_occupancy
  Ac  Ac0  1  0.731330  0.884288  0.000000  1
  Ac  Ac1  1  0.119145  0.734504  0.500000  1
  Ac  Ac2  1  0.880906  0.265071  0.500000  1
  La  La3  1  0.262949  0.124483  0.000000  1
  B  B4  1  0.500021  0.999998  0.589944  1
  B  B5  1  0.500021  0.999998  0.410056  1
  B  B6  1  0.897048  0.277990  0.170857  1
  B  B7  1  0.103948  0.721698  0.829504  1
  B  B8  1  0.499878  0.500087  0.340820  1
  B  B9  1  0.500096  0.499345  0.841457  1
  B  B10  1  0.279239  0.103138  0.672344  1
  B  B11  1  0.103948  0.721698  0.170496  1
  B  B12  1  0.279239  0.103138  0.327656  1
  B  B13  1  0.897048  0.277990  0.829143  1
  B  B14  1  0.499878  0.500087  0.659180  1
  B  B15  1  0.500096  0.499345  0.158543  1
  B  B16  1  0.000193  0.499467  0.910766  1
  B  B17  1  0.721384  0.896481  0.672071  1
  B  B18  1  0.721384  0.896481  0.327929  1
  B  B19  1  0.000193  0.499467  0.089234  1
  Ru  Ru20  1  0.205926  0.398887  0.753549  1
  Ru  Ru21  1  0.398947  0.285040  0.500000  1
  Ru  Ru22  1  0.400077  0.795029  0.251086  1
  Ru  Ru23  1  0.205926  0.398887  0.246451  1
  Ru  Ru24  1  0.600637  0.715103  0.500000  1
  Ru  Ru25  1  0.599463  0.204887  0.748962  1
  Ru  Ru26  1  0.284814  0.599849  0.000000  1
  Ru  Ru27  1  0.715050  0.399325  0.000000  1
  Ru  Ru28  1  0.794995  0.599429  0.247652  1
  Ru  Ru29  1  0.794995  0.599429  0.752348  1
  Ru  Ru30  1  0.400077  0.795029  0.748914  1
  Ru  Ru31  1  0.000844  0.999731  0.248892  1
  Ru  Ru32  1  0.599463  0.204887  0.251038  1
  Ru  Ru33  1  0.000844  0.999731  0.751108  1
