# generated using pymatgen
data_Y2Ga8Fe9
_symmetry_space_group_name_H-M   'P 1'
_cell_length_a   6.57962574
_cell_length_b   6.57962537
_cell_length_c   6.57962511
_cell_angle_alpha   83.76178842
_cell_angle_beta   96.23820925
_cell_angle_gamma   96.23820875
_symmetry_Int_Tables_number   1
_chemical_formula_structural   Y2Ga8Fe9
_chemical_formula_sum   'Y2 Ga8 Fe9'
_cell_volume   280.12313566
_cell_formula_units_Z   1
loop_
 _symmetry_equiv_pos_site_id
 _symmetry_equiv_pos_as_xyz
  1  'x, y, z'
loop_
 _atom_site_type_symbol
 _atom_site_label
 _atom_site_symmetry_multiplicity
 _atom_site_fract_x
 _atom_site_fract_y
 _atom_site_fract_z
 _atom_site_occupancy
  Y  Y0  1  0.636786  0.363215  0.363215  1
  Y  Y1  1  0.363215  0.636787  0.636786  1
  Ga  Ga2  1  0.319201  0.319201  0.000000  1
  Ga  Ga3  1  0.680799  0.680799  0.000000  1
  Ga  Ga4  1  0.871284  0.128717  0.128717  1
  Ga  Ga5  1  0.000000  0.680800  0.319200  1
  Ga  Ga6  1  0.319201  0.000000  0.319201  1
  Ga  Ga7  1  0.680799  0.000000  0.680799  1
  Ga  Ga8  1  0.000000  0.319200  0.680799  1
  Ga  Ga9  1  0.128717  0.871285  0.871284  1
  Fe  Fe10  1  0.500000  0.000000  0.000000  1
  Fe  Fe11  1  0.000000  0.500000  0.000000  1
  Fe  Fe12  1  0.336334  0.663667  0.163512  1
  Fe  Fe13  1  0.163512  0.336333  0.336333  1
  Fe  Fe14  1  0.663667  0.836487  0.336334  1
  Fe  Fe15  1  0.000000  0.000000  0.500000  1
  Fe  Fe16  1  0.836487  0.663667  0.663666  1
  Fe  Fe17  1  0.336334  0.163512  0.663667  1
  Fe  Fe18  1  0.663666  0.336333  0.836487  1
