# generated using pymatgen
data_Dy10Sn6AsBr
_symmetry_space_group_name_H-M   'P 1'
_cell_length_a   9.13827300
_cell_length_b   9.13827276
_cell_length_c   6.73754400
_cell_angle_alpha   90.00000000
_cell_angle_beta   90.00000000
_cell_angle_gamma   120.00000449
_symmetry_Int_Tables_number   1
_chemical_formula_structural   Dy10Sn6AsBr
_chemical_formula_sum   'Dy10 Sn6 As1 Br1'
_cell_volume   487.25967529
_cell_formula_units_Z   1
loop_
 _symmetry_equiv_pos_site_id
 _symmetry_equiv_pos_as_xyz
  1  'x, y, z'
loop_
 _atom_site_type_symbol
 _atom_site_label
 _atom_site_symmetry_multiplicity
 _atom_site_fract_x
 _atom_site_fract_y
 _atom_site_fract_z
 _atom_site_occupancy
  Dy  Dy0  1  0.666667  0.333333  0.000000  1
  Dy  Dy1  1  0.333333  0.666667  0.000000  1
  Dy  Dy2  1  0.333333  0.666667  0.500000  1
  Dy  Dy3  1  0.666667  0.333333  0.500000  1
  Dy  Dy4  1  0.744837  0.744837  0.738468  1
  Dy  Dy5  1  0.255163  0.000000  0.738468  1
  Dy  Dy6  1  0.000000  0.255163  0.738468  1
  Dy  Dy7  1  0.255163  0.255163  0.261532  1
  Dy  Dy8  1  0.744837  0.000000  0.261532  1
  Dy  Dy9  1  0.000000  0.744837  0.261532  1
  Sn  Sn10  1  0.395474  0.395474  0.749639  1
  Sn  Sn11  1  0.604526  0.000000  0.749639  1
  Sn  Sn12  1  0.000000  0.604526  0.749639  1
  Sn  Sn13  1  0.604526  0.604526  0.250361  1
  Sn  Sn14  1  0.395474  0.000000  0.250361  1
  Sn  Sn15  1  0.000000  0.395474  0.250361  1
  As  As16  1  0.000000  0.000000  0.500000  1
  Br  Br17  1  0.000000  0.000000  0.000000  1
