# generated using pymatgen
data_Lu4Ga2B4(IrRu)5
_symmetry_space_group_name_H-M   'P 1'
_cell_length_a   9.55200188
_cell_length_b   9.56197887
_cell_length_c   3.07145500
_cell_angle_alpha   90.00000000
_cell_angle_beta   90.00000000
_cell_angle_gamma   89.86253666
_symmetry_Int_Tables_number   1
_chemical_formula_structural   Lu4Ga2B4(IrRu)5
_chemical_formula_sum   'Lu4 Ga2 B4 Ir5 Ru5'
_cell_volume   280.53372987
_cell_formula_units_Z   1
loop_
 _symmetry_equiv_pos_site_id
 _symmetry_equiv_pos_as_xyz
  1  'x, y, z'
loop_
 _atom_site_type_symbol
 _atom_site_label
 _atom_site_symmetry_multiplicity
 _atom_site_fract_x
 _atom_site_fract_y
 _atom_site_fract_z
 _atom_site_occupancy
  Lu  Lu0  1  0.673690  0.171596  0.000000  1
  Lu  Lu1  1  0.323615  0.826328  0.000000  1
  Lu  Lu2  1  0.175077  0.324619  0.000000  1
  Lu  Lu3  1  0.827296  0.676348  0.000000  1
  Ga  Ga4  1  0.000654  0.998200  0.000000  1
  Ga  Ga5  1  0.499615  0.500533  0.000000  1
  B  B6  1  0.121351  0.624486  0.000000  1
  B  B7  1  0.878412  0.379109  0.000000  1
  B  B8  1  0.624540  0.878741  0.000000  1
  B  B9  1  0.375416  0.121493  0.000000  1
  Ir  Ir10  1  0.717127  0.429706  0.500000  1
  Ir  Ir11  1  0.929898  0.216347  0.500000  1
  Ir  Ir12  1  0.282611  0.569831  0.500000  1
  Ir  Ir13  1  0.570643  0.717751  0.500000  1
  Ir  Ir14  1  0.430131  0.283081  0.500000  1
  Ru  Ru15  1  0.216937  0.070400  0.500000  1
  Ru  Ru16  1  0.783593  0.930091  0.500000  1
  Ru  Ru17  1  0.070617  0.782981  0.500000  1
  Ru  Ru18  1  0.498650  0.999101  0.500000  1
  Ru  Ru19  1  0.000130  0.499258  0.500000  1
