# generated using pymatgen
data_Ca21Ga8Si6Hg
_symmetry_space_group_name_H-M   'P 1'
_cell_length_a   11.14576643
_cell_length_b   11.14576710
_cell_length_c   11.14576700
_cell_angle_alpha   60.00000326
_cell_angle_beta   60.00000128
_cell_angle_gamma   60.00000112
_symmetry_Int_Tables_number   1
_chemical_formula_structural   Ca21Ga8Si6Hg
_chemical_formula_sum   'Ca21 Ga8 Si6 Hg1'
_cell_volume   979.07256780
_cell_formula_units_Z   1
loop_
 _symmetry_equiv_pos_site_id
 _symmetry_equiv_pos_as_xyz
  1  'x, y, z'
loop_
 _atom_site_type_symbol
 _atom_site_label
 _atom_site_symmetry_multiplicity
 _atom_site_fract_x
 _atom_site_fract_y
 _atom_site_fract_z
 _atom_site_occupancy
  Ca  Ca0  1  0.872913  0.872913  0.381260  1
  Ca  Ca1  1  0.618740  0.127087  0.127087  1
  Ca  Ca2  1  0.872913  0.381260  0.872913  1
  Ca  Ca3  1  0.127087  0.127087  0.127087  1
  Ca  Ca4  1  0.381260  0.872913  0.872913  1
  Ca  Ca5  1  0.872913  0.872913  0.872913  1
  Ca  Ca6  1  0.175830  0.824170  0.500000  1
  Ca  Ca7  1  0.824170  0.500000  0.500000  1
  Ca  Ca8  1  0.127087  0.127087  0.618740  1
  Ca  Ca9  1  0.824170  0.175830  0.500000  1
  Ca  Ca10  1  0.175830  0.500000  0.500000  1
  Ca  Ca11  1  0.127087  0.618740  0.127087  1
  Ca  Ca12  1  0.500000  0.500000  0.175830  1
  Ca  Ca13  1  0.500000  0.175830  0.824170  1
  Ca  Ca14  1  0.500000  0.824170  0.175830  1
  Ca  Ca15  1  0.500000  0.500000  0.824170  1
  Ca  Ca16  1  0.500000  0.175830  0.500000  1
  Ca  Ca17  1  0.175830  0.500000  0.824170  1
  Ca  Ca18  1  0.000000  0.000000  0.000000  1
  Ca  Ca19  1  0.500000  0.824170  0.500000  1
  Ca  Ca20  1  0.824170  0.500000  0.175830  1
  Ga  Ga21  1  0.690425  0.928726  0.690425  1
  Ga  Ga22  1  0.690425  0.690425  0.928726  1
  Ga  Ga23  1  0.690425  0.690425  0.690425  1
  Ga  Ga24  1  0.309575  0.071274  0.309575  1
  Ga  Ga25  1  0.928726  0.690425  0.690425  1
  Ga  Ga26  1  0.309575  0.309575  0.071274  1
  Ga  Ga27  1  0.071274  0.309575  0.309575  1
  Ga  Ga28  1  0.309575  0.309575  0.309575  1
  Si  Si29  1  0.785147  0.214853  0.785147  1
  Si  Si30  1  0.785147  0.214853  0.214853  1
  Si  Si31  1  0.214853  0.785147  0.214853  1
  Si  Si32  1  0.214853  0.785147  0.785147  1
  Si  Si33  1  0.785147  0.785147  0.214853  1
  Si  Si34  1  0.214853  0.214853  0.785147  1
  Hg  Hg35  1  0.500000  0.500000  0.500000  1
