# generated using pymatgen
data_Nd11In9Rh4
_symmetry_space_group_name_H-M   'P 1'
_cell_length_a   13.42847031
_cell_length_b   13.42770229
_cell_length_c   3.84488800
_cell_angle_alpha   90.00000000
_cell_angle_beta   90.00000000
_cell_angle_gamma   112.37004617
_symmetry_Int_Tables_number   1
_chemical_formula_structural   Nd11In9Rh4
_chemical_formula_sum   'Nd11 In9 Rh4'
_cell_volume   641.11212814
_cell_formula_units_Z   1
loop_
 _symmetry_equiv_pos_site_id
 _symmetry_equiv_pos_as_xyz
  1  'x, y, z'
loop_
 _atom_site_type_symbol
 _atom_site_label
 _atom_site_symmetry_multiplicity
 _atom_site_fract_x
 _atom_site_fract_y
 _atom_site_fract_z
 _atom_site_occupancy
  Nd  Nd0  1  0.078973  0.418916  0.000000  1
  Nd  Nd1  1  0.921027  0.581084  0.000000  1
  Nd  Nd2  1  0.418917  0.078970  0.000000  1
  Nd  Nd3  1  0.581083  0.921030  0.000000  1
  Nd  Nd4  1  0.625898  0.374097  0.000000  1
  Nd  Nd5  1  0.374102  0.625903  0.000000  1
  Nd  Nd6  1  0.839685  0.160313  0.000000  1
  Nd  Nd7  1  0.160315  0.839687  0.000000  1
  Nd  Nd8  1  0.000000  0.000000  0.000000  1
  Nd  Nd9  1  0.312799  0.312799  0.000000  1
  Nd  Nd10  1  0.687201  0.687201  0.000000  1
  In  In11  1  0.837698  0.366238  0.500000  1
  In  In12  1  0.162302  0.633762  0.500000  1
  In  In13  1  0.366238  0.837700  0.500000  1
  In  In14  1  0.633762  0.162300  0.500000  1
  In  In15  1  0.078283  0.219541  0.500000  1
  In  In16  1  0.921717  0.780459  0.500000  1
  In  In17  1  0.219544  0.078284  0.500000  1
  In  In18  1  0.780456  0.921716  0.500000  1
  In  In19  1  0.500000  0.500000  0.500000  1
  Rh  Rh20  1  0.247201  0.453003  0.500000  1
  Rh  Rh21  1  0.752799  0.546997  0.500000  1
  Rh  Rh22  1  0.453002  0.247200  0.500000  1
  Rh  Rh23  1  0.546998  0.752800  0.500000  1
