# generated using pymatgen
data_NdHo4(In2Au)2
_symmetry_space_group_name_H-M   'P 1'
_cell_length_a   3.68406500
_cell_length_b   8.23143200
_cell_length_c   18.51902600
_cell_angle_alpha   90.00000000
_cell_angle_beta   90.00000000
_cell_angle_gamma   90.00000000
_symmetry_Int_Tables_number   1
_chemical_formula_structural   NdHo4(In2Au)2
_chemical_formula_sum   'Nd2 Ho8 In8 Au4'
_cell_volume   561.59188076
_cell_formula_units_Z   2
loop_
 _symmetry_equiv_pos_site_id
 _symmetry_equiv_pos_as_xyz
  1  'x, y, z'
loop_
 _atom_site_type_symbol
 _atom_site_label
 _atom_site_symmetry_multiplicity
 _atom_site_fract_x
 _atom_site_fract_y
 _atom_site_fract_z
 _atom_site_occupancy
  Nd  Nd0  1  0.000000  0.500000  0.500000  1
  Nd  Nd1  1  0.000000  0.000000  0.000000  1
  Ho  Ho2  1  0.000000  0.736943  0.281835  1
  Ho  Ho3  1  0.000000  0.263057  0.718165  1
  Ho  Ho4  1  0.000000  0.763057  0.781835  1
  Ho  Ho5  1  0.000000  0.236943  0.218165  1
  Ho  Ho6  1  0.000000  0.620605  0.080844  1
  Ho  Ho7  1  0.000000  0.379395  0.919156  1
  Ho  Ho8  1  0.000000  0.879395  0.580844  1
  Ho  Ho9  1  0.000000  0.120605  0.419156  1
  In  In10  1  0.500000  0.705085  0.931828  1
  In  In11  1  0.500000  0.294915  0.068172  1
  In  In12  1  0.500000  0.794915  0.431828  1
  In  In13  1  0.500000  0.205085  0.568172  1
  In  In14  1  0.500000  0.582337  0.649703  1
  In  In15  1  0.500000  0.417663  0.350297  1
  In  In16  1  0.500000  0.917663  0.149703  1
  In  In17  1  0.500000  0.082337  0.850297  1
  Au  Au18  1  0.500000  0.525964  0.196644  1
  Au  Au19  1  0.500000  0.474036  0.803356  1
  Au  Au20  1  0.500000  0.974036  0.696644  1
  Au  Au21  1  0.500000  0.025964  0.303356  1
