# generated using pymatgen
data_LaYRe7Si4Mo
_symmetry_space_group_name_H-M   'P 1'
_cell_length_a   7.14635969
_cell_length_b   7.80952923
_cell_length_c   4.18940400
_cell_angle_alpha   90.00000000
_cell_angle_beta   90.00000000
_cell_angle_gamma   90.71066535
_symmetry_Int_Tables_number   1
_chemical_formula_structural   LaYRe7Si4Mo
_chemical_formula_sum   'La1 Y1 Re7 Si4 Mo1'
_cell_volume   233.79141604
_cell_formula_units_Z   1
loop_
 _symmetry_equiv_pos_site_id
 _symmetry_equiv_pos_as_xyz
  1  'x, y, z'
loop_
 _atom_site_type_symbol
 _atom_site_label
 _atom_site_symmetry_multiplicity
 _atom_site_fract_x
 _atom_site_fract_y
 _atom_site_fract_z
 _atom_site_occupancy
  La  La0  1  0.998579  0.000025  0.500000  1
  Y  Y1  1  0.500849  0.499144  0.000000  1
  Re  Re2  1  0.157187  0.604687  0.500000  1
  Re  Re3  1  0.082328  0.342249  0.000000  1
  Re  Re4  1  0.921387  0.654709  0.000000  1
  Re  Re5  1  0.425162  0.838267  0.500000  1
  Re  Re6  1  0.573145  0.165832  0.500000  1
  Re  Re7  1  0.345590  0.109620  0.000000  1
  Re  Re8  1  0.843621  0.394005  0.500000  1
  Si  Si9  1  0.230193  0.804090  0.000000  1
  Si  Si10  1  0.771284  0.198372  0.000000  1
  Si  Si11  1  0.724621  0.686602  0.500000  1
  Si  Si12  1  0.275544  0.312018  0.500000  1
  Mo  Mo13  1  0.650509  0.890382  0.000000  1
