# generated using pymatgen
data_Er3Ni2P6Ir7
_symmetry_space_group_name_H-M   'P 1'
_cell_length_a   3.90236700
_cell_length_b   11.00357600
_cell_length_c   12.71656900
_cell_angle_alpha   90.00000000
_cell_angle_beta   90.00000000
_cell_angle_gamma   90.00000000
_symmetry_Int_Tables_number   1
_chemical_formula_structural   Er3Ni2P6Ir7
_chemical_formula_sum   'Er6 Ni4 P12 Ir14'
_cell_volume   546.04936940
_cell_formula_units_Z   2
loop_
 _symmetry_equiv_pos_site_id
 _symmetry_equiv_pos_as_xyz
  1  'x, y, z'
loop_
 _atom_site_type_symbol
 _atom_site_label
 _atom_site_symmetry_multiplicity
 _atom_site_fract_x
 _atom_site_fract_y
 _atom_site_fract_z
 _atom_site_occupancy
  Er  Er0  1  0.750000  0.250000  0.475883  1
  Er  Er1  1  0.250000  0.750000  0.523257  1
  Er  Er2  1  0.250000  0.935120  0.800093  1
  Er  Er3  1  0.250000  0.564880  0.800093  1
  Er  Er4  1  0.750000  0.073098  0.199280  1
  Er  Er5  1  0.750000  0.426902  0.199280  1
  Ni  Ni6  1  0.750000  0.250000  0.012254  1
  Ni  Ni7  1  0.250000  0.750000  0.983663  1
  Ni  Ni8  1  0.250000  0.414041  0.002341  1
  Ni  Ni9  1  0.250000  0.085959  0.002341  1
  P  P10  1  0.250000  0.250000  0.115157  1
  P  P11  1  0.750000  0.750000  0.879019  1
  P  P12  1  0.250000  0.250000  0.644200  1
  P  P13  1  0.750000  0.750000  0.356873  1
  P  P14  1  0.250000  0.432629  0.380707  1
  P  P15  1  0.250000  0.067371  0.380707  1
  P  P16  1  0.750000  0.566397  0.618981  1
  P  P17  1  0.750000  0.933603  0.618981  1
  P  P18  1  0.250000  0.908038  0.104226  1
  P  P19  1  0.250000  0.591962  0.104226  1
  P  P20  1  0.750000  0.099371  0.898755  1
  P  P21  1  0.750000  0.400629  0.898755  1
  Ir  Ir22  1  0.250000  0.250000  0.829575  1
  Ir  Ir23  1  0.750000  0.750000  0.174398  1
  Ir  Ir24  1  0.250000  0.250000  0.298020  1
  Ir  Ir25  1  0.750000  0.750000  0.702327  1
  Ir  Ir26  1  0.750000  0.584837  0.996777  1
  Ir  Ir27  1  0.750000  0.915163  0.996777  1
  Ir  Ir28  1  0.250000  0.453920  0.570992  1
  Ir  Ir29  1  0.250000  0.046080  0.570992  1
  Ir  Ir30  1  0.750000  0.544256  0.429474  1
  Ir  Ir31  1  0.750000  0.955744  0.429474  1
  Ir  Ir32  1  0.250000  0.881468  0.284113  1
  Ir  Ir33  1  0.250000  0.618532  0.284113  1
  Ir  Ir34  1  0.750000  0.120014  0.716947  1
  Ir  Ir35  1  0.750000  0.379986  0.716947  1
