# generated using pymatgen
data_LiFe(SbO3)4
_symmetry_space_group_name_H-M   'P 1'
_cell_length_a   4.73558900
_cell_length_b   9.45277100
_cell_length_c   9.33581600
_cell_angle_alpha   90.00000000
_cell_angle_beta   90.00000000
_cell_angle_gamma   90.00000000
_symmetry_Int_Tables_number   1
_chemical_formula_structural   LiFe(SbO3)4
_chemical_formula_sum   'Li2 Fe2 Sb8 O24'
_cell_volume   417.91255994
_cell_formula_units_Z   2
loop_
 _symmetry_equiv_pos_site_id
 _symmetry_equiv_pos_as_xyz
  1  'x, y, z'
loop_
 _atom_site_type_symbol
 _atom_site_label
 _atom_site_symmetry_multiplicity
 _atom_site_fract_x
 _atom_site_fract_y
 _atom_site_fract_z
 _atom_site_occupancy
  Li  Li0  1  0.000538  0.501989  0.000000  1
  Li  Li1  1  0.500538  0.748011  0.500000  1
  Fe  Fe2  1  0.998765  0.998058  0.000000  1
  Fe  Fe3  1  0.498765  0.251942  0.500000  1
  Sb  Sb4  1  0.995439  0.995716  0.333333  1
  Sb  Sb5  1  0.005471  0.504804  0.330453  1
  Sb  Sb6  1  0.495439  0.254284  0.833333  1
  Sb  Sb7  1  0.505471  0.745196  0.830453  1
  Sb  Sb8  1  0.495439  0.254284  0.166667  1
  Sb  Sb9  1  0.505471  0.745196  0.169547  1
  Sb  Sb10  1  0.995439  0.995716  0.666667  1
  Sb  Sb11  1  0.005471  0.504804  0.669547  1
  O  O12  1  0.305105  0.150410  0.000000  1
  O  O13  1  0.313418  0.659960  0.000000  1
  O  O14  1  0.197090  0.400688  0.500000  1
  O  O15  1  0.186762  0.907218  0.500000  1
  O  O16  1  0.805105  0.099590  0.500000  1
  O  O17  1  0.813418  0.590040  0.500000  1
  O  O18  1  0.686762  0.342782  0.000000  1
  O  O19  1  0.697090  0.849312  0.000000  1
  O  O20  1  0.307040  0.149390  0.331059  1
  O  O21  1  0.299108  0.654539  0.328761  1
  O  O22  1  0.193245  0.397966  0.826465  1
  O  O23  1  0.198857  0.905172  0.832555  1
  O  O24  1  0.807040  0.100610  0.831059  1
  O  O25  1  0.799108  0.595461  0.828761  1
  O  O26  1  0.807040  0.100610  0.168941  1
  O  O27  1  0.799108  0.595461  0.171239  1
  O  O28  1  0.193245  0.397966  0.173535  1
  O  O29  1  0.198857  0.905172  0.167445  1
  O  O30  1  0.698857  0.344828  0.332555  1
  O  O31  1  0.693245  0.852034  0.326465  1
  O  O32  1  0.307040  0.149390  0.668941  1
  O  O33  1  0.299108  0.654539  0.671239  1
  O  O34  1  0.698857  0.344828  0.667445  1
  O  O35  1  0.693245  0.852034  0.673535  1
