# generated using pymatgen
data_HoPa3(Pt2Pb)2
_symmetry_space_group_name_H-M   'P 1'
_cell_length_a   7.93305047
_cell_length_b   7.93305155
_cell_length_c   3.63980900
_cell_angle_alpha   90.00000000
_cell_angle_beta   90.00000000
_cell_angle_gamma   89.50833232
_symmetry_Int_Tables_number   1
_chemical_formula_structural   HoPa3(Pt2Pb)2
_chemical_formula_sum   'Ho1 Pa3 Pt4 Pb2'
_cell_volume   229.05675185
_cell_formula_units_Z   1
loop_
 _symmetry_equiv_pos_site_id
 _symmetry_equiv_pos_as_xyz
  1  'x, y, z'
loop_
 _atom_site_type_symbol
 _atom_site_label
 _atom_site_symmetry_multiplicity
 _atom_site_fract_x
 _atom_site_fract_y
 _atom_site_fract_z
 _atom_site_occupancy
  Ho  Ho0  1  0.326763  0.826763  0.500000  1
  Pa  Pa1  1  0.669843  0.169843  0.500000  1
  Pa  Pa2  1  0.173083  0.327335  0.500000  1
  Pa  Pa3  1  0.827335  0.673083  0.500000  1
  Pt  Pt4  1  0.377283  0.135094  0.000000  1
  Pt  Pt5  1  0.117560  0.617560  0.000000  1
  Pt  Pt6  1  0.635094  0.877283  0.000000  1
  Pt  Pt7  1  0.867367  0.367367  0.000000  1
  Pb  Pb8  1  0.009558  0.996114  0.000000  1
  Pb  Pb9  1  0.496114  0.509558  0.000000  1
