# generated using pymatgen
data_Dy2Y8Sn5Sb
_symmetry_space_group_name_H-M   'P 1'
_cell_length_a   8.98950700
_cell_length_b   8.98211710
_cell_length_c   6.53792600
_cell_angle_alpha   89.99884288
_cell_angle_beta   90.00000000
_cell_angle_gamma   120.02720854
_symmetry_Int_Tables_number   1
_chemical_formula_structural   Dy2Y8Sn5Sb
_chemical_formula_sum   'Dy2 Y8 Sn5 Sb1'
_cell_volume   457.05249423
_cell_formula_units_Z   1
loop_
 _symmetry_equiv_pos_site_id
 _symmetry_equiv_pos_as_xyz
  1  'x, y, z'
loop_
 _atom_site_type_symbol
 _atom_site_label
 _atom_site_symmetry_multiplicity
 _atom_site_fract_x
 _atom_site_fract_y
 _atom_site_fract_z
 _atom_site_occupancy
  Dy  Dy0  1  0.667581  0.334377  0.500906  1
  Dy  Dy1  1  0.333203  0.665623  0.999094  1
  Y  Y2  1  0.997717  0.758837  0.749968  1
  Y  Y3  1  0.000857  0.240224  0.249993  1
  Y  Y4  1  0.760632  0.759776  0.250007  1
  Y  Y5  1  0.760379  0.000000  0.750000  1
  Y  Y6  1  0.238880  0.241163  0.750032  1
  Y  Y7  1  0.240230  0.000000  0.250000  1
  Y  Y8  1  0.333215  0.665709  0.500916  1
  Y  Y9  1  0.667508  0.334291  0.999084  1
  Sn  Sn10  1  0.395385  0.394458  0.249978  1
  Sn  Sn11  1  0.000927  0.605542  0.250022  1
  Sn  Sn12  1  0.999961  0.395497  0.749991  1
  Sn  Sn13  1  0.604464  0.604503  0.750009  1
  Sn  Sn14  1  0.605762  0.000000  0.250000  1
  Sb  Sb15  1  0.393297  0.000000  0.750000  1
