# generated using pymatgen
data_Pr4Er4Tc(B8Ru)3
_symmetry_space_group_name_H-M   'P 1'
_cell_length_a   3.72202300
_cell_length_b   9.22198907
_cell_length_c   11.66720900
_cell_angle_alpha   89.91000259
_cell_angle_beta   90.00000000
_cell_angle_gamma   90.00000000
_symmetry_Int_Tables_number   1
_chemical_formula_structural   Pr4Er4Tc(B8Ru)3
_chemical_formula_sum   'Pr4 Er4 Tc1 B24 Ru3'
_cell_volume   400.47010144
_cell_formula_units_Z   1
loop_
 _symmetry_equiv_pos_site_id
 _symmetry_equiv_pos_as_xyz
  1  'x, y, z'
loop_
 _atom_site_type_symbol
 _atom_site_label
 _atom_site_symmetry_multiplicity
 _atom_site_fract_x
 _atom_site_fract_y
 _atom_site_fract_z
 _atom_site_occupancy
  Pr  Pr0  1  0.000000  0.323739  0.413627  1
  Pr  Pr1  1  0.000000  0.677204  0.583718  1
  Pr  Pr2  1  0.000000  0.821242  0.086911  1
  Pr  Pr3  1  0.000000  0.176603  0.915302  1
  Er  Er4  1  0.000000  0.943144  0.371599  1
  Er  Er5  1  0.000000  0.057233  0.629063  1
  Er  Er6  1  0.000000  0.444396  0.129061  1
  Er  Er7  1  0.000000  0.556659  0.870392  1
  Tc  Tc8  1  0.000000  0.639509  0.318927  1
  B  B9  1  0.500000  0.555703  0.429632  1
  B  B10  1  0.500000  0.443573  0.570579  1
  B  B11  1  0.500000  0.056618  0.070555  1
  B  B12  1  0.500000  0.943001  0.929911  1
  B  B13  1  0.500000  0.749919  0.416211  1
  B  B14  1  0.500000  0.250230  0.583728  1
  B  B15  1  0.500000  0.249682  0.083303  1
  B  B16  1  0.500000  0.750007  0.916525  1
  B  B17  1  0.500000  0.790681  0.266681  1
  B  B18  1  0.500000  0.209977  0.733495  1
  B  B19  1  0.500000  0.290178  0.232717  1
  B  B20  1  0.500000  0.710411  0.766477  1
  B  B21  1  0.500000  0.629767  0.185843  1
  B  B22  1  0.500000  0.369994  0.814776  1
  B  B23  1  0.500000  0.129818  0.314156  1
  B  B24  1  0.500000  0.870709  0.685407  1
  B  B25  1  0.500000  0.985558  0.214137  1
  B  B26  1  0.500000  0.014194  0.786509  1
  B  B27  1  0.500000  0.484747  0.285872  1
  B  B28  1  0.500000  0.514135  0.713956  1
  B  B29  1  0.500000  0.600380  0.026672  1
  B  B30  1  0.500000  0.399183  0.972018  1
  B  B31  1  0.500000  0.101332  0.472874  1
  B  B32  1  0.500000  0.900265  0.528025  1
  Ru  Ru33  1  0.000000  0.360216  0.681739  1
  Ru  Ru34  1  0.000000  0.139712  0.180957  1
  Ru  Ru35  1  0.000000  0.860280  0.818644  1
