# generated using pymatgen
data_Ho16Co3Hg4Ru
_symmetry_space_group_name_H-M   'P 1'
_cell_length_a   9.48954523
_cell_length_b   9.48947949
_cell_length_c   9.48933743
_cell_angle_alpha   59.56224823
_cell_angle_beta   59.56654913
_cell_angle_gamma   59.56699000
_symmetry_Int_Tables_number   1
_chemical_formula_structural   Ho16Co3Hg4Ru
_chemical_formula_sum   'Ho16 Co3 Hg4 Ru1'
_cell_volume   598.26710229
_cell_formula_units_Z   1
loop_
 _symmetry_equiv_pos_site_id
 _symmetry_equiv_pos_as_xyz
  1  'x, y, z'
loop_
 _atom_site_type_symbol
 _atom_site_label
 _atom_site_symmetry_multiplicity
 _atom_site_fract_x
 _atom_site_fract_y
 _atom_site_fract_z
 _atom_site_occupancy
  Ho  Ho0  1  0.345760  0.345873  0.345888  1
  Ho  Ho1  1  0.351503  0.351512  0.956155  1
  Ho  Ho2  1  0.351524  0.956143  0.351507  1
  Ho  Ho3  1  0.956142  0.351518  0.351521  1
  Ho  Ho4  1  0.807262  0.188100  0.188096  1
  Ho  Ho5  1  0.186591  0.811355  0.811390  1
  Ho  Ho6  1  0.188092  0.807219  0.188081  1
  Ho  Ho7  1  0.811391  0.186579  0.811363  1
  Ho  Ho8  1  0.188093  0.188114  0.807232  1
  Ho  Ho9  1  0.811406  0.811321  0.186571  1
  Ho  Ho10  1  0.938526  0.562724  0.562703  1
  Ho  Ho11  1  0.558566  0.939982  0.939972  1
  Ho  Ho12  1  0.562705  0.938540  0.562710  1
  Ho  Ho13  1  0.940013  0.558572  0.940013  1
  Ho  Ho14  1  0.562707  0.562702  0.938525  1
  Ho  Ho15  1  0.940057  0.940010  0.558529  1
  Co  Co16  1  0.141565  0.141554  0.578329  1
  Co  Co17  1  0.141559  0.578299  0.141564  1
  Co  Co18  1  0.578298  0.141601  0.141625  1
  Hg  Hg19  1  0.583221  0.583266  0.583226  1
  Hg  Hg20  1  0.583219  0.583244  0.247127  1
  Hg  Hg21  1  0.583239  0.247134  0.583208  1
  Hg  Hg22  1  0.247135  0.583254  0.583202  1
  Ru  Ru23  1  0.141426  0.141382  0.141463  1
