# generated using pymatgen
data_Y12TlCo5
_symmetry_space_group_name_H-M   'P 1'
_cell_length_a   8.32120876
_cell_length_b   8.32120830
_cell_length_c   8.32120838
_cell_angle_alpha   110.73557254
_cell_angle_beta   110.70556696
_cell_angle_gamma   107.00041766
_symmetry_Int_Tables_number   1
_chemical_formula_structural   Y12TlCo5
_chemical_formula_sum   'Y12 Tl1 Co5'
_cell_volume   442.92932346
_cell_formula_units_Z   1
loop_
 _symmetry_equiv_pos_site_id
 _symmetry_equiv_pos_as_xyz
  1  'x, y, z'
loop_
 _atom_site_type_symbol
 _atom_site_label
 _atom_site_symmetry_multiplicity
 _atom_site_fract_x
 _atom_site_fract_y
 _atom_site_fract_z
 _atom_site_occupancy
  Y  Y0  1  0.291124  0.185788  0.476912  1
  Y  Y1  1  0.708876  0.814212  0.523088  1
  Y  Y2  1  0.291124  0.814212  0.105338  1
  Y  Y3  1  0.708876  0.185788  0.894662  1
  Y  Y4  1  0.618907  0.314017  0.304891  1
  Y  Y5  1  0.381093  0.685983  0.695109  1
  Y  Y6  1  0.009126  0.314017  0.695109  1
  Y  Y7  1  0.990874  0.685983  0.304891  1
  Y  Y8  1  0.209364  0.401290  0.191925  1
  Y  Y9  1  0.790636  0.598710  0.808075  1
  Y  Y10  1  0.209364  0.017439  0.808075  1
  Y  Y11  1  0.790636  0.982561  0.191925  1
  Tl  Tl12  1  0.500000  0.500000  0.000000  1
  Co  Co13  1  0.000000  0.380652  0.380652  1
  Co  Co14  1  0.000000  0.619348  0.619348  1
  Co  Co15  1  0.388983  0.888983  0.500000  1
  Co  Co16  1  0.611017  0.111017  0.500000  1
  Co  Co17  1  0.000000  0.000000  0.000000  1
