# generated using pymatgen
data_NdOs6Pb3O19
_symmetry_space_group_name_H-M   'P 1'
_cell_length_a   8.08068395
_cell_length_b   7.98944976
_cell_length_c   7.98944921
_cell_angle_alpha   109.23875168
_cell_angle_beta   109.70270549
_cell_angle_gamma   109.70270250
_symmetry_Int_Tables_number   1
_chemical_formula_structural   NdOs6Pb3O19
_chemical_formula_sum   'Nd1 Os6 Pb3 O19'
_cell_volume   395.92346569
_cell_formula_units_Z   1
loop_
 _symmetry_equiv_pos_site_id
 _symmetry_equiv_pos_as_xyz
  1  'x, y, z'
loop_
 _atom_site_type_symbol
 _atom_site_label
 _atom_site_symmetry_multiplicity
 _atom_site_fract_x
 _atom_site_fract_y
 _atom_site_fract_z
 _atom_site_occupancy
  Nd  Nd0  1  0.304307  0.000000  0.000000  1
  Os  Os1  1  0.635543  0.499153  0.137825  1
  Os  Os2  1  0.497718  0.862174  0.361328  1
  Os  Os3  1  0.863133  0.362144  0.501915  1
  Os  Os4  1  0.136391  0.638672  0.500847  1
  Os  Os5  1  0.500989  0.139772  0.637857  1
  Os  Os6  1  0.361218  0.498085  0.860228  1
  Pb  Pb7  1  0.000469  0.298611  0.999067  1
  Pb  Pb8  1  0.001403  0.000933  0.299545  1
  Pb  Pb9  1  0.701856  0.700454  0.701388  1
  O  O10  1  0.017608  0.000000  0.000000  1
  O  O11  1  0.330284  0.322550  0.995548  1
  O  O12  1  0.666451  0.669827  0.000313  1
  O  O13  1  0.348359  0.715493  0.059978  1
  O  O14  1  0.931508  0.645083  0.289703  1
  O  O15  1  0.632866  0.344487  0.284506  1
  O  O16  1  0.334736  0.004452  0.327003  1
  O  O17  1  0.996623  0.330487  0.330173  1
  O  O18  1  0.705549  0.063819  0.347217  1
  O  O19  1  0.641805  0.710297  0.355381  1
  O  O20  1  0.286423  0.644617  0.354916  1
  O  O21  1  0.288380  0.940021  0.655513  1
  O  O22  1  0.358939  0.292647  0.641728  1
  O  O23  1  0.717211  0.358270  0.650919  1
  O  O24  1  0.666137  0.999687  0.669513  1
  O  O25  1  0.007734  0.672997  0.677451  1
  O  O26  1  0.066292  0.349080  0.707351  1
  O  O27  1  0.358330  0.652782  0.716600  1
  O  O28  1  0.641731  0.283400  0.936182  1
