# generated using pymatgen
data_Hf4Zr12IrPt7N4
_symmetry_space_group_name_H-M   'P 1'
_cell_length_a   8.85061582
_cell_length_b   8.85061614
_cell_length_c   8.85061549
_cell_angle_alpha   60.05422045
_cell_angle_beta   60.05422148
_cell_angle_gamma   60.05421550
_symmetry_Int_Tables_number   1
_chemical_formula_structural   Hf4Zr12IrPt7N4
_chemical_formula_sum   'Hf4 Zr12 Ir1 Pt7 N4'
_cell_volume   490.83873844
_cell_formula_units_Z   1
loop_
 _symmetry_equiv_pos_site_id
 _symmetry_equiv_pos_as_xyz
  1  'x, y, z'
loop_
 _atom_site_type_symbol
 _atom_site_label
 _atom_site_symmetry_multiplicity
 _atom_site_fract_x
 _atom_site_fract_y
 _atom_site_fract_z
 _atom_site_occupancy
  Hf  Hf0  1  0.122620  0.626621  0.626621  1
  Hf  Hf1  1  0.626621  0.122620  0.626621  1
  Hf  Hf2  1  0.626621  0.626621  0.122620  1
  Hf  Hf3  1  0.624967  0.624967  0.624967  1
  Zr  Zr4  1  0.817602  0.817602  0.179327  1
  Zr  Zr5  1  0.182099  0.182099  0.817652  1
  Zr  Zr6  1  0.817602  0.179327  0.817602  1
  Zr  Zr7  1  0.182099  0.817652  0.182099  1
  Zr  Zr8  1  0.179327  0.817602  0.817602  1
  Zr  Zr9  1  0.817652  0.182099  0.182099  1
  Zr  Zr10  1  0.432332  0.432332  0.067766  1
  Zr  Zr11  1  0.067273  0.067273  0.432934  1
  Zr  Zr12  1  0.432332  0.067766  0.432332  1
  Zr  Zr13  1  0.067273  0.432934  0.067273  1
  Zr  Zr14  1  0.067766  0.432332  0.432332  1
  Zr  Zr15  1  0.432934  0.067273  0.067273  1
  Ir  Ir16  1  0.843194  0.843194  0.843194  1
  Pt  Pt17  1  0.775761  0.408141  0.408141  1
  Pt  Pt18  1  0.408141  0.775761  0.408141  1
  Pt  Pt19  1  0.408141  0.408141  0.775761  1
  Pt  Pt20  1  0.408141  0.408141  0.408141  1
  Pt  Pt21  1  0.474568  0.842142  0.842142  1
  Pt  Pt22  1  0.842142  0.474568  0.842142  1
  Pt  Pt23  1  0.842142  0.842142  0.474568  1
  N  N24  1  0.624792  0.125285  0.125285  1
  N  N25  1  0.125285  0.624792  0.125285  1
  N  N26  1  0.125285  0.125285  0.624792  1
  N  N27  1  0.125287  0.125287  0.125287  1
