# generated using pymatgen
data_Ce2Dy7Er7(CdRu)4
_symmetry_space_group_name_H-M   'P 1'
_cell_length_a   9.63689225
_cell_length_b   9.57517149
_cell_length_c   9.58106316
_cell_angle_alpha   59.66895908
_cell_angle_beta   59.73777159
_cell_angle_gamma   59.73633289
_symmetry_Int_Tables_number   1
_chemical_formula_structural   Ce2Dy7Er7(CdRu)4
_chemical_formula_sum   'Ce2 Dy7 Er7 Cd4 Ru4'
_cell_volume   621.09072894
_cell_formula_units_Z   1
loop_
 _symmetry_equiv_pos_site_id
 _symmetry_equiv_pos_as_xyz
  1  'x, y, z'
loop_
 _atom_site_type_symbol
 _atom_site_label
 _atom_site_symmetry_multiplicity
 _atom_site_fract_x
 _atom_site_fract_y
 _atom_site_fract_z
 _atom_site_occupancy
  Ce  Ce0  1  0.970247  0.341890  0.341619  1
  Ce  Ce1  1  0.346979  0.341578  0.340824  1
  Dy  Dy2  1  0.562011  0.561361  0.938974  1
  Dy  Dy3  1  0.937748  0.561274  0.939564  1
  Dy  Dy4  1  0.561041  0.938901  0.939522  1
  Dy  Dy5  1  0.938064  0.939500  0.560848  1
  Dy  Dy6  1  0.562408  0.938863  0.560886  1
  Dy  Dy7  1  0.937788  0.562244  0.561546  1
  Dy  Dy8  1  0.188756  0.188065  0.812680  1
  Er  Er9  1  0.809565  0.187890  0.812973  1
  Er  Er10  1  0.188305  0.811033  0.811551  1
  Er  Er11  1  0.810064  0.813067  0.188058  1
  Er  Er12  1  0.188562  0.812272  0.188595  1
  Er  Er13  1  0.810795  0.188367  0.188872  1
  Er  Er14  1  0.349552  0.348641  0.952857  1
  Er  Er15  1  0.349454  0.952462  0.348516  1
  Cd  Cd16  1  0.581137  0.579646  0.257663  1
  Cd  Cd17  1  0.581417  0.257595  0.579602  1
  Cd  Cd18  1  0.259335  0.580280  0.579894  1
  Cd  Cd19  1  0.580258  0.579821  0.579864  1
  Ru  Ru20  1  0.139087  0.150611  0.571937  1
  Ru  Ru21  1  0.139494  0.572324  0.150594  1
  Ru  Ru22  1  0.573991  0.146685  0.146473  1
  Ru  Ru23  1  0.133939  0.145627  0.146082  1
