# generated using pymatgen
data_Hf18Nb3Re5As2
_symmetry_space_group_name_H-M   'P 1'
_cell_length_a   8.68990900
_cell_length_b   8.68990929
_cell_length_c   8.73553500
_cell_angle_alpha   90.00000000
_cell_angle_beta   90.00000000
_cell_angle_gamma   120.00000269
_symmetry_Int_Tables_number   1
_chemical_formula_structural   Hf18Nb3Re5As2
_chemical_formula_sum   'Hf18 Nb3 Re5 As2'
_cell_volume   571.28207803
_cell_formula_units_Z   1
loop_
 _symmetry_equiv_pos_site_id
 _symmetry_equiv_pos_as_xyz
  1  'x, y, z'
loop_
 _atom_site_type_symbol
 _atom_site_label
 _atom_site_symmetry_multiplicity
 _atom_site_fract_x
 _atom_site_fract_y
 _atom_site_fract_z
 _atom_site_occupancy
  Hf  Hf0  1  0.195531  0.804469  0.459964  1
  Hf  Hf1  1  0.195531  0.391062  0.459964  1
  Hf  Hf2  1  0.608938  0.804469  0.459964  1
  Hf  Hf3  1  0.807115  0.192885  0.554031  1
  Hf  Hf4  1  0.807115  0.614231  0.554031  1
  Hf  Hf5  1  0.385769  0.192885  0.554031  1
  Hf  Hf6  1  0.807115  0.192885  0.945969  1
  Hf  Hf7  1  0.807115  0.614231  0.945969  1
  Hf  Hf8  1  0.385769  0.192885  0.945969  1
  Hf  Hf9  1  0.195531  0.804469  0.040036  1
  Hf  Hf10  1  0.195531  0.391062  0.040036  1
  Hf  Hf11  1  0.608938  0.804469  0.040036  1
  Hf  Hf12  1  0.537221  0.462779  0.250000  1
  Hf  Hf13  1  0.537221  0.074440  0.250000  1
  Hf  Hf14  1  0.925560  0.462779  0.250000  1
  Hf  Hf15  1  0.457971  0.542029  0.750000  1
  Hf  Hf16  1  0.457971  0.915942  0.750000  1
  Hf  Hf17  1  0.084058  0.542029  0.750000  1
  Nb  Nb18  1  0.889149  0.110851  0.250000  1
  Nb  Nb19  1  0.889149  0.778300  0.250000  1
  Nb  Nb20  1  0.221700  0.110851  0.250000  1
  Re  Re21  1  0.109414  0.890586  0.750000  1
  Re  Re22  1  0.109414  0.218826  0.750000  1
  Re  Re23  1  0.781174  0.890586  0.750000  1
  Re  Re24  1  0.000000  0.000000  0.501484  1
  Re  Re25  1  0.000000  0.000000  0.998516  1
  As  As26  1  0.333333  0.666667  0.250000  1
  As  As27  1  0.666667  0.333333  0.750000  1
