# generated using pymatgen
data_Sr3Th(Al8Pt3)3
_symmetry_space_group_name_H-M   'P 1'
_cell_length_a   7.55559372
_cell_length_b   7.62786890
_cell_length_c   13.52936453
_cell_angle_alpha   84.63038717
_cell_angle_beta   79.27753229
_cell_angle_gamma   60.03701271
_symmetry_Int_Tables_number   1
_chemical_formula_structural   Sr3Th(Al8Pt3)3
_chemical_formula_sum   'Sr3 Th1 Al24 Pt9'
_cell_volume   663.73050070
_cell_formula_units_Z   1
loop_
 _symmetry_equiv_pos_site_id
 _symmetry_equiv_pos_as_xyz
  1  'x, y, z'
loop_
 _atom_site_type_symbol
 _atom_site_label
 _atom_site_symmetry_multiplicity
 _atom_site_fract_x
 _atom_site_fract_y
 _atom_site_fract_z
 _atom_site_occupancy
  Sr  Sr0  1  0.606168  0.831007  0.192243  1
  Sr  Sr1  1  0.733434  0.498712  0.807933  1
  Sr  Sr2  1  0.265855  0.502163  0.191933  1
  Th  Th3  1  0.395324  0.168844  0.806476  1
  Al  Al4  1  0.687780  0.833014  0.946218  1
  Al  Al5  1  0.312611  0.166030  0.050840  1
  Al  Al6  1  0.147834  0.831629  0.559068  1
  Al  Al7  1  0.851645  0.168376  0.443614  1
  Al  Al8  1  0.478432  0.165801  0.557391  1
  Al  Al9  1  0.520341  0.834202  0.444323  1
  Al  Al10  1  0.211693  0.165317  0.336455  1
  Al  Al11  1  0.788465  0.832089  0.666875  1
  Al  Al12  1  0.437099  0.510829  0.666612  1
  Al  Al13  1  0.562164  0.491553  0.336579  1
  Al  Al14  1  0.108079  0.158231  0.664286  1
  Al  Al15  1  0.888116  0.842487  0.338119  1
  Al  Al16  1  0.350028  0.502610  0.946939  1
  Al  Al17  1  0.652825  0.496169  0.049794  1
  Al  Al18  1  0.015418  0.165579  0.955353  1
  Al  Al19  1  0.986587  0.835949  0.039742  1
  Al  Al20  1  0.186371  0.498559  0.443972  1
  Al  Al21  1  0.813439  0.501775  0.558027  1
  Al  Al22  1  0.736184  0.165392  0.183092  1
  Al  Al23  1  0.260731  0.841277  0.816036  1
  Al  Al24  1  0.068582  0.630612  0.814592  1
  Al  Al25  1  0.938314  0.365289  0.184043  1
  Al  Al26  1  0.857567  0.033295  0.815363  1
  Al  Al27  1  0.139555  0.963204  0.183498  1
  Pt  Pt28  1  0.122340  0.493185  0.636215  1
  Pt  Pt29  1  0.878504  0.504421  0.366229  1
  Pt  Pt30  1  0.659660  0.169813  0.997399  1
  Pt  Pt31  1  0.342026  0.829957  0.998026  1
  Pt  Pt32  1  0.539228  0.167367  0.365748  1
  Pt  Pt33  1  0.460070  0.834999  0.636583  1
  Pt  Pt34  1  0.778934  0.171929  0.635636  1
  Pt  Pt35  1  0.217119  0.828656  0.367244  1
  Pt  Pt36  1  0.001475  0.499678  0.997508  1
