# generated using pymatgen
data_TmPuReB6
_symmetry_space_group_name_H-M   'P 1'
_cell_length_a   3.66226600
_cell_length_b   9.13327700
_cell_length_c   11.48486100
_cell_angle_alpha   90.00000000
_cell_angle_beta   90.00000000
_cell_angle_gamma   90.00000000
_symmetry_Int_Tables_number   1
_chemical_formula_structural   TmPuReB6
_chemical_formula_sum   'Tm4 Pu4 Re4 B24'
_cell_volume   384.15125631
_cell_formula_units_Z   4
loop_
 _symmetry_equiv_pos_site_id
 _symmetry_equiv_pos_as_xyz
  1  'x, y, z'
loop_
 _atom_site_type_symbol
 _atom_site_label
 _atom_site_symmetry_multiplicity
 _atom_site_fract_x
 _atom_site_fract_y
 _atom_site_fract_z
 _atom_site_occupancy
  Tm  Tm0  1  0.000000  0.944174  0.373033  1
  Tm  Tm1  1  0.000000  0.055826  0.626967  1
  Tm  Tm2  1  0.000000  0.444174  0.126967  1
  Tm  Tm3  1  0.000000  0.555826  0.873033  1
  Pu  Pu4  1  0.000000  0.321916  0.414248  1
  Pu  Pu5  1  0.000000  0.678084  0.585752  1
  Pu  Pu6  1  0.000000  0.821916  0.085752  1
  Pu  Pu7  1  0.000000  0.178084  0.914248  1
  Re  Re8  1  0.000000  0.638489  0.321406  1
  Re  Re9  1  0.000000  0.361511  0.678594  1
  Re  Re10  1  0.000000  0.138489  0.178594  1
  Re  Re11  1  0.000000  0.861511  0.821406  1
  B  B12  1  0.500000  0.553182  0.433398  1
  B  B13  1  0.500000  0.446818  0.566602  1
  B  B14  1  0.500000  0.053182  0.066602  1
  B  B15  1  0.500000  0.946818  0.933398  1
  B  B16  1  0.500000  0.749450  0.419771  1
  B  B17  1  0.500000  0.250550  0.580229  1
  B  B18  1  0.500000  0.249450  0.080229  1
  B  B19  1  0.500000  0.750550  0.919771  1
  B  B20  1  0.500000  0.793208  0.265051  1
  B  B21  1  0.500000  0.206792  0.734949  1
  B  B22  1  0.500000  0.293208  0.234949  1
  B  B23  1  0.500000  0.706792  0.765051  1
  B  B24  1  0.500000  0.631788  0.184532  1
  B  B25  1  0.500000  0.368212  0.815468  1
  B  B26  1  0.500000  0.131788  0.315468  1
  B  B27  1  0.500000  0.868212  0.684532  1
  B  B28  1  0.500000  0.981538  0.212787  1
  B  B29  1  0.500000  0.018462  0.787213  1
  B  B30  1  0.500000  0.481538  0.287213  1
  B  B31  1  0.500000  0.518462  0.712787  1
  B  B32  1  0.500000  0.606158  0.029484  1
  B  B33  1  0.500000  0.393842  0.970516  1
  B  B34  1  0.500000  0.106158  0.470516  1
  B  B35  1  0.500000  0.893842  0.529484  1
