# generated using pymatgen
data_Ce4IrRu2Pt
_symmetry_space_group_name_H-M   'P 1'
_cell_length_a   3.90628100
_cell_length_b   4.21775900
_cell_length_c   10.64342800
_cell_angle_alpha   90.00000000
_cell_angle_beta   90.00000000
_cell_angle_gamma   90.00000000
_symmetry_Int_Tables_number   1
_chemical_formula_structural   Ce4IrRu2Pt
_chemical_formula_sum   'Ce4 Ir1 Ru2 Pt1'
_cell_volume   175.35847850
_cell_formula_units_Z   1
loop_
 _symmetry_equiv_pos_site_id
 _symmetry_equiv_pos_as_xyz
  1  'x, y, z'
loop_
 _atom_site_type_symbol
 _atom_site_label
 _atom_site_symmetry_multiplicity
 _atom_site_fract_x
 _atom_site_fract_y
 _atom_site_fract_z
 _atom_site_occupancy
  Ce  Ce0  1  0.500000  0.500000  0.371479  1
  Ce  Ce1  1  0.000000  0.500000  0.860443  1
  Ce  Ce2  1  0.000000  0.000000  0.150092  1
  Ce  Ce3  1  0.500000  0.000000  0.650390  1
  Ir  Ir4  1  0.000000  0.500000  0.592213  1
  Ru  Ru5  1  0.000000  0.000000  0.393755  1
  Ru  Ru6  1  0.500000  0.000000  0.893257  1
  Pt  Pt7  1  0.500000  0.500000  0.088372  1
