# generated using pymatgen
data_NdTiNbIr2
_symmetry_space_group_name_H-M   'P 1'
_cell_length_a   6.14441807
_cell_length_b   6.14441766
_cell_length_c   6.14441881
_cell_angle_alpha   137.91563690
_cell_angle_beta   137.91562429
_cell_angle_gamma   61.03224115
_symmetry_Int_Tables_number   1
_chemical_formula_structural   NdTiNbIr2
_chemical_formula_sum   'Nd1 Ti1 Nb1 Ir2'
_cell_volume   103.05596799
_cell_formula_units_Z   1
loop_
 _symmetry_equiv_pos_site_id
 _symmetry_equiv_pos_as_xyz
  1  'x, y, z'
loop_
 _atom_site_type_symbol
 _atom_site_label
 _atom_site_symmetry_multiplicity
 _atom_site_fract_x
 _atom_site_fract_y
 _atom_site_fract_z
 _atom_site_occupancy
  Nd  Nd0  1  0.000000  0.000000  0.000000  1
  Ti  Ti1  1  0.750000  0.250000  0.500000  1
  Nb  Nb2  1  0.250000  0.750000  0.500000  1
  Ir  Ir3  1  0.623895  0.623895  0.000000  1
  Ir  Ir4  1  0.376105  0.376105  0.000000  1
