# generated using pymatgen
data_Hf3Zr7Sn7Hg
_symmetry_space_group_name_H-M   'P 1'
_cell_length_a   8.81801600
_cell_length_b   8.81801525
_cell_length_c   5.95199100
_cell_angle_alpha   90.00000000
_cell_angle_beta   90.00000000
_cell_angle_gamma   120.00000282
_symmetry_Int_Tables_number   1
_chemical_formula_structural   Hf3Zr7Sn7Hg
_chemical_formula_sum   'Hf3 Zr7 Sn7 Hg1'
_cell_volume   400.80636825
_cell_formula_units_Z   1
loop_
 _symmetry_equiv_pos_site_id
 _symmetry_equiv_pos_as_xyz
  1  'x, y, z'
loop_
 _atom_site_type_symbol
 _atom_site_label
 _atom_site_symmetry_multiplicity
 _atom_site_fract_x
 _atom_site_fract_y
 _atom_site_fract_z
 _atom_site_occupancy
  Hf  Hf0  1  0.333333  0.666667  0.000000  1
  Hf  Hf1  1  0.666667  0.333333  0.500000  1
  Hf  Hf2  1  0.666667  0.333333  0.000000  1
  Zr  Zr3  1  0.333333  0.666667  0.500000  1
  Zr  Zr4  1  0.281533  0.000219  0.252802  1
  Zr  Zr5  1  0.281533  0.281314  0.747198  1
  Zr  Zr6  1  0.999781  0.718467  0.747198  1
  Zr  Zr7  1  0.999781  0.281314  0.252802  1
  Zr  Zr8  1  0.718686  0.718467  0.252802  1
  Zr  Zr9  1  0.718686  0.000219  0.747198  1
  Sn  Sn10  1  0.000000  0.000000  0.500000  1
  Sn  Sn11  1  0.616615  0.000267  0.248185  1
  Sn  Sn12  1  0.616615  0.616348  0.751815  1
  Sn  Sn13  1  0.999733  0.383385  0.751815  1
  Sn  Sn14  1  0.999733  0.616348  0.248185  1
  Sn  Sn15  1  0.383652  0.383385  0.248185  1
  Sn  Sn16  1  0.383652  0.000267  0.751815  1
  Hg  Hg17  1  0.000000  0.000000  0.000000  1
