# generated using pymatgen
data_Nb3ReSi2TcGeMo
_symmetry_space_group_name_H-M   'P 1'
_cell_length_a   6.96821200
_cell_length_b   6.96541222
_cell_length_c   3.35886200
_cell_angle_alpha   90.00000000
_cell_angle_beta   90.00000000
_cell_angle_gamma   120.15385766
_symmetry_Int_Tables_number   1
_chemical_formula_structural   Nb3ReSi2TcGeMo
_chemical_formula_sum   'Nb3 Re1 Si2 Tc1 Ge1 Mo1'
_cell_volume   140.96638522
_cell_formula_units_Z   1
loop_
 _symmetry_equiv_pos_site_id
 _symmetry_equiv_pos_as_xyz
  1  'x, y, z'
loop_
 _atom_site_type_symbol
 _atom_site_label
 _atom_site_symmetry_multiplicity
 _atom_site_fract_x
 _atom_site_fract_y
 _atom_site_fract_z
 _atom_site_occupancy
  Nb  Nb0  1  0.394222  0.003656  0.500000  1
  Nb  Nb1  1  0.995178  0.405268  0.500000  1
  Nb  Nb2  1  0.608484  0.589368  0.500000  1
  Re  Re3  1  0.257733  0.252536  0.000000  1
  Si  Si4  1  0.666047  0.326175  0.000000  1
  Si  Si5  1  0.994764  0.004744  0.500000  1
  Tc  Tc6  1  0.746647  0.004316  0.000000  1
  Ge  Ge7  1  0.339582  0.667463  0.000000  1
  Mo  Mo8  1  0.997342  0.746473  0.000000  1
