# generated using pymatgen
data_Y9Er11(Bi2Os)4
_symmetry_space_group_name_H-M   'P 1'
_cell_length_a   7.93969713
_cell_length_b   9.00065300
_cell_length_c   12.51952421
_cell_angle_alpha   90.00000000
_cell_angle_beta   89.97909530
_cell_angle_gamma   90.00000000
_symmetry_Int_Tables_number   1
_chemical_formula_structural   Y9Er11(Bi2Os)4
_chemical_formula_sum   'Y9 Er11 Bi8 Os4'
_cell_volume   894.67592352
_cell_formula_units_Z   1
loop_
 _symmetry_equiv_pos_site_id
 _symmetry_equiv_pos_as_xyz
  1  'x, y, z'
loop_
 _atom_site_type_symbol
 _atom_site_label
 _atom_site_symmetry_multiplicity
 _atom_site_fract_x
 _atom_site_fract_y
 _atom_site_fract_z
 _atom_site_occupancy
  Y  Y0  1  0.661066  0.750000  0.709040  1
  Y  Y1  1  0.338448  0.250000  0.290669  1
  Y  Y2  1  0.161516  0.250000  0.789974  1
  Y  Y3  1  0.838685  0.750000  0.210097  1
  Y  Y4  1  0.126623  0.750000  0.808083  1
  Y  Y5  1  0.873584  0.250000  0.192103  1
  Y  Y6  1  0.626966  0.250000  0.692014  1
  Y  Y7  1  0.373249  0.750000  0.307918  1
  Y  Y8  1  0.557434  0.750000  0.995655  1
  Er  Er9  1  0.440209  0.250000  0.003928  1
  Er  Er10  1  0.059565  0.250000  0.504440  1
  Er  Er11  1  0.939995  0.750000  0.495681  1
  Er  Er12  1  0.828379  0.457263  0.935834  1
  Er  Er13  1  0.172021  0.541926  0.064595  1
  Er  Er14  1  0.327310  0.542527  0.563746  1
  Er  Er15  1  0.172021  0.958074  0.064595  1
  Er  Er16  1  0.671979  0.457309  0.436035  1
  Er  Er17  1  0.828379  0.042737  0.935834  1
  Er  Er18  1  0.671979  0.042691  0.436035  1
  Er  Er19  1  0.327310  0.957473  0.563746  1
  Bi  Bi20  1  0.934835  0.006505  0.670918  1
  Bi  Bi21  1  0.065141  0.993367  0.329380  1
  Bi  Bi22  1  0.434521  0.993873  0.828210  1
  Bi  Bi23  1  0.065141  0.506633  0.329380  1
  Bi  Bi24  1  0.565474  0.007323  0.171457  1
  Bi  Bi25  1  0.934835  0.493495  0.670918  1
  Bi  Bi26  1  0.565474  0.492677  0.171457  1
  Bi  Bi27  1  0.434521  0.506127  0.828210  1
  Os  Os28  1  0.926931  0.750000  0.990920  1
  Os  Os29  1  0.076110  0.250000  0.009780  1
  Os  Os30  1  0.424253  0.250000  0.509553  1
  Os  Os31  1  0.576048  0.750000  0.489796  1
