# generated using pymatgen
data_Nd3Y3Fe2(Co4P3)4
_symmetry_space_group_name_H-M   'P 1'
_cell_length_a   3.73491800
_cell_length_b   10.59819408
_cell_length_c   12.27405301
_cell_angle_alpha   90.05397921
_cell_angle_beta   90.00000000
_cell_angle_gamma   90.00000000
_symmetry_Int_Tables_number   1
_chemical_formula_structural   Nd3Y3Fe2(Co4P3)4
_chemical_formula_sum   'Nd3 Y3 Fe2 Co16 P12'
_cell_volume   485.84836032
_cell_formula_units_Z   1
loop_
 _symmetry_equiv_pos_site_id
 _symmetry_equiv_pos_as_xyz
  1  'x, y, z'
loop_
 _atom_site_type_symbol
 _atom_site_label
 _atom_site_symmetry_multiplicity
 _atom_site_fract_x
 _atom_site_fract_y
 _atom_site_fract_z
 _atom_site_occupancy
  Nd  Nd0  1  0.000000  0.499914  0.522260  1
  Nd  Nd1  1  0.500000  0.000117  0.478655  1
  Nd  Nd2  1  0.500000  0.818568  0.205112  1
  Y  Y3  1  0.500000  0.183348  0.203862  1
  Y  Y4  1  0.000000  0.681742  0.796231  1
  Y  Y5  1  0.000000  0.317784  0.794834  1
  Fe  Fe6  1  0.500000  0.499161  0.154824  1
  Fe  Fe7  1  0.000000  0.000786  0.844648  1
  Co  Co8  1  0.500000  0.499334  0.704732  1
  Co  Co9  1  0.000000  0.002885  0.295534  1
  Co  Co10  1  0.000000  0.498791  0.985324  1
  Co  Co11  1  0.500000  0.001612  0.011512  1
  Co  Co12  1  0.500000  0.333153  0.993834  1
  Co  Co13  1  0.500000  0.665531  0.993403  1
  Co  Co14  1  0.000000  0.168289  0.004352  1
  Co  Co15  1  0.000000  0.833295  0.003528  1
  Co  Co16  1  0.500000  0.296308  0.429389  1
  Co  Co17  1  0.500000  0.703155  0.432298  1
  Co  Co18  1  0.000000  0.203987  0.570500  1
  Co  Co19  1  0.000000  0.796351  0.572940  1
  Co  Co20  1  0.500000  0.879246  0.712935  1
  Co  Co21  1  0.500000  0.120582  0.711394  1
  Co  Co22  1  0.000000  0.618647  0.289824  1
  Co  Co23  1  0.000000  0.378890  0.287944  1
  P  P24  1  0.500000  0.499175  0.882827  1
  P  P25  1  0.000000  0.002787  0.114144  1
  P  P26  1  0.500000  0.499891  0.338539  1
  P  P27  1  0.000000  0.999724  0.661823  1
  P  P28  1  0.500000  0.306972  0.616952  1
  P  P29  1  0.500000  0.692345  0.618817  1
  P  P30  1  0.000000  0.193406  0.382803  1
  P  P31  1  0.000000  0.805975  0.387015  1
  P  P32  1  0.500000  0.846489  0.894206  1
  P  P33  1  0.500000  0.153978  0.892909  1
  P  P34  1  0.000000  0.650500  0.104406  1
  P  P35  1  0.000000  0.347284  0.105689  1
