# generated using pymatgen
data_NaAc3(SiPt)4
_symmetry_space_group_name_H-M   'P 1'
_cell_length_a   6.55416493
_cell_length_b   6.55416462
_cell_length_c   6.55416400
_cell_angle_alpha   90.93887719
_cell_angle_beta   89.06112286
_cell_angle_gamma   90.93888213
_symmetry_Int_Tables_number   1
_chemical_formula_structural   NaAc3(SiPt)4
_chemical_formula_sum   'Na1 Ac3 Si4 Pt4'
_cell_volume   281.43554584
_cell_formula_units_Z   1
loop_
 _symmetry_equiv_pos_site_id
 _symmetry_equiv_pos_as_xyz
  1  'x, y, z'
loop_
 _atom_site_type_symbol
 _atom_site_label
 _atom_site_symmetry_multiplicity
 _atom_site_fract_x
 _atom_site_fract_y
 _atom_site_fract_z
 _atom_site_occupancy
  Na  Na0  1  0.877119  0.622881  0.377119  1
  Ac  Ac1  1  0.629243  0.380810  0.877233  1
  Ac  Ac2  1  0.377233  0.870757  0.619190  1
  Ac  Ac3  1  0.119190  0.122767  0.129243  1
  Si  Si4  1  0.166076  0.333924  0.666076  1
  Si  Si5  1  0.664070  0.169000  0.337927  1
  Si  Si6  1  0.331000  0.662073  0.164070  1
  Si  Si7  1  0.837927  0.835930  0.831000  1
  Pt  Pt8  1  0.587091  0.912909  0.087091  1
  Pt  Pt9  1  0.082052  0.586642  0.915643  1
  Pt  Pt10  1  0.415643  0.417948  0.413358  1
  Pt  Pt11  1  0.913358  0.084357  0.582052  1
