# generated using pymatgen
data_Gd5Dy2Tm13Sn16
_symmetry_space_group_name_H-M   'P 1'
_cell_length_a   7.99858408
_cell_length_b   8.07718724
_cell_length_c   15.71871800
_cell_angle_alpha   90.00061004
_cell_angle_beta   89.99191986
_cell_angle_gamma   89.98595489
_symmetry_Int_Tables_number   1
_chemical_formula_structural   Gd5Dy2Tm13Sn16
_chemical_formula_sum   'Gd5 Dy2 Tm13 Sn16'
_cell_volume   1015.52441785
_cell_formula_units_Z   1
loop_
 _symmetry_equiv_pos_site_id
 _symmetry_equiv_pos_as_xyz
  1  'x, y, z'
loop_
 _atom_site_type_symbol
 _atom_site_label
 _atom_site_symmetry_multiplicity
 _atom_site_fract_x
 _atom_site_fract_y
 _atom_site_fract_z
 _atom_site_occupancy
  Gd  Gd0  1  0.991664  0.177550  0.904191  1
  Gd  Gd1  1  0.990280  0.176929  0.594528  1
  Gd  Gd2  1  0.491230  0.322768  0.904702  1
  Gd  Gd3  1  0.507267  0.677981  0.405692  1
  Gd  Gd4  1  0.007952  0.822563  0.095169  1
  Dy  Dy5  1  0.509010  0.677978  0.096928  1
  Dy  Dy6  1  0.492060  0.321690  0.594918  1
  Tm  Tm7  1  0.680536  0.002459  0.250347  1
  Tm  Tm8  1  0.180799  0.497251  0.250317  1
  Tm  Tm9  1  0.819807  0.502891  0.749833  1
  Tm  Tm10  1  0.319273  0.996787  0.749685  1
  Tm  Tm11  1  0.649508  0.836785  0.623911  1
  Tm  Tm12  1  0.149626  0.662826  0.875242  1
  Tm  Tm13  1  0.849767  0.336562  0.375263  1
  Tm  Tm14  1  0.349353  0.163376  0.124769  1
  Tm  Tm15  1  0.350922  0.163173  0.375876  1
  Tm  Tm16  1  0.850784  0.336387  0.125219  1
  Tm  Tm17  1  0.149851  0.664589  0.623952  1
  Tm  Tm18  1  0.649892  0.836169  0.875012  1
  Tm  Tm19  1  0.009712  0.822627  0.404065  1
  Sn  Sn20  1  0.819088  0.649784  0.251369  1
  Sn  Sn21  1  0.316453  0.851378  0.250218  1
  Sn  Sn22  1  0.681338  0.148993  0.748642  1
  Sn  Sn23  1  0.183715  0.351681  0.748659  1
  Sn  Sn24  1  0.545708  0.378897  0.249956  1
  Sn  Sn25  1  0.045780  0.120215  0.250949  1
  Sn  Sn26  1  0.954251  0.879059  0.749616  1
  Sn  Sn27  1  0.454667  0.620568  0.748963  1
  Sn  Sn28  1  0.810276  0.539008  0.541669  1
  Sn  Sn29  1  0.311033  0.959418  0.958797  1
  Sn  Sn30  1  0.693652  0.038806  0.458523  1
  Sn  Sn31  1  0.191433  0.461835  0.042019  1
  Sn  Sn32  1  0.187646  0.460077  0.459035  1
  Sn  Sn33  1  0.688457  0.039178  0.041682  1
  Sn  Sn34  1  0.307949  0.961849  0.541081  1
  Sn  Sn35  1  0.809265  0.539916  0.959203  1
