# generated using pymatgen
data_Ho8Si13Ge
_symmetry_space_group_name_H-M   'P 1'
_cell_length_a   7.23514167
_cell_length_b   7.23514216
_cell_length_c   11.31936791
_cell_angle_alpha   89.95508683
_cell_angle_beta   89.95508680
_cell_angle_gamma   133.93053387
_symmetry_Int_Tables_number   1
_chemical_formula_structural   Ho8Si13Ge
_chemical_formula_sum   'Ho8 Si13 Ge1'
_cell_volume   426.73411532
_cell_formula_units_Z   1
loop_
 _symmetry_equiv_pos_site_id
 _symmetry_equiv_pos_as_xyz
  1  'x, y, z'
loop_
 _atom_site_type_symbol
 _atom_site_label
 _atom_site_symmetry_multiplicity
 _atom_site_fract_x
 _atom_site_fract_y
 _atom_site_fract_z
 _atom_site_occupancy
  Ho  Ho0  1  0.491456  0.982542  0.379188  1
  Ho  Ho1  1  0.983356  0.489384  0.620480  1
  Ho  Ho2  1  0.510616  0.016644  0.879520  1
  Ho  Ho3  1  0.017458  0.508544  0.120812  1
  Ho  Ho4  1  0.998038  0.001962  0.250000  1
  Ho  Ho5  1  0.001447  0.998553  0.750000  1
  Ho  Ho6  1  0.490772  0.490445  0.497867  1
  Ho  Ho7  1  0.509555  0.509228  0.002133  1
  Si  Si8  1  0.925742  0.099239  0.992311  1
  Si  Si9  1  0.102816  0.925969  0.008811  1
  Si  Si10  1  0.074031  0.897184  0.491189  1
  Si  Si11  1  0.900761  0.074258  0.507689  1
  Si  Si12  1  0.579750  0.917602  0.129027  1
  Si  Si13  1  0.920678  0.581466  0.872390  1
  Si  Si14  1  0.418534  0.079322  0.627610  1
  Si  Si15  1  0.082398  0.420250  0.370973  1
  Si  Si16  1  0.464908  0.158130  0.153778  1
  Si  Si17  1  0.156364  0.462774  0.848274  1
  Si  Si18  1  0.537226  0.843636  0.651726  1
  Si  Si19  1  0.841870  0.535092  0.346222  1
  Si  Si20  1  0.437851  0.562149  0.250000  1
  Ge  Ge21  1  0.554371  0.445629  0.750000  1
