# generated using pymatgen
data_Dy3Er(Tm2Ni)4
_symmetry_space_group_name_H-M   'P 1'
_cell_length_a   6.29973900
_cell_length_b   6.76568001
_cell_length_c   9.44107100
_cell_angle_alpha   90.00000000
_cell_angle_beta   90.00000000
_cell_angle_gamma   90.00322653
_symmetry_Int_Tables_number   1
_chemical_formula_structural   Dy3Er(Tm2Ni)4
_chemical_formula_sum   'Dy3 Er1 Tm8 Ni4'
_cell_volume   402.39749959
_cell_formula_units_Z   1
loop_
 _symmetry_equiv_pos_site_id
 _symmetry_equiv_pos_as_xyz
  1  'x, y, z'
loop_
 _atom_site_type_symbol
 _atom_site_label
 _atom_site_symmetry_multiplicity
 _atom_site_fract_x
 _atom_site_fract_y
 _atom_site_fract_z
 _atom_site_occupancy
  Dy  Dy0  1  0.637006  0.030504  0.250000  1
  Dy  Dy1  1  0.363177  0.969418  0.750000  1
  Dy  Dy2  1  0.136545  0.469419  0.750000  1
  Er  Er3  1  0.863284  0.530745  0.250000  1
  Tm  Tm4  1  0.180218  0.177897  0.065863  1
  Tm  Tm5  1  0.819767  0.822151  0.934118  1
  Tm  Tm6  1  0.680109  0.322231  0.934105  1
  Tm  Tm7  1  0.819767  0.822151  0.565882  1
  Tm  Tm8  1  0.319941  0.677733  0.065972  1
  Tm  Tm9  1  0.180218  0.177897  0.434137  1
  Tm  Tm10  1  0.319941  0.677733  0.434028  1
  Tm  Tm11  1  0.680109  0.322231  0.565895  1
  Ni  Ni12  1  0.444736  0.392351  0.250000  1
  Ni  Ni13  1  0.554703  0.607485  0.750000  1
  Ni  Ni14  1  0.944903  0.107474  0.750000  1
  Ni  Ni15  1  0.055577  0.892584  0.250000  1
