# generated using pymatgen
data_Nd3Sc3TcSb2
_symmetry_space_group_name_H-M   'P 1'
_cell_length_a   8.01402900
_cell_length_b   8.01402728
_cell_length_c   4.31371000
_cell_angle_alpha   90.00000000
_cell_angle_beta   90.00000000
_cell_angle_gamma   120.00000298
_symmetry_Int_Tables_number   1
_chemical_formula_structural   Nd3Sc3TcSb2
_chemical_formula_sum   'Nd3 Sc3 Tc1 Sb2'
_cell_volume   239.92930158
_cell_formula_units_Z   1
loop_
 _symmetry_equiv_pos_site_id
 _symmetry_equiv_pos_as_xyz
  1  'x, y, z'
loop_
 _atom_site_type_symbol
 _atom_site_label
 _atom_site_symmetry_multiplicity
 _atom_site_fract_x
 _atom_site_fract_y
 _atom_site_fract_z
 _atom_site_occupancy
  Nd  Nd0  1  0.600459  0.000000  0.500000  1
  Nd  Nd1  1  0.399541  0.399541  0.500000  1
  Nd  Nd2  1  0.000000  0.600459  0.500000  1
  Sc  Sc3  1  0.222606  0.000000  0.000000  1
  Sc  Sc4  1  0.777394  0.777394  0.000000  1
  Sc  Sc5  1  0.000000  0.222606  0.000000  1
  Tc  Tc6  1  0.000000  0.000000  0.500000  1
  Sb  Sb7  1  0.333333  0.666667  0.000000  1
  Sb  Sb8  1  0.666667  0.333333  0.000000  1
