# generated using pymatgen
data_NdThInPd2
_symmetry_space_group_name_H-M   'P 1'
_cell_length_a   7.96829500
_cell_length_b   7.93514700
_cell_length_c   3.83153800
_cell_angle_alpha   90.00000000
_cell_angle_beta   90.00000000
_cell_angle_gamma   90.00000000
_symmetry_Int_Tables_number   1
_chemical_formula_structural   NdThInPd2
_chemical_formula_sum   'Nd2 Th2 In2 Pd4'
_cell_volume   242.26658510
_cell_formula_units_Z   2
loop_
 _symmetry_equiv_pos_site_id
 _symmetry_equiv_pos_as_xyz
  1  'x, y, z'
loop_
 _atom_site_type_symbol
 _atom_site_label
 _atom_site_symmetry_multiplicity
 _atom_site_fract_x
 _atom_site_fract_y
 _atom_site_fract_z
 _atom_site_occupancy
  Nd  Nd0  1  0.175549  0.322828  0.500000  1
  Nd  Nd1  1  0.675549  0.177172  0.500000  1
  Th  Th2  1  0.324973  0.828855  0.500000  1
  Th  Th3  1  0.824973  0.671145  0.500000  1
  In  In4  1  0.997271  0.002572  0.000000  1
  In  In5  1  0.497271  0.497428  0.000000  1
  Pd  Pd6  1  0.373469  0.114357  0.000000  1
  Pd  Pd7  1  0.873469  0.385643  0.000000  1
  Pd  Pd8  1  0.128738  0.637733  0.000000  1
  Pd  Pd9  1  0.628738  0.862267  0.000000  1
