# generated using pymatgen
data_LaNd11Ir(RhBr4)3
_symmetry_space_group_name_H-M   'P 1'
_cell_length_a   10.48832634
_cell_length_b   10.48789598
_cell_length_c   10.53692768
_cell_angle_alpha   109.33145382
_cell_angle_beta   109.70970929
_cell_angle_gamma   109.49536286
_symmetry_Int_Tables_number   1
_chemical_formula_structural   LaNd11Ir(RhBr4)3
_chemical_formula_sum   'La1 Nd11 Ir1 Rh3 Br12'
_cell_volume   890.88742146
_cell_formula_units_Z   1
loop_
 _symmetry_equiv_pos_site_id
 _symmetry_equiv_pos_as_xyz
  1  'x, y, z'
loop_
 _atom_site_type_symbol
 _atom_site_label
 _atom_site_symmetry_multiplicity
 _atom_site_fract_x
 _atom_site_fract_y
 _atom_site_fract_z
 _atom_site_occupancy
  La  La0  1  0.034347  0.266872  0.017558  1
  Nd  Nd1  1  0.266738  0.753094  0.235482  1
  Nd  Nd2  1  0.481324  0.746164  0.015353  1
  Nd  Nd3  1  0.235127  0.469118  0.485792  1
  Nd  Nd4  1  0.014267  0.031158  0.266739  1
  Nd  Nd5  1  0.234968  0.265520  0.748526  1
  Nd  Nd6  1  0.013848  0.482827  0.746838  1
  Nd  Nd7  1  0.480866  0.235318  0.465856  1
  Nd  Nd8  1  0.266462  0.014150  0.031377  1
  Nd  Nd9  1  0.748843  0.233240  0.265562  1
  Nd  Nd10  1  0.748824  0.015657  0.483225  1
  Nd  Nd11  1  0.470942  0.485165  0.235697  1
  Ir  Ir12  1  0.248762  0.250029  0.248388  1
  Rh  Rh13  1  0.499895  0.999284  0.249726  1
  Rh  Rh14  1  0.248745  0.499050  0.999937  1
  Rh  Rh15  1  0.999610  0.250051  0.500537  1
  Br  Br16  1  0.249904  0.995818  0.504521  1
  Br  Br17  1  0.509894  0.504979  0.755159  1
  Br  Br18  1  0.249873  0.753918  0.745554  1
  Br  Br19  1  0.990932  0.745270  0.995465  1
  Br  Br20  1  0.999339  0.509650  0.255943  1
  Br  Br21  1  0.743600  0.993527  0.993134  1
  Br  Br22  1  0.754752  0.745626  0.250622  1
  Br  Br23  1  0.504905  0.754802  0.508448  1
  Br  Br24  1  0.504936  0.250287  0.996425  1
  Br  Br25  1  0.755020  0.509387  0.504254  1
  Br  Br26  1  0.743863  0.250275  0.750581  1
  Br  Br27  1  0.999410  0.989764  0.743301  1
