# generated using pymatgen
data_Sm7YGaPd24
_symmetry_space_group_name_H-M   'P 1'
_cell_length_a   8.42566400
_cell_length_b   8.42566400
_cell_length_c   8.42566400
_cell_angle_alpha   89.99930638
_cell_angle_beta   89.99930638
_cell_angle_gamma   89.99930638
_symmetry_Int_Tables_number   1
_chemical_formula_structural   Sm7YGaPd24
_chemical_formula_sum   'Sm7 Y1 Ga1 Pd24'
_cell_volume   598.15317011
_cell_formula_units_Z   1
loop_
 _symmetry_equiv_pos_site_id
 _symmetry_equiv_pos_as_xyz
  1  'x, y, z'
loop_
 _atom_site_type_symbol
 _atom_site_label
 _atom_site_symmetry_multiplicity
 _atom_site_fract_x
 _atom_site_fract_y
 _atom_site_fract_z
 _atom_site_occupancy
  Sm  Sm0  1  0.748045  0.748045  0.748045  1
  Sm  Sm1  1  0.747966  0.747966  0.251992  1
  Sm  Sm2  1  0.747966  0.251992  0.747966  1
  Sm  Sm3  1  0.251986  0.251986  0.748037  1
  Sm  Sm4  1  0.251986  0.748037  0.251986  1
  Sm  Sm5  1  0.251992  0.747966  0.747966  1
  Sm  Sm6  1  0.748037  0.251986  0.251986  1
  Y  Y7  1  0.252042  0.252042  0.252042  1
  Ga  Ga8  1  0.000056  0.000056  0.000056  1
  Pd  Pd9  1  0.260640  0.499495  0.000546  1
  Pd  Pd10  1  0.739372  0.500062  0.999968  1
  Pd  Pd11  1  0.000546  0.260640  0.499495  1
  Pd  Pd12  1  0.499495  0.260640  0.000546  1
  Pd  Pd13  1  0.999968  0.739372  0.500062  1
  Pd  Pd14  1  0.500062  0.739372  0.999968  1
  Pd  Pd15  1  0.499495  0.000546  0.260640  1
  Pd  Pd16  1  0.260640  0.000546  0.499495  1
  Pd  Pd17  1  0.500062  0.999968  0.739372  1
  Pd  Pd18  1  0.739372  0.999968  0.500062  1
  Pd  Pd19  1  0.000546  0.499495  0.260640  1
  Pd  Pd20  1  0.999968  0.500062  0.739372  1
  Pd  Pd21  1  0.253187  0.499418  0.499418  1
  Pd  Pd22  1  0.746809  0.500049  0.500049  1
  Pd  Pd23  1  0.499418  0.253187  0.499418  1
  Pd  Pd24  1  0.500049  0.746809  0.500049  1
  Pd  Pd25  1  0.499418  0.499418  0.253187  1
  Pd  Pd26  1  0.500049  0.500049  0.746809  1
  Pd  Pd27  1  0.292911  0.000498  0.000498  1
  Pd  Pd28  1  0.706991  0.999966  0.999966  1
  Pd  Pd29  1  0.000498  0.292911  0.000498  1
  Pd  Pd30  1  0.999966  0.706991  0.999966  1
  Pd  Pd31  1  0.000498  0.000498  0.292911  1
  Pd  Pd32  1  0.999966  0.999966  0.706991  1
