# generated using pymatgen
data_Mg3NiP6N13
_symmetry_space_group_name_H-M   'P 1'
_cell_length_a   7.05609924
_cell_length_b   7.05609967
_cell_length_c   7.05609933
_cell_angle_alpha   109.67580736
_cell_angle_beta   109.67581224
_cell_angle_gamma   109.67580276
_symmetry_Int_Tables_number   1
_chemical_formula_structural   Mg3NiP6N13
_chemical_formula_sum   'Mg3 Ni1 P6 N13'
_cell_volume   268.37275224
_cell_formula_units_Z   1
loop_
 _symmetry_equiv_pos_site_id
 _symmetry_equiv_pos_as_xyz
  1  'x, y, z'
loop_
 _atom_site_type_symbol
 _atom_site_label
 _atom_site_symmetry_multiplicity
 _atom_site_fract_x
 _atom_site_fract_y
 _atom_site_fract_z
 _atom_site_occupancy
  Mg  Mg0  1  0.005812  0.709017  0.005812  1
  Mg  Mg1  1  0.709017  0.005812  0.005812  1
  Mg  Mg2  1  0.005812  0.005812  0.709017  1
  Ni  Ni3  1  0.294692  0.294692  0.294692  1
  P  P4  1  0.496159  0.247890  0.746437  1
  P  P5  1  0.496159  0.746437  0.247890  1
  P  P6  1  0.746437  0.247890  0.496159  1
  P  P7  1  0.247890  0.496159  0.746437  1
  P  P8  1  0.746437  0.496159  0.247890  1
  P  P9  1  0.247890  0.746437  0.496159  1
  N  N10  1  0.030015  0.030015  0.030015  1
  N  N11  1  0.998914  0.730722  0.455933  1
  N  N12  1  0.264152  0.718206  0.264152  1
  N  N13  1  0.278110  0.538962  0.538962  1
  N  N14  1  0.538962  0.538962  0.278110  1
  N  N15  1  0.538962  0.278110  0.538962  1
  N  N16  1  0.730722  0.998914  0.455933  1
  N  N17  1  0.455933  0.998914  0.730722  1
  N  N18  1  0.730722  0.455933  0.998914  1
  N  N19  1  0.264152  0.264152  0.718206  1
  N  N20  1  0.718206  0.264152  0.264152  1
  N  N21  1  0.998914  0.455933  0.730722  1
  N  N22  1  0.455933  0.730722  0.998914  1
