# generated using pymatgen
data_K2CaScF7
_symmetry_space_group_name_H-M   'P 1'
_cell_length_a   8.16841725
_cell_length_b   8.16841686
_cell_length_c   8.16841695
_cell_angle_alpha   120.69755903
_cell_angle_beta   117.39073379
_cell_angle_gamma   91.68688498
_symmetry_Int_Tables_number   1
_chemical_formula_structural   K2CaScF7
_chemical_formula_sum   'K4 Ca2 Sc2 F14'
_cell_volume   390.38067414
_cell_formula_units_Z   2
loop_
 _symmetry_equiv_pos_site_id
 _symmetry_equiv_pos_as_xyz
  1  'x, y, z'
loop_
 _atom_site_type_symbol
 _atom_site_label
 _atom_site_symmetry_multiplicity
 _atom_site_fract_x
 _atom_site_fract_y
 _atom_site_fract_z
 _atom_site_occupancy
  K  K0  1  0.500000  0.500000  0.000000  1
  K  K1  1  0.000000  0.000000  0.000000  1
  K  K2  1  0.000000  0.500000  0.000000  1
  K  K3  1  0.000000  0.000000  0.500000  1
  Ca  Ca4  1  0.500000  0.500000  0.500000  1
  Ca  Ca5  1  0.500000  0.000000  0.000000  1
  Sc  Sc6  1  0.000000  0.500000  0.500000  1
  Sc  Sc7  1  0.500000  0.000000  0.500000  1
  F  F8  1  0.873135  0.585710  0.287425  1
  F  F9  1  0.201715  0.914290  0.287425  1
  F  F10  1  0.179067  0.796682  0.752045  1
  F  F11  1  0.455363  0.703318  0.382385  1
  F  F12  1  0.455363  0.072978  0.752045  1
  F  F13  1  0.179067  0.427022  0.382385  1
  F  F14  1  0.820933  0.572978  0.617615  1
  F  F15  1  0.544637  0.927022  0.247955  1
  F  F16  1  0.544637  0.296682  0.617615  1
  F  F17  1  0.820933  0.203318  0.247955  1
  F  F18  1  0.385142  0.250000  0.135142  1
  F  F19  1  0.126865  0.414290  0.712575  1
  F  F20  1  0.798285  0.085710  0.712575  1
  F  F21  1  0.614858  0.750000  0.864858  1
