# generated using pymatgen
data_La16Cd4Co2IrOs
_symmetry_space_group_name_H-M   'P 1'
_cell_length_a   10.14424735
_cell_length_b   10.09708971
_cell_length_c   10.09702743
_cell_angle_alpha   59.21370448
_cell_angle_beta   59.28869750
_cell_angle_gamma   59.29734100
_symmetry_Int_Tables_number   1
_chemical_formula_structural   La16Cd4Co2IrOs
_chemical_formula_sum   'La16 Cd4 Co2 Ir1 Os1'
_cell_volume   719.08225799
_cell_formula_units_Z   1
loop_
 _symmetry_equiv_pos_site_id
 _symmetry_equiv_pos_as_xyz
  1  'x, y, z'
loop_
 _atom_site_type_symbol
 _atom_site_label
 _atom_site_symmetry_multiplicity
 _atom_site_fract_x
 _atom_site_fract_y
 _atom_site_fract_z
 _atom_site_occupancy
  La  La0  1  0.589188  0.598021  0.598071  1
  La  La1  1  0.593083  0.600319  0.210357  1
  La  La2  1  0.593128  0.210367  0.600230  1
  La  La3  1  0.212551  0.597373  0.597301  1
  La  La4  1  0.062014  0.439739  0.439877  1
  La  La5  1  0.439133  0.060351  0.060396  1
  La  La6  1  0.439892  0.057170  0.438522  1
  La  La7  1  0.065947  0.438947  0.053570  1
  La  La8  1  0.439968  0.438554  0.057083  1
  La  La9  1  0.065954  0.053666  0.438829  1
  La  La10  1  0.188842  0.812079  0.811844  1
  La  La11  1  0.804868  0.193208  0.193219  1
  La  La12  1  0.812057  0.190152  0.809152  1
  La  La13  1  0.192322  0.804628  0.191995  1
  La  La14  1  0.811772  0.809137  0.190290  1
  La  La15  1  0.192375  0.191857  0.804635  1
  Cd  Cd16  1  0.828809  0.828529  0.828488  1
  Cd  Cd17  1  0.828745  0.828752  0.512209  1
  Cd  Cd18  1  0.828775  0.512172  0.828770  1
  Cd  Cd19  1  0.511697  0.828980  0.828951  1
  Co  Co20  1  0.389997  0.391368  0.832809  1
  Co  Co21  1  0.390012  0.832717  0.391401  1
  Ir  Ir22  1  0.830219  0.391366  0.391399  1
  Os  Os23  1  0.388653  0.390548  0.390599  1
