# generated using pymatgen
data_Tb3B4Ru10W3
_symmetry_space_group_name_H-M   'P 1'
_cell_length_a   9.61787403
_cell_length_b   9.61787417
_cell_length_c   3.05938000
_cell_angle_alpha   90.00000000
_cell_angle_beta   90.00000000
_cell_angle_gamma   89.69915392
_symmetry_Int_Tables_number   1
_chemical_formula_structural   Tb3B4Ru10W3
_chemical_formula_sum   'Tb3 B4 Ru10 W3'
_cell_volume   282.99946312
_cell_formula_units_Z   1
loop_
 _symmetry_equiv_pos_site_id
 _symmetry_equiv_pos_as_xyz
  1  'x, y, z'
loop_
 _atom_site_type_symbol
 _atom_site_label
 _atom_site_symmetry_multiplicity
 _atom_site_fract_x
 _atom_site_fract_y
 _atom_site_fract_z
 _atom_site_occupancy
  Tb  Tb0  1  0.175065  0.824935  0.000000  1
  Tb  Tb1  1  0.323999  0.323693  0.000000  1
  Tb  Tb2  1  0.676307  0.676001  0.000000  1
  B  B3  1  0.623687  0.376313  0.000000  1
  B  B4  1  0.382214  0.617786  0.000000  1
  B  B5  1  0.118201  0.121765  0.000000  1
  B  B6  1  0.878235  0.881799  0.000000  1
  Ru  Ru7  1  0.504376  0.495624  0.500000  1
  Ru  Ru8  1  0.988744  0.011256  0.500000  1
  Ru  Ru9  1  0.584498  0.210923  0.500000  1
  Ru  Ru10  1  0.432823  0.782700  0.500000  1
  Ru  Ru11  1  0.055541  0.281195  0.500000  1
  Ru  Ru12  1  0.930182  0.720437  0.500000  1
  Ru  Ru13  1  0.279563  0.069818  0.500000  1
  Ru  Ru14  1  0.718805  0.944459  0.500000  1
  Ru  Ru15  1  0.217300  0.567177  0.500000  1
  Ru  Ru16  1  0.789077  0.415502  0.500000  1
  W  W17  1  0.496557  0.997735  0.000000  1
  W  W18  1  0.002265  0.503443  0.000000  1
  W  W19  1  0.822563  0.177437  0.000000  1
