# generated using pymatgen
data_Ca6MoRuO12
_symmetry_space_group_name_H-M   'P 1'
_cell_length_a   6.57823469
_cell_length_b   6.57823410
_cell_length_c   6.57823461
_cell_angle_alpha   91.91843790
_cell_angle_beta   91.91843103
_cell_angle_gamma   91.91845838
_symmetry_Int_Tables_number   1
_chemical_formula_structural   Ca6MoRuO12
_chemical_formula_sum   'Ca6 Mo1 Ru1 O12'
_cell_volume   284.17141876
_cell_formula_units_Z   1
loop_
 _symmetry_equiv_pos_site_id
 _symmetry_equiv_pos_as_xyz
  1  'x, y, z'
loop_
 _atom_site_type_symbol
 _atom_site_label
 _atom_site_symmetry_multiplicity
 _atom_site_fract_x
 _atom_site_fract_y
 _atom_site_fract_z
 _atom_site_occupancy
  Ca  Ca0  1  0.930096  0.435686  0.745627  1
  Ca  Ca1  1  0.745627  0.930096  0.435686  1
  Ca  Ca2  1  0.564314  0.254373  0.069904  1
  Ca  Ca3  1  0.435686  0.745627  0.930096  1
  Ca  Ca4  1  0.254373  0.069904  0.564314  1
  Ca  Ca5  1  0.069904  0.564314  0.254373  1
  Mo  Mo6  1  0.000000  0.000000  0.000000  1
  Ru  Ru7  1  0.500000  0.500000  0.500000  1
  O  O8  1  0.938375  0.283717  0.068376  1
  O  O9  1  0.931624  0.061625  0.716283  1
  O  O10  1  0.782935  0.578170  0.452339  1
  O  O11  1  0.716283  0.931624  0.061625  1
  O  O12  1  0.578170  0.452339  0.782935  1
  O  O13  1  0.547661  0.217065  0.421830  1
  O  O14  1  0.452339  0.782935  0.578170  1
  O  O15  1  0.421830  0.547661  0.217065  1
  O  O16  1  0.283717  0.068376  0.938375  1
  O  O17  1  0.217065  0.421830  0.547661  1
  O  O18  1  0.068376  0.938375  0.283717  1
  O  O19  1  0.061625  0.716283  0.931624  1
