# generated using pymatgen
data_LiLa6(YRh3)2
_symmetry_space_group_name_H-M   'P 1'
_cell_length_a   7.61279232
_cell_length_b   7.61279227
_cell_length_c   7.61279370
_cell_angle_alpha   70.89224999
_cell_angle_beta   70.89225194
_cell_angle_gamma   70.89225375
_symmetry_Int_Tables_number   1
_chemical_formula_structural   LiLa6(YRh3)2
_chemical_formula_sum   'Li1 La6 Y2 Rh6'
_cell_volume   381.75299924
_cell_formula_units_Z   1
loop_
 _symmetry_equiv_pos_site_id
 _symmetry_equiv_pos_as_xyz
  1  'x, y, z'
loop_
 _atom_site_type_symbol
 _atom_site_label
 _atom_site_symmetry_multiplicity
 _atom_site_fract_x
 _atom_site_fract_y
 _atom_site_fract_z
 _atom_site_occupancy
  Li  Li0  1  0.000000  0.000000  0.000000  1
  La  La1  1  0.152116  0.380147  0.680753  1
  La  La2  1  0.680753  0.152116  0.380147  1
  La  La3  1  0.380147  0.680753  0.152116  1
  La  La4  1  0.847884  0.619853  0.319247  1
  La  La5  1  0.319247  0.847884  0.619853  1
  La  La6  1  0.619853  0.319247  0.847884  1
  Y  Y7  1  0.810209  0.810209  0.810209  1
  Y  Y8  1  0.189791  0.189791  0.189791  1
  Rh  Rh9  1  0.954667  0.175733  0.577360  1
  Rh  Rh10  1  0.577360  0.954667  0.175733  1
  Rh  Rh11  1  0.175733  0.577360  0.954667  1
  Rh  Rh12  1  0.045333  0.824267  0.422640  1
  Rh  Rh13  1  0.422640  0.045333  0.824267  1
  Rh  Rh14  1  0.824267  0.422640  0.045333  1
