# generated using pymatgen
data_Tb12Co4HgRh
_symmetry_space_group_name_H-M   'P 1'
_cell_length_a   8.32705823
_cell_length_b   8.32705875
_cell_length_c   8.32705857
_cell_angle_alpha   111.12612900
_cell_angle_beta   110.00630566
_cell_angle_gamma   107.30476069
_symmetry_Int_Tables_number   1
_chemical_formula_structural   Tb12Co4HgRh
_chemical_formula_sum   'Tb12 Co4 Hg1 Rh1'
_cell_volume   443.96221939
_cell_formula_units_Z   1
loop_
 _symmetry_equiv_pos_site_id
 _symmetry_equiv_pos_as_xyz
  1  'x, y, z'
loop_
 _atom_site_type_symbol
 _atom_site_label
 _atom_site_symmetry_multiplicity
 _atom_site_fract_x
 _atom_site_fract_y
 _atom_site_fract_z
 _atom_site_occupancy
  Tb  Tb0  1  0.034911  0.724645  0.310265  1
  Tb  Tb1  1  0.965089  0.275355  0.689735  1
  Tb  Tb2  1  0.585619  0.275355  0.310265  1
  Tb  Tb3  1  0.414381  0.724645  0.689735  1
  Tb  Tb4  1  0.675878  0.862571  0.186693  1
  Tb  Tb5  1  0.324122  0.510815  0.186693  1
  Tb  Tb6  1  0.324122  0.137429  0.813307  1
  Tb  Tb7  1  0.675878  0.489185  0.813307  1
  Tb  Tb8  1  0.179750  0.217873  0.397623  1
  Tb  Tb9  1  0.820250  0.217873  0.038122  1
  Tb  Tb10  1  0.179750  0.782127  0.961878  1
  Tb  Tb11  1  0.820250  0.782127  0.602377  1
  Co  Co12  1  0.655688  0.500000  0.155688  1
  Co  Co13  1  0.344312  0.500000  0.844312  1
  Co  Co14  1  0.886605  0.886605  0.000000  1
  Co  Co15  1  0.113395  0.113395  0.000000  1
  Hg  Hg16  1  0.500000  0.000000  0.500000  1
  Rh  Rh17  1  0.000000  0.500000  0.500000  1
