# generated using pymatgen
data_LiNdNiPt3
_symmetry_space_group_name_H-M   'P 1'
_cell_length_a   5.42722351
_cell_length_b   5.42722207
_cell_length_c   5.18207564
_cell_angle_alpha   58.42236431
_cell_angle_beta   58.42237452
_cell_angle_gamma   59.99999975
_symmetry_Int_Tables_number   1
_chemical_formula_structural   LiNdNiPt3
_chemical_formula_sum   'Li1 Nd1 Ni1 Pt3'
_cell_volume   105.28473706
_cell_formula_units_Z   1
loop_
 _symmetry_equiv_pos_site_id
 _symmetry_equiv_pos_as_xyz
  1  'x, y, z'
loop_
 _atom_site_type_symbol
 _atom_site_label
 _atom_site_symmetry_multiplicity
 _atom_site_fract_x
 _atom_site_fract_y
 _atom_site_fract_z
 _atom_site_occupancy
  Li  Li0  1  0.256980  0.256980  0.229061  1
  Nd  Nd1  1  0.001373  0.001373  0.995881  1
  Ni  Ni2  1  0.623197  0.623197  0.130411  1
  Pt  Pt3  1  0.621597  0.125256  0.631550  1
  Pt  Pt4  1  0.125256  0.621597  0.631550  1
  Pt  Pt5  1  0.621597  0.621597  0.631550  1
