# generated using pymatgen
data_Ho3ErReB12Os
_symmetry_space_group_name_H-M   'P 1'
_cell_length_a   3.65440500
_cell_length_b   9.13336102
_cell_length_c   11.51664401
_cell_angle_alpha   90.14387120
_cell_angle_beta   90.00000000
_cell_angle_gamma   90.00000000
_symmetry_Int_Tables_number   1
_chemical_formula_structural   Ho3ErReB12Os
_chemical_formula_sum   'Ho6 Er2 Re2 B24 Os2'
_cell_volume   384.38981725
_cell_formula_units_Z   2
loop_
 _symmetry_equiv_pos_site_id
 _symmetry_equiv_pos_as_xyz
  1  'x, y, z'
loop_
 _atom_site_type_symbol
 _atom_site_label
 _atom_site_symmetry_multiplicity
 _atom_site_fract_x
 _atom_site_fract_y
 _atom_site_fract_z
 _atom_site_occupancy
  Ho  Ho0  1  0.000000  0.320824  0.412448  1
  Ho  Ho1  1  0.000000  0.679176  0.587552  1
  Ho  Ho2  1  0.000000  0.824467  0.084700  1
  Ho  Ho3  1  0.000000  0.175533  0.915300  1
  Ho  Ho4  1  0.000000  0.943442  0.370719  1
  Ho  Ho5  1  0.000000  0.056558  0.629281  1
  Er  Er6  1  0.000000  0.442685  0.128754  1
  Er  Er7  1  0.000000  0.557315  0.871246  1
  Re  Re8  1  0.000000  0.138693  0.179464  1
  Re  Re9  1  0.000000  0.861307  0.820536  1
  B  B10  1  0.500000  0.553752  0.433167  1
  B  B11  1  0.500000  0.446248  0.566833  1
  B  B12  1  0.500000  0.053168  0.066755  1
  B  B13  1  0.500000  0.946832  0.933245  1
  B  B14  1  0.500000  0.748811  0.418907  1
  B  B15  1  0.500000  0.251189  0.581093  1
  B  B16  1  0.500000  0.249179  0.080878  1
  B  B17  1  0.500000  0.750821  0.919122  1
  B  B18  1  0.500000  0.790815  0.265742  1
  B  B19  1  0.500000  0.209185  0.734258  1
  B  B20  1  0.500000  0.292136  0.234663  1
  B  B21  1  0.500000  0.707864  0.765337  1
  B  B22  1  0.500000  0.630777  0.185848  1
  B  B23  1  0.500000  0.369223  0.814152  1
  B  B24  1  0.500000  0.131489  0.314895  1
  B  B25  1  0.500000  0.868511  0.685105  1
  B  B26  1  0.500000  0.982590  0.212418  1
  B  B27  1  0.500000  0.017410  0.787582  1
  B  B28  1  0.500000  0.482853  0.287889  1
  B  B29  1  0.500000  0.517147  0.712111  1
  B  B30  1  0.500000  0.602757  0.028729  1
  B  B31  1  0.500000  0.397243  0.971271  1
  B  B32  1  0.500000  0.103529  0.471502  1
  B  B33  1  0.500000  0.896471  0.528498  1
  Os  Os34  1  0.000000  0.637325  0.321753  1
  Os  Os35  1  0.000000  0.362675  0.678247  1
