# generated using pymatgen
data_Zr5Sc2Ti(Co4P3)4
_symmetry_space_group_name_H-M   'P 1'
_cell_length_a   12.01432619
_cell_length_b   12.01059528
_cell_length_c   3.63451600
_cell_angle_alpha   90.00000000
_cell_angle_beta   90.00000000
_cell_angle_gamma   119.98971937
_symmetry_Int_Tables_number   1
_chemical_formula_structural   Zr5Sc2Ti(Co4P3)4
_chemical_formula_sum   'Zr5 Sc2 Ti1 Co16 P12'
_cell_volume   454.24081030
_cell_formula_units_Z   1
loop_
 _symmetry_equiv_pos_site_id
 _symmetry_equiv_pos_as_xyz
  1  'x, y, z'
loop_
 _atom_site_type_symbol
 _atom_site_label
 _atom_site_symmetry_multiplicity
 _atom_site_fract_x
 _atom_site_fract_y
 _atom_site_fract_z
 _atom_site_occupancy
  Zr  Zr0  1  0.667585  0.333474  0.000000  1
  Zr  Zr1  1  0.332415  0.665890  0.000000  1
  Zr  Zr2  1  0.821333  0.821350  0.500000  1
  Zr  Zr3  1  0.178667  0.000017  0.500000  1
  Zr  Zr4  1  0.000000  0.178828  0.500000  1
  Sc  Sc5  1  0.443168  0.443042  0.000000  1
  Sc  Sc6  1  0.556832  0.999874  0.000000  1
  Ti  Ti7  1  0.000000  0.557168  0.000000  1
  Co  Co8  1  0.193478  0.373975  0.000000  1
  Co  Co9  1  0.174937  0.801902  0.000000  1
  Co  Co10  1  0.825063  0.626966  0.000000  1
  Co  Co11  1  0.806522  0.180497  0.000000  1
  Co  Co12  1  0.372508  0.194062  0.000000  1
  Co  Co13  1  0.124788  0.481449  0.500000  1
  Co  Co14  1  0.351124  0.871519  0.500000  1
  Co  Co15  1  0.520870  0.646439  0.500000  1
  Co  Co16  1  0.648876  0.520396  0.500000  1
  Co  Co17  1  0.875212  0.356662  0.500000  1
  Co  Co18  1  0.479130  0.125570  0.500000  1
  Co  Co19  1  0.000000  0.999750  0.000000  1
  Co  Co20  1  0.720806  0.000830  0.500000  1
  Co  Co21  1  0.000000  0.717932  0.500000  1
  Co  Co22  1  0.627492  0.821554  0.000000  1
  Co  Co23  1  0.279194  0.280023  0.500000  1
  P  P24  1  0.651738  0.650319  0.000000  1
  P  P25  1  0.348262  0.998581  0.000000  1
  P  P26  1  0.000000  0.353276  0.000000  1
  P  P27  1  0.482995  0.310902  0.500000  1
  P  P28  1  0.689146  0.172336  0.500000  1
  P  P29  1  0.831827  0.517717  0.500000  1
  P  P30  1  0.517005  0.827908  0.500000  1
  P  P31  1  0.168173  0.685891  0.500000  1
  P  P32  1  0.824565  0.000493  0.000000  1
  P  P33  1  0.000000  0.824289  0.000000  1
  P  P34  1  0.310854  0.483191  0.500000  1
  P  P35  1  0.175435  0.175928  0.000000  1
