# generated using pymatgen
data_Th2GaRe5O24
_symmetry_space_group_name_H-M   'P 1'
_cell_length_a   10.70345224
_cell_length_b   10.50359114
_cell_length_c   6.40519600
_cell_angle_alpha   90.00000000
_cell_angle_beta   90.00000000
_cell_angle_gamma   120.55070816
_symmetry_Int_Tables_number   1
_chemical_formula_structural   Th2GaRe5O24
_chemical_formula_sum   'Th2 Ga1 Re5 O24'
_cell_volume   620.13730916
_cell_formula_units_Z   1
loop_
 _symmetry_equiv_pos_site_id
 _symmetry_equiv_pos_as_xyz
  1  'x, y, z'
loop_
 _atom_site_type_symbol
 _atom_site_label
 _atom_site_symmetry_multiplicity
 _atom_site_fract_x
 _atom_site_fract_y
 _atom_site_fract_z
 _atom_site_occupancy
  Th  Th0  1  0.681477  0.331297  0.750000  1
  Th  Th1  1  0.306926  0.635471  0.250000  1
  Ga  Ga2  1  0.068895  0.417111  0.750000  1
  Re  Re3  1  0.403507  0.295359  0.250000  1
  Re  Re4  1  0.594395  0.682545  0.750000  1
  Re  Re5  1  0.913461  0.621879  0.250000  1
  Re  Re6  1  0.311297  0.906888  0.750000  1
  Re  Re7  1  0.685487  0.077353  0.250000  1
  O  O8  1  0.486718  0.641407  0.524131  1
  O  O9  1  0.349816  0.836366  0.525366  1
  O  O10  1  0.873022  0.761138  0.250000  1
  O  O11  1  0.129981  0.854427  0.750000  1
  O  O12  1  0.279432  0.107973  0.250000  1
  O  O13  1  0.198254  0.342161  0.750000  1
  O  O14  1  0.515003  0.340979  0.027235  1
  O  O15  1  0.866447  0.130895  0.250000  1
  O  O16  1  0.102833  0.697895  0.250000  1
  O  O17  1  0.163240  0.511464  0.992389  1
  O  O18  1  0.163240  0.511464  0.507611  1
  O  O19  1  0.874731  0.328398  0.750000  1
  O  O20  1  0.312583  0.394925  0.250000  1
  O  O21  1  0.682415  0.579229  0.750000  1
  O  O22  1  0.836130  0.509718  0.471674  1
  O  O23  1  0.420190  0.101330  0.750000  1
  O  O24  1  0.645991  0.150343  0.027347  1
  O  O25  1  0.486718  0.641407  0.975869  1
  O  O26  1  0.349816  0.836366  0.974634  1
  O  O27  1  0.645991  0.150343  0.472653  1
  O  O28  1  0.515003  0.340979  0.472765  1
  O  O29  1  0.836130  0.509718  0.028326  1
  O  O30  1  0.721788  0.869006  0.750000  1
  O  O31  1  0.579085  0.884165  0.250000  1
