# generated using pymatgen
data_TaZn2B2Rh5
_symmetry_space_group_name_H-M   'P 1'
_cell_length_a   9.37701200
_cell_length_b   9.37623800
_cell_length_c   2.94632800
_cell_angle_alpha   90.00000000
_cell_angle_beta   90.00000000
_cell_angle_gamma   90.00000000
_symmetry_Int_Tables_number   1
_chemical_formula_structural   TaZn2B2Rh5
_chemical_formula_sum   'Ta2 Zn4 B4 Rh10'
_cell_volume   259.04438765
_cell_formula_units_Z   2
loop_
 _symmetry_equiv_pos_site_id
 _symmetry_equiv_pos_as_xyz
  1  'x, y, z'
loop_
 _atom_site_type_symbol
 _atom_site_label
 _atom_site_symmetry_multiplicity
 _atom_site_fract_x
 _atom_site_fract_y
 _atom_site_fract_z
 _atom_site_occupancy
  Ta  Ta0  1  0.673858  0.829088  0.000000  1
  Ta  Ta1  1  0.173858  0.670912  0.000000  1
  Zn  Zn2  1  0.821314  0.317091  0.000000  1
  Zn  Zn3  1  0.321314  0.182909  0.000000  1
  Zn  Zn4  1  0.000785  0.001104  0.000000  1
  Zn  Zn5  1  0.500785  0.498896  0.000000  1
  B  B6  1  0.629033  0.130134  0.000000  1
  B  B7  1  0.129033  0.369866  0.000000  1
  B  B8  1  0.873636  0.627236  0.000000  1
  B  B9  1  0.373636  0.872764  0.000000  1
  Rh  Rh10  1  0.077673  0.213260  0.500000  1
  Rh  Rh11  1  0.214535  0.920356  0.500000  1
  Rh  Rh12  1  0.781534  0.061075  0.500000  1
  Rh  Rh13  1  0.933675  0.782645  0.500000  1
  Rh  Rh14  1  0.433675  0.717355  0.500000  1
  Rh  Rh15  1  0.577673  0.286740  0.500000  1
  Rh  Rh16  1  0.714535  0.579644  0.500000  1
  Rh  Rh17  1  0.281534  0.438925  0.500000  1
  Rh  Rh18  1  0.493959  0.006087  0.500000  1
  Rh  Rh19  1  0.993959  0.493913  0.500000  1
