# generated using pymatgen
data_Er5Mn4(P4Ir5)3
_symmetry_space_group_name_H-M   'P 1'
_cell_length_a   12.46030616
_cell_length_b   12.52713195
_cell_length_c   3.93223900
_cell_angle_alpha   90.00000000
_cell_angle_beta   90.00000000
_cell_angle_gamma   119.84147303
_symmetry_Int_Tables_number   1
_chemical_formula_structural   Er5Mn4(P4Ir5)3
_chemical_formula_sum   'Er5 Mn4 P12 Ir15'
_cell_volume   532.40538687
_cell_formula_units_Z   1
loop_
 _symmetry_equiv_pos_site_id
 _symmetry_equiv_pos_as_xyz
  1  'x, y, z'
loop_
 _atom_site_type_symbol
 _atom_site_label
 _atom_site_symmetry_multiplicity
 _atom_site_fract_x
 _atom_site_fract_y
 _atom_site_fract_z
 _atom_site_occupancy
  Er  Er0  1  0.672132  0.335243  0.000000  1
  Er  Er1  1  0.331138  0.665420  0.000000  1
  Er  Er2  1  0.817851  0.817283  0.500000  1
  Er  Er3  1  0.181469  0.999597  0.500000  1
  Er  Er4  1  0.998952  0.183622  0.500000  1
  Mn  Mn5  1  0.291300  0.291604  0.500000  1
  Mn  Mn6  1  0.707890  0.000669  0.500000  1
  Mn  Mn7  1  0.998299  0.706636  0.500000  1
  Mn  Mn8  1  0.875599  0.360061  0.500000  1
  P  P9  1  0.698989  0.177345  0.500000  1
  P  P10  1  0.838918  0.514328  0.500000  1
  P  P11  1  0.478398  0.311782  0.500000  1
  P  P12  1  0.164402  0.687625  0.500000  1
  P  P13  1  0.523359  0.835069  0.500000  1
  P  P14  1  0.309130  0.476085  0.500000  1
  P  P15  1  0.640527  0.639791  0.000000  1
  P  P16  1  0.360687  0.000927  0.000000  1
  P  P17  1  0.990706  0.360485  0.000000  1
  P  P18  1  0.181775  0.182985  0.000000  1
  P  P19  1  0.817149  0.000001  0.000000  1
  P  P20  1  0.998465  0.816668  0.000000  1
  Ir  Ir21  1  0.803367  0.177868  0.000000  1
  Ir  Ir22  1  0.820142  0.626278  0.000000  1
  Ir  Ir23  1  0.374852  0.195519  0.000000  1
  Ir  Ir24  1  0.179200  0.806002  0.000000  1
  Ir  Ir25  1  0.625260  0.820091  0.000000  1
  Ir  Ir26  1  0.190924  0.372946  0.000000  1
  Ir  Ir27  1  0.453666  0.453862  0.000000  1
  Ir  Ir28  1  0.545561  0.998794  0.000000  1
  Ir  Ir29  1  0.998803  0.548751  0.000000  1
  Ir  Ir30  1  0.640848  0.507212  0.500000  1
  Ir  Ir31  1  0.494827  0.131850  0.500000  1
  Ir  Ir32  1  0.360293  0.868365  0.500000  1
  Ir  Ir33  1  0.507310  0.638508  0.500000  1
  Ir  Ir34  1  0.127479  0.490741  0.500000  1
  Ir  Ir35  1  0.000332  0.999985  0.000000  1
