# generated using pymatgen
data_SrLiLaTeO6
_symmetry_space_group_name_H-M   'P 1'
_cell_length_a   5.81320300
_cell_length_b   5.68174112
_cell_length_c   9.79229085
_cell_angle_alpha   54.69675693
_cell_angle_beta   90.00000000
_cell_angle_gamma   90.00000000
_symmetry_Int_Tables_number   1
_chemical_formula_structural   SrLiLaTeO6
_chemical_formula_sum   'Sr2 Li2 La2 Te2 O12'
_cell_volume   263.95336947
_cell_formula_units_Z   2
loop_
 _symmetry_equiv_pos_site_id
 _symmetry_equiv_pos_as_xyz
  1  'x, y, z'
loop_
 _atom_site_type_symbol
 _atom_site_label
 _atom_site_symmetry_multiplicity
 _atom_site_fract_x
 _atom_site_fract_y
 _atom_site_fract_z
 _atom_site_occupancy
  Sr  Sr0  1  0.291427  0.742919  0.249485  1
  Sr  Sr1  1  0.708573  0.742919  0.749485  1
  Li  Li2  1  0.257700  0.501297  0.000237  1
  Li  Li3  1  0.742300  0.501297  0.500237  1
  La  La4  1  0.801797  0.262874  0.247156  1
  La  La5  1  0.198203  0.262874  0.747156  1
  Te  Te6  1  0.747330  0.000131  0.999850  1
  Te  Te7  1  0.252670  0.000131  0.499850  1
  O  O8  1  0.777055  0.168616  0.761615  1
  O  O9  1  0.017673  0.760035  0.042644  1
  O  O10  1  0.053267  0.307742  0.464854  1
  O  O11  1  0.560565  0.677495  0.042534  1
  O  O12  1  0.531108  0.228657  0.454482  1
  O  O13  1  0.271237  0.850235  0.737143  1
  O  O14  1  0.222945  0.168616  0.261615  1
  O  O15  1  0.982327  0.760035  0.542644  1
  O  O16  1  0.946733  0.307742  0.964854  1
  O  O17  1  0.439435  0.677495  0.542534  1
  O  O18  1  0.468892  0.228657  0.954482  1
  O  O19  1  0.728763  0.850235  0.237143  1
