# generated using pymatgen
data_Hf5ZrAl16Pt5Rh2
_symmetry_space_group_name_H-M   'P 1'
_cell_length_a   8.73964799
_cell_length_b   8.74227250
_cell_length_c   8.74227442
_cell_angle_alpha   60.11490105
_cell_angle_beta   60.00993367
_cell_angle_gamma   60.00992826
_symmetry_Int_Tables_number   1
_chemical_formula_structural   Hf5ZrAl16Pt5Rh2
_chemical_formula_sum   'Hf5 Zr1 Al16 Pt5 Rh2'
_cell_volume   472.79046816
_cell_formula_units_Z   1
loop_
 _symmetry_equiv_pos_site_id
 _symmetry_equiv_pos_as_xyz
  1  'x, y, z'
loop_
 _atom_site_type_symbol
 _atom_site_label
 _atom_site_symmetry_multiplicity
 _atom_site_fract_x
 _atom_site_fract_y
 _atom_site_fract_z
 _atom_site_occupancy
  Hf  Hf0  1  0.316960  0.683039  0.683039  1
  Hf  Hf1  1  0.317603  0.683059  0.317844  1
  Hf  Hf2  1  0.317603  0.317844  0.683059  1
  Hf  Hf3  1  0.681492  0.317844  0.683059  1
  Hf  Hf4  1  0.681492  0.683059  0.317844  1
  Zr  Zr5  1  0.685584  0.314415  0.314415  1
  Al  Al6  1  0.336008  0.335845  0.335845  1
  Al  Al7  1  0.337868  0.332762  0.991502  1
  Al  Al8  1  0.992300  0.335845  0.335845  1
  Al  Al9  1  0.337868  0.991502  0.332762  1
  Al  Al10  1  0.663399  0.664170  0.664170  1
  Al  Al11  1  0.662097  0.667893  0.007914  1
  Al  Al12  1  0.662097  0.007914  0.667893  1
  Al  Al13  1  0.008263  0.664170  0.664170  1
  Al  Al14  1  0.123802  0.116631  0.116631  1
  Al  Al15  1  0.119088  0.117724  0.644100  1
  Al  Al16  1  0.642936  0.116631  0.116631  1
  Al  Al17  1  0.119088  0.644100  0.117724  1
  Al  Al18  1  0.876302  0.883369  0.883369  1
  Al  Al19  1  0.880908  0.882132  0.356053  1
  Al  Al20  1  0.880908  0.356053  0.882132  1
  Al  Al21  1  0.356961  0.883369  0.883369  1
  Pt  Pt22  1  0.999929  0.500071  0.500071  1
  Pt  Pt23  1  0.000042  0.500271  0.999978  1
  Pt  Pt24  1  0.000042  0.999978  0.500271  1
  Pt  Pt25  1  0.499709  0.999978  0.500271  1
  Pt  Pt26  1  0.499709  0.500271  0.999978  1
  Rh  Rh27  1  0.999975  0.000025  0.000025  1
  Rh  Rh28  1  0.499964  0.000036  0.000036  1
