# generated using pymatgen
data_Dy5In4AgRh
_symmetry_space_group_name_H-M   'P 1'
_cell_length_a   3.62207900
_cell_length_b   8.22037545
_cell_length_c   18.43021690
_cell_angle_alpha   89.87700084
_cell_angle_beta   90.00000000
_cell_angle_gamma   90.00000000
_symmetry_Int_Tables_number   1
_chemical_formula_structural   Dy5In4AgRh
_chemical_formula_sum   'Dy10 In8 Ag2 Rh2'
_cell_volume   548.75566628
_cell_formula_units_Z   2
loop_
 _symmetry_equiv_pos_site_id
 _symmetry_equiv_pos_as_xyz
  1  'x, y, z'
loop_
 _atom_site_type_symbol
 _atom_site_label
 _atom_site_symmetry_multiplicity
 _atom_site_fract_x
 _atom_site_fract_y
 _atom_site_fract_z
 _atom_site_occupancy
  Dy  Dy0  1  0.000000  0.500000  0.500000  1
  Dy  Dy1  1  0.000000  0.000000  0.000000  1
  Dy  Dy2  1  0.000000  0.720294  0.277072  1
  Dy  Dy3  1  0.000000  0.279706  0.722928  1
  Dy  Dy4  1  0.000000  0.736148  0.782416  1
  Dy  Dy5  1  0.000000  0.263852  0.217584  1
  Dy  Dy6  1  0.000000  0.615946  0.085270  1
  Dy  Dy7  1  0.000000  0.384054  0.914730  1
  Dy  Dy8  1  0.000000  0.877450  0.578396  1
  Dy  Dy9  1  0.000000  0.122550  0.421604  1
  In  In10  1  0.500000  0.708842  0.931999  1
  In  In11  1  0.500000  0.291158  0.068001  1
  In  In12  1  0.500000  0.790569  0.430947  1
  In  In13  1  0.500000  0.209431  0.569053  1
  In  In14  1  0.500000  0.576930  0.648645  1
  In  In15  1  0.500000  0.423070  0.351355  1
  In  In16  1  0.500000  0.922859  0.148983  1
  In  In17  1  0.500000  0.077141  0.851017  1
  Ag  Ag18  1  0.500000  0.977304  0.698315  1
  Ag  Ag19  1  0.500000  0.022696  0.301685  1
  Rh  Rh20  1  0.500000  0.523393  0.194838  1
  Rh  Rh21  1  0.500000  0.476607  0.805162  1
