# generated using pymatgen
data_DyLu9In8(CuPt)2
_symmetry_space_group_name_H-M   'P 1'
_cell_length_a   3.56665400
_cell_length_b   7.98009676
_cell_length_c   17.94901497
_cell_angle_alpha   90.20930397
_cell_angle_beta   90.00000000
_cell_angle_gamma   90.00000000
_symmetry_Int_Tables_number   1
_chemical_formula_structural   DyLu9In8(CuPt)2
_chemical_formula_sum   'Dy1 Lu9 In8 Cu2 Pt2'
_cell_volume   510.86583572
_cell_formula_units_Z   1
loop_
 _symmetry_equiv_pos_site_id
 _symmetry_equiv_pos_as_xyz
  1  'x, y, z'
loop_
 _atom_site_type_symbol
 _atom_site_label
 _atom_site_symmetry_multiplicity
 _atom_site_fract_x
 _atom_site_fract_y
 _atom_site_fract_z
 _atom_site_occupancy
  Dy  Dy0  1  0.000000  0.500000  0.500000  1
  Lu  Lu1  1  0.000000  0.118197  0.414778  1
  Lu  Lu2  1  0.000000  0.881803  0.585222  1
  Lu  Lu3  1  0.000000  0.381518  0.916212  1
  Lu  Lu4  1  0.000000  0.618482  0.083788  1
  Lu  Lu5  1  0.000000  0.249789  0.218929  1
  Lu  Lu6  1  0.000000  0.750211  0.781071  1
  Lu  Lu7  1  0.000000  0.258381  0.720638  1
  Lu  Lu8  1  0.000000  0.741619  0.279362  1
  Lu  Lu9  1  0.000000  0.000000  0.000000  1
  In  In10  1  0.500000  0.418850  0.351162  1
  In  In11  1  0.500000  0.581150  0.648838  1
  In  In12  1  0.500000  0.072280  0.849596  1
  In  In13  1  0.500000  0.927720  0.150404  1
  In  In14  1  0.500000  0.292858  0.065378  1
  In  In15  1  0.500000  0.707142  0.934622  1
  In  In16  1  0.500000  0.203698  0.568548  1
  In  In17  1  0.500000  0.796302  0.431452  1
  Cu  Cu18  1  0.500000  0.030573  0.301749  1
  Cu  Cu19  1  0.500000  0.969427  0.698251  1
  Pt  Pt20  1  0.500000  0.469760  0.803559  1
  Pt  Pt21  1  0.500000  0.530240  0.196441  1
