# generated using pymatgen
data_Er3Tm6Mg(Ni2Sb)2
_symmetry_space_group_name_H-M   'P 1'
_cell_length_a   8.53928727
_cell_length_b   8.54141868
_cell_length_c   8.53808790
_cell_angle_alpha   128.38711361
_cell_angle_beta   128.36799177
_cell_angle_gamma   76.03854448
_symmetry_Int_Tables_number   1
_chemical_formula_structural   Er3Tm6Mg(Ni2Sb)2
_chemical_formula_sum   'Er3 Tm6 Mg1 Ni4 Sb2'
_cell_volume   372.03330613
_cell_formula_units_Z   1
loop_
 _symmetry_equiv_pos_site_id
 _symmetry_equiv_pos_as_xyz
  1  'x, y, z'
loop_
 _atom_site_type_symbol
 _atom_site_label
 _atom_site_symmetry_multiplicity
 _atom_site_fract_x
 _atom_site_fract_y
 _atom_site_fract_z
 _atom_site_occupancy
  Er  Er0  1  0.537306  0.021434  0.823646  1
  Er  Er1  1  0.713686  0.537096  0.515851  1
  Er  Er2  1  0.978617  0.802143  0.515778  1
  Tm  Tm3  1  0.499653  0.500005  0.999613  1
  Tm  Tm4  1  0.801979  0.286189  0.823562  1
  Tm  Tm5  1  0.197943  0.713848  0.176361  1
  Tm  Tm6  1  0.462563  0.978481  0.176763  1
  Tm  Tm7  1  0.285808  0.462360  0.483961  1
  Tm  Tm8  1  0.021616  0.198166  0.484213  1
  Mg  Mg9  1  0.000362  0.000371  0.000549  1
  Ni  Ni10  1  0.132365  0.623386  0.755752  1
  Ni  Ni11  1  0.868650  0.376163  0.244551  1
  Ni  Ni12  1  0.623288  0.868440  0.491409  1
  Ni  Ni13  1  0.376209  0.131953  0.507822  1
  Sb  Sb14  1  0.257417  0.257540  0.000098  1
  Sb  Sb15  1  0.742539  0.742424  0.000070  1
