# generated using pymatgen
data_SmHf2Al7Cu2
_symmetry_space_group_name_H-M   'P 1'
_cell_length_a   8.92589576
_cell_length_b   8.92589517
_cell_length_c   8.92589596
_cell_angle_alpha   34.72665344
_cell_angle_beta   34.72666050
_cell_angle_gamma   34.72665289
_symmetry_Int_Tables_number   1
_chemical_formula_structural   SmHf2Al7Cu2
_chemical_formula_sum   'Sm1 Hf2 Al7 Cu2'
_cell_volume   205.95917496
_cell_formula_units_Z   1
loop_
 _symmetry_equiv_pos_site_id
 _symmetry_equiv_pos_as_xyz
  1  'x, y, z'
loop_
 _atom_site_type_symbol
 _atom_site_label
 _atom_site_symmetry_multiplicity
 _atom_site_fract_x
 _atom_site_fract_y
 _atom_site_fract_z
 _atom_site_occupancy
  Sm  Sm0  1  0.000000  0.000000  0.000000  1
  Hf  Hf1  1  0.855494  0.855494  0.855494  1
  Hf  Hf2  1  0.144506  0.144506  0.144506  1
  Al  Al3  1  0.414421  0.414421  0.923786  1
  Al  Al4  1  0.923786  0.414421  0.414421  1
  Al  Al5  1  0.414421  0.923786  0.414421  1
  Al  Al6  1  0.500000  0.500000  0.500000  1
  Al  Al7  1  0.585579  0.076214  0.585579  1
  Al  Al8  1  0.076214  0.585579  0.585579  1
  Al  Al9  1  0.585579  0.585579  0.076214  1
  Cu  Cu10  1  0.665604  0.665604  0.665604  1
  Cu  Cu11  1  0.334396  0.334396  0.334396  1
