# generated using pymatgen
data_Cs2Hf3OF12
_symmetry_space_group_name_H-M   'P 1'
_cell_length_a   11.41603801
_cell_length_b   11.41603782
_cell_length_c   11.41603730
_cell_angle_alpha   40.08601589
_cell_angle_beta   40.08601708
_cell_angle_gamma   40.08602129
_symmetry_Int_Tables_number   1
_chemical_formula_structural   Cs2Hf3OF12
_chemical_formula_sum   'Cs4 Hf6 O2 F24'
_cell_volume   555.95875968
_cell_formula_units_Z   2
loop_
 _symmetry_equiv_pos_site_id
 _symmetry_equiv_pos_as_xyz
  1  'x, y, z'
loop_
 _atom_site_type_symbol
 _atom_site_label
 _atom_site_symmetry_multiplicity
 _atom_site_fract_x
 _atom_site_fract_y
 _atom_site_fract_z
 _atom_site_occupancy
  Cs  Cs0  1  0.000000  0.000000  0.000000  1
  Cs  Cs1  1  0.500000  0.500000  0.500000  1
  Cs  Cs2  1  0.137868  0.137868  0.137868  1
  Cs  Cs3  1  0.862132  0.862132  0.862132  1
  Hf  Hf4  1  0.573625  0.573625  0.025086  1
  Hf  Hf5  1  0.025086  0.573625  0.573625  1
  Hf  Hf6  1  0.573625  0.025086  0.573625  1
  Hf  Hf7  1  0.426375  0.974914  0.426375  1
  Hf  Hf8  1  0.974914  0.426375  0.426375  1
  Hf  Hf9  1  0.426375  0.426375  0.974914  1
  O  O10  1  0.288505  0.288505  0.288505  1
  O  O11  1  0.711495  0.711495  0.711495  1
  F  F12  1  0.375250  0.710184  0.710184  1
  F  F13  1  0.710184  0.375250  0.710184  1
  F  F14  1  0.710184  0.710184  0.375250  1
  F  F15  1  0.624750  0.289816  0.289816  1
  F  F16  1  0.289816  0.624750  0.289816  1
  F  F17  1  0.289816  0.289816  0.624750  1
  F  F18  1  0.095490  0.596080  0.095490  1
  F  F19  1  0.095490  0.095490  0.596080  1
  F  F20  1  0.000000  0.355801  0.644199  1
  F  F21  1  0.355801  0.644199  0.000000  1
  F  F22  1  0.644199  0.000000  0.355801  1
  F  F23  1  0.000000  0.644199  0.355801  1
  F  F24  1  0.644199  0.355801  0.000000  1
  F  F25  1  0.355801  0.000000  0.644199  1
  F  F26  1  0.076603  0.642723  0.642723  1
  F  F27  1  0.642723  0.642723  0.076603  1
  F  F28  1  0.642723  0.076603  0.642723  1
  F  F29  1  0.357277  0.923397  0.357277  1
  F  F30  1  0.923397  0.357277  0.357277  1
  F  F31  1  0.357277  0.357277  0.923397  1
  F  F32  1  0.904510  0.403920  0.904510  1
  F  F33  1  0.403920  0.904510  0.904510  1
  F  F34  1  0.904510  0.904510  0.403920  1
  F  F35  1  0.596080  0.095490  0.095490  1
