# generated using pymatgen
data_MgZnBrN
_symmetry_space_group_name_H-M   'P 1'
_cell_length_a   5.95901300
_cell_length_b   6.49886000
_cell_length_c   8.09578900
_cell_angle_alpha   90.00000000
_cell_angle_beta   90.00000000
_cell_angle_gamma   90.00000000
_symmetry_Int_Tables_number   1
_chemical_formula_structural   MgZnBrN
_chemical_formula_sum   'Mg4 Zn4 Br4 N4'
_cell_volume   313.52393041
_cell_formula_units_Z   4
loop_
 _symmetry_equiv_pos_site_id
 _symmetry_equiv_pos_as_xyz
  1  'x, y, z'
loop_
 _atom_site_type_symbol
 _atom_site_label
 _atom_site_symmetry_multiplicity
 _atom_site_fract_x
 _atom_site_fract_y
 _atom_site_fract_z
 _atom_site_occupancy
  Mg  Mg0  1  0.104590  0.878071  0.666887  1
  Mg  Mg1  1  0.604590  0.121929  0.333113  1
  Mg  Mg2  1  0.604590  0.621929  0.166887  1
  Mg  Mg3  1  0.104590  0.378071  0.833113  1
  Zn  Zn4  1  0.379965  0.002612  0.994984  1
  Zn  Zn5  1  0.879965  0.997388  0.005016  1
  Zn  Zn6  1  0.879965  0.497388  0.494984  1
  Zn  Zn7  1  0.379965  0.502612  0.505016  1
  Br  Br8  1  0.138312  0.072673  0.380407  1
  Br  Br9  1  0.638312  0.927327  0.619593  1
  Br  Br10  1  0.638312  0.427327  0.880407  1
  Br  Br11  1  0.138312  0.572673  0.119593  1
  N  N12  1  0.125184  0.565973  0.630114  1
  N  N13  1  0.625184  0.434027  0.369886  1
  N  N14  1  0.625184  0.934027  0.130114  1
  N  N15  1  0.125184  0.065973  0.869886  1
