# generated using pymatgen
data_Eu2Cd19Ag3
_symmetry_space_group_name_H-M   'P 1'
_cell_length_a   9.34436515
_cell_length_b   9.34715367
_cell_length_c   9.34436462
_cell_angle_alpha   99.55871119
_cell_angle_beta   99.72458681
_cell_angle_gamma   131.66556456
_symmetry_Int_Tables_number   1
_chemical_formula_structural   Eu2Cd19Ag3
_chemical_formula_sum   'Eu2 Cd19 Ag3'
_cell_volume   556.35143749
_cell_formula_units_Z   1
loop_
 _symmetry_equiv_pos_site_id
 _symmetry_equiv_pos_as_xyz
  1  'x, y, z'
loop_
 _atom_site_type_symbol
 _atom_site_label
 _atom_site_symmetry_multiplicity
 _atom_site_fract_x
 _atom_site_fract_y
 _atom_site_fract_z
 _atom_site_occupancy
  Eu  Eu0  1  0.500158  0.499693  0.999535  1
  Eu  Eu1  1  0.749842  0.250307  0.500465  1
  Cd  Cd2  1  0.992092  0.316484  0.913524  1
  Cd  Cd3  1  0.567110  0.149018  0.822657  1
  Cd  Cd4  1  0.994979  0.075945  0.677850  1
  Cd  Cd5  1  0.571532  0.748566  0.420699  1
  Cd  Cd6  1  0.923640  0.600982  0.918092  1
  Cd  Cd7  1  0.922134  0.001434  0.322967  1
  Cd  Cd8  1  0.847040  0.433516  0.175607  1
  Cd  Cd9  1  0.255021  0.674055  0.822150  1
  Cd  Cd10  1  0.251852  0.754874  0.503022  1
  Cd  Cd11  1  0.678468  0.001434  0.079301  1
  Cd  Cd12  1  0.998148  0.995126  0.996978  1
  Cd  Cd13  1  0.682890  0.600982  0.677343  1
  Cd  Cd14  1  0.398095  0.075945  0.080967  1
  Cd  Cd15  1  0.257908  0.433516  0.586476  1
  Cd  Cd16  1  0.327866  0.748566  0.177033  1
  Cd  Cd17  1  0.326360  0.149018  0.581908  1
  Cd  Cd18  1  0.851905  0.674055  0.419033  1
  Cd  Cd19  1  0.402960  0.316484  0.324393  1
  Cd  Cd20  1  0.125000  0.375000  0.250000  1
  Ag  Ag21  1  0.125000  0.875000  0.750000  1
  Ag  Ag22  1  0.625000  0.875000  0.750000  1
  Ag  Ag23  1  0.125000  0.875000  0.250000  1
