# generated using pymatgen
data_Tb9Y(Bi3C)2
_symmetry_space_group_name_H-M   'P 1'
_cell_length_a   9.19354400
_cell_length_b   9.19354566
_cell_length_c   6.53553500
_cell_angle_alpha   90.00000000
_cell_angle_beta   90.00000000
_cell_angle_gamma   120.00000121
_symmetry_Int_Tables_number   1
_chemical_formula_structural   Tb9Y(Bi3C)2
_chemical_formula_sum   'Tb9 Y1 Bi6 C2'
_cell_volume   478.38523578
_cell_formula_units_Z   1
loop_
 _symmetry_equiv_pos_site_id
 _symmetry_equiv_pos_as_xyz
  1  'x, y, z'
loop_
 _atom_site_type_symbol
 _atom_site_label
 _atom_site_symmetry_multiplicity
 _atom_site_fract_x
 _atom_site_fract_y
 _atom_site_fract_z
 _atom_site_occupancy
  Tb  Tb0  1  0.333333  0.666667  0.000000  1
  Tb  Tb1  1  0.333333  0.666667  0.500000  1
  Tb  Tb2  1  0.666667  0.333333  0.500000  1
  Tb  Tb3  1  0.791212  0.791207  0.750044  1
  Tb  Tb4  1  0.208793  0.000005  0.750044  1
  Tb  Tb5  1  0.999995  0.208788  0.750044  1
  Tb  Tb6  1  0.208793  0.208788  0.249956  1
  Tb  Tb7  1  0.791212  0.000005  0.249956  1
  Tb  Tb8  1  0.999995  0.791207  0.249956  1
  Y  Y9  1  0.666667  0.333333  0.000000  1
  Bi  Bi10  1  0.402380  0.402247  0.750051  1
  Bi  Bi11  1  0.597753  0.000134  0.750051  1
  Bi  Bi12  1  0.999866  0.597620  0.750051  1
  Bi  Bi13  1  0.597753  0.597620  0.249949  1
  Bi  Bi14  1  0.402380  0.000134  0.249949  1
  Bi  Bi15  1  0.999866  0.402247  0.249949  1
  C  C16  1  0.000000  0.000000  0.000000  1
  C  C17  1  0.000000  0.000000  0.500000  1
