# generated using pymatgen
data_Ba6NpNbO12
_symmetry_space_group_name_H-M   'P 1'
_cell_length_a   7.19088701
_cell_length_b   7.19088632
_cell_length_c   7.19088600
_cell_angle_alpha   92.09489124
_cell_angle_beta   92.09489901
_cell_angle_gamma   92.09490714
_symmetry_Int_Tables_number   1
_chemical_formula_structural   Ba6NpNbO12
_chemical_formula_sum   'Ba6 Np1 Nb1 O12'
_cell_volume   371.06821378
_cell_formula_units_Z   1
loop_
 _symmetry_equiv_pos_site_id
 _symmetry_equiv_pos_as_xyz
  1  'x, y, z'
loop_
 _atom_site_type_symbol
 _atom_site_label
 _atom_site_symmetry_multiplicity
 _atom_site_fract_x
 _atom_site_fract_y
 _atom_site_fract_z
 _atom_site_occupancy
  Ba  Ba0  1  0.066976  0.262747  0.557344  1
  Ba  Ba1  1  0.442656  0.933024  0.737253  1
  Ba  Ba2  1  0.737253  0.442656  0.933024  1
  Ba  Ba3  1  0.262747  0.557344  0.066976  1
  Ba  Ba4  1  0.557344  0.066976  0.262747  1
  Ba  Ba5  1  0.933024  0.737253  0.442656  1
  Np  Np6  1  0.000000  0.000000  0.000000  1
  Nb  Nb7  1  0.500000  0.500000  0.500000  1
  O  O8  1  0.063822  0.267029  0.941934  1
  O  O9  1  0.058066  0.936178  0.732971  1
  O  O10  1  0.452346  0.575516  0.768356  1
  O  O11  1  0.732971  0.058066  0.936178  1
  O  O12  1  0.231644  0.547654  0.424484  1
  O  O13  1  0.424484  0.231644  0.547654  1
  O  O14  1  0.575516  0.768356  0.452346  1
  O  O15  1  0.768356  0.452346  0.575516  1
  O  O16  1  0.267029  0.941934  0.063822  1
  O  O17  1  0.547654  0.424484  0.231644  1
  O  O18  1  0.941934  0.063822  0.267029  1
  O  O19  1  0.936178  0.732971  0.058066  1
