# generated using pymatgen
data_K2Rb3SrNbAs4
_symmetry_space_group_name_H-M   'P 1'
_cell_length_a   10.73960779
_cell_length_b   10.73960840
_cell_length_c   7.97331446
_cell_angle_alpha   88.26048049
_cell_angle_beta   88.26048381
_cell_angle_gamma   120.55182452
_symmetry_Int_Tables_number   1
_chemical_formula_structural   K2Rb3SrNbAs4
_chemical_formula_sum   'K4 Rb6 Sr2 Nb2 As8'
_cell_volume   790.47670329
_cell_formula_units_Z   2
loop_
 _symmetry_equiv_pos_site_id
 _symmetry_equiv_pos_as_xyz
  1  'x, y, z'
loop_
 _atom_site_type_symbol
 _atom_site_label
 _atom_site_symmetry_multiplicity
 _atom_site_fract_x
 _atom_site_fract_y
 _atom_site_fract_z
 _atom_site_occupancy
  K  K0  1  0.466115  0.527337  0.606673  1
  K  K1  1  0.058422  0.529584  0.610338  1
  K  K2  1  0.527337  0.466115  0.106673  1
  K  K3  1  0.529584  0.058422  0.110338  1
  Rb  Rb4  1  0.864491  0.140956  0.792589  1
  Rb  Rb5  1  0.294269  0.153885  0.837053  1
  Rb  Rb6  1  0.854964  0.717832  0.765671  1
  Rb  Rb7  1  0.140956  0.864491  0.292589  1
  Rb  Rb8  1  0.717832  0.854964  0.265671  1
  Rb  Rb9  1  0.153885  0.294269  0.337053  1
  Sr  Sr10  1  0.463361  0.935191  0.600711  1
  Sr  Sr11  1  0.935191  0.463361  0.100711  1
  Nb  Nb12  1  0.670038  0.329451  0.499063  1
  Nb  Nb13  1  0.329451  0.670038  0.999063  1
  As  As14  1  0.688672  0.340405  0.813721  1
  As  As15  1  0.340405  0.688672  0.313721  1
  As  As16  1  0.197113  0.791075  0.888141  1
  As  As17  1  0.581509  0.797119  0.866207  1
  As  As18  1  0.190211  0.408002  0.927035  1
  As  As19  1  0.791075  0.197113  0.388141  1
  As  As20  1  0.408002  0.190211  0.427035  1
  As  As21  1  0.797119  0.581509  0.366207  1
