# generated using pymatgen
data_Tb3Dy(OF4)2
_symmetry_space_group_name_H-M   'P 1'
_cell_length_a   6.79907906
_cell_length_b   6.79690460
_cell_length_c   5.74796005
_cell_angle_alpha   79.82001163
_cell_angle_beta   79.81825194
_cell_angle_gamma   46.30935723
_symmetry_Int_Tables_number   1
_chemical_formula_structural   Tb3Dy(OF4)2
_chemical_formula_sum   'Tb3 Dy1 O2 F8'
_cell_volume   188.48821204
_cell_formula_units_Z   1
loop_
 _symmetry_equiv_pos_site_id
 _symmetry_equiv_pos_as_xyz
  1  'x, y, z'
loop_
 _atom_site_type_symbol
 _atom_site_label
 _atom_site_symmetry_multiplicity
 _atom_site_fract_x
 _atom_site_fract_y
 _atom_site_fract_z
 _atom_site_occupancy
  Tb  Tb0  1  0.103983  0.681244  0.576866  1
  Tb  Tb1  1  0.681271  0.104088  0.077364  1
  Tb  Tb2  1  0.318952  0.895982  0.922660  1
  Dy  Dy3  1  0.895910  0.318500  0.422859  1
  O  O4  1  0.950972  0.049835  0.748928  1
  O  O5  1  0.048232  0.952386  0.250441  1
  F  F6  1  0.316277  0.514904  0.921755  1
  F  F7  1  0.514803  0.316394  0.421725  1
  F  F8  1  0.706072  0.852968  0.828630  1
  F  F9  1  0.853011  0.705243  0.328636  1
  F  F10  1  0.146214  0.293965  0.670391  1
  F  F11  1  0.292648  0.147821  0.172202  1
  F  F12  1  0.487434  0.681685  0.577853  1
  F  F13  1  0.684219  0.484986  0.079689  1
