# generated using pymatgen
data_CaCdRu2O7
_symmetry_space_group_name_H-M   'P 1'
_cell_length_a   7.21131634
_cell_length_b   7.28043931
_cell_length_c   7.28043933
_cell_angle_alpha   60.69199981
_cell_angle_beta   60.31357885
_cell_angle_gamma   60.31357656
_symmetry_Int_Tables_number   1
_chemical_formula_structural   CaCdRu2O7
_chemical_formula_sum   'Ca2 Cd2 Ru4 O14'
_cell_volume   272.95964328
_cell_formula_units_Z   2
loop_
 _symmetry_equiv_pos_site_id
 _symmetry_equiv_pos_as_xyz
  1  'x, y, z'
loop_
 _atom_site_type_symbol
 _atom_site_label
 _atom_site_symmetry_multiplicity
 _atom_site_fract_x
 _atom_site_fract_y
 _atom_site_fract_z
 _atom_site_occupancy
  Ca  Ca0  1  0.125000  0.625000  0.125000  1
  Ca  Ca1  1  0.125000  0.125000  0.625000  1
  Cd  Cd2  1  0.625000  0.125000  0.125000  1
  Cd  Cd3  1  0.125000  0.125000  0.125000  1
  Ru  Ru4  1  0.625000  0.125000  0.625000  1
  Ru  Ru5  1  0.625000  0.625000  0.125000  1
  Ru  Ru6  1  0.125000  0.625000  0.625000  1
  Ru  Ru7  1  0.625000  0.625000  0.625000  1
  O  O8  1  0.693546  0.692908  0.307546  1
  O  O9  1  0.949568  0.550432  0.550432  1
  O  O10  1  0.560781  0.939219  0.939219  1
  O  O11  1  0.944000  0.942454  0.557092  1
  O  O12  1  0.944000  0.557092  0.942454  1
  O  O13  1  0.556454  0.942454  0.557092  1
  O  O14  1  0.306000  0.692908  0.307546  1
  O  O15  1  0.300432  0.699568  0.699568  1
  O  O16  1  0.689219  0.310781  0.310781  1
  O  O17  1  0.693546  0.307546  0.692908  1
  O  O18  1  0.556454  0.557092  0.942454  1
  O  O19  1  0.306000  0.307546  0.692908  1
  O  O20  1  0.260337  0.239663  0.239663  1
  O  O21  1  0.989663  0.010337  0.010337  1
