# generated using pymatgen
data_ErSc2Ga5Pt
_symmetry_space_group_name_H-M   'P 1'
_cell_length_a   6.80443146
_cell_length_b   6.73389240
_cell_length_c   4.16568500
_cell_angle_alpha   90.00000000
_cell_angle_beta   90.00000000
_cell_angle_gamma   119.65765774
_symmetry_Int_Tables_number   1
_chemical_formula_structural   ErSc2Ga5Pt
_chemical_formula_sum   'Er1 Sc2 Ga5 Pt1'
_cell_volume   165.86812425
_cell_formula_units_Z   1
loop_
 _symmetry_equiv_pos_site_id
 _symmetry_equiv_pos_as_xyz
  1  'x, y, z'
loop_
 _atom_site_type_symbol
 _atom_site_label
 _atom_site_symmetry_multiplicity
 _atom_site_fract_x
 _atom_site_fract_y
 _atom_site_fract_z
 _atom_site_occupancy
  Er  Er0  1  0.000000  0.580354  0.000000  1
  Sc  Sc1  1  0.583662  0.998286  0.000000  1
  Sc  Sc2  1  0.416339  0.414625  0.000000  1
  Ga  Ga3  1  0.248080  0.002214  0.499999  1
  Ga  Ga4  1  0.000000  0.244602  0.499999  1
  Ga  Ga5  1  0.658913  0.328078  0.499999  1
  Ga  Ga6  1  0.341087  0.669166  0.499999  1
  Ga  Ga7  1  0.751920  0.754135  0.499999  1
  Pt  Pt8  1  0.000000  0.008540  0.000000  1
