# generated using pymatgen
data_HfNbGaRh5
_symmetry_space_group_name_H-M   'P 1'
_cell_length_a   4.05257500
_cell_length_b   5.52469567
_cell_length_c   10.91853087
_cell_angle_alpha   89.67897148
_cell_angle_beta   90.00000000
_cell_angle_gamma   90.00000000
_symmetry_Int_Tables_number   1
_chemical_formula_structural   HfNbGaRh5
_chemical_formula_sum   'Hf2 Nb2 Ga2 Rh10'
_cell_volume   244.45380963
_cell_formula_units_Z   2
loop_
 _symmetry_equiv_pos_site_id
 _symmetry_equiv_pos_as_xyz
  1  'x, y, z'
loop_
 _atom_site_type_symbol
 _atom_site_label
 _atom_site_symmetry_multiplicity
 _atom_site_fract_x
 _atom_site_fract_y
 _atom_site_fract_z
 _atom_site_occupancy
  Hf  Hf0  1  0.500000  0.686252  0.861933  1
  Hf  Hf1  1  0.500000  0.313748  0.138067  1
  Nb  Nb2  1  0.500000  0.186767  0.640217  1
  Nb  Nb3  1  0.500000  0.813233  0.359783  1
  Ga  Ga4  1  0.000000  0.500000  0.500000  1
  Ga  Ga5  1  0.000000  0.000000  0.000000  1
  Rh  Rh6  1  0.500000  0.191688  0.886546  1
  Rh  Rh7  1  0.500000  0.808312  0.113454  1
  Rh  Rh8  1  0.500000  0.699109  0.606628  1
  Rh  Rh9  1  0.500000  0.300891  0.393372  1
  Rh  Rh10  1  0.000000  0.434911  0.742871  1
  Rh  Rh11  1  0.000000  0.565089  0.257129  1
  Rh  Rh12  1  0.000000  0.000000  0.500000  1
  Rh  Rh13  1  0.000000  0.500000  0.000000  1
  Rh  Rh14  1  0.000000  0.057842  0.250540  1
  Rh  Rh15  1  0.000000  0.942158  0.749460  1
