# generated using pymatgen
data_Gd3Lu5B24Ru3W
_symmetry_space_group_name_H-M   'P 1'
_cell_length_a   3.61816200
_cell_length_b   9.11470137
_cell_length_c   11.51462702
_cell_angle_alpha   89.86690501
_cell_angle_beta   90.00000000
_cell_angle_gamma   90.00000000
_symmetry_Int_Tables_number   1
_chemical_formula_structural   Gd3Lu5B24Ru3W
_chemical_formula_sum   'Gd3 Lu5 B24 Ru3 W1'
_cell_volume   379.73371279
_cell_formula_units_Z   1
loop_
 _symmetry_equiv_pos_site_id
 _symmetry_equiv_pos_as_xyz
  1  'x, y, z'
loop_
 _atom_site_type_symbol
 _atom_site_label
 _atom_site_symmetry_multiplicity
 _atom_site_fract_x
 _atom_site_fract_y
 _atom_site_fract_z
 _atom_site_occupancy
  Gd  Gd0  1  0.000000  0.321228  0.413584  1
  Gd  Gd1  1  0.000000  0.678269  0.585878  1
  Gd  Gd2  1  0.000000  0.820736  0.086294  1
  Lu  Lu3  1  0.000000  0.178127  0.915071  1
  Lu  Lu4  1  0.000000  0.946425  0.372866  1
  Lu  Lu5  1  0.000000  0.057685  0.629339  1
  Lu  Lu6  1  0.000000  0.442429  0.125451  1
  Lu  Lu7  1  0.000000  0.556120  0.871086  1
  B  B8  1  0.500000  0.550977  0.435583  1
  B  B9  1  0.500000  0.444772  0.569553  1
  B  B10  1  0.500000  0.054907  0.066128  1
  B  B11  1  0.500000  0.946769  0.932599  1
  B  B12  1  0.500000  0.753336  0.421607  1
  B  B13  1  0.500000  0.250294  0.582564  1
  B  B14  1  0.500000  0.249040  0.079025  1
  B  B15  1  0.500000  0.750447  0.918195  1
  B  B16  1  0.500000  0.796004  0.264358  1
  B  B17  1  0.500000  0.207509  0.735812  1
  B  B18  1  0.500000  0.290691  0.231752  1
  B  B19  1  0.500000  0.709379  0.766123  1
  B  B20  1  0.500000  0.630310  0.181719  1
  B  B21  1  0.500000  0.367815  0.816381  1
  B  B22  1  0.500000  0.130739  0.313954  1
  B  B23  1  0.500000  0.870948  0.685548  1
  B  B24  1  0.500000  0.984149  0.212685  1
  B  B25  1  0.500000  0.018516  0.788208  1
  B  B26  1  0.500000  0.477202  0.285074  1
  B  B27  1  0.500000  0.515800  0.714206  1
  B  B28  1  0.500000  0.602591  0.026349  1
  B  B29  1  0.500000  0.393932  0.969870  1
  B  B30  1  0.500000  0.103960  0.472459  1
  B  B31  1  0.500000  0.899812  0.529777  1
  Ru  Ru32  1  0.000000  0.359401  0.682424  1
  Ru  Ru33  1  0.000000  0.138714  0.177860  1
  Ru  Ru34  1  0.000000  0.862585  0.820275  1
  W  W35  1  0.000000  0.638384  0.320342  1
