# generated using pymatgen
data_Mo3Pd(SeO3)8
_symmetry_space_group_name_H-M   'P 1'
_cell_length_a   8.26702006
_cell_length_b   8.26701876
_cell_length_c   8.26701970
_cell_angle_alpha   90.26396929
_cell_angle_beta   89.73602998
_cell_angle_gamma   89.73602938
_symmetry_Int_Tables_number   1
_chemical_formula_structural   Mo3Pd(SeO3)8
_chemical_formula_sum   'Mo3 Pd1 Se8 O24'
_cell_volume   564.97992523
_cell_formula_units_Z   1
loop_
 _symmetry_equiv_pos_site_id
 _symmetry_equiv_pos_as_xyz
  1  'x, y, z'
loop_
 _atom_site_type_symbol
 _atom_site_label
 _atom_site_symmetry_multiplicity
 _atom_site_fract_x
 _atom_site_fract_y
 _atom_site_fract_z
 _atom_site_occupancy
  Mo  Mo0  1  0.500000  0.000000  0.500000  1
  Mo  Mo1  1  0.000000  0.000000  0.000000  1
  Mo  Mo2  1  0.000000  0.500000  0.500000  1
  Pd  Pd3  1  0.500000  0.500000  0.000000  1
  Se  Se4  1  0.833285  0.166715  0.666715  1
  Se  Se5  1  0.166715  0.833285  0.333285  1
  Se  Se6  1  0.660236  0.661955  0.682502  1
  Se  Se7  1  0.182502  0.660236  0.838045  1
  Se  Se8  1  0.338045  0.182502  0.839764  1
  Se  Se9  1  0.817498  0.339764  0.161955  1
  Se  Se10  1  0.661955  0.817498  0.160236  1
  Se  Se11  1  0.339764  0.338045  0.317498  1
  O  O12  1  0.244647  0.465510  0.455681  1
  O  O13  1  0.955681  0.244647  0.034490  1
  O  O14  1  0.028127  0.744219  0.464024  1
  O  O15  1  0.478459  0.256249  0.981154  1
  O  O16  1  0.255781  0.964024  0.471873  1
  O  O17  1  0.518846  0.521541  0.756249  1
  O  O18  1  0.964024  0.028127  0.755781  1
  O  O19  1  0.521541  0.743751  0.018846  1
  O  O20  1  0.534490  0.955681  0.255353  1
  O  O21  1  0.465510  0.044319  0.744647  1
  O  O22  1  0.757969  0.952585  0.031213  1
  O  O23  1  0.256249  0.518846  0.978459  1
  O  O24  1  0.047415  0.531213  0.742031  1
  O  O25  1  0.035976  0.971873  0.244219  1
  O  O26  1  0.242031  0.047415  0.968787  1
  O  O27  1  0.481154  0.478459  0.243751  1
  O  O28  1  0.755353  0.534490  0.544319  1
  O  O29  1  0.952585  0.468787  0.257969  1
  O  O30  1  0.044319  0.755353  0.965510  1
  O  O31  1  0.468787  0.242031  0.452585  1
  O  O32  1  0.531213  0.757969  0.547415  1
  O  O33  1  0.971873  0.255781  0.535976  1
  O  O34  1  0.744219  0.035976  0.528127  1
  O  O35  1  0.743751  0.481154  0.021541  1
