# generated using pymatgen
data_CsNpAgTe3
_symmetry_space_group_name_H-M   'P 1'
_cell_length_a   4.53768400
_cell_length_b   9.82267626
_cell_length_c   11.41227149
_cell_angle_alpha   66.97380348
_cell_angle_beta   90.00000000
_cell_angle_gamma   90.00000000
_symmetry_Int_Tables_number   1
_chemical_formula_structural   CsNpAgTe3
_chemical_formula_sum   'Cs2 Np2 Ag2 Te6'
_cell_volume   468.14233474
_cell_formula_units_Z   2
loop_
 _symmetry_equiv_pos_site_id
 _symmetry_equiv_pos_as_xyz
  1  'x, y, z'
loop_
 _atom_site_type_symbol
 _atom_site_label
 _atom_site_symmetry_multiplicity
 _atom_site_fract_x
 _atom_site_fract_y
 _atom_site_fract_z
 _atom_site_occupancy
  Cs  Cs0  1  0.750000  0.756567  0.281717  1
  Cs  Cs1  1  0.250000  0.242459  0.718905  1
  Np  Np2  1  0.250000  0.685930  0.843875  1
  Np  Np3  1  0.750000  0.313839  0.156116  1
  Ag  Ag4  1  0.250000  0.078264  0.404778  1
  Ag  Ag5  1  0.750000  0.922804  0.595189  1
  Te  Te6  1  0.250000  0.761825  0.560164  1
  Te  Te7  1  0.750000  0.891578  0.853320  1
  Te  Te8  1  0.750000  0.460393  0.862554  1
  Te  Te9  1  0.750000  0.239135  0.439524  1
  Te  Te10  1  0.250000  0.539300  0.136939  1
  Te  Te11  1  0.250000  0.107908  0.146919  1
