# generated using pymatgen
data_Ta5NbV4(Ga3B)2
_symmetry_space_group_name_H-M   'P 1'
_cell_length_a   7.68338200
_cell_length_b   7.68041692
_cell_length_c   5.12511100
_cell_angle_alpha   90.00000000
_cell_angle_beta   90.00000000
_cell_angle_gamma   120.01277149
_symmetry_Int_Tables_number   1
_chemical_formula_structural   Ta5NbV4(Ga3B)2
_chemical_formula_sum   'Ta5 Nb1 V4 Ga6 B2'
_cell_volume   261.88777362
_cell_formula_units_Z   1
loop_
 _symmetry_equiv_pos_site_id
 _symmetry_equiv_pos_as_xyz
  1  'x, y, z'
loop_
 _atom_site_type_symbol
 _atom_site_label
 _atom_site_symmetry_multiplicity
 _atom_site_fract_x
 _atom_site_fract_y
 _atom_site_fract_z
 _atom_site_occupancy
  Ta  Ta0  1  0.755599  0.000000  0.750000  1
  Ta  Ta1  1  0.999908  0.244204  0.250000  1
  Ta  Ta2  1  0.999371  0.755425  0.750000  1
  Ta  Ta3  1  0.755703  0.755796  0.250000  1
  Ta  Ta4  1  0.243946  0.244575  0.750000  1
  Nb  Nb5  1  0.244641  0.000000  0.250000  1
  V  V6  1  0.333544  0.666207  0.999638  1
  V  V7  1  0.667338  0.333793  0.999638  1
  V  V8  1  0.667338  0.333793  0.500362  1
  V  V9  1  0.333544  0.666207  0.500362  1
  Ga  Ga10  1  0.592890  0.000000  0.250000  1
  Ga  Ga11  1  0.406615  0.000000  0.750000  1
  Ga  Ga12  1  0.000158  0.593399  0.250000  1
  Ga  Ga13  1  0.999969  0.406904  0.750000  1
  Ga  Ga14  1  0.406759  0.406601  0.250000  1
  Ga  Ga15  1  0.593065  0.593096  0.750000  1
  B  B16  1  0.999807  0.000000  0.000099  1
  B  B17  1  0.999807  0.000000  0.499901  1
