# generated using pymatgen
data_Tb2SmCo8P6Ru
_symmetry_space_group_name_H-M   'P 1'
_cell_length_a   3.71649600
_cell_length_b   10.53115100
_cell_length_c   12.25719200
_cell_angle_alpha   90.00000000
_cell_angle_beta   90.00000000
_cell_angle_gamma   90.00000000
_symmetry_Int_Tables_number   1
_chemical_formula_structural   Tb2SmCo8P6Ru
_chemical_formula_sum   'Tb4 Sm2 Co16 P12 Ru2'
_cell_volume   479.73399949
_cell_formula_units_Z   2
loop_
 _symmetry_equiv_pos_site_id
 _symmetry_equiv_pos_as_xyz
  1  'x, y, z'
loop_
 _atom_site_type_symbol
 _atom_site_label
 _atom_site_symmetry_multiplicity
 _atom_site_fract_x
 _atom_site_fract_y
 _atom_site_fract_z
 _atom_site_occupancy
  Tb  Tb0  1  0.500000  0.816772  0.206588  1
  Tb  Tb1  1  0.500000  0.183228  0.206588  1
  Tb  Tb2  1  0.000000  0.683228  0.793412  1
  Tb  Tb3  1  0.000000  0.316772  0.793412  1
  Sm  Sm4  1  0.000000  0.500000  0.524374  1
  Sm  Sm5  1  0.500000  0.000000  0.475626  1
  Co  Co6  1  0.500000  0.500000  0.705260  1
  Co  Co7  1  0.000000  0.000000  0.294740  1
  Co  Co8  1  0.000000  0.500000  0.986267  1
  Co  Co9  1  0.500000  0.000000  0.013733  1
  Co  Co10  1  0.500000  0.332504  0.990915  1
  Co  Co11  1  0.500000  0.667496  0.990915  1
  Co  Co12  1  0.000000  0.167496  0.009085  1
  Co  Co13  1  0.000000  0.832504  0.009085  1
  Co  Co14  1  0.500000  0.296950  0.430449  1
  Co  Co15  1  0.500000  0.703050  0.430449  1
  Co  Co16  1  0.000000  0.203050  0.569551  1
  Co  Co17  1  0.000000  0.796950  0.569551  1
  Co  Co18  1  0.500000  0.879561  0.708814  1
  Co  Co19  1  0.500000  0.120439  0.708814  1
  Co  Co20  1  0.000000  0.620439  0.291186  1
  Co  Co21  1  0.000000  0.379561  0.291186  1
  P  P22  1  0.500000  0.500000  0.882819  1
  P  P23  1  0.000000  0.000000  0.117181  1
  P  P24  1  0.500000  0.500000  0.347965  1
  P  P25  1  0.000000  0.000000  0.652035  1
  P  P26  1  0.500000  0.309484  0.616476  1
  P  P27  1  0.500000  0.690516  0.616476  1
  P  P28  1  0.000000  0.190516  0.383524  1
  P  P29  1  0.000000  0.809484  0.383524  1
  P  P30  1  0.500000  0.846676  0.893953  1
  P  P31  1  0.500000  0.153324  0.893953  1
  P  P32  1  0.000000  0.653324  0.106047  1
  P  P33  1  0.000000  0.346676  0.106047  1
  Ru  Ru34  1  0.500000  0.500000  0.158481  1
  Ru  Ru35  1  0.000000  0.000000  0.841519  1
