# generated using pymatgen
data_Sm7Y(SiI6)2
_symmetry_space_group_name_H-M   'P 1'
_cell_length_a   4.28445700
_cell_length_b   14.27703924
_cell_length_c   15.06667056
_cell_angle_alpha   89.81475791
_cell_angle_beta   90.00000000
_cell_angle_gamma   90.00000000
_symmetry_Int_Tables_number   1
_chemical_formula_structural   Sm7Y(SiI6)2
_chemical_formula_sum   'Sm7 Y1 Si2 I12'
_cell_volume   921.61378997
_cell_formula_units_Z   1
loop_
 _symmetry_equiv_pos_site_id
 _symmetry_equiv_pos_as_xyz
  1  'x, y, z'
loop_
 _atom_site_type_symbol
 _atom_site_label
 _atom_site_symmetry_multiplicity
 _atom_site_fract_x
 _atom_site_fract_y
 _atom_site_fract_z
 _atom_site_occupancy
  Sm  Sm0  1  0.500000  0.115067  0.346363  1
  Sm  Sm1  1  0.500000  0.885428  0.653123  1
  Sm  Sm2  1  0.500000  0.613597  0.153021  1
  Sm  Sm3  1  0.500000  0.385179  0.847715  1
  Sm  Sm4  1  0.000000  0.112712  0.575013  1
  Sm  Sm5  1  0.000000  0.887445  0.424585  1
  Sm  Sm6  1  0.000000  0.611452  0.925501  1
  Y  Y7  1  0.000000  0.389097  0.074029  1
  Si  Si8  1  0.500000  0.000209  0.499643  1
  Si  Si9  1  0.500000  0.498382  0.001020  1
  I  I10  1  0.500000  0.249550  0.160353  1
  I  I11  1  0.500000  0.754583  0.838312  1
  I  I12  1  0.500000  0.744263  0.337897  1
  I  I13  1  0.500000  0.255124  0.662535  1
  I  I14  1  0.000000  0.259001  0.413409  1
  I  I15  1  0.000000  0.741303  0.586324  1
  I  I16  1  0.000000  0.758046  0.086060  1
  I  I17  1  0.000000  0.242200  0.917338  1
  I  I18  1  0.000000  0.999812  0.240033  1
  I  I19  1  0.000000  0.000888  0.759417  1
  I  I20  1  0.000000  0.495773  0.257143  1
  I  I21  1  0.000000  0.500888  0.741167  1
