# generated using pymatgen
data_Ho2ErTm9Co4CuBi
_symmetry_space_group_name_H-M   'P 1'
_cell_length_a   8.24093533
_cell_length_b   8.24093402
_cell_length_c   8.23465189
_cell_angle_alpha   110.09452550
_cell_angle_beta   111.18604295
_cell_angle_gamma   107.19170314
_symmetry_Int_Tables_number   1
_chemical_formula_structural   Ho2ErTm9Co4CuBi
_chemical_formula_sum   'Ho2 Er1 Tm9 Co4 Cu1 Bi1'
_cell_volume   429.77548173
_cell_formula_units_Z   1
loop_
 _symmetry_equiv_pos_site_id
 _symmetry_equiv_pos_as_xyz
  1  'x, y, z'
loop_
 _atom_site_type_symbol
 _atom_site_label
 _atom_site_symmetry_multiplicity
 _atom_site_fract_x
 _atom_site_fract_y
 _atom_site_fract_z
 _atom_site_occupancy
  Ho  Ho0  1  0.286990  0.183110  0.470102  1
  Ho  Ho1  1  0.713116  0.816962  0.530077  1
  Er  Er2  1  0.286768  0.816858  0.103625  1
  Tm  Tm3  1  0.713085  0.182856  0.895942  1
  Tm  Tm4  1  0.621697  0.312878  0.307994  1
  Tm  Tm5  1  0.378449  0.687201  0.691968  1
  Tm  Tm6  1  0.004767  0.313519  0.691968  1
  Tm  Tm7  1  0.995116  0.686297  0.307994  1
  Tm  Tm8  1  0.212791  0.415134  0.201311  1
  Tm  Tm9  1  0.787091  0.584694  0.798638  1
  Tm  Tm10  1  0.213947  0.011547  0.798638  1
  Tm  Tm11  1  0.786175  0.988520  0.201311  1
  Co  Co12  1  0.999175  0.376065  0.375240  1
  Co  Co13  1  0.000724  0.623872  0.624595  1
  Co  Co14  1  0.386757  0.886662  0.500354  1
  Co  Co15  1  0.613692  0.113597  0.500354  1
  Cu  Cu16  1  0.999647  0.000216  0.999863  1
  Bi  Bi17  1  0.500013  0.500012  0.000024  1
