# generated using pymatgen
data_Ti6Mn5Ga6Rh7
_symmetry_space_group_name_H-M   'P 1'
_cell_length_a   4.25147907
_cell_length_b   6.08993614
_cell_length_c   12.80858305
_cell_angle_alpha   89.98989414
_cell_angle_beta   90.00188176
_cell_angle_gamma   89.97856680
_symmetry_Int_Tables_number   1
_chemical_formula_structural   Ti6Mn5Ga6Rh7
_chemical_formula_sum   'Ti6 Mn5 Ga6 Rh7'
_cell_volume   331.63001841
_cell_formula_units_Z   1
loop_
 _symmetry_equiv_pos_site_id
 _symmetry_equiv_pos_as_xyz
  1  'x, y, z'
loop_
 _atom_site_type_symbol
 _atom_site_label
 _atom_site_symmetry_multiplicity
 _atom_site_fract_x
 _atom_site_fract_y
 _atom_site_fract_z
 _atom_site_occupancy
  Ti  Ti0  1  0.000060  0.004607  0.006696  1
  Ti  Ti1  1  0.500043  0.488637  0.165488  1
  Ti  Ti2  1  0.000002  0.013124  0.325588  1
  Ti  Ti3  1  0.500006  0.494376  0.490993  1
  Ti  Ti4  1  0.999980  0.997950  0.667315  1
  Ti  Ti5  1  0.500000  0.498887  0.842634  1
  Mn  Mn6  1  0.500017  0.249657  0.001309  1
  Mn  Mn7  1  0.500040  0.750350  0.006155  1
  Mn  Mn8  1  0.000064  0.248902  0.165628  1
  Mn  Mn9  1  0.000007  0.752357  0.162959  1
  Mn  Mn10  1  0.499778  0.252515  0.332308  1
  Ga  Ga11  1  0.000015  0.497197  0.006860  1
  Ga  Ga12  1  0.499959  0.009489  0.165423  1
  Ga  Ga13  1  0.000001  0.491025  0.325341  1
  Ga  Ga14  1  0.499930  0.003203  0.494978  1
  Ga  Ga15  1  0.000097  0.499801  0.666475  1
  Ga  Ga16  1  0.499985  0.999244  0.841012  1
  Rh  Rh17  1  0.500037  0.751209  0.330523  1
  Rh  Rh18  1  0.999996  0.249359  0.499114  1
  Rh  Rh19  1  0.000027  0.750063  0.499166  1
  Rh  Rh20  1  0.499950  0.249766  0.667394  1
  Rh  Rh21  1  0.499989  0.750015  0.666969  1
  Rh  Rh22  1  0.000019  0.249527  0.834296  1
  Rh  Rh23  1  0.999990  0.748735  0.835376  1
