# generated using pymatgen
data_Tm6Ta5Ga11Os7
_symmetry_space_group_name_H-M   'P 1'
_cell_length_a   9.05512687
_cell_length_b   9.05512660
_cell_length_c   8.98330379
_cell_angle_alpha   59.73516275
_cell_angle_beta   59.73516050
_cell_angle_gamma   59.99999367
_symmetry_Int_Tables_number   1
_chemical_formula_structural   Tm6Ta5Ga11Os7
_chemical_formula_sum   'Tm6 Ta5 Ga11 Os7'
_cell_volume   518.75224738
_cell_formula_units_Z   1
loop_
 _symmetry_equiv_pos_site_id
 _symmetry_equiv_pos_as_xyz
  1  'x, y, z'
loop_
 _atom_site_type_symbol
 _atom_site_label
 _atom_site_symmetry_multiplicity
 _atom_site_fract_x
 _atom_site_fract_y
 _atom_site_fract_z
 _atom_site_occupancy
  Tm  Tm0  1  0.708198  0.708198  0.294291  1
  Tm  Tm1  1  0.289312  0.708198  0.294291  1
  Tm  Tm2  1  0.708198  0.289312  0.294291  1
  Tm  Tm3  1  0.297315  0.297315  0.710591  1
  Tm  Tm4  1  0.694779  0.297315  0.710591  1
  Tm  Tm5  1  0.297315  0.694779  0.710591  1
  Ta  Ta6  1  0.877993  0.877993  0.366020  1
  Ta  Ta7  1  0.876054  0.368896  0.878997  1
  Ta  Ta8  1  0.368896  0.876054  0.878997  1
  Ta  Ta9  1  0.876054  0.876054  0.878997  1
  Ta  Ta10  1  0.126922  0.126922  0.619235  1
  Ga  Ga11  1  0.116612  0.647005  0.119771  1
  Ga  Ga12  1  0.647005  0.116612  0.119771  1
  Ga  Ga13  1  0.116612  0.116612  0.119771  1
  Ga  Ga14  1  0.661141  0.661141  0.016577  1
  Ga  Ga15  1  0.661998  0.015532  0.660473  1
  Ga  Ga16  1  0.015532  0.661998  0.660473  1
  Ga  Ga17  1  0.661998  0.661998  0.660473  1
  Ga  Ga18  1  0.333587  0.333587  0.999238  1
  Ga  Ga19  1  0.337971  0.990950  0.333108  1
  Ga  Ga20  1  0.990950  0.337971  0.333108  1
  Ga  Ga21  1  0.337971  0.337971  0.333108  1
  Os  Os22  1  0.006363  0.006363  0.980910  1
  Os  Os23  1  0.997771  0.997771  0.508799  1
  Os  Os24  1  0.495659  0.997771  0.508799  1
  Os  Os25  1  0.997771  0.495659  0.508799  1
  Os  Os26  1  0.502809  0.502809  0.999975  1
  Os  Os27  1  0.994406  0.502809  0.999975  1
  Os  Os28  1  0.502809  0.994406  0.999975  1
