# generated using pymatgen
data_DyErSi7Rh12
_symmetry_space_group_name_H-M   'P 1'
_cell_length_a   9.74035700
_cell_length_b   9.74035623
_cell_length_c   3.85428500
_cell_angle_alpha   90.00000000
_cell_angle_beta   90.00000000
_cell_angle_gamma   119.99999923
_symmetry_Int_Tables_number   1
_chemical_formula_structural   DyErSi7Rh12
_chemical_formula_sum   'Dy1 Er1 Si7 Rh12'
_cell_volume   316.68258038
_cell_formula_units_Z   1
loop_
 _symmetry_equiv_pos_site_id
 _symmetry_equiv_pos_as_xyz
  1  'x, y, z'
loop_
 _atom_site_type_symbol
 _atom_site_label
 _atom_site_symmetry_multiplicity
 _atom_site_fract_x
 _atom_site_fract_y
 _atom_site_fract_z
 _atom_site_occupancy
  Dy  Dy0  1  0.333333  0.666667  0.749162  1
  Er  Er1  1  0.666667  0.333333  0.250972  1
  Si  Si2  1  0.000000  0.000000  0.499809  1
  Si  Si3  1  0.401287  0.289338  0.751231  1
  Si  Si4  1  0.710662  0.111949  0.751231  1
  Si  Si5  1  0.888051  0.598713  0.751231  1
  Si  Si6  1  0.599055  0.710747  0.248706  1
  Si  Si7  1  0.289253  0.888308  0.248706  1
  Si  Si8  1  0.111692  0.400945  0.248706  1
  Rh  Rh9  1  0.444302  0.063432  0.751514  1
  Rh  Rh10  1  0.936568  0.380870  0.751514  1
  Rh  Rh11  1  0.619130  0.555698  0.751514  1
  Rh  Rh12  1  0.556175  0.937238  0.248496  1
  Rh  Rh13  1  0.062762  0.618938  0.248496  1
  Rh  Rh14  1  0.381062  0.443825  0.248496  1
  Rh  Rh15  1  0.143947  0.262249  0.745138  1
  Rh  Rh16  1  0.737751  0.881700  0.745138  1
  Rh  Rh17  1  0.118300  0.856053  0.745138  1
  Rh  Rh18  1  0.856096  0.737688  0.254934  1
  Rh  Rh19  1  0.262312  0.118407  0.254934  1
  Rh  Rh20  1  0.881593  0.143904  0.254934  1
