# generated using pymatgen
data_Sm2Ho3Tm3(Si3Rh)4
_symmetry_space_group_name_H-M   'P 1'
_cell_length_a   8.17847000
_cell_length_b   8.17846932
_cell_length_c   7.89591600
_cell_angle_alpha   90.00000000
_cell_angle_beta   90.00000000
_cell_angle_gamma   120.00000275
_symmetry_Int_Tables_number   1
_chemical_formula_structural   Sm2Ho3Tm3(Si3Rh)4
_chemical_formula_sum   'Sm2 Ho3 Tm3 Si12 Rh4'
_cell_volume   457.38006620
_cell_formula_units_Z   1
loop_
 _symmetry_equiv_pos_site_id
 _symmetry_equiv_pos_as_xyz
  1  'x, y, z'
loop_
 _atom_site_type_symbol
 _atom_site_label
 _atom_site_symmetry_multiplicity
 _atom_site_fract_x
 _atom_site_fract_y
 _atom_site_fract_z
 _atom_site_occupancy
  Sm  Sm0  1  0.000000  0.000000  0.250000  1
  Sm  Sm1  1  0.000000  0.000000  0.750000  1
  Ho  Ho2  1  0.491192  0.508808  0.750000  1
  Ho  Ho3  1  0.491192  0.982384  0.750000  1
  Ho  Ho4  1  0.017616  0.508808  0.750000  1
  Tm  Tm5  1  0.508862  0.491138  0.250000  1
  Tm  Tm6  1  0.508862  0.017725  0.250000  1
  Tm  Tm7  1  0.982275  0.491138  0.250000  1
  Si  Si8  1  0.168003  0.831997  0.499822  1
  Si  Si9  1  0.168003  0.336005  0.499822  1
  Si  Si10  1  0.663995  0.831997  0.499822  1
  Si  Si11  1  0.832058  0.167942  0.497864  1
  Si  Si12  1  0.832058  0.664117  0.497864  1
  Si  Si13  1  0.335883  0.167942  0.497864  1
  Si  Si14  1  0.832058  0.167942  0.002136  1
  Si  Si15  1  0.832058  0.664117  0.002136  1
  Si  Si16  1  0.335883  0.167942  0.002136  1
  Si  Si17  1  0.168003  0.831997  0.000178  1
  Si  Si18  1  0.168003  0.336005  0.000178  1
  Si  Si19  1  0.663995  0.831997  0.000178  1
  Rh  Rh20  1  0.333333  0.666667  0.460546  1
  Rh  Rh21  1  0.666667  0.333333  0.531729  1
  Rh  Rh22  1  0.666667  0.333333  0.968271  1
  Rh  Rh23  1  0.333333  0.666667  0.039454  1
