# generated using pymatgen
data_Tb7Dy(AlRu)8
_symmetry_space_group_name_H-M   'P 1'
_cell_length_a   4.08674500
_cell_length_b   7.01209681
_cell_length_c   15.99892813
_cell_angle_alpha   90.08017372
_cell_angle_beta   90.00000000
_cell_angle_gamma   90.00000000
_symmetry_Int_Tables_number   1
_chemical_formula_structural   Tb7Dy(AlRu)8
_chemical_formula_sum   'Tb7 Dy1 Al8 Ru8'
_cell_volume   458.47526015
_cell_formula_units_Z   1
loop_
 _symmetry_equiv_pos_site_id
 _symmetry_equiv_pos_as_xyz
  1  'x, y, z'
loop_
 _atom_site_type_symbol
 _atom_site_label
 _atom_site_symmetry_multiplicity
 _atom_site_fract_x
 _atom_site_fract_y
 _atom_site_fract_z
 _atom_site_occupancy
  Tb  Tb0  1  0.750000  0.964573  0.219655  1
  Tb  Tb1  1  0.250000  0.162412  0.563086  1
  Tb  Tb2  1  0.750000  0.842538  0.437121  1
  Tb  Tb3  1  0.750000  0.464572  0.280751  1
  Tb  Tb4  1  0.750000  0.338514  0.062626  1
  Tb  Tb5  1  0.250000  0.656838  0.936885  1
  Tb  Tb6  1  0.250000  0.034886  0.780147  1
  Dy  Dy7  1  0.250000  0.536827  0.718865  1
  Al  Al8  1  0.750000  0.503864  0.565504  1
  Al  Al9  1  0.750000  0.362486  0.849083  1
  Al  Al10  1  0.750000  0.996800  0.934259  1
  Al  Al11  1  0.750000  0.867124  0.650783  1
  Al  Al12  1  0.250000  0.501576  0.434901  1
  Al  Al13  1  0.250000  0.997181  0.065570  1
  Al  Al14  1  0.250000  0.634168  0.150843  1
  Al  Al15  1  0.250000  0.136487  0.349307  1
  Ru  Ru16  1  0.750000  0.742676  0.811872  1
  Ru  Ru17  1  0.250000  0.230711  0.936444  1
  Ru  Ru18  1  0.750000  0.266966  0.436748  1
  Ru  Ru19  1  0.250000  0.753767  0.312117  1
  Ru  Ru20  1  0.750000  0.763748  0.063798  1
  Ru  Ru21  1  0.750000  0.250273  0.688165  1
  Ru  Ru22  1  0.250000  0.253130  0.187631  1
  Ru  Ru23  1  0.250000  0.737884  0.563841  1
