# generated using pymatgen
data_Ba5Bi2As
_symmetry_space_group_name_H-M   'P 1'
_cell_length_a   9.28163700
_cell_length_b   10.60555500
_cell_length_c   14.19597200
_cell_angle_alpha   90.00000000
_cell_angle_beta   90.00000000
_cell_angle_gamma   90.00000000
_symmetry_Int_Tables_number   1
_chemical_formula_structural   Ba5Bi2As
_chemical_formula_sum   'Ba20 Bi8 As4'
_cell_volume   1397.40764217
_cell_formula_units_Z   4
loop_
 _symmetry_equiv_pos_site_id
 _symmetry_equiv_pos_as_xyz
  1  'x, y, z'
loop_
 _atom_site_type_symbol
 _atom_site_label
 _atom_site_symmetry_multiplicity
 _atom_site_fract_x
 _atom_site_fract_y
 _atom_site_fract_z
 _atom_site_occupancy
  Ba  Ba0  1  0.047856  0.750000  0.500339  1
  Ba  Ba1  1  0.952144  0.250000  0.499661  1
  Ba  Ba2  1  0.547856  0.250000  0.999661  1
  Ba  Ba3  1  0.452144  0.750000  0.000339  1
  Ba  Ba4  1  0.859495  0.750000  0.800778  1
  Ba  Ba5  1  0.140505  0.250000  0.199222  1
  Ba  Ba6  1  0.359495  0.250000  0.699222  1
  Ba  Ba7  1  0.640505  0.750000  0.300778  1
  Ba  Ba8  1  0.683966  0.534134  0.575564  1
  Ba  Ba9  1  0.316034  0.465866  0.424436  1
  Ba  Ba10  1  0.183966  0.465866  0.924436  1
  Ba  Ba11  1  0.316034  0.034134  0.424436  1
  Ba  Ba12  1  0.816034  0.534134  0.075564  1
  Ba  Ba13  1  0.683966  0.965866  0.575564  1
  Ba  Ba14  1  0.816034  0.965866  0.075564  1
  Ba  Ba15  1  0.183966  0.034134  0.924436  1
  Ba  Ba16  1  0.333326  0.750000  0.712162  1
  Ba  Ba17  1  0.666674  0.250000  0.287838  1
  Ba  Ba18  1  0.833326  0.250000  0.787838  1
  Ba  Ba19  1  0.166674  0.750000  0.212162  1
  Bi  Bi20  1  0.565265  0.508455  0.828401  1
  Bi  Bi21  1  0.434735  0.491545  0.171599  1
  Bi  Bi22  1  0.065265  0.491545  0.671599  1
  Bi  Bi23  1  0.434735  0.008455  0.171599  1
  Bi  Bi24  1  0.934735  0.508455  0.328401  1
  Bi  Bi25  1  0.565265  0.991545  0.828401  1
  Bi  Bi26  1  0.934735  0.991545  0.328401  1
  Bi  Bi27  1  0.065265  0.008455  0.671599  1
  As  As28  1  0.071602  0.750000  0.988077  1
  As  As29  1  0.928398  0.250000  0.011923  1
  As  As30  1  0.571602  0.250000  0.511923  1
  As  As31  1  0.428398  0.750000  0.488077  1
