# generated using pymatgen
data_NaTb9Se10
_symmetry_space_group_name_H-M   'P 1'
_cell_length_a   7.07507608
_cell_length_b   8.21879921
_cell_length_c   9.23700104
_cell_angle_alpha   103.56865499
_cell_angle_beta   97.02489034
_cell_angle_gamma   106.60918961
_symmetry_Int_Tables_number   1
_chemical_formula_structural   NaTb9Se10
_chemical_formula_sum   'Na1 Tb9 Se10'
_cell_volume   489.89593833
_cell_formula_units_Z   1
loop_
 _symmetry_equiv_pos_site_id
 _symmetry_equiv_pos_as_xyz
  1  'x, y, z'
loop_
 _atom_site_type_symbol
 _atom_site_label
 _atom_site_symmetry_multiplicity
 _atom_site_fract_x
 _atom_site_fract_y
 _atom_site_fract_z
 _atom_site_occupancy
  Na  Na0  1  0.000000  0.500000  0.000000  1
  Tb  Tb1  1  0.798776  0.601191  0.599637  1
  Tb  Tb2  1  0.602655  0.201051  0.207165  1
  Tb  Tb3  1  0.397345  0.798949  0.792835  1
  Tb  Tb4  1  0.600957  0.705712  0.206835  1
  Tb  Tb5  1  0.201224  0.398809  0.400363  1
  Tb  Tb6  1  0.399043  0.294288  0.793165  1
  Tb  Tb7  1  0.000000  0.000000  0.000000  1
  Tb  Tb8  1  0.203058  0.903206  0.406161  1
  Tb  Tb9  1  0.796942  0.096794  0.593839  1
  Se  Se10  1  0.696658  0.649494  0.902238  1
  Se  Se11  1  0.501735  0.251983  0.500228  1
  Se  Se12  1  0.699194  0.149997  0.901806  1
  Se  Se13  1  0.300806  0.850003  0.098194  1
  Se  Se14  1  0.498265  0.748017  0.499772  1
  Se  Se15  1  0.097069  0.448908  0.700801  1
  Se  Se16  1  0.303342  0.350506  0.097762  1
  Se  Se17  1  0.904923  0.050186  0.298491  1
  Se  Se18  1  0.095077  0.949814  0.701509  1
  Se  Se19  1  0.902931  0.551092  0.299199  1
