# generated using pymatgen
data_Dy4Ti(ReN4)3
_symmetry_space_group_name_H-M   'P 1'
_cell_length_a   7.33727313
_cell_length_b   7.42226706
_cell_length_c   6.28954634
_cell_angle_alpha   72.66356679
_cell_angle_beta   73.90111409
_cell_angle_gamma   82.16731952
_symmetry_Int_Tables_number   1
_chemical_formula_structural   Dy4Ti(ReN4)3
_chemical_formula_sum   'Dy4 Ti1 Re3 N12'
_cell_volume   313.60334406
_cell_formula_units_Z   1
loop_
 _symmetry_equiv_pos_site_id
 _symmetry_equiv_pos_as_xyz
  1  'x, y, z'
loop_
 _atom_site_type_symbol
 _atom_site_label
 _atom_site_symmetry_multiplicity
 _atom_site_fract_x
 _atom_site_fract_y
 _atom_site_fract_z
 _atom_site_occupancy
  Dy  Dy0  1  0.906127  0.084711  0.766571  1
  Dy  Dy1  1  0.092073  0.903493  0.262158  1
  Dy  Dy2  1  0.707478  0.277776  0.242422  1
  Dy  Dy3  1  0.301499  0.720012  0.738354  1
  Ti  Ti4  1  0.619009  0.801144  0.274436  1
  Re  Re5  1  0.200467  0.378025  0.216293  1
  Re  Re6  1  0.378554  0.205906  0.720137  1
  Re  Re7  1  0.794071  0.618102  0.782780  1
  N  N8  1  0.658444  0.622661  0.071978  1
  N  N9  1  0.370171  0.878502  0.355253  1
  N  N10  1  0.359913  0.331798  0.420834  1
  N  N11  1  0.125952  0.621769  0.161169  1
  N  N12  1  0.003081  0.224667  0.335826  1
  N  N13  1  0.790166  0.000489  0.148920  1
  N  N14  1  0.226564  0.007182  0.842452  1
  N  N15  1  0.625398  0.132478  0.658799  1
  N  N16  1  0.333775  0.366841  0.916203  1
  N  N17  1  0.883765  0.377041  0.829771  1
  N  N18  1  0.633515  0.665402  0.589668  1
  N  N19  1  0.989979  0.782000  0.665977  1
