# generated using pymatgen
data_Ac19LaSi15Os
_symmetry_space_group_name_H-M   'P 1'
_cell_length_a   8.30211696
_cell_length_b   8.28689293
_cell_length_c   16.24148221
_cell_angle_alpha   89.74316999
_cell_angle_beta   89.58899005
_cell_angle_gamma   89.90172896
_symmetry_Int_Tables_number   1
_chemical_formula_structural   Ac19LaSi15Os
_chemical_formula_sum   'Ac19 La1 Si15 Os1'
_cell_volume   1117.35218573
_cell_formula_units_Z   1
loop_
 _symmetry_equiv_pos_site_id
 _symmetry_equiv_pos_as_xyz
  1  'x, y, z'
loop_
 _atom_site_type_symbol
 _atom_site_label
 _atom_site_symmetry_multiplicity
 _atom_site_fract_x
 _atom_site_fract_y
 _atom_site_fract_z
 _atom_site_occupancy
  Ac  Ac0  1  0.366598  0.479189  0.375522  1
  Ac  Ac1  1  0.879687  0.015339  0.378609  1
  Ac  Ac2  1  0.977143  0.125047  0.122250  1
  Ac  Ac3  1  0.029298  0.876247  0.619947  1
  Ac  Ac4  1  0.625278  0.525112  0.873466  1
  Ac  Ac5  1  0.476048  0.379965  0.626910  1
  Ac  Ac6  1  0.521234  0.624273  0.126188  1
  Ac  Ac7  1  0.123537  0.974589  0.878158  1
  Ac  Ac8  1  0.985655  0.618545  0.054911  1
  Ac  Ac9  1  0.019047  0.385573  0.545794  1
  Ac  Ac10  1  0.620844  0.985380  0.948551  1
  Ac  Ac11  1  0.124074  0.513002  0.803207  1
  Ac  Ac12  1  0.877048  0.486193  0.307640  1
  Ac  Ac13  1  0.510912  0.121104  0.195539  1
  Ac  Ac14  1  0.489221  0.881363  0.696522  1
  Ac  Ac15  1  0.381684  0.014539  0.448430  1
  Ac  Ac16  1  0.703467  0.689723  0.498148  1
  Ac  Ac17  1  0.813370  0.190496  0.746749  1
  Ac  Ac18  1  0.186105  0.803597  0.261275  1
  La  La19  1  0.305963  0.308444  0.999837  1
  Si  Si20  1  0.919038  0.290855  0.940106  1
  Si  Si21  1  0.706982  0.084502  0.560103  1
  Si  Si22  1  0.214377  0.413971  0.188816  1
  Si  Si23  1  0.792347  0.583387  0.690480  1
  Si  Si24  1  0.417177  0.212981  0.812141  1
  Si  Si25  1  0.579467  0.790781  0.307950  1
  Si  Si26  1  0.290180  0.922120  0.059038  1
  Si  Si27  1  0.830190  0.803233  0.791415  1
  Si  Si28  1  0.169563  0.197910  0.292198  1
  Si  Si29  1  0.797184  0.833229  0.205849  1
  Si  Si30  1  0.304832  0.678635  0.540054  1
  Si  Si31  1  0.692811  0.326684  0.040510  1
  Si  Si32  1  0.667297  0.299349  0.456796  1
  Si  Si33  1  0.324524  0.691047  0.960621  1
  Si  Si34  1  0.202043  0.173077  0.708044  1
  Os  Os35  1  0.075775  0.700524  0.438223  1
