# generated using pymatgen
data_Tm5Lu7TlInFe2Ru
_symmetry_space_group_name_H-M   'P 1'
_cell_length_a   8.23217069
_cell_length_b   8.23024938
_cell_length_c   8.23217200
_cell_angle_alpha   108.60836899
_cell_angle_beta   108.56147658
_cell_angle_gamma   111.26853313
_symmetry_Int_Tables_number   1
_chemical_formula_structural   Tm5Lu7TlInFe2Ru
_chemical_formula_sum   'Tm5 Lu7 Tl1 In1 Fe2 Ru1'
_cell_volume   428.99014601
_cell_formula_units_Z   1
loop_
 _symmetry_equiv_pos_site_id
 _symmetry_equiv_pos_as_xyz
  1  'x, y, z'
loop_
 _atom_site_type_symbol
 _atom_site_label
 _atom_site_symmetry_multiplicity
 _atom_site_fract_x
 _atom_site_fract_y
 _atom_site_fract_z
 _atom_site_occupancy
  Tm  Tm0  1  0.308016  0.307557  0.615618  1
  Tm  Tm1  1  0.692611  0.692622  0.384662  1
  Tm  Tm2  1  0.691939  0.307557  0.999540  1
  Tm  Tm3  1  0.307959  0.692622  0.000011  1
  Tm  Tm4  1  0.192704  0.430840  0.238136  1
  Lu  Lu5  1  0.807500  0.569976  0.762477  1
  Lu  Lu6  1  0.192459  0.954699  0.762240  1
  Lu  Lu7  1  0.954603  0.192010  0.762160  1
  Lu  Lu8  1  0.807266  0.044907  0.237641  1
  Lu  Lu9  1  0.045026  0.807955  0.237301  1
  Lu  Lu10  1  0.429851  0.192010  0.237405  1
  Lu  Lu11  1  0.570653  0.807955  0.762930  1
  Tl  Tl12  1  0.999399  0.499864  0.500465  1
  In  In13  1  0.499790  0.999682  0.499893  1
  Fe  Fe14  1  0.384222  0.384027  0.999804  1
  Fe  Fe15  1  0.616188  0.616169  0.999981  1
  Ru  Ru16  1  0.999816  0.999550  0.999735  1
