# generated using pymatgen
data_Lu12IrOs2Rh
_symmetry_space_group_name_H-M   'P 1'
_cell_length_a   7.23051652
_cell_length_b   8.87185300
_cell_length_c   6.21648800
_cell_angle_alpha   90.00000000
_cell_angle_beta   90.12116845
_cell_angle_gamma   90.00000000
_symmetry_Int_Tables_number   1
_chemical_formula_structural   Lu12IrOs2Rh
_chemical_formula_sum   'Lu12 Ir1 Os2 Rh1'
_cell_volume   398.77487578
_cell_formula_units_Z   1
loop_
 _symmetry_equiv_pos_site_id
 _symmetry_equiv_pos_as_xyz
  1  'x, y, z'
loop_
 _atom_site_type_symbol
 _atom_site_label
 _atom_site_symmetry_multiplicity
 _atom_site_fract_x
 _atom_site_fract_y
 _atom_site_fract_z
 _atom_site_occupancy
  Lu  Lu0  1  0.672294  0.059095  0.334226  1
  Lu  Lu1  1  0.179606  0.438202  0.170545  1
  Lu  Lu2  1  0.325232  0.560595  0.668295  1
  Lu  Lu3  1  0.821103  0.935417  0.827029  1
  Lu  Lu4  1  0.325232  0.939405  0.668295  1
  Lu  Lu5  1  0.821103  0.564583  0.827029  1
  Lu  Lu6  1  0.672294  0.440905  0.334226  1
  Lu  Lu7  1  0.179606  0.061798  0.170545  1
  Lu  Lu8  1  0.538976  0.250000  0.874938  1
  Lu  Lu9  1  0.036845  0.250000  0.626925  1
  Lu  Lu10  1  0.463742  0.750000  0.122189  1
  Lu  Lu11  1  0.963532  0.750000  0.374153  1
  Ir  Ir12  1  0.115130  0.750000  0.962261  1
  Os  Os13  1  0.382963  0.250000  0.464821  1
  Os  Os14  1  0.616020  0.750000  0.534628  1
  Rh  Rh15  1  0.886323  0.250000  0.039898  1
