# generated using pymatgen
data_DyTm3Fe4(Ni4P3)4
_symmetry_space_group_name_H-M   'P 1'
_cell_length_a   3.67821700
_cell_length_b   10.27768806
_cell_length_c   11.87175301
_cell_angle_alpha   90.17579894
_cell_angle_beta   90.00000000
_cell_angle_gamma   90.00000000
_symmetry_Int_Tables_number   1
_chemical_formula_structural   DyTm3Fe4(Ni4P3)4
_chemical_formula_sum   'Dy1 Tm3 Fe4 Ni16 P12'
_cell_volume   448.79249713
_cell_formula_units_Z   1
loop_
 _symmetry_equiv_pos_site_id
 _symmetry_equiv_pos_as_xyz
  1  'x, y, z'
loop_
 _atom_site_type_symbol
 _atom_site_label
 _atom_site_symmetry_multiplicity
 _atom_site_fract_x
 _atom_site_fract_y
 _atom_site_fract_z
 _atom_site_occupancy
  Dy  Dy0  1  0.250000  0.579190  0.705339  1
  Tm  Tm1  1  0.250000  0.921141  0.205235  1
  Tm  Tm2  1  0.750000  0.420982  0.294796  1
  Tm  Tm3  1  0.750000  0.078926  0.794869  1
  Fe  Fe4  1  0.250000  0.462871  0.932586  1
  Fe  Fe5  1  0.250000  0.036580  0.431277  1
  Fe  Fe6  1  0.750000  0.536292  0.068990  1
  Fe  Fe7  1  0.750000  0.964031  0.568147  1
  Ni  Ni8  1  0.250000  0.714207  0.993877  1
  Ni  Ni9  1  0.250000  0.786064  0.494511  1
  Ni  Ni10  1  0.750000  0.285217  0.006517  1
  Ni  Ni11  1  0.750000  0.213407  0.505517  1
  Ni  Ni12  1  0.250000  0.407670  0.486438  1
  Ni  Ni13  1  0.250000  0.092220  0.987022  1
  Ni  Ni14  1  0.750000  0.591860  0.511674  1
  Ni  Ni15  1  0.750000  0.907745  0.013319  1
  Ni  Ni16  1  0.250000  0.225551  0.177159  1
  Ni  Ni17  1  0.250000  0.274847  0.676984  1
  Ni  Ni18  1  0.750000  0.775442  0.823260  1
  Ni  Ni19  1  0.750000  0.725486  0.322392  1
  Ni  Ni20  1  0.250000  0.878237  0.702188  1
  Ni  Ni21  1  0.250000  0.622790  0.201894  1
  Ni  Ni22  1  0.750000  0.122802  0.297627  1
  Ni  Ni23  1  0.750000  0.376366  0.798464  1
  P  P24  1  0.250000  0.425823  0.112958  1
  P  P25  1  0.250000  0.074517  0.612275  1
  P  P26  1  0.750000  0.573959  0.888713  1
  P  P27  1  0.750000  0.925962  0.387289  1
  P  P28  1  0.250000  0.267304  0.868772  1
  P  P29  1  0.250000  0.232430  0.368577  1
  P  P30  1  0.750000  0.732638  0.131203  1
  P  P31  1  0.750000  0.768589  0.630657  1
  P  P32  1  0.250000  0.603059  0.392199  1
  P  P33  1  0.250000  0.897109  0.892333  1
  P  P34  1  0.750000  0.396095  0.607173  1
  P  P35  1  0.750000  0.102592  0.107769  1
