# generated using pymatgen
data_Tb2Sc2B12IrW
_symmetry_space_group_name_H-M   'P 1'
_cell_length_a   3.55680500
_cell_length_b   9.05241438
_cell_length_c   11.48614004
_cell_angle_alpha   90.17311427
_cell_angle_beta   90.00000000
_cell_angle_gamma   90.00000000
_symmetry_Int_Tables_number   1
_chemical_formula_structural   Tb2Sc2B12IrW
_chemical_formula_sum   'Tb4 Sc4 B24 Ir2 W2'
_cell_volume   369.82528998
_cell_formula_units_Z   2
loop_
 _symmetry_equiv_pos_site_id
 _symmetry_equiv_pos_as_xyz
  1  'x, y, z'
loop_
 _atom_site_type_symbol
 _atom_site_label
 _atom_site_symmetry_multiplicity
 _atom_site_fract_x
 _atom_site_fract_y
 _atom_site_fract_z
 _atom_site_occupancy
  Tb  Tb0  1  0.500000  0.318386  0.413040  1
  Tb  Tb1  1  0.500000  0.681614  0.586960  1
  Tb  Tb2  1  0.500000  0.178074  0.915483  1
  Tb  Tb3  1  0.500000  0.821926  0.084517  1
  Sc  Sc4  1  0.500000  0.444112  0.125098  1
  Sc  Sc5  1  0.500000  0.555888  0.874902  1
  Sc  Sc6  1  0.500000  0.052424  0.625887  1
  Sc  Sc7  1  0.500000  0.947576  0.374113  1
  B  B8  1  0.000000  0.099579  0.474453  1
  B  B9  1  0.000000  0.900421  0.525547  1
  B  B10  1  0.000000  0.401998  0.972534  1
  B  B11  1  0.000000  0.598002  0.027466  1
  B  B12  1  0.000000  0.129676  0.319845  1
  B  B13  1  0.000000  0.870324  0.680155  1
  B  B14  1  0.000000  0.370830  0.817567  1
  B  B15  1  0.000000  0.629170  0.182433  1
  B  B16  1  0.000000  0.052816  0.066119  1
  B  B17  1  0.000000  0.947184  0.933881  1
  B  B18  1  0.000000  0.444898  0.567182  1
  B  B19  1  0.000000  0.555102  0.432818  1
  B  B20  1  0.000000  0.482770  0.285987  1
  B  B21  1  0.000000  0.517230  0.714013  1
  B  B22  1  0.000000  0.021737  0.783932  1
  B  B23  1  0.000000  0.978263  0.216068  1
  B  B24  1  0.000000  0.255908  0.079294  1
  B  B25  1  0.000000  0.744092  0.920706  1
  B  B26  1  0.000000  0.245404  0.580918  1
  B  B27  1  0.000000  0.754596  0.419082  1
  B  B28  1  0.000000  0.299125  0.235797  1
  B  B29  1  0.000000  0.700875  0.764203  1
  B  B30  1  0.000000  0.206637  0.734209  1
  B  B31  1  0.000000  0.793363  0.265791  1
  Ir  Ir32  1  0.500000  0.359467  0.680813  1
  Ir  Ir33  1  0.500000  0.640533  0.319187  1
  W  W34  1  0.500000  0.141598  0.182784  1
  W  W35  1  0.500000  0.858402  0.817216  1
