# generated using pymatgen
data_Dy2Ho3Tm3(P3Ir4)4
_symmetry_space_group_name_H-M   'P 1'
_cell_length_a   12.94966800
_cell_length_b   12.94966847
_cell_length_c   3.99251800
_cell_angle_alpha   90.00000000
_cell_angle_beta   90.00000000
_cell_angle_gamma   119.99999880
_symmetry_Int_Tables_number   1
_chemical_formula_structural   Dy2Ho3Tm3(P3Ir4)4
_chemical_formula_sum   'Dy2 Ho3 Tm3 P12 Ir16'
_cell_volume   579.82215262
_cell_formula_units_Z   1
loop_
 _symmetry_equiv_pos_site_id
 _symmetry_equiv_pos_as_xyz
  1  'x, y, z'
loop_
 _atom_site_type_symbol
 _atom_site_label
 _atom_site_symmetry_multiplicity
 _atom_site_fract_x
 _atom_site_fract_y
 _atom_site_fract_z
 _atom_site_occupancy
  Dy  Dy0  1  0.333333  0.666667  0.500000  1
  Dy  Dy1  1  0.666667  0.333333  0.500000  1
  Ho  Ho2  1  0.000000  0.814297  0.000000  1
  Ho  Ho3  1  0.185703  0.185703  0.000000  1
  Ho  Ho4  1  0.814297  0.000000  0.000000  1
  Tm  Tm5  1  0.000000  0.446148  0.500000  1
  Tm  Tm6  1  0.553852  0.553852  0.500000  1
  Tm  Tm7  1  0.446148  0.000000  0.500000  1
  P  P8  1  0.000000  0.652116  0.500000  1
  P  P9  1  0.347884  0.347884  0.500000  1
  P  P10  1  0.652116  0.000000  0.500000  1
  P  P11  1  0.516790  0.688287  0.000000  1
  P  P12  1  0.311713  0.828503  0.000000  1
  P  P13  1  0.171497  0.483210  0.000000  1
  P  P14  1  0.483210  0.171497  0.000000  1
  P  P15  1  0.688287  0.516790  0.000000  1
  P  P16  1  0.828503  0.311713  0.000000  1
  P  P17  1  0.000000  0.176367  0.500000  1
  P  P18  1  0.823633  0.823633  0.500000  1
  P  P19  1  0.176367  0.000000  0.500000  1
  Ir  Ir20  1  0.509368  0.866108  0.000000  1
  Ir  Ir21  1  0.133892  0.643260  0.000000  1
  Ir  Ir22  1  0.356740  0.490632  0.000000  1
  Ir  Ir23  1  0.490632  0.356740  0.000000  1
  Ir  Ir24  1  0.866108  0.509368  0.000000  1
  Ir  Ir25  1  0.643260  0.133892  0.000000  1
  Ir  Ir26  1  0.000000  0.274995  0.000000  1
  Ir  Ir27  1  0.725005  0.725005  0.000000  1
  Ir  Ir28  1  0.274995  0.000000  0.000000  1
  Ir  Ir29  1  0.630227  0.809080  0.500000  1
  Ir  Ir30  1  0.190920  0.821147  0.500000  1
  Ir  Ir31  1  0.178853  0.369773  0.500000  1
  Ir  Ir32  1  0.369773  0.178853  0.500000  1
  Ir  Ir33  1  0.809080  0.630227  0.500000  1
  Ir  Ir34  1  0.821147  0.190920  0.500000  1
  Ir  Ir35  1  0.000000  0.000000  0.500000  1
