# generated using pymatgen
data_Hf2Zr6PdPt3N2
_symmetry_space_group_name_H-M   'P 1'
_cell_length_a   8.85535973
_cell_length_b   8.85535882
_cell_length_c   8.86361200
_cell_angle_alpha   59.96917243
_cell_angle_beta   59.96917584
_cell_angle_gamma   59.95072134
_symmetry_Int_Tables_number   1
_chemical_formula_structural   Hf2Zr6PdPt3N2
_chemical_formula_sum   'Hf4 Zr12 Pd2 Pt6 N4'
_cell_volume   491.07039170
_cell_formula_units_Z   2
loop_
 _symmetry_equiv_pos_site_id
 _symmetry_equiv_pos_as_xyz
  1  'x, y, z'
loop_
 _atom_site_type_symbol
 _atom_site_label
 _atom_site_symmetry_multiplicity
 _atom_site_fract_x
 _atom_site_fract_y
 _atom_site_fract_z
 _atom_site_occupancy
  Hf  Hf0  1  0.127157  0.624504  0.624170  1
  Hf  Hf1  1  0.624504  0.127157  0.624170  1
  Hf  Hf2  1  0.624877  0.624877  0.125855  1
  Hf  Hf3  1  0.624877  0.624877  0.624390  1
  Zr  Zr4  1  0.818452  0.818452  0.181548  1
  Zr  Zr5  1  0.182369  0.182369  0.817631  1
  Zr  Zr6  1  0.818001  0.182370  0.817900  1
  Zr  Zr7  1  0.182370  0.818001  0.181730  1
  Zr  Zr8  1  0.182370  0.818001  0.817900  1
  Zr  Zr9  1  0.818001  0.182370  0.181730  1
  Zr  Zr10  1  0.433228  0.433228  0.066772  1
  Zr  Zr11  1  0.068924  0.068924  0.431076  1
  Zr  Zr12  1  0.432084  0.068322  0.432024  1
  Zr  Zr13  1  0.068322  0.432084  0.067570  1
  Zr  Zr14  1  0.068322  0.432084  0.432024  1
  Zr  Zr15  1  0.432084  0.068322  0.067570  1
  Pd  Pd16  1  0.838996  0.838996  0.483758  1
  Pd  Pd17  1  0.838996  0.838996  0.838249  1
  Pt  Pt18  1  0.777041  0.407426  0.407767  1
  Pt  Pt19  1  0.407426  0.777041  0.407767  1
  Pt  Pt20  1  0.407920  0.407920  0.775851  1
  Pt  Pt21  1  0.407920  0.407920  0.408310  1
  Pt  Pt22  1  0.474726  0.842143  0.841565  1
  Pt  Pt23  1  0.842143  0.474726  0.841565  1
  N  N24  1  0.624831  0.124887  0.125141  1
  N  N25  1  0.124887  0.624831  0.125141  1
  N  N26  1  0.124588  0.124588  0.625832  1
  N  N27  1  0.124588  0.124588  0.124993  1
