# generated using pymatgen
data_Dy3Sn4IrRu
_symmetry_space_group_name_H-M   'P 1'
_cell_length_a   7.52324400
_cell_length_b   7.52324413
_cell_length_c   4.10821400
_cell_angle_alpha   90.00000000
_cell_angle_beta   90.00000000
_cell_angle_gamma   120.00000821
_symmetry_Int_Tables_number   1
_chemical_formula_structural   Dy3Sn4IrRu
_chemical_formula_sum   'Dy3 Sn4 Ir1 Ru1'
_cell_volume   201.36962284
_cell_formula_units_Z   1
loop_
 _symmetry_equiv_pos_site_id
 _symmetry_equiv_pos_as_xyz
  1  'x, y, z'
loop_
 _atom_site_type_symbol
 _atom_site_label
 _atom_site_symmetry_multiplicity
 _atom_site_fract_x
 _atom_site_fract_y
 _atom_site_fract_z
 _atom_site_occupancy
  Dy  Dy0  1  0.056604  0.311387  0.500000  1
  Dy  Dy1  1  0.688613  0.745217  0.500000  1
  Dy  Dy2  1  0.254783  0.943396  0.500000  1
  Sn  Sn3  1  0.680744  0.093756  0.000000  1
  Sn  Sn4  1  0.906244  0.586989  0.000000  1
  Sn  Sn5  1  0.413011  0.319256  0.000000  1
  Sn  Sn6  1  0.333333  0.666667  0.000000  1
  Ir  Ir7  1  0.000000  0.000000  0.000000  1
  Ru  Ru8  1  0.666667  0.333333  0.500000  1
