# generated using pymatgen
data_V4Pd11Pt
_symmetry_space_group_name_H-M   'P 1'
_cell_length_a   5.47629054
_cell_length_b   4.80980577
_cell_length_c   9.11773226
_cell_angle_alpha   79.64555277
_cell_angle_beta   90.05875969
_cell_angle_gamma   90.05227972
_symmetry_Int_Tables_number   1
_chemical_formula_structural   V4Pd11Pt
_chemical_formula_sum   'V4 Pd11 Pt1'
_cell_volume   236.24882677
_cell_formula_units_Z   1
loop_
 _symmetry_equiv_pos_site_id
 _symmetry_equiv_pos_as_xyz
  1  'x, y, z'
loop_
 _atom_site_type_symbol
 _atom_site_label
 _atom_site_symmetry_multiplicity
 _atom_site_fract_x
 _atom_site_fract_y
 _atom_site_fract_z
 _atom_site_occupancy
  V  V0  1  0.747972  0.378632  0.374592  1
  V  V1  1  0.249369  0.620030  0.622994  1
  V  V2  1  0.746833  0.214539  0.873993  1
  V  V3  1  0.257456  0.787579  0.128081  1
  Pd  Pd4  1  0.753388  0.790210  0.127310  1
  Pd  Pd5  1  0.247337  0.210605  0.872343  1
  Pd  Pd6  1  0.749660  0.609058  0.624280  1
  Pd  Pd7  1  0.247976  0.390253  0.376123  1
  Pd  Pd8  1  0.999482  0.875453  0.376243  1
  Pd  Pd9  1  0.498656  0.123114  0.624927  1
  Pd  Pd10  1  0.000743  0.123358  0.624214  1
  Pd  Pd11  1  0.501509  0.875825  0.375926  1
  Pd  Pd12  1  0.999386  0.291741  0.124925  1
  Pd  Pd13  1  0.499007  0.708907  0.874863  1
  Pd  Pd14  1  0.000375  0.709612  0.874352  1
  Pt  Pt15  1  0.500853  0.291083  0.124834  1
