# generated using pymatgen
data_Cs4Sb3HPt2
_symmetry_space_group_name_H-M   'P 1'
_cell_length_a   7.34029227
_cell_length_b   7.89873507
_cell_length_c   6.94194400
_cell_angle_alpha   90.00000000
_cell_angle_beta   90.00000000
_cell_angle_gamma   107.38199321
_symmetry_Int_Tables_number   1
_chemical_formula_structural   Cs4Sb3HPt2
_chemical_formula_sum   'Cs4 Sb3 H1 Pt2'
_cell_volume   384.10726606
_cell_formula_units_Z   1
loop_
 _symmetry_equiv_pos_site_id
 _symmetry_equiv_pos_as_xyz
  1  'x, y, z'
loop_
 _atom_site_type_symbol
 _atom_site_label
 _atom_site_symmetry_multiplicity
 _atom_site_fract_x
 _atom_site_fract_y
 _atom_site_fract_z
 _atom_site_occupancy
  Cs  Cs0  1  0.760620  0.508939  0.750000  1
  Cs  Cs1  1  0.273154  0.539424  0.250000  1
  Cs  Cs2  1  0.381499  0.872416  0.750000  1
  Cs  Cs3  1  0.721243  0.200886  0.250000  1
  Sb  Sb4  1  0.825881  0.748293  0.250000  1
  Sb  Sb5  1  0.179950  0.036124  0.250000  1
  Sb  Sb6  1  0.171355  0.251486  0.750000  1
  H  H7  1  0.800030  0.884976  0.750000  1
  Pt  Pt8  1  0.943134  0.978728  0.953204  1
  Pt  Pt9  1  0.943134  0.978728  0.546796  1
