# generated using pymatgen
data_La3GaPd5
_symmetry_space_group_name_H-M   'P 1'
_cell_length_a   8.58800968
_cell_length_b   8.58800997
_cell_length_c   8.58800946
_cell_angle_alpha   127.97395337
_cell_angle_beta   126.01031004
_cell_angle_gamma   78.27385758
_symmetry_Int_Tables_number   1
_chemical_formula_structural   La3GaPd5
_chemical_formula_sum   'La6 Ga2 Pd10'
_cell_volume   391.21184876
_cell_formula_units_Z   2
loop_
 _symmetry_equiv_pos_site_id
 _symmetry_equiv_pos_as_xyz
  1  'x, y, z'
loop_
 _atom_site_type_symbol
 _atom_site_label
 _atom_site_symmetry_multiplicity
 _atom_site_fract_x
 _atom_site_fract_y
 _atom_site_fract_z
 _atom_site_occupancy
  La  La0  1  0.818585  0.049607  0.768978  1
  La  La1  1  0.219370  0.450393  0.768978  1
  La  La2  1  0.181415  0.950393  0.231022  1
  La  La3  1  0.378122  0.250000  0.128122  1
  La  La4  1  0.780630  0.549607  0.231022  1
  La  La5  1  0.621878  0.750000  0.871878  1
  Ga  Ga6  1  0.220855  0.750000  0.470855  1
  Ga  Ga7  1  0.779145  0.250000  0.529145  1
  Pd  Pd8  1  0.831648  0.604548  0.643379  1
  Pd  Pd9  1  0.538831  0.311731  0.643379  1
  Pd  Pd10  1  0.461169  0.104548  0.772900  1
  Pd  Pd11  1  0.831648  0.188269  0.227100  1
  Pd  Pd12  1  0.168352  0.395452  0.356621  1
  Pd  Pd13  1  0.461169  0.688269  0.356621  1
  Pd  Pd14  1  0.538831  0.895452  0.227100  1
  Pd  Pd15  1  0.168352  0.811731  0.772900  1
  Pd  Pd16  1  0.000000  0.000000  0.500000  1
  Pd  Pd17  1  0.000000  0.500000  0.000000  1
