# generated using pymatgen
data_ScFe3P3Ir2
_symmetry_space_group_name_H-M   'P 1'
_cell_length_a   3.73727600
_cell_length_b   10.15820300
_cell_length_c   12.09250500
_cell_angle_alpha   90.00000000
_cell_angle_beta   90.00000000
_cell_angle_gamma   90.00000000
_symmetry_Int_Tables_number   1
_chemical_formula_structural   ScFe3P3Ir2
_chemical_formula_sum   'Sc4 Fe12 P12 Ir8'
_cell_volume   459.07995989
_cell_formula_units_Z   4
loop_
 _symmetry_equiv_pos_site_id
 _symmetry_equiv_pos_as_xyz
  1  'x, y, z'
loop_
 _atom_site_type_symbol
 _atom_site_label
 _atom_site_symmetry_multiplicity
 _atom_site_fract_x
 _atom_site_fract_y
 _atom_site_fract_z
 _atom_site_occupancy
  Sc  Sc0  1  0.250000  0.580259  0.713469  1
  Sc  Sc1  1  0.250000  0.919741  0.213469  1
  Sc  Sc2  1  0.750000  0.419741  0.286531  1
  Sc  Sc3  1  0.750000  0.080259  0.786531  1
  Fe  Fe4  1  0.250000  0.223580  0.170839  1
  Fe  Fe5  1  0.250000  0.276420  0.670839  1
  Fe  Fe6  1  0.750000  0.776420  0.829161  1
  Fe  Fe7  1  0.750000  0.723580  0.329161  1
  Fe  Fe8  1  0.250000  0.877418  0.696573  1
  Fe  Fe9  1  0.250000  0.622582  0.196573  1
  Fe  Fe10  1  0.750000  0.122582  0.303427  1
  Fe  Fe11  1  0.750000  0.377418  0.803427  1
  Fe  Fe12  1  0.250000  0.458372  0.936216  1
  Fe  Fe13  1  0.250000  0.041628  0.436216  1
  Fe  Fe14  1  0.750000  0.541628  0.063784  1
  Fe  Fe15  1  0.750000  0.958372  0.563784  1
  P  P16  1  0.250000  0.428279  0.115998  1
  P  P17  1  0.250000  0.071721  0.615998  1
  P  P18  1  0.750000  0.571721  0.884002  1
  P  P19  1  0.750000  0.928279  0.384002  1
  P  P20  1  0.250000  0.269959  0.851005  1
  P  P21  1  0.250000  0.230041  0.351005  1
  P  P22  1  0.750000  0.730041  0.148995  1
  P  P23  1  0.750000  0.769959  0.648995  1
  P  P24  1  0.250000  0.601917  0.374209  1
  P  P25  1  0.250000  0.898083  0.874209  1
  P  P26  1  0.750000  0.398083  0.625791  1
  P  P27  1  0.750000  0.101917  0.125791  1
  Ir  Ir28  1  0.250000  0.709445  0.984726  1
  Ir  Ir29  1  0.250000  0.790555  0.484726  1
  Ir  Ir30  1  0.750000  0.290555  0.015274  1
  Ir  Ir31  1  0.750000  0.209445  0.515274  1
  Ir  Ir32  1  0.250000  0.405848  0.473179  1
  Ir  Ir33  1  0.250000  0.094152  0.973179  1
  Ir  Ir34  1  0.750000  0.594152  0.526821  1
  Ir  Ir35  1  0.750000  0.905848  0.026821  1
