# generated using pymatgen
data_YHo5VB14W
_symmetry_space_group_name_H-M   'P 1'
_cell_length_a   8.13251007
_cell_length_b   8.13251028
_cell_length_c   9.44038400
_cell_angle_alpha   90.00000000
_cell_angle_beta   90.00000000
_cell_angle_gamma   155.59291168
_symmetry_Int_Tables_number   1
_chemical_formula_structural   YHo5VB14W
_chemical_formula_sum   'Y1 Ho5 V1 B14 W1'
_cell_volume   257.99849198
_cell_formula_units_Z   1
loop_
 _symmetry_equiv_pos_site_id
 _symmetry_equiv_pos_as_xyz
  1  'x, y, z'
loop_
 _atom_site_type_symbol
 _atom_site_label
 _atom_site_symmetry_multiplicity
 _atom_site_fract_x
 _atom_site_fract_y
 _atom_site_fract_z
 _atom_site_occupancy
  Y  Y0  1  0.754457  0.245543  0.250000  1
  Ho  Ho1  1  0.893722  0.106278  0.937655  1
  Ho  Ho2  1  0.106763  0.893237  0.057525  1
  Ho  Ho3  1  0.241914  0.758086  0.750000  1
  Ho  Ho4  1  0.893722  0.106278  0.562345  1
  Ho  Ho5  1  0.106763  0.893237  0.442475  1
  V  V6  1  0.052808  0.947192  0.750000  1
  B  B7  1  0.545060  0.454940  0.250000  1
  B  B8  1  0.458815  0.541185  0.750000  1
  B  B9  1  0.521176  0.478824  0.904915  1
  B  B10  1  0.480547  0.519453  0.090480  1
  B  B11  1  0.480547  0.519453  0.409520  1
  B  B12  1  0.521176  0.478824  0.595085  1
  B  B13  1  0.632649  0.367351  0.850003  1
  B  B14  1  0.365277  0.634723  0.145603  1
  B  B15  1  0.727268  0.272732  0.966559  1
  B  B16  1  0.272646  0.727354  0.030984  1
  B  B17  1  0.272646  0.727354  0.469016  1
  B  B18  1  0.727268  0.272732  0.533441  1
  B  B19  1  0.632649  0.367351  0.649997  1
  B  B20  1  0.365277  0.634723  0.354397  1
  W  W21  1  0.946853  0.053147  0.250000  1
