# generated using pymatgen
data_Cs4LiInSe4
_symmetry_space_group_name_H-M   'P 1'
_cell_length_a   8.93500791
_cell_length_b   8.93500832
_cell_length_c   8.93500700
_cell_angle_alpha   134.25301193
_cell_angle_beta   128.46886058
_cell_angle_gamma   71.34207149
_symmetry_Int_Tables_number   1
_chemical_formula_structural   Cs4LiInSe4
_chemical_formula_sum   'Cs4 Li1 In1 Se4'
_cell_volume   391.64703788
_cell_formula_units_Z   1
loop_
 _symmetry_equiv_pos_site_id
 _symmetry_equiv_pos_as_xyz
  1  'x, y, z'
loop_
 _atom_site_type_symbol
 _atom_site_label
 _atom_site_symmetry_multiplicity
 _atom_site_fract_x
 _atom_site_fract_y
 _atom_site_fract_z
 _atom_site_occupancy
  Cs  Cs0  1  0.521276  0.864273  0.677653  1
  Cs  Cs1  1  0.478724  0.156378  0.342997  1
  Cs  Cs2  1  0.813380  0.635727  0.157003  1
  Cs  Cs3  1  0.186620  0.343622  0.822347  1
  Li  Li4  1  0.000000  0.250000  0.250000  1
  In  In5  1  0.000000  0.750000  0.750000  1
  Se  Se6  1  0.084187  0.891672  0.175203  1
  Se  Se7  1  0.716470  0.408984  0.324797  1
  Se  Se8  1  0.915813  0.091016  0.807485  1
  Se  Se9  1  0.283531  0.608328  0.692515  1
