# generated using pymatgen
data_YbEuLu2(B6Ru)2
_symmetry_space_group_name_H-M   'P 1'
_cell_length_a   3.63015400
_cell_length_b   9.11498861
_cell_length_c   11.52709858
_cell_angle_alpha   90.07915528
_cell_angle_beta   90.00000000
_cell_angle_gamma   90.00000000
_symmetry_Int_Tables_number   1
_chemical_formula_structural   YbEuLu2(B6Ru)2
_chemical_formula_sum   'Yb2 Eu2 Lu4 B24 Ru4'
_cell_volume   381.41763777
_cell_formula_units_Z   2
loop_
 _symmetry_equiv_pos_site_id
 _symmetry_equiv_pos_as_xyz
  1  'x, y, z'
loop_
 _atom_site_type_symbol
 _atom_site_label
 _atom_site_symmetry_multiplicity
 _atom_site_fract_x
 _atom_site_fract_y
 _atom_site_fract_z
 _atom_site_occupancy
  Yb  Yb0  1  0.000000  0.824503  0.084197  1
  Yb  Yb1  1  0.000000  0.175497  0.915803  1
  Eu  Eu2  1  0.000000  0.322856  0.414497  1
  Eu  Eu3  1  0.000000  0.677144  0.585503  1
  Lu  Lu4  1  0.000000  0.942821  0.367049  1
  Lu  Lu5  1  0.000000  0.057179  0.632951  1
  Lu  Lu6  1  0.000000  0.441993  0.130008  1
  Lu  Lu7  1  0.000000  0.558007  0.869992  1
  B  B8  1  0.500000  0.555538  0.430428  1
  B  B9  1  0.500000  0.444462  0.569572  1
  B  B10  1  0.500000  0.054281  0.067222  1
  B  B11  1  0.500000  0.945719  0.932778  1
  B  B12  1  0.500000  0.750490  0.415377  1
  B  B13  1  0.500000  0.249510  0.584623  1
  B  B14  1  0.500000  0.249248  0.082107  1
  B  B15  1  0.500000  0.750752  0.917893  1
  B  B16  1  0.500000  0.792265  0.262812  1
  B  B17  1  0.500000  0.207735  0.737188  1
  B  B18  1  0.500000  0.291409  0.233942  1
  B  B19  1  0.500000  0.708591  0.766058  1
  B  B20  1  0.500000  0.630967  0.183468  1
  B  B21  1  0.500000  0.369033  0.816532  1
  B  B22  1  0.500000  0.129876  0.313775  1
  B  B23  1  0.500000  0.870124  0.686225  1
  B  B24  1  0.500000  0.983075  0.210752  1
  B  B25  1  0.500000  0.016925  0.789248  1
  B  B26  1  0.500000  0.484164  0.286277  1
  B  B27  1  0.500000  0.515836  0.713723  1
  B  B28  1  0.500000  0.597068  0.026502  1
  B  B29  1  0.500000  0.402932  0.973498  1
  B  B30  1  0.500000  0.096017  0.473906  1
  B  B31  1  0.500000  0.903983  0.526094  1
  Ru  Ru32  1  0.000000  0.640677  0.317355  1
  Ru  Ru33  1  0.000000  0.359323  0.682645  1
  Ru  Ru34  1  0.000000  0.139888  0.180268  1
  Ru  Ru35  1  0.000000  0.860112  0.819732  1
