# generated using pymatgen
data_Ac3Yb(ZnIn)4
_symmetry_space_group_name_H-M   'P 1'
_cell_length_a   4.92658500
_cell_length_b   8.10085192
_cell_length_c   8.14776472
_cell_angle_alpha   90.35831839
_cell_angle_beta   90.00000000
_cell_angle_gamma   90.00000000
_symmetry_Int_Tables_number   1
_chemical_formula_structural   Ac3Yb(ZnIn)4
_chemical_formula_sum   'Ac3 Yb1 Zn4 In4'
_cell_volume   325.16714692
_cell_formula_units_Z   1
loop_
 _symmetry_equiv_pos_site_id
 _symmetry_equiv_pos_as_xyz
  1  'x, y, z'
loop_
 _atom_site_type_symbol
 _atom_site_label
 _atom_site_symmetry_multiplicity
 _atom_site_fract_x
 _atom_site_fract_y
 _atom_site_fract_z
 _atom_site_occupancy
  Ac  Ac0  1  0.250000  0.006320  0.209499  1
  Ac  Ac1  1  0.750000  0.991319  0.784890  1
  Ac  Ac2  1  0.250000  0.504883  0.299801  1
  Yb  Yb3  1  0.750000  0.489014  0.724943  1
  Zn  Zn4  1  0.250000  0.813629  0.582179  1
  Zn  Zn5  1  0.750000  0.206086  0.417255  1
  Zn  Zn6  1  0.250000  0.316735  0.912159  1
  Zn  Zn7  1  0.750000  0.686791  0.078909  1
  In  In8  1  0.750000  0.307688  0.083978  1
  In  In9  1  0.250000  0.687586  0.904603  1
  In  In10  1  0.750000  0.791504  0.411527  1
  In  In11  1  0.250000  0.198443  0.590257  1
