# generated using pymatgen
data_Tb2Re7Si4W
_symmetry_space_group_name_H-M   'P 1'
_cell_length_a   7.16930838
_cell_length_b   7.68986362
_cell_length_c   4.16632900
_cell_angle_alpha   90.00000000
_cell_angle_beta   90.00000000
_cell_angle_gamma   89.96740474
_symmetry_Int_Tables_number   1
_chemical_formula_structural   Tb2Re7Si4W
_chemical_formula_sum   'Tb2 Re7 Si4 W1'
_cell_volume   229.69386251
_cell_formula_units_Z   1
loop_
 _symmetry_equiv_pos_site_id
 _symmetry_equiv_pos_as_xyz
  1  'x, y, z'
loop_
 _atom_site_type_symbol
 _atom_site_label
 _atom_site_symmetry_multiplicity
 _atom_site_fract_x
 _atom_site_fract_y
 _atom_site_fract_z
 _atom_site_occupancy
  Tb  Tb0  1  0.500758  0.498011  0.000000  1
  Tb  Tb1  1  0.999372  0.999739  0.500000  1
  Re  Re2  1  0.155511  0.604433  0.500000  1
  Re  Re3  1  0.083136  0.340996  0.000000  1
  Re  Re4  1  0.918066  0.658906  0.000000  1
  Re  Re5  1  0.417646  0.839453  0.500000  1
  Re  Re6  1  0.582724  0.163789  0.500000  1
  Re  Re7  1  0.342134  0.106864  0.000000  1
  Re  Re8  1  0.846671  0.394105  0.500000  1
  Si  Si9  1  0.222647  0.805487  0.000000  1
  Si  Si10  1  0.779837  0.196791  0.000000  1
  Si  Si11  1  0.723058  0.692419  0.500000  1
  Si  Si12  1  0.277992  0.304655  0.500000  1
  W  W13  1  0.650450  0.894351  0.000000  1
