# generated using pymatgen
data_RbPaRhS3
_symmetry_space_group_name_H-M   'P 1'
_cell_length_a   7.97491469
_cell_length_b   7.97491438
_cell_length_c   10.19512900
_cell_angle_alpha   90.00000000
_cell_angle_beta   90.00000000
_cell_angle_gamma   152.71730985
_symmetry_Int_Tables_number   1
_chemical_formula_structural   RbPaRhS3
_chemical_formula_sum   'Rb2 Pa2 Rh2 S6'
_cell_volume   297.21551373
_cell_formula_units_Z   2
loop_
 _symmetry_equiv_pos_site_id
 _symmetry_equiv_pos_as_xyz
  1  'x, y, z'
loop_
 _atom_site_type_symbol
 _atom_site_label
 _atom_site_symmetry_multiplicity
 _atom_site_fract_x
 _atom_site_fract_y
 _atom_site_fract_z
 _atom_site_occupancy
  Rb  Rb0  1  0.746552  0.253450  0.250000  1
  Rb  Rb1  1  0.253450  0.746552  0.750000  1
  Pa  Pa2  1  0.000000  0.000000  0.000000  1
  Pa  Pa3  1  0.000000  0.000000  0.500000  1
  Rh  Rh4  1  0.471967  0.528035  0.250000  1
  Rh  Rh5  1  0.528035  0.471967  0.750000  1
  S  S6  1  0.378701  0.621301  0.057259  1
  S  S7  1  0.063790  0.936212  0.250000  1
  S  S8  1  0.378701  0.621301  0.442740  1
  S  S9  1  0.621301  0.378701  0.557260  1
  S  S10  1  0.936212  0.063790  0.750000  1
  S  S11  1  0.621301  0.378701  0.942741  1
