# generated using pymatgen
data_Rb2MnSiO4
_symmetry_space_group_name_H-M   'P 1'
_cell_length_a   6.96589998
_cell_length_b   10.83427715
_cell_length_c   7.88609500
_cell_angle_alpha   89.99830717
_cell_angle_beta   89.99989988
_cell_angle_gamma   79.31580054
_symmetry_Int_Tables_number   1
_chemical_formula_structural   Rb2MnSiO4
_chemical_formula_sum   'Rb8 Mn4 Si4 O16'
_cell_volume   584.84961506
_cell_formula_units_Z   4
loop_
 _symmetry_equiv_pos_site_id
 _symmetry_equiv_pos_as_xyz
  1  'x, y, z'
loop_
 _atom_site_type_symbol
 _atom_site_label
 _atom_site_symmetry_multiplicity
 _atom_site_fract_x
 _atom_site_fract_y
 _atom_site_fract_z
 _atom_site_occupancy
  Rb  Rb0  1  0.883633  0.961362  0.267140  1
  Rb  Rb1  1  0.383678  0.461370  0.267090  1
  Rb  Rb2  1  0.116323  0.038611  0.767137  1
  Rb  Rb3  1  0.616297  0.538618  0.767120  1
  Rb  Rb4  1  0.625242  0.208374  0.918119  1
  Rb  Rb5  1  0.125266  0.708369  0.918089  1
  Rb  Rb6  1  0.374741  0.791611  0.418164  1
  Rb  Rb7  1  0.874705  0.291623  0.418137  1
  Mn  Mn8  1  0.804785  0.601690  0.190891  1
  Mn  Mn9  1  0.695116  0.898286  0.690998  1
  Mn  Mn10  1  0.304880  0.101722  0.190906  1
  Mn  Mn11  1  0.195205  0.398288  0.690886  1
  Si  Si12  1  0.476698  0.158942  0.480255  1
  Si  Si13  1  0.976700  0.658980  0.480205  1
  Si  Si14  1  0.523303  0.841042  0.980304  1
  Si  Si15  1  0.023333  0.341054  0.980210  1
  O  O16  1  0.541491  0.180642  0.279508  1
  O  O17  1  0.041483  0.680650  0.279435  1
  O  O18  1  0.458497  0.819328  0.779533  1
  O  O19  1  0.958485  0.319387  0.779434  1
  O  O20  1  0.279440  0.093337  0.459833  1
  O  O21  1  0.779493  0.593309  0.459709  1
  O  O22  1  0.720598  0.906669  0.959820  1
  O  O23  1  0.220590  0.406723  0.959705  1
  O  O24  1  0.660071  0.068764  0.578832  1
  O  O25  1  0.160091  0.568827  0.578812  1
  O  O26  1  0.339923  0.931218  0.078914  1
  O  O27  1  0.839901  0.431214  0.078791  1
  O  O28  1  0.433616  0.295749  0.578936  1
  O  O29  1  0.933516  0.795748  0.579032  1
  O  O30  1  0.566400  0.704235  0.079037  1
  O  O31  1  0.066506  0.204259  0.079011  1
