# generated using pymatgen
data_YbDy4Ho(CoSn6)2
_symmetry_space_group_name_H-M   'P 1'
_cell_length_a   8.46537108
_cell_length_b   8.46537190
_cell_length_c   13.11711813
_cell_angle_alpha   90.01856201
_cell_angle_beta   89.98143898
_cell_angle_gamma   148.56150296
_symmetry_Int_Tables_number   1
_chemical_formula_structural   YbDy4Ho(CoSn6)2
_chemical_formula_sum   'Yb1 Dy4 Ho1 Co2 Sn12'
_cell_volume   490.29096270
_cell_formula_units_Z   1
loop_
 _symmetry_equiv_pos_site_id
 _symmetry_equiv_pos_as_xyz
  1  'x, y, z'
loop_
 _atom_site_type_symbol
 _atom_site_label
 _atom_site_symmetry_multiplicity
 _atom_site_fract_x
 _atom_site_fract_y
 _atom_site_fract_z
 _atom_site_occupancy
  Yb  Yb0  1  0.899256  0.100744  0.403002  1
  Dy  Dy1  1  0.898359  0.101641  0.094434  1
  Dy  Dy2  1  0.101732  0.898268  0.595249  1
  Dy  Dy3  1  0.900514  0.099486  0.752140  1
  Dy  Dy4  1  0.100718  0.899282  0.906214  1
  Ho  Ho5  1  0.099800  0.900200  0.248989  1
  Co  Co6  1  0.299341  0.700659  0.250233  1
  Co  Co7  1  0.699477  0.300523  0.749170  1
  Sn  Sn8  1  0.758179  0.241821  0.571923  1
  Sn  Sn9  1  0.428190  0.571810  0.576328  1
  Sn  Sn10  1  0.573567  0.426433  0.423965  1
  Sn  Sn11  1  0.733851  0.266149  0.249055  1
  Sn  Sn12  1  0.265410  0.734590  0.750587  1
  Sn  Sn13  1  0.242995  0.757005  0.071610  1
  Sn  Sn14  1  0.243412  0.756588  0.428675  1
  Sn  Sn15  1  0.572467  0.427533  0.075386  1
  Sn  Sn16  1  0.454753  0.545247  0.248421  1
  Sn  Sn17  1  0.545129  0.454871  0.750749  1
  Sn  Sn18  1  0.756037  0.243963  0.928159  1
  Sn  Sn19  1  0.426811  0.573189  0.925710  1
