# generated using pymatgen
data_Y2Ho6B24Ir3Ru
_symmetry_space_group_name_H-M   'P 1'
_cell_length_a   3.64392500
_cell_length_b   9.18506764
_cell_length_c   11.50732900
_cell_angle_alpha   90.02019499
_cell_angle_beta   90.00000000
_cell_angle_gamma   90.00000000
_symmetry_Int_Tables_number   1
_chemical_formula_structural   Y2Ho6B24Ir3Ru
_chemical_formula_sum   'Y2 Ho6 B24 Ir3 Ru1'
_cell_volume   385.14679811
_cell_formula_units_Z   1
loop_
 _symmetry_equiv_pos_site_id
 _symmetry_equiv_pos_as_xyz
  1  'x, y, z'
loop_
 _atom_site_type_symbol
 _atom_site_label
 _atom_site_symmetry_multiplicity
 _atom_site_fract_x
 _atom_site_fract_y
 _atom_site_fract_z
 _atom_site_occupancy
  Y  Y0  1  0.000000  0.321144  0.412897  1
  Y  Y1  1  0.000000  0.680075  0.588381  1
  Ho  Ho2  1  0.000000  0.821456  0.085234  1
  Ho  Ho3  1  0.000000  0.176748  0.912741  1
  Ho  Ho4  1  0.000000  0.944267  0.373912  1
  Ho  Ho5  1  0.000000  0.054220  0.626929  1
  Ho  Ho6  1  0.000000  0.444278  0.125543  1
  Ho  Ho7  1  0.000000  0.557497  0.874539  1
  B  B8  1  0.500000  0.553578  0.434084  1
  B  B9  1  0.500000  0.446615  0.566219  1
  B  B10  1  0.500000  0.052837  0.065897  1
  B  B11  1  0.500000  0.946197  0.933370  1
  B  B12  1  0.500000  0.749793  0.420636  1
  B  B13  1  0.500000  0.250471  0.579464  1
  B  B14  1  0.500000  0.249054  0.079029  1
  B  B15  1  0.500000  0.752241  0.920155  1
  B  B16  1  0.500000  0.793052  0.265365  1
  B  B17  1  0.500000  0.207056  0.734014  1
  B  B18  1  0.500000  0.293284  0.234100  1
  B  B19  1  0.500000  0.708185  0.766740  1
  B  B20  1  0.500000  0.632392  0.184275  1
  B  B21  1  0.500000  0.367620  0.815712  1
  B  B22  1  0.500000  0.132434  0.315224  1
  B  B23  1  0.500000  0.868157  0.685812  1
  B  B24  1  0.500000  0.981753  0.212903  1
  B  B25  1  0.500000  0.016523  0.786666  1
  B  B26  1  0.500000  0.482359  0.286263  1
  B  B27  1  0.500000  0.517675  0.714188  1
  B  B28  1  0.500000  0.611984  0.031140  1
  B  B29  1  0.500000  0.387443  0.969253  1
  B  B30  1  0.500000  0.111252  0.469247  1
  B  B31  1  0.500000  0.888853  0.530264  1
  Ir  Ir32  1  0.000000  0.638381  0.321440  1
  Ir  Ir33  1  0.000000  0.361776  0.679111  1
  Ir  Ir34  1  0.000000  0.137146  0.177482  1
  Ru  Ru35  1  0.000000  0.862206  0.821770  1
