# generated using pymatgen
data_Sr2BeCu17Si8
_symmetry_space_group_name_H-M   'P 1'
_cell_length_a   8.10761310
_cell_length_b   8.10761183
_cell_length_c   8.19240464
_cell_angle_alpha   120.10353304
_cell_angle_beta   120.10347457
_cell_angle_gamma   89.22015163
_symmetry_Int_Tables_number   1
_chemical_formula_structural   Sr2BeCu17Si8
_chemical_formula_sum   'Sr2 Be1 Cu17 Si8'
_cell_volume   382.12920578
_cell_formula_units_Z   1
loop_
 _symmetry_equiv_pos_site_id
 _symmetry_equiv_pos_as_xyz
  1  'x, y, z'
loop_
 _atom_site_type_symbol
 _atom_site_label
 _atom_site_symmetry_multiplicity
 _atom_site_fract_x
 _atom_site_fract_y
 _atom_site_fract_z
 _atom_site_occupancy
  Sr  Sr0  1  0.250000  0.250000  0.500000  1
  Sr  Sr1  1  0.750000  0.750000  0.500000  1
  Be  Be2  1  0.500000  0.000000  0.000000  1
  Cu  Cu3  1  0.214486  0.061223  0.999996  1
  Cu  Cu4  1  0.939678  0.199338  0.000002  1
  Cu  Cu5  1  0.438776  0.285512  0.000002  1
  Cu  Cu6  1  0.699338  0.439679  0.000002  1
  Cu  Cu7  1  0.000000  0.500000  0.000000  1
  Cu  Cu8  1  0.300661  0.560322  0.999998  1
  Cu  Cu9  1  0.561224  0.714485  0.999997  1
  Cu  Cu10  1  0.060321  0.800661  0.999998  1
  Cu  Cu11  1  0.785513  0.938776  0.000002  1
  Cu  Cu12  1  0.797802  0.060852  0.358659  1
  Cu  Cu13  1  0.560853  0.297803  0.358660  1
  Cu  Cu14  1  0.056494  0.556494  0.364609  1
  Cu  Cu15  1  0.308116  0.808116  0.364606  1
  Cu  Cu16  1  0.691883  0.191883  0.635394  1
  Cu  Cu17  1  0.943507  0.443507  0.635391  1
  Cu  Cu18  1  0.439148  0.702197  0.641340  1
  Cu  Cu19  1  0.202197  0.939147  0.641339  1
  Si  Si20  1  0.790654  0.290654  0.230726  1
  Si  Si21  1  0.294766  0.442520  0.237286  1
  Si  Si22  1  0.942520  0.794766  0.237286  1
  Si  Si23  1  0.440065  0.940065  0.230725  1
  Si  Si24  1  0.559934  0.059935  0.769275  1
  Si  Si25  1  0.057480  0.205234  0.762714  1
  Si  Si26  1  0.705234  0.557479  0.762714  1
  Si  Si27  1  0.209346  0.709346  0.769274  1
