# generated using pymatgen
data_Zr4TiSn3P
_symmetry_space_group_name_H-M   'P 1'
_cell_length_a   8.56514700
_cell_length_b   8.56514635
_cell_length_c   5.87294000
_cell_angle_alpha   90.00000000
_cell_angle_beta   90.00000000
_cell_angle_gamma   119.99999094
_symmetry_Int_Tables_number   1
_chemical_formula_structural   Zr4TiSn3P
_chemical_formula_sum   'Zr8 Ti2 Sn6 P2'
_cell_volume   373.12628498
_cell_formula_units_Z   2
loop_
 _symmetry_equiv_pos_site_id
 _symmetry_equiv_pos_as_xyz
  1  'x, y, z'
loop_
 _atom_site_type_symbol
 _atom_site_label
 _atom_site_symmetry_multiplicity
 _atom_site_fract_x
 _atom_site_fract_y
 _atom_site_fract_z
 _atom_site_occupancy
  Zr  Zr0  1  0.333333  0.666667  0.500000  1
  Zr  Zr1  1  0.666667  0.333333  0.500000  1
  Zr  Zr2  1  0.748478  0.748478  0.748477  1
  Zr  Zr3  1  0.251522  0.000000  0.748477  1
  Zr  Zr4  1  0.000000  0.251522  0.748477  1
  Zr  Zr5  1  0.251522  0.251522  0.251523  1
  Zr  Zr6  1  0.748478  0.000000  0.251523  1
  Zr  Zr7  1  0.000000  0.748478  0.251523  1
  Ti  Ti8  1  0.666667  0.333333  0.000000  1
  Ti  Ti9  1  0.333333  0.666667  0.000000  1
  Sn  Sn10  1  0.401028  0.401028  0.759718  1
  Sn  Sn11  1  0.598972  0.000000  0.759718  1
  Sn  Sn12  1  0.000000  0.598972  0.759718  1
  Sn  Sn13  1  0.598972  0.598972  0.240282  1
  Sn  Sn14  1  0.401028  0.000000  0.240282  1
  Sn  Sn15  1  0.000000  0.401028  0.240282  1
  P  P16  1  0.000000  0.000000  0.000000  1
  P  P17  1  0.000000  0.000000  0.500000  1
