# generated using pymatgen
data_Y8Sb(Pd2Pt)8
_symmetry_space_group_name_H-M   'P 1'
_cell_length_a   8.41941500
_cell_length_b   8.42553100
_cell_length_c   8.42553100
_cell_angle_alpha   90.00000000
_cell_angle_beta   90.00000000
_cell_angle_gamma   90.00000000
_symmetry_Int_Tables_number   1
_chemical_formula_structural   Y8Sb(Pd2Pt)8
_chemical_formula_sum   'Y8 Sb1 Pd16 Pt8'
_cell_volume   597.69067266
_cell_formula_units_Z   1
loop_
 _symmetry_equiv_pos_site_id
 _symmetry_equiv_pos_as_xyz
  1  'x, y, z'
loop_
 _atom_site_type_symbol
 _atom_site_label
 _atom_site_symmetry_multiplicity
 _atom_site_fract_x
 _atom_site_fract_y
 _atom_site_fract_z
 _atom_site_occupancy
  Y  Y0  1  0.745962  0.745856  0.254144  1
  Y  Y1  1  0.745962  0.254144  0.745856  1
  Y  Y2  1  0.254168  0.745416  0.745416  1
  Y  Y3  1  0.745962  0.745856  0.745856  1
  Y  Y4  1  0.745962  0.254144  0.254144  1
  Y  Y5  1  0.254168  0.254584  0.745416  1
  Y  Y6  1  0.254168  0.745416  0.254584  1
  Y  Y7  1  0.254168  0.254584  0.254584  1
  Sb  Sb8  1  0.999581  0.000000  0.000000  1
  Pd  Pd9  1  0.000260  0.000000  0.305810  1
  Pd  Pd10  1  0.499691  0.000000  0.735741  1
  Pd  Pd11  1  0.999960  0.735501  0.500000  1
  Pd  Pd12  1  0.499691  0.000000  0.264259  1
  Pd  Pd13  1  0.999960  0.264499  0.500000  1
  Pd  Pd14  1  0.499691  0.735741  0.000000  1
  Pd  Pd15  1  0.305735  0.000000  0.000000  1
  Pd  Pd16  1  0.000260  0.000000  0.694190  1
  Pd  Pd17  1  0.999960  0.500000  0.264499  1
  Pd  Pd18  1  0.000260  0.305810  0.000000  1
  Pd  Pd19  1  0.000260  0.694190  0.000000  1
  Pd  Pd20  1  0.693649  0.000000  0.000000  1
  Pd  Pd21  1  0.264136  0.500000  0.000000  1
  Pd  Pd22  1  0.264136  0.000000  0.500000  1
  Pd  Pd23  1  0.999960  0.500000  0.735501  1
  Pd  Pd24  1  0.499691  0.264259  0.000000  1
  Pt  Pt25  1  0.735720  0.000000  0.500000  1
  Pt  Pt26  1  0.735720  0.500000  0.000000  1
  Pt  Pt27  1  0.254360  0.500000  0.500000  1
  Pt  Pt28  1  0.500121  0.500000  0.746329  1
  Pt  Pt29  1  0.500121  0.500000  0.253671  1
  Pt  Pt30  1  0.500121  0.253671  0.500000  1
  Pt  Pt31  1  0.500121  0.746329  0.500000  1
  Pt  Pt32  1  0.746317  0.500000  0.500000  1
