# generated using pymatgen
data_Dy2Ho4C3Cl5
_symmetry_space_group_name_H-M   'P 1'
_cell_length_a   3.64513907
_cell_length_b   8.29489503
_cell_length_c   10.23282156
_cell_angle_alpha   85.50058809
_cell_angle_beta   79.67154373
_cell_angle_gamma   77.33155982
_symmetry_Int_Tables_number   1
_chemical_formula_structural   Dy2Ho4C3Cl5
_chemical_formula_sum   'Dy2 Ho4 C3 Cl5'
_cell_volume   296.72957178
_cell_formula_units_Z   1
loop_
 _symmetry_equiv_pos_site_id
 _symmetry_equiv_pos_as_xyz
  1  'x, y, z'
loop_
 _atom_site_type_symbol
 _atom_site_label
 _atom_site_symmetry_multiplicity
 _atom_site_fract_x
 _atom_site_fract_y
 _atom_site_fract_z
 _atom_site_occupancy
  Dy  Dy0  1  0.321220  0.818229  0.543340  1
  Dy  Dy1  1  0.431789  0.923581  0.218345  1
  Ho  Ho2  1  0.573363  0.074705  0.779258  1
  Ho  Ho3  1  0.958656  0.428738  0.656364  1
  Ho  Ho4  1  0.683830  0.179231  0.455943  1
  Ho  Ho5  1  0.046248  0.568967  0.341948  1
  C  C6  1  0.126978  0.123337  0.625567  1
  C  C7  1  0.877706  0.875320  0.373224  1
  C  C8  1  0.502540  0.498666  0.499159  1
  Cl  Cl9  1  0.753213  0.745297  0.754819  1
  Cl  Cl10  1  0.378942  0.379140  0.866974  1
  Cl  Cl11  1  0.252148  0.252923  0.244715  1
  Cl  Cl12  1  0.626814  0.617507  0.131440  1
  Cl  Cl13  1  0.003773  0.997950  0.998221  1
