# generated using pymatgen
data_Y9TmSe10
_symmetry_space_group_name_H-M   'P 1'
_cell_length_a   7.03575606
_cell_length_b   8.15159670
_cell_length_c   9.15952500
_cell_angle_alpha   103.35815762
_cell_angle_beta   97.09495439
_cell_angle_gamma   106.69819410
_symmetry_Int_Tables_number   1
_chemical_formula_structural   Y9TmSe10
_chemical_formula_sum   'Y9 Tm1 Se10'
_cell_volume   479.28591790
_cell_formula_units_Z   1
loop_
 _symmetry_equiv_pos_site_id
 _symmetry_equiv_pos_as_xyz
  1  'x, y, z'
loop_
 _atom_site_type_symbol
 _atom_site_label
 _atom_site_symmetry_multiplicity
 _atom_site_fract_x
 _atom_site_fract_y
 _atom_site_fract_z
 _atom_site_occupancy
  Y  Y0  1  0.799090  0.599589  0.598033  1
  Y  Y1  1  0.595644  0.197148  0.198379  1
  Y  Y2  1  0.404356  0.802852  0.801621  1
  Y  Y3  1  0.600270  0.701809  0.200602  1
  Y  Y4  1  0.200910  0.400411  0.401967  1
  Y  Y5  1  0.399730  0.298191  0.799398  1
  Y  Y6  1  0.000000  0.000000  0.000000  1
  Y  Y7  1  0.202457  0.901460  0.400394  1
  Y  Y8  1  0.797543  0.098540  0.599606  1
  Tm  Tm9  1  0.000000  0.500000  0.000000  1
  Se  Se10  1  0.703432  0.647726  0.900582  1
  Se  Se11  1  0.500639  0.250606  0.499806  1
  Se  Se12  1  0.704731  0.154876  0.901541  1
  Se  Se13  1  0.295269  0.845124  0.098459  1
  Se  Se14  1  0.499361  0.749394  0.500194  1
  Se  Se15  1  0.099271  0.451327  0.703953  1
  Se  Se16  1  0.296568  0.352274  0.099418  1
  Se  Se17  1  0.900380  0.051125  0.300257  1
  Se  Se18  1  0.099620  0.948875  0.699743  1
  Se  Se19  1  0.900729  0.548673  0.296047  1
