# generated using pymatgen
data_Sc4Be8Ir3Ru7
_symmetry_space_group_name_H-M   'P 1'
_cell_length_a   3.19903500
_cell_length_b   8.57960013
_cell_length_c   10.24483140
_cell_angle_alpha   89.85388293
_cell_angle_beta   90.00000000
_cell_angle_gamma   90.00000000
_symmetry_Int_Tables_number   1
_chemical_formula_structural   Sc4Be8Ir3Ru7
_chemical_formula_sum   'Sc4 Be8 Ir3 Ru7'
_cell_volume   281.18324733
_cell_formula_units_Z   1
loop_
 _symmetry_equiv_pos_site_id
 _symmetry_equiv_pos_as_xyz
  1  'x, y, z'
loop_
 _atom_site_type_symbol
 _atom_site_label
 _atom_site_symmetry_multiplicity
 _atom_site_fract_x
 _atom_site_fract_y
 _atom_site_fract_z
 _atom_site_occupancy
  Sc  Sc0  1  0.500000  0.841188  0.185931  1
  Sc  Sc1  1  0.500000  0.159040  0.815419  1
  Sc  Sc2  1  0.500000  0.658944  0.681617  1
  Sc  Sc3  1  0.500000  0.340379  0.316452  1
  Be  Be4  1  0.500000  0.964192  0.594536  1
  Be  Be5  1  0.500000  0.036101  0.406098  1
  Be  Be6  1  0.500000  0.845906  0.901124  1
  Be  Be7  1  0.500000  0.157483  0.098149  1
  Be  Be8  1  0.500000  0.656623  0.401907  1
  Be  Be9  1  0.500000  0.343284  0.598042  1
  Be  Be10  1  0.500000  0.462768  0.904923  1
  Be  Be11  1  0.500000  0.533870  0.096054  1
  Ir  Ir12  1  0.000000  0.659845  0.954673  1
  Ir  Ir13  1  0.000000  0.999883  0.000613  1
  Ir  Ir14  1  0.000000  0.499312  0.499329  1
  Ru  Ru15  1  0.000000  0.342062  0.044668  1
  Ru  Ru16  1  0.000000  0.841121  0.455090  1
  Ru  Ru17  1  0.000000  0.159041  0.545492  1
  Ru  Ru18  1  0.000000  0.403814  0.757069  1
  Ru  Ru19  1  0.000000  0.596827  0.242696  1
  Ru  Ru20  1  0.000000  0.902314  0.742674  1
  Ru  Ru21  1  0.000000  0.096002  0.257444  1
