# generated using pymatgen
data_CaDy6NiI12
_symmetry_space_group_name_H-M   'P 1'
_cell_length_a   9.75193593
_cell_length_b   9.75193637
_cell_length_c   9.75193804
_cell_angle_alpha   106.85946881
_cell_angle_beta   106.85947605
_cell_angle_gamma   106.85947546
_symmetry_Int_Tables_number   1
_chemical_formula_structural   CaDy6NiI12
_chemical_formula_sum   'Ca1 Dy6 Ni1 I12'
_cell_volume   775.29915377
_cell_formula_units_Z   1
loop_
 _symmetry_equiv_pos_site_id
 _symmetry_equiv_pos_as_xyz
  1  'x, y, z'
loop_
 _atom_site_type_symbol
 _atom_site_label
 _atom_site_symmetry_multiplicity
 _atom_site_fract_x
 _atom_site_fract_y
 _atom_site_fract_z
 _atom_site_occupancy
  Ca  Ca0  1  0.500000  0.500000  0.500000  1
  Dy  Dy1  1  0.904657  0.974750  0.706886  1
  Dy  Dy2  1  0.706886  0.904657  0.974750  1
  Dy  Dy3  1  0.974750  0.706886  0.904657  1
  Dy  Dy4  1  0.095343  0.025250  0.293114  1
  Dy  Dy5  1  0.293114  0.095343  0.025250  1
  Dy  Dy6  1  0.025250  0.293114  0.095343  1
  Ni  Ni7  1  0.000000  0.000000  0.000000  1
  I  I8  1  0.926722  0.320245  0.776650  1
  I  I9  1  0.776650  0.926722  0.320245  1
  I  I10  1  0.320245  0.776650  0.926722  1
  I  I11  1  0.073278  0.679755  0.223350  1
  I  I12  1  0.223350  0.073278  0.679755  1
  I  I13  1  0.679755  0.223350  0.073278  1
  I  I14  1  0.542696  0.850132  0.620474  1
  I  I15  1  0.620474  0.542696  0.850132  1
  I  I16  1  0.850132  0.620474  0.542696  1
  I  I17  1  0.457304  0.149868  0.379526  1
  I  I18  1  0.379526  0.457304  0.149868  1
  I  I19  1  0.149868  0.379526  0.457304  1
