# generated using pymatgen
data_La8Sm11HoPb16
_symmetry_space_group_name_H-M   'P 1'
_cell_length_a   8.50931300
_cell_length_b   8.63940402
_cell_length_c   16.28261100
_cell_angle_alpha   90.00000000
_cell_angle_beta   90.00000000
_cell_angle_gamma   90.15841009
_symmetry_Int_Tables_number   1
_chemical_formula_structural   La8Sm11HoPb16
_chemical_formula_sum   'La8 Sm11 Ho1 Pb16'
_cell_volume   1197.01797070
_cell_formula_units_Z   1
loop_
 _symmetry_equiv_pos_site_id
 _symmetry_equiv_pos_as_xyz
  1  'x, y, z'
loop_
 _atom_site_type_symbol
 _atom_site_label
 _atom_site_symmetry_multiplicity
 _atom_site_fract_x
 _atom_site_fract_y
 _atom_site_fract_z
 _atom_site_occupancy
  La  La0  1  0.478153  0.678714  0.597846  1
  La  La1  1  0.978331  0.821182  0.902366  1
  La  La2  1  0.522060  0.320503  0.097962  1
  La  La3  1  0.021439  0.178235  0.402012  1
  La  La4  1  0.522060  0.320503  0.402038  1
  La  La5  1  0.021439  0.178235  0.097988  1
  La  La6  1  0.478153  0.678714  0.902154  1
  La  La7  1  0.978331  0.821182  0.597634  1
  Sm  Sm8  1  0.635541  0.157492  0.620759  1
  Sm  Sm9  1  0.135593  0.342417  0.878836  1
  Sm  Sm10  1  0.364897  0.843019  0.121418  1
  Sm  Sm11  1  0.863895  0.657725  0.378474  1
  Sm  Sm12  1  0.364897  0.843019  0.378582  1
  Sm  Sm13  1  0.863895  0.657725  0.121526  1
  Sm  Sm14  1  0.635541  0.157492  0.879241  1
  Sm  Sm15  1  0.135593  0.342417  0.621164  1
  Sm  Sm16  1  0.801482  0.496802  0.750000  1
  Sm  Sm17  1  0.301418  0.003572  0.750000  1
  Sm  Sm18  1  0.198631  0.503087  0.250000  1
  Ho  Ho19  1  0.699383  0.995618  0.250000  1
  Pb  Pb20  1  0.706532  0.960912  0.454698  1
  Pb  Pb21  1  0.206002  0.539488  0.044289  1
  Pb  Pb22  1  0.293680  0.039742  0.956067  1
  Pb  Pb23  1  0.793623  0.461045  0.544076  1
  Pb  Pb24  1  0.293680  0.039742  0.543933  1
  Pb  Pb25  1  0.793623  0.461045  0.955924  1
  Pb  Pb26  1  0.706532  0.960912  0.045302  1
  Pb  Pb27  1  0.206002  0.539488  0.455711  1
  Pb  Pb28  1  0.439776  0.371690  0.750000  1
  Pb  Pb29  1  0.939289  0.128029  0.750000  1
  Pb  Pb30  1  0.560900  0.630099  0.250000  1
  Pb  Pb31  1  0.058479  0.872571  0.250000  1
  Pb  Pb32  1  0.667488  0.851481  0.750000  1
  Pb  Pb33  1  0.167613  0.649059  0.750000  1
  Pb  Pb34  1  0.333708  0.148670  0.250000  1
  Pb  Pb35  1  0.832336  0.348373  0.250000  1
