# generated using pymatgen
data_Yb3Y2(Ni2Sn5)2
_symmetry_space_group_name_H-M   'P 1'
_cell_length_a   13.96869700
_cell_length_b   13.96869700
_cell_length_c   4.46264800
_cell_angle_alpha   90.00000000
_cell_angle_beta   90.00000000
_cell_angle_gamma   90.00000000
_symmetry_Int_Tables_number   1
_chemical_formula_structural   Yb3Y2(Ni2Sn5)2
_chemical_formula_sum   'Yb6 Y4 Ni8 Sn20'
_cell_volume   870.77194128
_cell_formula_units_Z   2
loop_
 _symmetry_equiv_pos_site_id
 _symmetry_equiv_pos_as_xyz
  1  'x, y, z'
loop_
 _atom_site_type_symbol
 _atom_site_label
 _atom_site_symmetry_multiplicity
 _atom_site_fract_x
 _atom_site_fract_y
 _atom_site_fract_z
 _atom_site_occupancy
  Yb  Yb0  1  0.000000  0.000000  0.000000  1
  Yb  Yb1  1  0.500000  0.500000  0.000000  1
  Yb  Yb2  1  0.893034  0.606966  0.500000  1
  Yb  Yb3  1  0.106966  0.393034  0.500000  1
  Yb  Yb4  1  0.393034  0.893034  0.500000  1
  Yb  Yb5  1  0.606966  0.106966  0.500000  1
  Y  Y6  1  0.181004  0.681004  0.500000  1
  Y  Y7  1  0.818996  0.318996  0.500000  1
  Y  Y8  1  0.681004  0.818996  0.500000  1
  Y  Y9  1  0.318996  0.181004  0.500000  1
  Ni  Ni10  1  0.254862  0.536749  0.000000  1
  Ni  Ni11  1  0.745138  0.463251  0.000000  1
  Ni  Ni12  1  0.754862  0.963251  0.000000  1
  Ni  Ni13  1  0.245138  0.036749  0.000000  1
  Ni  Ni14  1  0.463251  0.254862  0.000000  1
  Ni  Ni15  1  0.536749  0.745138  0.000000  1
  Ni  Ni16  1  0.036749  0.754862  0.000000  1
  Ni  Ni17  1  0.963251  0.245138  0.000000  1
  Sn  Sn18  1  0.354077  0.701706  0.000000  1
  Sn  Sn19  1  0.645923  0.298294  0.000000  1
  Sn  Sn20  1  0.854077  0.798294  0.000000  1
  Sn  Sn21  1  0.145923  0.201706  0.000000  1
  Sn  Sn22  1  0.298294  0.354077  0.000000  1
  Sn  Sn23  1  0.701706  0.645923  0.000000  1
  Sn  Sn24  1  0.201706  0.854077  0.000000  1
  Sn  Sn25  1  0.798294  0.145923  0.000000  1
  Sn  Sn26  1  0.338028  0.514000  0.500000  1
  Sn  Sn27  1  0.661972  0.486000  0.500000  1
  Sn  Sn28  1  0.838028  0.986000  0.500000  1
  Sn  Sn29  1  0.161972  0.014000  0.500000  1
  Sn  Sn30  1  0.486000  0.338028  0.500000  1
  Sn  Sn31  1  0.514000  0.661972  0.500000  1
  Sn  Sn32  1  0.014000  0.838028  0.500000  1
  Sn  Sn33  1  0.986000  0.161972  0.500000  1
  Sn  Sn34  1  0.071409  0.571409  0.000000  1
  Sn  Sn35  1  0.928591  0.428591  0.000000  1
  Sn  Sn36  1  0.571409  0.928591  0.000000  1
  Sn  Sn37  1  0.428591  0.071409  0.000000  1
