# generated using pymatgen
data_Lu5Th(SiPd)6
_symmetry_space_group_name_H-M   'P 1'
_cell_length_a   4.33846600
_cell_length_b   7.38062949
_cell_length_c   21.23564200
_cell_angle_alpha   89.91308549
_cell_angle_beta   90.00000000
_cell_angle_gamma   90.00000000
_symmetry_Int_Tables_number   1
_chemical_formula_structural   Lu5Th(SiPd)6
_chemical_formula_sum   'Lu10 Th2 Si12 Pd12'
_cell_volume   679.97743054
_cell_formula_units_Z   2
loop_
 _symmetry_equiv_pos_site_id
 _symmetry_equiv_pos_as_xyz
  1  'x, y, z'
loop_
 _atom_site_type_symbol
 _atom_site_label
 _atom_site_symmetry_multiplicity
 _atom_site_fract_x
 _atom_site_fract_y
 _atom_site_fract_z
 _atom_site_occupancy
  Lu  Lu0  1  0.250000  0.715238  0.323715  1
  Lu  Lu1  1  0.750000  0.284762  0.676285  1
  Lu  Lu2  1  0.750000  0.206123  0.162426  1
  Lu  Lu3  1  0.250000  0.793877  0.837574  1
  Lu  Lu4  1  0.250000  0.791599  0.161917  1
  Lu  Lu5  1  0.750000  0.208401  0.838083  1
  Lu  Lu6  1  0.750000  0.287326  0.324468  1
  Lu  Lu7  1  0.250000  0.712674  0.675532  1
  Lu  Lu8  1  0.250000  0.708162  0.000235  1
  Lu  Lu9  1  0.750000  0.291838  0.999765  1
  Th  Th10  1  0.750000  0.237978  0.497313  1
  Th  Th11  1  0.250000  0.762022  0.502687  1
  Si  Si12  1  0.250000  0.089332  0.070708  1
  Si  Si13  1  0.750000  0.910668  0.929292  1
  Si  Si14  1  0.750000  0.590993  0.414553  1
  Si  Si15  1  0.250000  0.409007  0.585447  1
  Si  Si16  1  0.250000  0.084910  0.263320  1
  Si  Si17  1  0.750000  0.915090  0.736680  1
  Si  Si18  1  0.750000  0.585423  0.222974  1
  Si  Si19  1  0.250000  0.414577  0.777026  1
  Si  Si20  1  0.250000  0.081652  0.390552  1
  Si  Si21  1  0.750000  0.918348  0.609448  1
  Si  Si22  1  0.750000  0.589492  0.100667  1
  Si  Si23  1  0.250000  0.410508  0.899333  1
  Pd  Pd24  1  0.250000  0.418149  0.232619  1
  Pd  Pd25  1  0.750000  0.581851  0.767381  1
  Pd  Pd26  1  0.750000  0.916657  0.256580  1
  Pd  Pd27  1  0.250000  0.083343  0.743420  1
  Pd  Pd28  1  0.250000  0.418638  0.412394  1
  Pd  Pd29  1  0.750000  0.581362  0.587606  1
  Pd  Pd30  1  0.750000  0.918164  0.058901  1
  Pd  Pd31  1  0.250000  0.081836  0.941099  1
  Pd  Pd32  1  0.250000  0.421305  0.091513  1
  Pd  Pd33  1  0.750000  0.578695  0.908487  1
  Pd  Pd34  1  0.750000  0.923092  0.400319  1
  Pd  Pd35  1  0.250000  0.076908  0.599681  1
