# generated using pymatgen
data_Tb5TmSi24Os5Ru3
_symmetry_space_group_name_H-M   'P 1'
_cell_length_a   10.13141218
_cell_length_b   10.13141523
_cell_length_c   8.17016545
_cell_angle_alpha   90.01521730
_cell_angle_beta   90.01524815
_cell_angle_gamma   132.44738514
_symmetry_Int_Tables_number   1
_chemical_formula_structural   Tb5TmSi24Os5Ru3
_chemical_formula_sum   'Tb5 Tm1 Si24 Os5 Ru3'
_cell_volume   618.82357398
_cell_formula_units_Z   1
loop_
 _symmetry_equiv_pos_site_id
 _symmetry_equiv_pos_as_xyz
  1  'x, y, z'
loop_
 _atom_site_type_symbol
 _atom_site_label
 _atom_site_symmetry_multiplicity
 _atom_site_fract_x
 _atom_site_fract_y
 _atom_site_fract_z
 _atom_site_occupancy
  Tb  Tb0  1  0.999965  0.999965  0.999693  1
  Tb  Tb1  1  0.501934  0.001808  0.749467  1
  Tb  Tb2  1  0.998041  0.498121  0.250510  1
  Tb  Tb3  1  0.498121  0.998041  0.250510  1
  Tb  Tb4  1  0.001808  0.501933  0.749466  1
  Tm  Tm5  1  0.499615  0.499615  0.500094  1
  Si  Si6  1  0.795612  0.204615  0.500175  1
  Si  Si7  1  0.295987  0.703965  0.000154  1
  Si  Si8  1  0.204615  0.795612  0.500176  1
  Si  Si9  1  0.703965  0.295987  0.000154  1
  Si  Si10  1  0.333347  0.333347  0.833186  1
  Si  Si11  1  0.667158  0.667158  0.167301  1
  Si  Si12  1  0.166526  0.166526  0.331628  1
  Si  Si13  1  0.831097  0.831097  0.665841  1
  Si  Si14  1  0.121030  0.886741  0.727946  1
  Si  Si15  1  0.113600  0.879939  0.272198  1
  Si  Si16  1  0.610738  0.378071  0.228690  1
  Si  Si17  1  0.622497  0.389330  0.771509  1
  Si  Si18  1  0.879939  0.113600  0.272198  1
  Si  Si19  1  0.886741  0.121031  0.727946  1
  Si  Si20  1  0.389330  0.622498  0.771509  1
  Si  Si21  1  0.378071  0.610738  0.228690  1
  Si  Si22  1  0.345317  0.111955  0.504450  1
  Si  Si23  1  0.887875  0.655171  0.496039  1
  Si  Si24  1  0.388201  0.155039  0.005875  1
  Si  Si25  1  0.844899  0.612271  0.994521  1
  Si  Si26  1  0.655171  0.887875  0.496039  1
  Si  Si27  1  0.111955  0.345317  0.504450  1
  Si  Si28  1  0.612271  0.844899  0.994521  1
  Si  Si29  1  0.155039  0.388201  0.005875  1
  Os  Os30  1  0.668753  0.331317  0.499918  1
  Os  Os31  1  0.169853  0.829960  0.000017  1
  Os  Os32  1  0.331317  0.668753  0.499918  1
  Os  Os33  1  0.829960  0.169854  0.000016  1
  Os  Os34  1  0.127506  0.127505  0.625660  1
  Ru  Ru35  1  0.872374  0.872374  0.373968  1
  Ru  Ru36  1  0.373434  0.373434  0.128981  1
  Ru  Ru37  1  0.626345  0.626344  0.870711  1
