# generated using pymatgen
data_NdAs12IrRu3
_symmetry_space_group_name_H-M   'P 1'
_cell_length_a   7.46003883
_cell_length_b   7.47187224
_cell_length_c   7.46003902
_cell_angle_alpha   109.50336159
_cell_angle_beta   109.43905724
_cell_angle_gamma   109.50335312
_symmetry_Int_Tables_number   1
_chemical_formula_structural   NdAs12IrRu3
_chemical_formula_sum   'Nd1 As12 Ir1 Ru3'
_cell_volume   319.97597791
_cell_formula_units_Z   1
loop_
 _symmetry_equiv_pos_site_id
 _symmetry_equiv_pos_as_xyz
  1  'x, y, z'
loop_
 _atom_site_type_symbol
 _atom_site_label
 _atom_site_symmetry_multiplicity
 _atom_site_fract_x
 _atom_site_fract_y
 _atom_site_fract_z
 _atom_site_occupancy
  Nd  Nd0  1  0.000000  0.000000  0.000000  1
  As  As1  1  0.346615  0.196577  0.850318  1
  As  As2  1  0.653385  0.803423  0.149682  1
  As  As3  1  0.650053  0.503823  0.849740  1
  As  As4  1  0.349947  0.496177  0.150260  1
  As  As5  1  0.199687  0.853770  0.349947  1
  As  As6  1  0.800313  0.146230  0.650053  1
  As  As7  1  0.503703  0.849961  0.653385  1
  As  As8  1  0.496297  0.150039  0.346615  1
  As  As9  1  0.849740  0.345918  0.199687  1
  As  As10  1  0.150260  0.654082  0.800313  1
  As  As11  1  0.850318  0.653742  0.503703  1
  As  As12  1  0.149682  0.346258  0.496297  1
  Ir  Ir13  1  0.000000  0.500000  0.000000  1
  Ru  Ru14  1  0.000000  0.000000  0.500000  1
  Ru  Ru15  1  0.500000  0.000000  0.000000  1
  Ru  Ru16  1  0.500000  0.500000  0.500000  1
