# generated using pymatgen
data_LiTb16Cd3Co4
_symmetry_space_group_name_H-M   'P 1'
_cell_length_a   9.55099809
_cell_length_b   9.55099846
_cell_length_c   9.58494400
_cell_angle_alpha   60.11708800
_cell_angle_beta   60.11708989
_cell_angle_gamma   60.00000550
_symmetry_Int_Tables_number   1
_chemical_formula_structural   LiTb16Cd3Co4
_chemical_formula_sum   'Li1 Tb16 Cd3 Co4'
_cell_volume   619.35334065
_cell_formula_units_Z   1
loop_
 _symmetry_equiv_pos_site_id
 _symmetry_equiv_pos_as_xyz
  1  'x, y, z'
loop_
 _atom_site_type_symbol
 _atom_site_label
 _atom_site_symmetry_multiplicity
 _atom_site_fract_x
 _atom_site_fract_y
 _atom_site_fract_z
 _atom_site_occupancy
  Li  Li0  1  0.822592  0.822592  0.532222  1
  Tb  Tb1  1  0.438109  0.438109  0.061185  1
  Tb  Tb2  1  0.594845  0.594845  0.596904  1
  Tb  Tb3  1  0.187097  0.812808  0.812997  1
  Tb  Tb4  1  0.064327  0.064327  0.436777  1
  Tb  Tb5  1  0.438109  0.062598  0.061185  1
  Tb  Tb6  1  0.812808  0.187097  0.812997  1
  Tb  Tb7  1  0.434569  0.064327  0.436777  1
  Tb  Tb8  1  0.594845  0.213407  0.596904  1
  Tb  Tb9  1  0.812855  0.812855  0.185936  1
  Tb  Tb10  1  0.213407  0.594845  0.596904  1
  Tb  Tb11  1  0.812855  0.188355  0.185936  1
  Tb  Tb12  1  0.064327  0.434569  0.436777  1
  Tb  Tb13  1  0.188355  0.812855  0.185936  1
  Tb  Tb14  1  0.596908  0.596908  0.209276  1
  Tb  Tb15  1  0.187097  0.187097  0.812997  1
  Tb  Tb16  1  0.062598  0.438109  0.061185  1
  Cd  Cd17  1  0.831184  0.831184  0.827187  1
  Cd  Cd18  1  0.510444  0.831184  0.827187  1
  Cd  Cd19  1  0.831184  0.510444  0.827187  1
  Co  Co20  1  0.391646  0.391646  0.389403  1
  Co  Co21  1  0.827306  0.391646  0.389403  1
  Co  Co22  1  0.391646  0.827306  0.389403  1
  Co  Co23  1  0.390889  0.390889  0.827333  1
