# generated using pymatgen
data_K(ZrTe3)2
_symmetry_space_group_name_H-M   'P 1'
_cell_length_a   12.44147420
_cell_length_b   12.44147473
_cell_length_c   12.44147429
_cell_angle_alpha   161.05883778
_cell_angle_beta   152.12934118
_cell_angle_gamma   33.91589176
_symmetry_Int_Tables_number   1
_chemical_formula_structural   K(ZrTe3)2
_chemical_formula_sum   'K1 Zr2 Te6'
_cell_volume   291.97666166
_cell_formula_units_Z   1
loop_
 _symmetry_equiv_pos_site_id
 _symmetry_equiv_pos_as_xyz
  1  'x, y, z'
loop_
 _atom_site_type_symbol
 _atom_site_label
 _atom_site_symmetry_multiplicity
 _atom_site_fract_x
 _atom_site_fract_y
 _atom_site_fract_z
 _atom_site_occupancy
  K  K0  1  0.000000  0.000000  0.000000  1
  Zr  Zr1  1  0.319847  0.819847  0.500000  1
  Zr  Zr2  1  0.680153  0.180153  0.500000  1
  Te  Te3  1  0.769661  0.769661  0.000000  1
  Te  Te4  1  0.853735  0.609703  0.244032  1
  Te  Te5  1  0.146265  0.390297  0.755968  1
  Te  Te6  1  0.230339  0.230339  0.000000  1
  Te  Te7  1  0.365671  0.609703  0.755968  1
  Te  Te8  1  0.634329  0.390297  0.244032  1
