# generated using pymatgen
data_TbU6NbF30
_symmetry_space_group_name_H-M   'P 1'
_cell_length_a   8.67359999
_cell_length_b   8.66841076
_cell_length_c   8.67360180
_cell_angle_alpha   100.25971212
_cell_angle_beta   100.54302581
_cell_angle_gamma   100.25972413
_symmetry_Int_Tables_number   1
_chemical_formula_structural   TbU6NbF30
_chemical_formula_sum   'Tb1 U6 Nb1 F30'
_cell_volume   615.73020533
_cell_formula_units_Z   1
loop_
 _symmetry_equiv_pos_site_id
 _symmetry_equiv_pos_as_xyz
  1  'x, y, z'
loop_
 _atom_site_type_symbol
 _atom_site_label
 _atom_site_symmetry_multiplicity
 _atom_site_fract_x
 _atom_site_fract_y
 _atom_site_fract_z
 _atom_site_occupancy
  Tb  Tb0  1  0.822386  0.250000  0.677614  1
  U  U1  1  0.179436  0.750000  0.320564  1
  U  U2  1  0.247053  0.676144  0.819732  1
  U  U3  1  0.680268  0.823856  0.252947  1
  U  U4  1  0.749662  0.750000  0.750338  1
  U  U5  1  0.322327  0.178507  0.747416  1
  U  U6  1  0.752584  0.321493  0.177673  1
  Nb  Nb7  1  0.250949  0.250000  0.249051  1
  F  F8  1  0.963352  0.537671  0.250614  1
  F  F9  1  0.810235  0.342385  0.443844  1
  F  F10  1  0.487640  0.723340  0.718547  1
  F  F11  1  0.349395  0.448105  0.814248  1
  F  F12  1  0.011507  0.781846  0.776379  1
  F  F13  1  0.750137  0.036195  0.463807  1
  F  F14  1  0.950649  0.848667  0.317776  1
  F  F15  1  0.225747  0.225315  0.011561  1
  F  F16  1  0.775676  0.005927  0.773597  1
  F  F17  1  0.316591  0.947331  0.846487  1
  F  F18  1  0.276388  0.274177  0.488356  1
  F  F19  1  0.448477  0.812821  0.348825  1
  F  F20  1  0.530913  0.250000  0.969087  1
  F  F21  1  0.272450  0.491174  0.273148  1
  F  F22  1  0.151175  0.687179  0.051523  1
  F  F23  1  0.840088  0.312887  0.948713  1
  F  F24  1  0.726403  0.494073  0.724324  1
  F  F25  1  0.461992  0.750000  0.038008  1
  F  F26  1  0.551287  0.187113  0.659912  1
  F  F27  1  0.723621  0.718154  0.488493  1
  F  F28  1  0.685752  0.051895  0.150605  1
  F  F29  1  0.226852  0.008826  0.227550  1
  F  F30  1  0.781453  0.776660  0.012360  1
  F  F31  1  0.056156  0.157615  0.689765  1
  F  F32  1  0.249386  0.962329  0.536648  1
  F  F33  1  0.011644  0.225823  0.223612  1
  F  F34  1  0.653513  0.552669  0.183409  1
  F  F35  1  0.488439  0.274685  0.274253  1
  F  F36  1  0.182224  0.651333  0.549351  1
  F  F37  1  0.036193  0.463805  0.749863  1
