# generated using pymatgen
data_SmHoTa4(B2Ru5)2
_symmetry_space_group_name_H-M   'P 1'
_cell_length_a   9.57734057
_cell_length_b   9.57734074
_cell_length_c   3.09298200
_cell_angle_alpha   90.00000000
_cell_angle_beta   90.00000000
_cell_angle_gamma   90.76937983
_symmetry_Int_Tables_number   1
_chemical_formula_structural   SmHoTa4(B2Ru5)2
_chemical_formula_sum   'Sm1 Ho1 Ta4 B4 Ru10'
_cell_volume   283.67960018
_cell_formula_units_Z   1
loop_
 _symmetry_equiv_pos_site_id
 _symmetry_equiv_pos_as_xyz
  1  'x, y, z'
loop_
 _atom_site_type_symbol
 _atom_site_label
 _atom_site_symmetry_multiplicity
 _atom_site_fract_x
 _atom_site_fract_y
 _atom_site_fract_z
 _atom_site_occupancy
  Sm  Sm0  1  0.824136  0.675864  0.000000  1
  Ho  Ho1  1  0.176698  0.323302  0.000000  1
  Ta  Ta2  1  0.324383  0.824417  0.000000  1
  Ta  Ta3  1  0.675583  0.175617  0.000000  1
  Ta  Ta4  1  0.498492  0.499444  0.000000  1
  Ta  Ta5  1  0.000556  0.001508  0.000000  1
  B  B6  1  0.619044  0.880956  0.000000  1
  B  B7  1  0.379293  0.120707  0.000000  1
  B  B8  1  0.122319  0.620962  0.000000  1
  B  B9  1  0.879038  0.377681  0.000000  1
  Ru  Ru10  1  0.557235  0.724079  0.500000  1
  Ru  Ru11  1  0.440062  0.276893  0.500000  1
  Ru  Ru12  1  0.084175  0.785957  0.500000  1
  Ru  Ru13  1  0.918449  0.214322  0.500000  1
  Ru  Ru14  1  0.285678  0.581551  0.500000  1
  Ru  Ru15  1  0.714043  0.415825  0.500000  1
  Ru  Ru16  1  0.223107  0.059938  0.500000  1
  Ru  Ru17  1  0.775921  0.942765  0.500000  1
  Ru  Ru18  1  0.499466  0.000534  0.500000  1
  Ru  Ru19  1  0.002322  0.497678  0.500000  1
