# generated using pymatgen
data_Ca8LaYbIr4
_symmetry_space_group_name_H-M   'P 1'
_cell_length_a   8.61228875
_cell_length_b   8.61228877
_cell_length_c   7.58715585
_cell_angle_alpha   82.80283905
_cell_angle_beta   82.80284075
_cell_angle_gamma   44.78861757
_symmetry_Int_Tables_number   1
_chemical_formula_structural   Ca8LaYbIr4
_chemical_formula_sum   'Ca8 La1 Yb1 Ir4'
_cell_volume   392.79764280
_cell_formula_units_Z   1
loop_
 _symmetry_equiv_pos_site_id
 _symmetry_equiv_pos_as_xyz
  1  'x, y, z'
loop_
 _atom_site_type_symbol
 _atom_site_label
 _atom_site_symmetry_multiplicity
 _atom_site_fract_x
 _atom_site_fract_y
 _atom_site_fract_z
 _atom_site_occupancy
  Ca  Ca0  1  0.025256  0.799840  0.913596  1
  Ca  Ca1  1  0.200160  0.974744  0.586404  1
  Ca  Ca2  1  0.974097  0.201355  0.076653  1
  Ca  Ca3  1  0.798645  0.025903  0.423347  1
  Ca  Ca4  1  0.364102  0.201967  0.821851  1
  Ca  Ca5  1  0.798033  0.635898  0.678149  1
  Ca  Ca6  1  0.643425  0.800264  0.178264  1
  Ca  Ca7  1  0.199736  0.356575  0.321736  1
  La  La8  1  0.430927  0.569073  0.250000  1
  Yb  Yb9  1  0.568903  0.431097  0.750000  1
  Ir  Ir10  1  0.182163  0.600907  0.573423  1
  Ir  Ir11  1  0.399093  0.817837  0.926577  1
  Ir  Ir12  1  0.814261  0.398802  0.417320  1
  Ir  Ir13  1  0.601198  0.185739  0.082680  1
