# generated using pymatgen
data_Na3B5PdPt8
_symmetry_space_group_name_H-M   'P 1'
_cell_length_a   6.39346800
_cell_length_b   6.39346777
_cell_length_c   15.22021400
_cell_angle_alpha   90.00000000
_cell_angle_beta   90.00000000
_cell_angle_gamma   128.03946390
_symmetry_Int_Tables_number   1
_chemical_formula_structural   Na3B5PdPt8
_chemical_formula_sum   'Na6 B10 Pd2 Pt16'
_cell_volume   489.99540387
_cell_formula_units_Z   2
loop_
 _symmetry_equiv_pos_site_id
 _symmetry_equiv_pos_as_xyz
  1  'x, y, z'
loop_
 _atom_site_type_symbol
 _atom_site_label
 _atom_site_symmetry_multiplicity
 _atom_site_fract_x
 _atom_site_fract_y
 _atom_site_fract_z
 _atom_site_occupancy
  Na  Na0  1  0.313794  0.686206  0.750000  1
  Na  Na1  1  0.686206  0.313794  0.250000  1
  Na  Na2  1  0.558922  0.441078  0.085663  1
  Na  Na3  1  0.441078  0.558922  0.914337  1
  Na  Na4  1  0.441078  0.558922  0.585663  1
  Na  Na5  1  0.558922  0.441078  0.414337  1
  B  B6  1  0.943528  0.056472  0.146590  1
  B  B7  1  0.056472  0.943528  0.853410  1
  B  B8  1  0.056472  0.943528  0.646590  1
  B  B9  1  0.943528  0.056472  0.353410  1
  B  B10  1  0.189122  0.810878  0.028193  1
  B  B11  1  0.810878  0.189122  0.971807  1
  B  B12  1  0.810878  0.189122  0.528193  1
  B  B13  1  0.189122  0.810878  0.471807  1
  B  B14  1  0.726988  0.273012  0.750000  1
  B  B15  1  0.273012  0.726988  0.250000  1
  Pd  Pd16  1  0.000000  0.000000  0.000000  1
  Pd  Pd17  1  0.000000  0.000000  0.500000  1
  Pt  Pt18  1  0.659970  0.830500  0.250000  1
  Pt  Pt19  1  0.830500  0.659970  0.750000  1
  Pt  Pt20  1  0.340030  0.169500  0.750000  1
  Pt  Pt21  1  0.169500  0.340030  0.250000  1
  Pt  Pt22  1  0.126905  0.873095  0.156668  1
  Pt  Pt23  1  0.873095  0.126905  0.843332  1
  Pt  Pt24  1  0.873095  0.126905  0.656668  1
  Pt  Pt25  1  0.126905  0.873095  0.343332  1
  Pt  Pt26  1  0.569105  0.938227  0.079229  1
  Pt  Pt27  1  0.938227  0.569105  0.920771  1
  Pt  Pt28  1  0.430895  0.061773  0.579229  1
  Pt  Pt29  1  0.061773  0.430895  0.420771  1
  Pt  Pt30  1  0.430895  0.061773  0.920771  1
  Pt  Pt31  1  0.061773  0.430895  0.079229  1
  Pt  Pt32  1  0.569105  0.938227  0.420771  1
  Pt  Pt33  1  0.938227  0.569105  0.579229  1
