# generated using pymatgen
data_TbDy(TcO4)6
_symmetry_space_group_name_H-M   'P 1'
_cell_length_a   10.03952200
_cell_length_b   10.03952278
_cell_length_c   6.09720100
_cell_angle_alpha   90.00000000
_cell_angle_beta   90.00000000
_cell_angle_gamma   119.99999741
_symmetry_Int_Tables_number   1
_chemical_formula_structural   TbDy(TcO4)6
_chemical_formula_sum   'Tb1 Dy1 Tc6 O24'
_cell_volume   532.21518388
_cell_formula_units_Z   1
loop_
 _symmetry_equiv_pos_site_id
 _symmetry_equiv_pos_as_xyz
  1  'x, y, z'
loop_
 _atom_site_type_symbol
 _atom_site_label
 _atom_site_symmetry_multiplicity
 _atom_site_fract_x
 _atom_site_fract_y
 _atom_site_fract_z
 _atom_site_occupancy
  Tb  Tb0  1  0.333333  0.666667  0.250000  1
  Dy  Dy1  1  0.666667  0.333333  0.750000  1
  Tc  Tc2  1  0.089382  0.391828  0.750000  1
  Tc  Tc3  1  0.393156  0.302351  0.250000  1
  Tc  Tc4  1  0.608172  0.697552  0.750000  1
  Tc  Tc5  1  0.909193  0.606844  0.250000  1
  Tc  Tc6  1  0.302448  0.910618  0.750000  1
  Tc  Tc7  1  0.697649  0.090807  0.250000  1
  O  O8  1  0.489758  0.644372  0.517946  1
  O  O9  1  0.355628  0.845387  0.517946  1
  O  O10  1  0.837769  0.729848  0.250000  1
  O  O11  1  0.108087  0.839609  0.750000  1
  O  O12  1  0.270152  0.107921  0.250000  1
  O  O13  1  0.160391  0.268478  0.750000  1
  O  O14  1  0.511842  0.355955  0.018154  1
  O  O15  1  0.892079  0.162231  0.250000  1
  O  O16  1  0.109110  0.709323  0.250000  1
  O  O17  1  0.154613  0.510242  0.982054  1
  O  O18  1  0.154613  0.510242  0.517946  1
  O  O19  1  0.889458  0.289735  0.750000  1
  O  O20  1  0.290677  0.399787  0.250000  1
  O  O21  1  0.710265  0.599722  0.750000  1
  O  O22  1  0.844115  0.488158  0.481846  1
  O  O23  1  0.400278  0.110542  0.750000  1
  O  O24  1  0.644045  0.155885  0.018154  1
  O  O25  1  0.489758  0.644372  0.982054  1
  O  O26  1  0.355628  0.845387  0.982054  1
  O  O27  1  0.644045  0.155885  0.481846  1
  O  O28  1  0.511842  0.355955  0.481846  1
  O  O29  1  0.844115  0.488158  0.018154  1
  O  O30  1  0.731522  0.891913  0.750000  1
  O  O31  1  0.600213  0.890890  0.250000  1
