# generated using pymatgen
data_Tm6Lu6GaCo4Bi
_symmetry_space_group_name_H-M   'P 1'
_cell_length_a   8.21824157
_cell_length_b   8.20689065
_cell_length_c   8.20689001
_cell_angle_alpha   111.48045480
_cell_angle_beta   109.41272570
_cell_angle_gamma   107.49184176
_symmetry_Int_Tables_number   1
_chemical_formula_structural   Tm6Lu6GaCo4Bi
_chemical_formula_sum   'Tm6 Lu6 Ga1 Co4 Bi1'
_cell_volume   425.86543439
_cell_formula_units_Z   1
loop_
 _symmetry_equiv_pos_site_id
 _symmetry_equiv_pos_as_xyz
  1  'x, y, z'
loop_
 _atom_site_type_symbol
 _atom_site_label
 _atom_site_symmetry_multiplicity
 _atom_site_fract_x
 _atom_site_fract_y
 _atom_site_fract_z
 _atom_site_occupancy
  Tm  Tm0  1  0.564559  0.270207  0.294352  1
  Tm  Tm1  1  0.435441  0.729793  0.705648  1
  Tm  Tm2  1  0.178185  0.777939  0.958049  1
  Tm  Tm3  1  0.821815  0.779864  0.599754  1
  Tm  Tm4  1  0.178185  0.220136  0.400246  1
  Tm  Tm5  1  0.821815  0.222061  0.041951  1
  Lu  Lu6  1  0.974905  0.269906  0.704997  1
  Lu  Lu7  1  0.025095  0.730094  0.295003  1
  Lu  Lu8  1  0.677311  0.859434  0.184971  1
  Lu  Lu9  1  0.322689  0.507662  0.182123  1
  Lu  Lu10  1  0.322689  0.140566  0.815029  1
  Lu  Lu11  1  0.677311  0.492338  0.817877  1
  Ga  Ga12  1  0.000000  0.500000  0.500000  1
  Co  Co13  1  0.113458  0.115641  0.997818  1
  Co  Co14  1  0.886542  0.884359  0.002182  1
  Co  Co15  1  0.656163  0.500554  0.155609  1
  Co  Co16  1  0.343837  0.499446  0.844391  1
  Bi  Bi17  1  0.500000  0.000000  0.500000  1
