# generated using pymatgen
data_Ti2MnCo4Si
_symmetry_space_group_name_H-M   'P 1'
_cell_length_a   7.12516249
_cell_length_b   7.12516245
_cell_length_c   7.12516331
_cell_angle_alpha   33.33556648
_cell_angle_beta   33.33556675
_cell_angle_gamma   33.33557217
_symmetry_Int_Tables_number   1
_chemical_formula_structural   Ti2MnCo4Si
_chemical_formula_sum   'Ti2 Mn1 Co4 Si1'
_cell_volume   97.26811761
_cell_formula_units_Z   1
loop_
 _symmetry_equiv_pos_site_id
 _symmetry_equiv_pos_as_xyz
  1  'x, y, z'
loop_
 _atom_site_type_symbol
 _atom_site_label
 _atom_site_symmetry_multiplicity
 _atom_site_fract_x
 _atom_site_fract_y
 _atom_site_fract_z
 _atom_site_occupancy
  Ti  Ti0  1  0.249873  0.249873  0.249873  1
  Ti  Ti1  1  0.750127  0.750127  0.750127  1
  Mn  Mn2  1  0.000000  0.000000  0.000000  1
  Co  Co3  1  0.873523  0.873523  0.873523  1
  Co  Co4  1  0.376684  0.376684  0.376684  1
  Co  Co5  1  0.126477  0.126477  0.126477  1
  Co  Co6  1  0.623316  0.623316  0.623316  1
  Si  Si7  1  0.500000  0.500000  0.500000  1
