# generated using pymatgen
data_Yb4Os2RuRhO12
_symmetry_space_group_name_H-M   'P 1'
_cell_length_a   5.24562419
_cell_length_b   5.66499307
_cell_length_c   7.65215781
_cell_angle_alpha   89.13480663
_cell_angle_beta   90.28384265
_cell_angle_gamma   90.18112580
_symmetry_Int_Tables_number   1
_chemical_formula_structural   Yb4Os2RuRhO12
_chemical_formula_sum   'Yb4 Os2 Ru1 Rh1 O12'
_cell_volume   227.36497254
_cell_formula_units_Z   1
loop_
 _symmetry_equiv_pos_site_id
 _symmetry_equiv_pos_as_xyz
  1  'x, y, z'
loop_
 _atom_site_type_symbol
 _atom_site_label
 _atom_site_symmetry_multiplicity
 _atom_site_fract_x
 _atom_site_fract_y
 _atom_site_fract_z
 _atom_site_occupancy
  Yb  Yb0  1  0.026988  0.427160  0.261796  1
  Yb  Yb1  1  0.973012  0.572840  0.738204  1
  Yb  Yb2  1  0.524679  0.077269  0.737754  1
  Yb  Yb3  1  0.475321  0.922731  0.262246  1
  Os  Os4  1  0.000000  0.000000  0.000000  1
  Os  Os5  1  0.500000  0.500000  0.000000  1
  Ru  Ru6  1  0.000000  0.000000  0.500000  1
  Rh  Rh7  1  0.500000  0.500000  0.500000  1
  O  O8  1  0.308434  0.199090  0.055378  1
  O  O9  1  0.691566  0.800910  0.944622  1
  O  O10  1  0.807632  0.301435  0.944997  1
  O  O11  1  0.686994  0.809498  0.553920  1
  O  O12  1  0.192368  0.698565  0.055003  1
  O  O13  1  0.313006  0.190502  0.446080  1
  O  O14  1  0.179836  0.699055  0.445205  1
  O  O15  1  0.820164  0.300945  0.554795  1
  O  O16  1  0.615230  0.536857  0.243414  1
  O  O17  1  0.384770  0.463143  0.756586  1
  O  O18  1  0.108737  0.964971  0.754103  1
  O  O19  1  0.891263  0.035029  0.245897  1
