# generated using pymatgen
data_Er8CdHgPt2
_symmetry_space_group_name_H-M   'P 1'
_cell_length_a   9.58865447
_cell_length_b   9.58865384
_cell_length_c   9.58965300
_cell_angle_alpha   59.99654952
_cell_angle_beta   59.99655167
_cell_angle_gamma   60.03872576
_symmetry_Int_Tables_number   1
_chemical_formula_structural   Er8CdHgPt2
_chemical_formula_sum   'Er16 Cd2 Hg2 Pt4'
_cell_volume   623.60198613
_cell_formula_units_Z   2
loop_
 _symmetry_equiv_pos_site_id
 _symmetry_equiv_pos_as_xyz
  1  'x, y, z'
loop_
 _atom_site_type_symbol
 _atom_site_label
 _atom_site_symmetry_multiplicity
 _atom_site_fract_x
 _atom_site_fract_y
 _atom_site_fract_z
 _atom_site_occupancy
  Er  Er0  1  0.353479  0.353479  0.350789  1
  Er  Er1  1  0.353479  0.353479  0.942253  1
  Er  Er2  1  0.356836  0.935224  0.353970  1
  Er  Er3  1  0.935224  0.356836  0.353970  1
  Er  Er4  1  0.810826  0.189006  0.190208  1
  Er  Er5  1  0.189006  0.810826  0.809960  1
  Er  Er6  1  0.189006  0.810826  0.190208  1
  Er  Er7  1  0.810826  0.189006  0.809960  1
  Er  Er8  1  0.189885  0.189885  0.810115  1
  Er  Er9  1  0.810335  0.810335  0.189665  1
  Er  Er10  1  0.934639  0.564065  0.564924  1
  Er  Er11  1  0.564065  0.934639  0.936372  1
  Er  Er12  1  0.564065  0.934639  0.564924  1
  Er  Er13  1  0.934639  0.564065  0.936372  1
  Er  Er14  1  0.564947  0.564947  0.935053  1
  Er  Er15  1  0.936169  0.936169  0.563831  1
  Cd  Cd16  1  0.580757  0.253798  0.582723  1
  Cd  Cd17  1  0.253798  0.580757  0.582723  1
  Hg  Hg18  1  0.584788  0.584788  0.587539  1
  Hg  Hg19  1  0.584788  0.584788  0.242886  1
  Pt  Pt20  1  0.143450  0.143450  0.146158  1
  Pt  Pt21  1  0.143450  0.143450  0.566941  1
  Pt  Pt22  1  0.141741  0.569800  0.144229  1
  Pt  Pt23  1  0.569800  0.141741  0.144229  1
