# generated using pymatgen
data_Dy2HoCd3Ga2Au
_symmetry_space_group_name_H-M   'P 1'
_cell_length_a   7.36830000
_cell_length_b   7.36830036
_cell_length_c   4.33666300
_cell_angle_alpha   90.00000000
_cell_angle_beta   90.00000000
_cell_angle_gamma   120.00206518
_symmetry_Int_Tables_number   1
_chemical_formula_structural   Dy2HoCd3Ga2Au
_chemical_formula_sum   'Dy2 Ho1 Cd3 Ga2 Au1'
_cell_volume   203.89749446
_cell_formula_units_Z   1
loop_
 _symmetry_equiv_pos_site_id
 _symmetry_equiv_pos_as_xyz
  1  'x, y, z'
loop_
 _atom_site_type_symbol
 _atom_site_label
 _atom_site_symmetry_multiplicity
 _atom_site_fract_x
 _atom_site_fract_y
 _atom_site_fract_z
 _atom_site_occupancy
  Dy  Dy0  1  0.586589  0.999979  0.500000  1
  Dy  Dy1  1  0.999979  0.586589  0.500000  1
  Ho  Ho2  1  0.413302  0.413302  0.500000  1
  Cd  Cd3  1  0.745117  0.745117  0.000000  1
  Cd  Cd4  1  0.254823  0.000042  0.000000  1
  Cd  Cd5  1  0.000042  0.254823  0.000000  1
  Ga  Ga6  1  0.666597  0.333383  0.000000  1
  Ga  Ga7  1  0.333383  0.666597  0.000000  1
  Au  Au8  1  0.000169  0.000169  0.500000  1
