# generated using pymatgen
data_TmMn2Fe2MoP3
_symmetry_space_group_name_H-M   'P 1'
_cell_length_a   3.68134300
_cell_length_b   10.48322700
_cell_length_c   12.13796900
_cell_angle_alpha   90.00000000
_cell_angle_beta   90.00000000
_cell_angle_gamma   90.00000000
_symmetry_Int_Tables_number   1
_chemical_formula_structural   TmMn2Fe2MoP3
_chemical_formula_sum   'Tm4 Mn8 Fe8 Mo4 P12'
_cell_volume   468.43280054
_cell_formula_units_Z   4
loop_
 _symmetry_equiv_pos_site_id
 _symmetry_equiv_pos_as_xyz
  1  'x, y, z'
loop_
 _atom_site_type_symbol
 _atom_site_label
 _atom_site_symmetry_multiplicity
 _atom_site_fract_x
 _atom_site_fract_y
 _atom_site_fract_z
 _atom_site_occupancy
  Tm  Tm0  1  0.250000  0.582090  0.710211  1
  Tm  Tm1  1  0.250000  0.917910  0.210211  1
  Tm  Tm2  1  0.750000  0.417910  0.289789  1
  Tm  Tm3  1  0.750000  0.082090  0.789789  1
  Mn  Mn4  1  0.250000  0.409397  0.493260  1
  Mn  Mn5  1  0.250000  0.090603  0.993260  1
  Mn  Mn6  1  0.750000  0.590603  0.506740  1
  Mn  Mn7  1  0.750000  0.909397  0.006740  1
  Mn  Mn8  1  0.250000  0.217487  0.177565  1
  Mn  Mn9  1  0.250000  0.282513  0.677565  1
  Mn  Mn10  1  0.750000  0.782513  0.822435  1
  Mn  Mn11  1  0.750000  0.717487  0.322435  1
  Fe  Fe12  1  0.250000  0.876147  0.699242  1
  Fe  Fe13  1  0.250000  0.623853  0.199242  1
  Fe  Fe14  1  0.750000  0.123853  0.300758  1
  Fe  Fe15  1  0.750000  0.376147  0.800758  1
  Fe  Fe16  1  0.250000  0.462901  0.933558  1
  Fe  Fe17  1  0.250000  0.037099  0.433558  1
  Fe  Fe18  1  0.750000  0.537099  0.066442  1
  Fe  Fe19  1  0.750000  0.962901  0.566442  1
  Mo  Mo20  1  0.250000  0.706582  0.987160  1
  Mo  Mo21  1  0.250000  0.793418  0.487160  1
  Mo  Mo22  1  0.750000  0.293418  0.012840  1
  Mo  Mo23  1  0.750000  0.206582  0.512840  1
  P  P24  1  0.250000  0.428880  0.113612  1
  P  P25  1  0.250000  0.071120  0.613612  1
  P  P26  1  0.750000  0.571120  0.886388  1
  P  P27  1  0.750000  0.928880  0.386388  1
  P  P28  1  0.250000  0.265636  0.867556  1
  P  P29  1  0.250000  0.234364  0.367556  1
  P  P30  1  0.750000  0.734364  0.132444  1
  P  P31  1  0.750000  0.765636  0.632444  1
  P  P32  1  0.250000  0.591488  0.384196  1
  P  P33  1  0.250000  0.908512  0.884196  1
  P  P34  1  0.750000  0.408512  0.615804  1
  P  P35  1  0.750000  0.091488  0.115804  1
