# generated using pymatgen
data_TbDy3(ScSb5)4
_symmetry_space_group_name_H-M   'P 1'
_cell_length_a   4.19903200
_cell_length_b   13.04822183
_cell_length_c   14.22006785
_cell_angle_alpha   78.75216062
_cell_angle_beta   90.00000000
_cell_angle_gamma   90.00000000
_symmetry_Int_Tables_number   1
_chemical_formula_structural   TbDy3(ScSb5)4
_chemical_formula_sum   'Tb1 Dy3 Sc4 Sb20'
_cell_volume   764.15134343
_cell_formula_units_Z   1
loop_
 _symmetry_equiv_pos_site_id
 _symmetry_equiv_pos_as_xyz
  1  'x, y, z'
loop_
 _atom_site_type_symbol
 _atom_site_label
 _atom_site_symmetry_multiplicity
 _atom_site_fract_x
 _atom_site_fract_y
 _atom_site_fract_z
 _atom_site_occupancy
  Tb  Tb0  1  0.250000  0.669245  0.576174  1
  Dy  Dy1  1  0.750000  0.330676  0.423775  1
  Dy  Dy2  1  0.250000  0.953436  0.354729  1
  Dy  Dy3  1  0.750000  0.046582  0.645303  1
  Sc  Sc4  1  0.250000  0.396876  0.773034  1
  Sc  Sc5  1  0.750000  0.603097  0.226893  1
  Sc  Sc6  1  0.250000  0.657250  0.858796  1
  Sc  Sc7  1  0.750000  0.342713  0.141278  1
  Sb  Sb8  1  0.250000  0.148050  0.780691  1
  Sb  Sb9  1  0.750000  0.851944  0.219341  1
  Sb  Sb10  1  0.250000  0.142953  0.482892  1
  Sb  Sb11  1  0.750000  0.857405  0.517011  1
  Sb  Sb12  1  0.250000  0.163000  0.160765  1
  Sb  Sb13  1  0.750000  0.837015  0.839217  1
  Sb  Sb14  1  0.250000  0.421957  0.974998  1
  Sb  Sb15  1  0.750000  0.578076  0.024989  1
  Sb  Sb16  1  0.750000  0.028352  0.913376  1
  Sb  Sb17  1  0.250000  0.971637  0.086603  1
  Sb  Sb18  1  0.750000  0.142827  0.315516  1
  Sb  Sb19  1  0.250000  0.857425  0.684627  1
  Sb  Sb20  1  0.750000  0.280187  0.936581  1
  Sb  Sb21  1  0.250000  0.719802  0.063416  1
  Sb  Sb22  1  0.750000  0.289337  0.659104  1
  Sb  Sb23  1  0.250000  0.710660  0.340775  1
  Sb  Sb24  1  0.750000  0.573039  0.741854  1
  Sb  Sb25  1  0.250000  0.426795  0.258465  1
  Sb  Sb26  1  0.750000  0.570283  0.443462  1
  Sb  Sb27  1  0.250000  0.429380  0.556334  1
