# generated using pymatgen
data_PrYHoRh9
_symmetry_space_group_name_H-M   'P 1'
_cell_length_a   5.31051000
_cell_length_b   5.31051074
_cell_length_c   17.51077800
_cell_angle_alpha   90.00000000
_cell_angle_beta   90.00000000
_cell_angle_gamma   119.99998293
_symmetry_Int_Tables_number   1
_chemical_formula_structural   PrYHoRh9
_chemical_formula_sum   'Pr2 Y2 Ho2 Rh18'
_cell_volume   427.66988622
_cell_formula_units_Z   2
loop_
 _symmetry_equiv_pos_site_id
 _symmetry_equiv_pos_as_xyz
  1  'x, y, z'
loop_
 _atom_site_type_symbol
 _atom_site_label
 _atom_site_symmetry_multiplicity
 _atom_site_fract_x
 _atom_site_fract_y
 _atom_site_fract_z
 _atom_site_occupancy
  Pr  Pr0  1  0.333333  0.666667  0.750187  1
  Pr  Pr1  1  0.666667  0.333333  0.249813  1
  Y  Y2  1  0.666667  0.333333  0.458426  1
  Y  Y3  1  0.333333  0.666667  0.541574  1
  Ho  Ho4  1  0.333333  0.666667  0.958575  1
  Ho  Ho5  1  0.666667  0.333333  0.041425  1
  Rh  Rh6  1  0.167296  0.832704  0.374679  1
  Rh  Rh7  1  0.167296  0.334591  0.374679  1
  Rh  Rh8  1  0.665409  0.832704  0.374679  1
  Rh  Rh9  1  0.832704  0.167296  0.625321  1
  Rh  Rh10  1  0.832704  0.665409  0.625321  1
  Rh  Rh11  1  0.334591  0.167296  0.625321  1
  Rh  Rh12  1  0.832624  0.167376  0.875019  1
  Rh  Rh13  1  0.832624  0.665248  0.875019  1
  Rh  Rh14  1  0.334752  0.167376  0.875019  1
  Rh  Rh15  1  0.167376  0.832624  0.124981  1
  Rh  Rh16  1  0.167376  0.334752  0.124981  1
  Rh  Rh17  1  0.665248  0.832624  0.124981  1
  Rh  Rh18  1  0.333333  0.666667  0.250082  1
  Rh  Rh19  1  0.666667  0.333333  0.749918  1
  Rh  Rh20  1  0.000000  0.000000  0.250069  1
  Rh  Rh21  1  0.000000  0.000000  0.749931  1
  Rh  Rh22  1  0.000000  0.000000  0.500000  1
  Rh  Rh23  1  0.000000  0.000000  0.000000  1
