# generated using pymatgen
data_YHo(B2C)2
_symmetry_space_group_name_H-M   'P 1'
_cell_length_a   6.79546100
_cell_length_b   6.79546100
_cell_length_c   7.47001800
_cell_angle_alpha   90.00000000
_cell_angle_beta   90.00000000
_cell_angle_gamma   90.00000000
_symmetry_Int_Tables_number   1
_chemical_formula_structural   YHo(B2C)2
_chemical_formula_sum   'Y4 Ho4 B16 C8'
_cell_volume   344.95265902
_cell_formula_units_Z   4
loop_
 _symmetry_equiv_pos_site_id
 _symmetry_equiv_pos_as_xyz
  1  'x, y, z'
loop_
 _atom_site_type_symbol
 _atom_site_label
 _atom_site_symmetry_multiplicity
 _atom_site_fract_x
 _atom_site_fract_y
 _atom_site_fract_z
 _atom_site_occupancy
  Y  Y0  1  0.690754  0.190754  0.250000  1
  Y  Y1  1  0.190754  0.309245  0.250000  1
  Y  Y2  1  0.809247  0.690754  0.250000  1
  Y  Y3  1  0.309245  0.809247  0.250000  1
  Ho  Ho4  1  0.690651  0.190651  0.750000  1
  Ho  Ho5  1  0.190651  0.309348  0.750000  1
  Ho  Ho6  1  0.809350  0.690651  0.750000  1
  Ho  Ho7  1  0.309348  0.809350  0.750000  1
  B  B8  1  0.152113  0.034854  0.998120  1
  B  B9  1  0.402935  0.094723  0.998080  1
  B  B10  1  0.902935  0.405276  0.998080  1
  B  B11  1  0.652114  0.465147  0.998120  1
  B  B12  1  0.347887  0.534854  0.998120  1
  B  B13  1  0.097064  0.594723  0.998080  1
  B  B14  1  0.597065  0.905276  0.998080  1
  B  B15  1  0.847886  0.965146  0.998120  1
  B  B16  1  0.405276  0.097064  0.501920  1
  B  B17  1  0.965146  0.152113  0.501880  1
  B  B18  1  0.465147  0.347887  0.501880  1
  B  B19  1  0.905276  0.402935  0.501920  1
  B  B20  1  0.094723  0.597065  0.501920  1
  B  B21  1  0.534854  0.652114  0.501880  1
  B  B22  1  0.034854  0.847886  0.501880  1
  B  B23  1  0.594723  0.902935  0.501920  1
  C  C24  1  0.959682  0.177231  0.997739  1
  C  C25  1  0.459681  0.322769  0.997739  1
  C  C26  1  0.540319  0.677232  0.997739  1
  C  C27  1  0.040319  0.822768  0.997739  1
  C  C28  1  0.177231  0.040319  0.502261  1
  C  C29  1  0.677232  0.459681  0.502261  1
  C  C30  1  0.322769  0.540319  0.502261  1
  C  C31  1  0.822768  0.959682  0.502261  1
