# generated using pymatgen
data_Er5Al2Ru3
_symmetry_space_group_name_H-M   'P 1'
_cell_length_a   8.27580121
_cell_length_b   8.27580022
_cell_length_c   8.27580100
_cell_angle_alpha   109.47122743
_cell_angle_beta   109.47122501
_cell_angle_gamma   109.47121869
_symmetry_Int_Tables_number   1
_chemical_formula_structural   Er5Al2Ru3
_chemical_formula_sum   'Er10 Al4 Ru6'
_cell_volume   436.32304101
_cell_formula_units_Z   2
loop_
 _symmetry_equiv_pos_site_id
 _symmetry_equiv_pos_as_xyz
  1  'x, y, z'
loop_
 _atom_site_type_symbol
 _atom_site_label
 _atom_site_symmetry_multiplicity
 _atom_site_fract_x
 _atom_site_fract_y
 _atom_site_fract_z
 _atom_site_occupancy
  Er  Er0  1  0.785121  0.785121  0.785121  1
  Er  Er1  1  0.318106  0.568106  0.750000  1
  Er  Er2  1  0.750000  0.318106  0.568106  1
  Er  Er3  1  0.568106  0.750000  0.318106  1
  Er  Er4  1  0.714879  0.500000  0.000000  1
  Er  Er5  1  0.000000  0.714879  0.500000  1
  Er  Er6  1  0.500000  0.000000  0.714879  1
  Er  Er7  1  0.250000  0.181894  0.931894  1
  Er  Er8  1  0.931894  0.250000  0.181894  1
  Er  Er9  1  0.181894  0.931894  0.250000  1
  Al  Al10  1  0.410904  0.410904  0.410904  1
  Al  Al11  1  0.089096  0.500000  0.000000  1
  Al  Al12  1  0.000000  0.089096  0.500000  1
  Al  Al13  1  0.500000  0.000000  0.089096  1
  Ru  Ru14  1  0.876164  0.126164  0.750000  1
  Ru  Ru15  1  0.750000  0.876164  0.126164  1
  Ru  Ru16  1  0.126164  0.750000  0.876164  1
  Ru  Ru17  1  0.250000  0.623836  0.373836  1
  Ru  Ru18  1  0.373836  0.250000  0.623836  1
  Ru  Ru19  1  0.623836  0.373836  0.250000  1
