# generated using pymatgen
data_Lu12Tc3P
_symmetry_space_group_name_H-M   'P 1'
_cell_length_a   6.10642316
_cell_length_b   7.35721505
_cell_length_c   8.86493800
_cell_angle_alpha   90.00000000
_cell_angle_beta   90.00000000
_cell_angle_gamma   90.04129513
_symmetry_Int_Tables_number   1
_chemical_formula_structural   Lu12Tc3P
_chemical_formula_sum   'Lu12 Tc3 P1'
_cell_volume   398.26848031
_cell_formula_units_Z   1
loop_
 _symmetry_equiv_pos_site_id
 _symmetry_equiv_pos_as_xyz
  1  'x, y, z'
loop_
 _atom_site_type_symbol
 _atom_site_label
 _atom_site_symmetry_multiplicity
 _atom_site_fract_x
 _atom_site_fract_y
 _atom_site_fract_z
 _atom_site_occupancy
  Lu  Lu0  1  0.335858  0.676287  0.063595  1
  Lu  Lu1  1  0.157404  0.178426  0.436647  1
  Lu  Lu2  1  0.654953  0.315371  0.561988  1
  Lu  Lu3  1  0.848223  0.831912  0.939545  1
  Lu  Lu4  1  0.654953  0.315371  0.938012  1
  Lu  Lu5  1  0.848223  0.831912  0.560455  1
  Lu  Lu6  1  0.335858  0.676287  0.436405  1
  Lu  Lu7  1  0.157404  0.178426  0.063353  1
  Lu  Lu8  1  0.870780  0.539195  0.250000  1
  Lu  Lu9  1  0.614652  0.030952  0.250000  1
  Lu  Lu10  1  0.130430  0.459423  0.750000  1
  Lu  Lu11  1  0.371361  0.965680  0.750000  1
  Tc  Tc12  1  0.039651  0.878580  0.250000  1
  Tc  Tc13  1  0.461103  0.380532  0.250000  1
  Tc  Tc14  1  0.955808  0.121199  0.750000  1
  P  P15  1  0.563338  0.620450  0.750000  1
