# generated using pymatgen
data_Mo2AsCl12
_symmetry_space_group_name_H-M   'P 1'
_cell_length_a   11.62688900
_cell_length_b   9.78495951
_cell_length_c   10.06153792
_cell_angle_alpha   89.03623193
_cell_angle_beta   90.00000000
_cell_angle_gamma   90.00000000
_symmetry_Int_Tables_number   1
_chemical_formula_structural   Mo2AsCl12
_chemical_formula_sum   'Mo4 As2 Cl24'
_cell_volume   1144.52552861
_cell_formula_units_Z   2
loop_
 _symmetry_equiv_pos_site_id
 _symmetry_equiv_pos_as_xyz
  1  'x, y, z'
loop_
 _atom_site_type_symbol
 _atom_site_label
 _atom_site_symmetry_multiplicity
 _atom_site_fract_x
 _atom_site_fract_y
 _atom_site_fract_z
 _atom_site_occupancy
  Mo  Mo0  1  0.250000  0.156490  0.608706  1
  Mo  Mo1  1  0.750000  0.649019  0.593152  1
  Mo  Mo2  1  0.750000  0.843510  0.391294  1
  Mo  Mo3  1  0.250000  0.350981  0.406848  1
  As  As4  1  0.250000  0.823244  0.966878  1
  As  As5  1  0.750000  0.176756  0.033122  1
  Cl  Cl6  1  0.888607  0.622426  0.754311  1
  Cl  Cl7  1  0.605984  0.191826  0.891132  1
  Cl  Cl8  1  0.250000  0.569761  0.475523  1
  Cl  Cl9  1  0.111393  0.377574  0.245689  1
  Cl  Cl10  1  0.111472  0.991337  0.646301  1
  Cl  Cl11  1  0.750000  0.430239  0.524477  1
  Cl  Cl12  1  0.414843  0.303692  0.554412  1
  Cl  Cl13  1  0.105984  0.808174  0.108868  1
  Cl  Cl14  1  0.394016  0.808174  0.108868  1
  Cl  Cl15  1  0.250000  0.612644  0.894503  1
  Cl  Cl16  1  0.250000  0.239190  0.817618  1
  Cl  Cl17  1  0.914843  0.696308  0.445588  1
  Cl  Cl18  1  0.388607  0.377574  0.245689  1
  Cl  Cl19  1  0.750000  0.387356  0.105497  1
  Cl  Cl20  1  0.388528  0.991337  0.646301  1
  Cl  Cl21  1  0.085157  0.303692  0.554412  1
  Cl  Cl22  1  0.750000  0.760810  0.182382  1
  Cl  Cl23  1  0.250000  0.100169  0.368866  1
  Cl  Cl24  1  0.611472  0.008663  0.353699  1
  Cl  Cl25  1  0.894016  0.191826  0.891132  1
  Cl  Cl26  1  0.750000  0.899831  0.631134  1
  Cl  Cl27  1  0.585157  0.696308  0.445588  1
  Cl  Cl28  1  0.611393  0.622426  0.754311  1
  Cl  Cl29  1  0.888528  0.008663  0.353699  1
