# generated using pymatgen
data_Na10CuAuSe24
_symmetry_space_group_name_H-M   'P 1'
_cell_length_a   17.20573765
_cell_length_b   7.19738457
_cell_length_c   8.46354776
_cell_angle_alpha   73.44955202
_cell_angle_beta   89.97199952
_cell_angle_gamma   90.03144956
_symmetry_Int_Tables_number   1
_chemical_formula_structural   Na10CuAuSe24
_chemical_formula_sum   'Na10 Cu1 Au1 Se24'
_cell_volume   1004.67085319
_cell_formula_units_Z   1
loop_
 _symmetry_equiv_pos_site_id
 _symmetry_equiv_pos_as_xyz
  1  'x, y, z'
loop_
 _atom_site_type_symbol
 _atom_site_label
 _atom_site_symmetry_multiplicity
 _atom_site_fract_x
 _atom_site_fract_y
 _atom_site_fract_z
 _atom_site_occupancy
  Na  Na0  1  0.353141  0.777543  0.348157  1
  Na  Na1  1  0.853321  0.222614  0.651860  1
  Na  Na2  1  0.937745  0.778281  0.017624  1
  Na  Na3  1  0.437894  0.220691  0.981792  1
  Na  Na4  1  0.070775  0.291674  0.441035  1
  Na  Na5  1  0.570537  0.706877  0.557408  1
  Na  Na6  1  0.761496  0.664082  0.286790  1
  Na  Na7  1  0.261290  0.336536  0.713420  1
  Na  Na8  1  0.138018  0.879536  0.103217  1
  Na  Na9  1  0.638923  0.123241  0.899164  1
  Cu  Cu10  1  0.850814  0.216405  0.159881  1
  Au  Au11  1  0.350327  0.784102  0.840752  1
  Se  Se12  1  0.790913  0.022205  0.410171  1
  Se  Se13  1  0.545629  0.952420  0.212270  1
  Se  Se14  1  0.728414  0.379583  0.084876  1
  Se  Se15  1  0.220433  0.612496  0.919227  1
  Se  Se16  1  0.973596  0.053496  0.242496  1
  Se  Se17  1  0.481216  0.953004  0.752754  1
  Se  Se18  1  0.908708  0.411381  0.908052  1
  Se  Se19  1  0.287710  0.991107  0.575425  1
  Se  Se20  1  0.449369  0.218647  0.516555  1
  Se  Se21  1  0.411953  0.574927  0.106296  1
  Se  Se22  1  0.753321  0.630630  0.833830  1
  Se  Se23  1  0.251708  0.365668  0.169214  1
  Se  Se24  1  0.947819  0.785119  0.480584  1
  Se  Se25  1  0.187391  0.606040  0.422461  1
  Se  Se26  1  0.664221  0.155492  0.432749  1
  Se  Se27  1  0.162080  0.845530  0.564426  1
  Se  Se28  1  0.042046  0.312050  0.905399  1
  Se  Se29  1  0.544128  0.687591  0.096179  1
  Se  Se30  1  0.779842  0.902942  0.933883  1
  Se  Se31  1  0.280047  0.096386  0.065758  1
  Se  Se32  1  0.928232  0.524063  0.363578  1
  Se  Se33  1  0.427235  0.476362  0.636792  1
  Se  Se34  1  0.687690  0.392896  0.578041  1
  Se  Se35  1  0.045776  0.048383  0.787883  1
