# generated using pymatgen
data_LiAcTbAgPb2
_symmetry_space_group_name_H-M   'P 1'
_cell_length_a   4.90037000
_cell_length_b   4.90036921
_cell_length_c   7.99857900
_cell_angle_alpha   90.00000000
_cell_angle_beta   90.00000000
_cell_angle_gamma   120.00000531
_symmetry_Int_Tables_number   1
_chemical_formula_structural   LiAcTbAgPb2
_chemical_formula_sum   'Li1 Ac1 Tb1 Ag1 Pb2'
_cell_volume   166.34169489
_cell_formula_units_Z   1
loop_
 _symmetry_equiv_pos_site_id
 _symmetry_equiv_pos_as_xyz
  1  'x, y, z'
loop_
 _atom_site_type_symbol
 _atom_site_label
 _atom_site_symmetry_multiplicity
 _atom_site_fract_x
 _atom_site_fract_y
 _atom_site_fract_z
 _atom_site_occupancy
  Li  Li0  1  0.666667  0.333333  0.463815  1
  Ac  Ac1  1  0.000000  0.000000  0.735141  1
  Tb  Tb2  1  0.000000  0.000000  0.232462  1
  Ag  Ag3  1  0.333333  0.666667  0.062302  1
  Pb  Pb4  1  0.333333  0.666667  0.450180  1
  Pb  Pb5  1  0.666667  0.333333  0.980098  1
