# generated using pymatgen
data_Tm5Sc5(TlSb)3
_symmetry_space_group_name_H-M   'P 1'
_cell_length_a   8.70827800
_cell_length_b   8.67395153
_cell_length_c   6.28493200
_cell_angle_alpha   90.00000000
_cell_angle_beta   90.00000000
_cell_angle_gamma   120.13099698
_symmetry_Int_Tables_number   1
_chemical_formula_structural   Tm5Sc5(TlSb)3
_chemical_formula_sum   'Tm5 Sc5 Tl3 Sb3'
_cell_volume   410.58747952
_cell_formula_units_Z   1
loop_
 _symmetry_equiv_pos_site_id
 _symmetry_equiv_pos_as_xyz
  1  'x, y, z'
loop_
 _atom_site_type_symbol
 _atom_site_label
 _atom_site_symmetry_multiplicity
 _atom_site_fract_x
 _atom_site_fract_y
 _atom_site_fract_z
 _atom_site_occupancy
  Tm  Tm0  1  0.238811  0.000000  0.250000  1
  Tm  Tm1  1  0.238501  0.235471  0.750000  1
  Tm  Tm2  1  0.003030  0.764529  0.750000  1
  Tm  Tm3  1  0.003015  0.239159  0.250000  1
  Tm  Tm4  1  0.763856  0.760841  0.250000  1
  Sc  Sc5  1  0.331187  0.665826  0.000574  1
  Sc  Sc6  1  0.665362  0.334174  0.499426  1
  Sc  Sc7  1  0.665362  0.334174  0.000574  1
  Sc  Sc8  1  0.331187  0.665826  0.499426  1
  Sc  Sc9  1  0.757866  0.000000  0.750000  1
  Tl  Tl10  1  0.997675  0.598433  0.250000  1
  Tl  Tl11  1  0.399241  0.401567  0.250000  1
  Tl  Tl12  1  0.403903  0.000000  0.750000  1
  Sb  Sb13  1  0.604058  0.000000  0.250000  1
  Sb  Sb14  1  0.603668  0.610392  0.750000  1
  Sb  Sb15  1  0.993276  0.389608  0.750000  1
