# generated using pymatgen
data_Hf6CBr14
_symmetry_space_group_name_H-M   'P 1'
_cell_length_a   10.19817000
_cell_length_b   10.19816945
_cell_length_c   12.16059300
_cell_angle_alpha   90.00000000
_cell_angle_beta   90.00000000
_cell_angle_gamma   92.87381174
_symmetry_Int_Tables_number   1
_chemical_formula_structural   Hf6CBr14
_chemical_formula_sum   'Hf12 C2 Br28'
_cell_volume   1263.14353060
_cell_formula_units_Z   2
loop_
 _symmetry_equiv_pos_site_id
 _symmetry_equiv_pos_as_xyz
  1  'x, y, z'
loop_
 _atom_site_type_symbol
 _atom_site_label
 _atom_site_symmetry_multiplicity
 _atom_site_fract_x
 _atom_site_fract_y
 _atom_site_fract_z
 _atom_site_occupancy
  Hf  Hf0  1  0.632569  0.632569  0.096685  1
  Hf  Hf1  1  0.867431  0.867431  0.596685  1
  Hf  Hf2  1  0.132569  0.132569  0.403315  1
  Hf  Hf3  1  0.367431  0.367431  0.903315  1
  Hf  Hf4  1  0.672089  0.451043  0.886845  1
  Hf  Hf5  1  0.827911  0.048957  0.386845  1
  Hf  Hf6  1  0.951043  0.172089  0.613155  1
  Hf  Hf7  1  0.548957  0.327911  0.113155  1
  Hf  Hf8  1  0.327911  0.548957  0.113155  1
  Hf  Hf9  1  0.172089  0.951043  0.613155  1
  Hf  Hf10  1  0.048957  0.827911  0.386845  1
  Hf  Hf11  1  0.451043  0.672089  0.886845  1
  C  C12  1  0.500000  0.500000  0.000000  1
  C  C13  1  0.000000  0.000000  0.500000  1
  Br  Br14  1  0.353858  0.105825  0.511608  1
  Br  Br15  1  0.146142  0.394175  0.011608  1
  Br  Br16  1  0.608890  0.108890  0.250000  1
  Br  Br17  1  0.891110  0.391110  0.750000  1
  Br  Br18  1  0.391110  0.891110  0.750000  1
  Br  Br19  1  0.108890  0.608890  0.250000  1
  Br  Br20  1  0.143266  0.143266  0.761945  1
  Br  Br21  1  0.356734  0.356734  0.261945  1
  Br  Br22  1  0.643266  0.643266  0.738055  1
  Br  Br23  1  0.856734  0.856734  0.238055  1
  Br  Br24  1  0.248634  0.751366  0.000000  1
  Br  Br25  1  0.251366  0.748634  0.500000  1
  Br  Br26  1  0.751366  0.248634  0.000000  1
  Br  Br27  1  0.748634  0.251366  0.500000  1
  Br  Br28  1  0.894175  0.646142  0.488392  1
  Br  Br29  1  0.605825  0.853858  0.988392  1
  Br  Br30  1  0.853858  0.605825  0.988392  1
  Br  Br31  1  0.646142  0.894175  0.488392  1
  Br  Br32  1  0.105825  0.353858  0.511608  1
  Br  Br33  1  0.394175  0.146142  0.011608  1
  Br  Br34  1  0.966150  0.212691  0.254926  1
  Br  Br35  1  0.533850  0.287309  0.754926  1
  Br  Br36  1  0.712691  0.466150  0.245074  1
  Br  Br37  1  0.787309  0.033850  0.745074  1
  Br  Br38  1  0.033850  0.787309  0.745074  1
  Br  Br39  1  0.466150  0.712691  0.245074  1
  Br  Br40  1  0.287309  0.533850  0.754926  1
  Br  Br41  1  0.212691  0.966150  0.254926  1
