# generated using pymatgen
data_TbDy2Ho(NiP)4
_symmetry_space_group_name_H-M   'P 1'
_cell_length_a   3.91110400
_cell_length_b   3.91110450
_cell_length_c   15.43360000
_cell_angle_alpha   90.00000000
_cell_angle_beta   90.00000000
_cell_angle_gamma   119.99999576
_symmetry_Int_Tables_number   1
_chemical_formula_structural   TbDy2Ho(NiP)4
_chemical_formula_sum   'Tb1 Dy2 Ho1 Ni4 P4'
_cell_volume   204.45450061
_cell_formula_units_Z   1
loop_
 _symmetry_equiv_pos_site_id
 _symmetry_equiv_pos_as_xyz
  1  'x, y, z'
loop_
 _atom_site_type_symbol
 _atom_site_label
 _atom_site_symmetry_multiplicity
 _atom_site_fract_x
 _atom_site_fract_y
 _atom_site_fract_z
 _atom_site_occupancy
  Tb  Tb0  1  0.000000  0.000000  0.499390  1
  Dy  Dy1  1  0.000000  0.000000  0.750266  1
  Dy  Dy2  1  0.000000  0.000000  0.000620  1
  Ho  Ho3  1  0.000000  0.000000  0.249734  1
  Ni  Ni4  1  0.333333  0.666667  0.130024  1
  Ni  Ni5  1  0.666667  0.333333  0.872063  1
  Ni  Ni6  1  0.666667  0.333333  0.628671  1
  Ni  Ni7  1  0.333333  0.666667  0.369217  1
  P  P8  1  0.333333  0.666667  0.623258  1
  P  P9  1  0.666667  0.333333  0.376202  1
  P  P10  1  0.666667  0.333333  0.122985  1
  P  P11  1  0.333333  0.666667  0.877570  1
