# generated using pymatgen
data_Pa2Al9Ir2Os
_symmetry_space_group_name_H-M   'P 1'
_cell_length_a   7.60716038
_cell_length_b   7.60716134
_cell_length_c   9.34777200
_cell_angle_alpha   90.00000000
_cell_angle_beta   90.00000000
_cell_angle_gamma   118.98614539
_symmetry_Int_Tables_number   1
_chemical_formula_structural   Pa2Al9Ir2Os
_chemical_formula_sum   'Pa4 Al18 Ir4 Os2'
_cell_volume   473.18477732
_cell_formula_units_Z   2
loop_
 _symmetry_equiv_pos_site_id
 _symmetry_equiv_pos_as_xyz
  1  'x, y, z'
loop_
 _atom_site_type_symbol
 _atom_site_label
 _atom_site_symmetry_multiplicity
 _atom_site_fract_x
 _atom_site_fract_y
 _atom_site_fract_z
 _atom_site_occupancy
  Pa  Pa0  1  0.996625  0.683132  0.250000  1
  Pa  Pa1  1  0.003375  0.316868  0.750000  1
  Pa  Pa2  1  0.683132  0.996625  0.250000  1
  Pa  Pa3  1  0.316868  0.003375  0.750000  1
  Al  Al4  1  0.136692  0.136692  0.250000  1
  Al  Al5  1  0.863308  0.863308  0.750000  1
  Al  Al6  1  0.004415  0.339406  0.077147  1
  Al  Al7  1  0.995585  0.660594  0.922853  1
  Al  Al8  1  0.995585  0.660594  0.577147  1
  Al  Al9  1  0.339406  0.004415  0.422853  1
  Al  Al10  1  0.004415  0.339406  0.422853  1
  Al  Al11  1  0.660594  0.995585  0.577147  1
  Al  Al12  1  0.660594  0.995585  0.922853  1
  Al  Al13  1  0.339406  0.004415  0.077147  1
  Al  Al14  1  0.334938  0.334938  0.548950  1
  Al  Al15  1  0.665062  0.665062  0.451050  1
  Al  Al16  1  0.665062  0.665062  0.048950  1
  Al  Al17  1  0.334938  0.334938  0.951050  1
  Al  Al18  1  0.344426  0.553233  0.250000  1
  Al  Al19  1  0.655574  0.446767  0.750000  1
  Al  Al20  1  0.553233  0.344426  0.250000  1
  Al  Al21  1  0.446767  0.655574  0.750000  1
  Ir  Ir22  1  0.673322  0.326678  0.000000  1
  Ir  Ir23  1  0.326678  0.673322  0.000000  1
  Ir  Ir24  1  0.326678  0.673322  0.500000  1
  Ir  Ir25  1  0.673322  0.326678  0.500000  1
  Os  Os26  1  0.000000  0.000000  0.000000  1
  Os  Os27  1  0.000000  0.000000  0.500000  1
