# generated using pymatgen
data_RbHo(SbAu)2
_symmetry_space_group_name_H-M   'P 1'
_cell_length_a   4.62323400
_cell_length_b   4.62323355
_cell_length_c   19.41713200
_cell_angle_alpha   90.00000000
_cell_angle_beta   90.00000000
_cell_angle_gamma   120.00001750
_symmetry_Int_Tables_number   1
_chemical_formula_structural   RbHo(SbAu)2
_chemical_formula_sum   'Rb2 Ho2 Sb4 Au4'
_cell_volume   359.42422666
_cell_formula_units_Z   2
loop_
 _symmetry_equiv_pos_site_id
 _symmetry_equiv_pos_as_xyz
  1  'x, y, z'
loop_
 _atom_site_type_symbol
 _atom_site_label
 _atom_site_symmetry_multiplicity
 _atom_site_fract_x
 _atom_site_fract_y
 _atom_site_fract_z
 _atom_site_occupancy
  Rb  Rb0  1  0.000000  0.000000  0.500000  1
  Rb  Rb1  1  0.000000  0.000000  0.000000  1
  Ho  Ho2  1  0.000000  0.000000  0.250000  1
  Ho  Ho3  1  0.000000  0.000000  0.750000  1
  Sb  Sb4  1  0.333333  0.666667  0.363182  1
  Sb  Sb5  1  0.666667  0.333333  0.636818  1
  Sb  Sb6  1  0.666667  0.333333  0.863182  1
  Sb  Sb7  1  0.333333  0.666667  0.136818  1
  Au  Au8  1  0.666667  0.333333  0.331876  1
  Au  Au9  1  0.333333  0.666667  0.668124  1
  Au  Au10  1  0.333333  0.666667  0.831876  1
  Au  Au11  1  0.666667  0.333333  0.168124  1
