# generated using pymatgen
data_Lu5Co4(P4Ru5)3
_symmetry_space_group_name_H-M   'P 1'
_cell_length_a   12.40525300
_cell_length_b   12.40525304
_cell_length_c   3.84120700
_cell_angle_alpha   90.00000000
_cell_angle_beta   90.00000000
_cell_angle_gamma   120.00000255
_symmetry_Int_Tables_number   1
_chemical_formula_structural   Lu5Co4(P4Ru5)3
_chemical_formula_sum   'Lu5 Co4 P12 Ru15'
_cell_volume   511.92882699
_cell_formula_units_Z   1
loop_
 _symmetry_equiv_pos_site_id
 _symmetry_equiv_pos_as_xyz
  1  'x, y, z'
loop_
 _atom_site_type_symbol
 _atom_site_label
 _atom_site_symmetry_multiplicity
 _atom_site_fract_x
 _atom_site_fract_y
 _atom_site_fract_z
 _atom_site_occupancy
  Lu  Lu0  1  0.666667  0.333333  0.000000  1
  Lu  Lu1  1  0.333333  0.666667  0.000000  1
  Lu  Lu2  1  0.180974  0.180974  0.500000  1
  Lu  Lu3  1  0.819026  0.000000  0.500000  1
  Lu  Lu4  1  0.000000  0.819026  0.500000  1
  Co  Co5  1  0.720485  0.720485  0.500000  1
  Co  Co6  1  0.279515  0.000000  0.500000  1
  Co  Co7  1  0.000000  0.279515  0.500000  1
  Co  Co8  1  0.000000  0.000000  0.000000  1
  P  P9  1  0.369181  0.369181  0.000000  1
  P  P10  1  0.630819  0.000000  0.000000  1
  P  P11  1  0.000000  0.630819  0.000000  1
  P  P12  1  0.837094  0.311681  0.500000  1
  P  P13  1  0.688319  0.525414  0.500000  1
  P  P14  1  0.474586  0.162906  0.500000  1
  P  P15  1  0.311681  0.837094  0.500000  1
  P  P16  1  0.525414  0.688319  0.500000  1
  P  P17  1  0.162906  0.474586  0.500000  1
  P  P18  1  0.823569  0.823569  0.000000  1
  P  P19  1  0.176431  0.000000  0.000000  1
  P  P20  1  0.000000  0.176431  0.000000  1
  Ru  Ru21  1  0.821877  0.192675  0.000000  1
  Ru  Ru22  1  0.807325  0.629201  0.000000  1
  Ru  Ru23  1  0.370799  0.178123  0.000000  1
  Ru  Ru24  1  0.192675  0.821877  0.000000  1
  Ru  Ru25  1  0.629201  0.807325  0.000000  1
  Ru  Ru26  1  0.178123  0.370799  0.000000  1
  Ru  Ru27  1  0.556642  0.556642  0.000000  1
  Ru  Ru28  1  0.443358  0.000000  0.000000  1
  Ru  Ru29  1  0.000000  0.443358  0.000000  1
  Ru  Ru30  1  0.639063  0.127748  0.500000  1
  Ru  Ru31  1  0.872252  0.511316  0.500000  1
  Ru  Ru32  1  0.488684  0.360937  0.500000  1
  Ru  Ru33  1  0.127748  0.639063  0.500000  1
  Ru  Ru34  1  0.511316  0.872252  0.500000  1
  Ru  Ru35  1  0.360937  0.488684  0.500000  1
