# generated using pymatgen
data_CeDy3(Ni2Sn)2
_symmetry_space_group_name_H-M   'P 1'
_cell_length_a   7.32107046
_cell_length_b   7.32107046
_cell_length_c   3.72759800
_cell_angle_alpha   90.00000000
_cell_angle_beta   90.00000000
_cell_angle_gamma   91.22666253
_symmetry_Int_Tables_number   1
_chemical_formula_structural   CeDy3(Ni2Sn)2
_chemical_formula_sum   'Ce1 Dy3 Ni4 Sn2'
_cell_volume   199.74628184
_cell_formula_units_Z   1
loop_
 _symmetry_equiv_pos_site_id
 _symmetry_equiv_pos_as_xyz
  1  'x, y, z'
loop_
 _atom_site_type_symbol
 _atom_site_label
 _atom_site_symmetry_multiplicity
 _atom_site_fract_x
 _atom_site_fract_y
 _atom_site_fract_z
 _atom_site_occupancy
  Ce  Ce0  1  0.676012  0.176012  0.500000  1
  Dy  Dy1  1  0.323150  0.823150  0.500000  1
  Dy  Dy2  1  0.176243  0.325427  0.500000  1
  Dy  Dy3  1  0.825427  0.676243  0.500000  1
  Ni  Ni4  1  0.869633  0.369633  0.000000  1
  Ni  Ni5  1  0.116669  0.616669  0.000000  1
  Ni  Ni6  1  0.385622  0.126236  0.000000  1
  Ni  Ni7  1  0.626236  0.885622  0.000000  1
  Sn  Sn8  1  0.495577  0.505430  0.000000  1
  Sn  Sn9  1  0.005430  0.995577  0.000000  1
