# generated using pymatgen
data_La16Y4BiPb15
_symmetry_space_group_name_H-M   'P 1'
_cell_length_a   8.57978855
_cell_length_b   8.69654372
_cell_length_c   16.56205500
_cell_angle_alpha   90.04184913
_cell_angle_beta   90.12842462
_cell_angle_gamma   90.04248653
_symmetry_Int_Tables_number   1
_chemical_formula_structural   La16Y4BiPb15
_chemical_formula_sum   'La16 Y4 Bi1 Pb15'
_cell_volume   1235.76578143
_cell_formula_units_Z   1
loop_
 _symmetry_equiv_pos_site_id
 _symmetry_equiv_pos_as_xyz
  1  'x, y, z'
loop_
 _atom_site_type_symbol
 _atom_site_label
 _atom_site_symmetry_multiplicity
 _atom_site_fract_x
 _atom_site_fract_y
 _atom_site_fract_z
 _atom_site_occupancy
  La  La0  1  0.378037  0.842838  0.882302  1
  La  La1  1  0.876085  0.655712  0.617859  1
  La  La2  1  0.624550  0.155108  0.381885  1
  La  La3  1  0.122478  0.345698  0.118420  1
  La  La4  1  0.625757  0.156975  0.117331  1
  La  La5  1  0.124732  0.344594  0.381577  1
  La  La6  1  0.375888  0.845149  0.617757  1
  La  La7  1  0.876980  0.656158  0.882033  1
  La  La8  1  0.537893  0.325165  0.897520  1
  La  La9  1  0.034231  0.177607  0.600528  1
  La  La10  1  0.466193  0.677111  0.399222  1
  La  La11  1  0.960778  0.821755  0.101933  1
  La  La12  1  0.464236  0.674746  0.101662  1
  La  La13  1  0.965660  0.822375  0.399260  1
  La  La14  1  0.533788  0.321633  0.600508  1
  La  La15  1  0.032553  0.179267  0.898043  1
  Y  Y16  1  0.214013  0.502508  0.749075  1
  Y  Y17  1  0.713944  0.996761  0.749401  1
  Y  Y18  1  0.785726  0.497603  0.250876  1
  Y  Y19  1  0.286030  0.002622  0.253219  1
  Bi  Bi20  1  0.277654  0.026331  0.050214  1
  Pb  Pb21  1  0.779907  0.470648  0.451832  1
  Pb  Pb22  1  0.720495  0.970962  0.547928  1
  Pb  Pb23  1  0.221913  0.526687  0.952001  1
  Pb  Pb24  1  0.722084  0.972244  0.951524  1
  Pb  Pb25  1  0.220231  0.529234  0.547900  1
  Pb  Pb26  1  0.279807  0.029378  0.452026  1
  Pb  Pb27  1  0.779272  0.472510  0.048549  1
  Pb  Pb28  1  0.571510  0.627097  0.749407  1
  Pb  Pb29  1  0.073093  0.873998  0.750630  1
  Pb  Pb30  1  0.429050  0.372765  0.249223  1
  Pb  Pb31  1  0.927662  0.126198  0.249208  1
  Pb  Pb32  1  0.342853  0.151100  0.750421  1
  Pb  Pb33  1  0.843619  0.348657  0.749457  1
  Pb  Pb34  1  0.655749  0.848330  0.249688  1
  Pb  Pb35  1  0.155555  0.652477  0.249581  1
