# generated using pymatgen
data_Sc11(RuPt)2
_symmetry_space_group_name_H-M   'P 1'
_cell_length_a   9.48884802
_cell_length_b   9.48884728
_cell_length_c   9.55275600
_cell_angle_alpha   59.77694515
_cell_angle_beta   59.77694772
_cell_angle_gamma   60.44609840
_symmetry_Int_Tables_number   1
_chemical_formula_structural   Sc11(RuPt)2
_chemical_formula_sum   'Sc22 Ru4 Pt4'
_cell_volume   608.13631001
_cell_formula_units_Z   2
loop_
 _symmetry_equiv_pos_site_id
 _symmetry_equiv_pos_as_xyz
  1  'x, y, z'
loop_
 _atom_site_type_symbol
 _atom_site_label
 _atom_site_symmetry_multiplicity
 _atom_site_fract_x
 _atom_site_fract_y
 _atom_site_fract_z
 _atom_site_occupancy
  Sc  Sc0  1  0.804075  0.804075  0.195925  1
  Sc  Sc1  1  0.195987  0.804013  0.195987  1
  Sc  Sc2  1  0.804013  0.195987  0.195987  1
  Sc  Sc3  1  0.195925  0.195925  0.804075  1
  Sc  Sc4  1  0.804013  0.195987  0.804013  1
  Sc  Sc5  1  0.195987  0.804013  0.804013  1
  Sc  Sc6  1  0.615085  0.615085  0.150993  1
  Sc  Sc7  1  0.618838  0.150993  0.615085  1
  Sc  Sc8  1  0.150993  0.618838  0.615085  1
  Sc  Sc9  1  0.615085  0.615085  0.618838  1
  Sc  Sc10  1  0.384915  0.384915  0.849007  1
  Sc  Sc11  1  0.381162  0.849007  0.384915  1
  Sc  Sc12  1  0.849007  0.381162  0.384915  1
  Sc  Sc13  1  0.384915  0.384915  0.381162  1
  Sc  Sc14  1  0.844993  0.844993  0.471963  1
  Sc  Sc15  1  0.838050  0.471963  0.844993  1
  Sc  Sc16  1  0.471963  0.838050  0.844993  1
  Sc  Sc17  1  0.844993  0.844993  0.838050  1
  Sc  Sc18  1  0.155007  0.155007  0.528037  1
  Sc  Sc19  1  0.161950  0.528037  0.155007  1
  Sc  Sc20  1  0.528037  0.161950  0.155007  1
  Sc  Sc21  1  0.155007  0.155007  0.161950  1
  Ru  Ru22  1  0.000000  0.000000  0.000000  1
  Ru  Ru23  1  0.500000  0.500000  0.500000  1
  Ru  Ru24  1  0.000000  0.000000  0.500000  1
  Ru  Ru25  1  0.500000  0.500000  0.000000  1
  Pt  Pt26  1  0.500000  0.000000  0.500000  1
  Pt  Pt27  1  0.000000  0.500000  0.500000  1
  Pt  Pt28  1  0.000000  0.500000  0.000000  1
  Pt  Pt29  1  0.500000  0.000000  0.000000  1
