# generated using pymatgen
data_La3Cd2(CuSn2)2
_symmetry_space_group_name_H-M   'P 1'
_cell_length_a   9.16155353
_cell_length_b   8.83907686
_cell_length_c   8.83907801
_cell_angle_alpha   148.70288122
_cell_angle_beta   131.31925750
_cell_angle_gamma   58.67706219
_symmetry_Int_Tables_number   1
_chemical_formula_structural   La3Cd2(CuSn2)2
_chemical_formula_sum   'La3 Cd2 Cu2 Sn4'
_cell_volume   277.45533636
_cell_formula_units_Z   1
loop_
 _symmetry_equiv_pos_site_id
 _symmetry_equiv_pos_as_xyz
  1  'x, y, z'
loop_
 _atom_site_type_symbol
 _atom_site_label
 _atom_site_symmetry_multiplicity
 _atom_site_fract_x
 _atom_site_fract_y
 _atom_site_fract_z
 _atom_site_occupancy
  La  La0  1  0.391427  0.870707  0.520720  1
  La  La1  1  0.608573  0.129293  0.479280  1
  La  La2  1  0.000000  0.000000  0.000000  1
  Cd  Cd3  1  0.018042  0.330482  0.687561  1
  Cd  Cd4  1  0.981958  0.669518  0.312439  1
  Cu  Cu5  1  0.647584  0.335001  0.312583  1
  Cu  Cu6  1  0.352416  0.664999  0.687417  1
  Sn  Sn7  1  0.257653  0.217635  0.040018  1
  Sn  Sn8  1  0.742347  0.782365  0.959982  1
  Sn  Sn9  1  0.691853  0.496217  0.195636  1
  Sn  Sn10  1  0.308147  0.503783  0.804364  1
