# generated using pymatgen
data_Zr4Al23ZnPt9
_symmetry_space_group_name_H-M   'P 1'
_cell_length_a   7.46460320
_cell_length_b   7.47547692
_cell_length_c   12.93967001
_cell_angle_alpha   84.54288913
_cell_angle_beta   78.83378946
_cell_angle_gamma   60.00298589
_symmetry_Int_Tables_number   1
_chemical_formula_structural   Zr4Al23ZnPt9
_chemical_formula_sum   'Zr4 Al23 Zn1 Pt9'
_cell_volume   613.49556934
_cell_formula_units_Z   1
loop_
 _symmetry_equiv_pos_site_id
 _symmetry_equiv_pos_as_xyz
  1  'x, y, z'
loop_
 _atom_site_type_symbol
 _atom_site_label
 _atom_site_symmetry_multiplicity
 _atom_site_fract_x
 _atom_site_fract_y
 _atom_site_fract_z
 _atom_site_occupancy
  Zr  Zr0  1  0.392004  0.168000  0.811512  1
  Zr  Zr1  1  0.608766  0.831368  0.187885  1
  Zr  Zr2  1  0.731880  0.499220  0.811234  1
  Zr  Zr3  1  0.267610  0.501193  0.188971  1
  Al  Al4  1  0.323292  0.161748  0.057506  1
  Al  Al5  1  0.145771  0.832523  0.564596  1
  Al  Al6  1  0.854251  0.167377  0.436352  1
  Al  Al7  1  0.479662  0.167088  0.562122  1
  Al  Al8  1  0.519852  0.833220  0.438754  1
  Al  Al9  1  0.221709  0.165295  0.323012  1
  Al  Al10  1  0.778444  0.834627  0.676253  1
  Al  Al11  1  0.436785  0.504523  0.677949  1
  Al  Al12  1  0.562975  0.495326  0.323149  1
  Al  Al13  1  0.107178  0.162254  0.676066  1
  Al  Al14  1  0.892110  0.838051  0.324987  1
  Al  Al15  1  0.357323  0.496558  0.940426  1
  Al  Al16  1  0.644999  0.507998  0.057228  1
  Al  Al17  1  0.017651  0.169707  0.949174  1
  Al  Al18  1  0.979825  0.830338  0.047894  1
  Al  Al19  1  0.187214  0.500017  0.438834  1
  Al  Al20  1  0.812451  0.499946  0.562103  1
  Al  Al21  1  0.728487  0.164925  0.183365  1
  Al  Al22  1  0.270740  0.836004  0.817088  1
  Al  Al23  1  0.057902  0.626860  0.817059  1
  Al  Al24  1  0.939667  0.373243  0.184765  1
  Al  Al25  1  0.847240  0.046547  0.817706  1
  Al  Al26  1  0.149583  0.952356  0.184164  1
  Zn  Zn27  1  0.683240  0.833924  0.934478  1
  Pt  Pt28  1  0.120366  0.490571  0.639414  1
  Pt  Pt29  1  0.879467  0.509906  0.361469  1
  Pt  Pt30  1  0.656346  0.179456  0.000617  1
  Pt  Pt31  1  0.337309  0.827242  0.001726  1
  Pt  Pt32  1  0.536206  0.166362  0.361544  1
  Pt  Pt33  1  0.463063  0.833657  0.638925  1
  Pt  Pt34  1  0.778122  0.176079  0.638092  1
  Pt  Pt35  1  0.222515  0.823526  0.362646  1
  Pt  Pt36  1  0.007998  0.492968  0.000935  1
