# generated using pymatgen
data_Tb4Bi3Sb2AsRh7
_symmetry_space_group_name_H-M   'P 1'
_cell_length_a   7.74909357
_cell_length_b   7.67133920
_cell_length_c   7.67133764
_cell_angle_alpha   107.59917003
_cell_angle_beta   110.62463369
_cell_angle_gamma   110.62463022
_symmetry_Int_Tables_number   1
_chemical_formula_structural   Tb4Bi3Sb2AsRh7
_chemical_formula_sum   'Tb4 Bi3 Sb2 As1 Rh7'
_cell_volume   348.91459673
_cell_formula_units_Z   1
loop_
 _symmetry_equiv_pos_site_id
 _symmetry_equiv_pos_as_xyz
  1  'x, y, z'
loop_
 _atom_site_type_symbol
 _atom_site_label
 _atom_site_symmetry_multiplicity
 _atom_site_fract_x
 _atom_site_fract_y
 _atom_site_fract_z
 _atom_site_occupancy
  Tb  Tb0  1  0.450004  0.990234  0.990234  1
  Tb  Tb1  1  0.003146  0.527701  0.990219  1
  Tb  Tb2  1  0.003146  0.990219  0.527701  1
  Tb  Tb3  1  0.515890  0.504405  0.504405  1
  Bi  Bi4  1  0.990874  0.296175  0.296175  1
  Bi  Bi5  1  0.691822  0.008107  0.709095  1
  Bi  Bi6  1  0.691822  0.709095  0.008107  1
  Sb  Sb7  1  0.322458  0.007147  0.337082  1
  Sb  Sb8  1  0.322458  0.337082  0.007147  1
  As  As9  1  0.991993  0.647712  0.647712  1
  Rh  Rh10  1  0.049959  0.955689  0.955689  1
  Rh  Rh11  1  0.496111  0.756486  0.258962  1
  Rh  Rh12  1  0.747857  0.503768  0.255215  1
  Rh  Rh13  1  0.239246  0.748684  0.503318  1
  Rh  Rh14  1  0.239246  0.503318  0.748684  1
  Rh  Rh15  1  0.496111  0.258962  0.756486  1
  Rh  Rh16  1  0.747857  0.255215  0.503768  1
