# generated using pymatgen
data_KMgPt5O12
_symmetry_space_group_name_H-M   'P 1'
_cell_length_a   8.72122533
_cell_length_b   8.64145033
_cell_length_c   8.70010700
_cell_angle_alpha   107.48270932
_cell_angle_beta   107.83855697
_cell_angle_gamma   113.31560711
_symmetry_Int_Tables_number   1
_chemical_formula_structural   KMgPt5O12
_chemical_formula_sum   'K2 Mg2 Pt10 O24'
_cell_volume   502.09645741
_cell_formula_units_Z   2
loop_
 _symmetry_equiv_pos_site_id
 _symmetry_equiv_pos_as_xyz
  1  'x, y, z'
loop_
 _atom_site_type_symbol
 _atom_site_label
 _atom_site_symmetry_multiplicity
 _atom_site_fract_x
 _atom_site_fract_y
 _atom_site_fract_z
 _atom_site_occupancy
  K  K0  1  0.282405  0.288428  0.999583  1
  K  K1  1  0.721585  0.724130  0.009182  1
  Mg  Mg2  1  0.858018  0.336757  0.186695  1
  Mg  Mg3  1  0.996542  0.810240  0.474436  1
  Pt  Pt4  1  0.666925  0.848963  0.515242  1
  Pt  Pt5  1  0.485133  0.004994  0.816986  1
  Pt  Pt6  1  0.817201  0.332638  0.818856  1
  Pt  Pt7  1  0.518838  0.004383  0.185155  1
  Pt  Pt8  1  0.666953  0.481088  0.482814  1
  Pt  Pt9  1  0.331433  0.146225  0.484684  1
  Pt  Pt10  1  0.333220  0.517512  0.522336  1
  Pt  Pt11  1  0.002290  0.183859  0.518074  1
  Pt  Pt12  1  0.143973  0.666082  0.813507  1
  Pt  Pt13  1  0.180981  0.662740  0.183263  1
  O  O14  1  0.673360  0.046354  0.719886  1
  O  O15  1  0.319817  0.967670  0.949868  1
  O  O16  1  0.650791  0.294773  0.941272  1
  O  O17  1  0.713785  0.991302  0.368745  1
  O  O18  1  0.619905  0.332024  0.623297  1
  O  O19  1  0.288028  0.993877  0.616546  1
  O  O20  1  0.669362  0.029012  0.046748  1
  O  O21  1  0.334349  0.955041  0.290766  1
  O  O22  1  0.674588  0.291519  0.294211  1
  O  O23  1  0.299507  0.347443  0.651147  1
  O  O24  1  0.956284  0.013981  0.640144  1
  O  O25  1  0.631646  0.683135  0.644876  1
  O  O26  1  0.040016  0.996285  0.357232  1
  O  O27  1  0.687919  0.643831  0.351135  1
  O  O28  1  0.370295  0.321895  0.361470  1
  O  O29  1  0.000377  0.379576  0.715082  1
  O  O30  1  0.328788  0.713673  0.712620  1
  O  O31  1  0.986423  0.631109  0.949809  1
  O  O32  1  0.375846  0.657327  0.374463  1
  O  O33  1  0.051183  0.343838  0.392312  1
  O  O34  1  0.951759  0.658930  0.612491  1
  O  O35  1  0.020427  0.370801  0.043318  1
  O  O36  1  0.346388  0.705849  0.047712  1
  O  O37  1  0.003659  0.622717  0.284037  1
