# generated using pymatgen
data_EuGa2Ni2Rh
_symmetry_space_group_name_H-M   'P 1'
_cell_length_a   5.49299728
_cell_length_b   5.24783848
_cell_length_c   3.82832500
_cell_angle_alpha   90.00000000
_cell_angle_beta   90.00000000
_cell_angle_gamma   118.53428491
_symmetry_Int_Tables_number   1
_chemical_formula_structural   EuGa2Ni2Rh
_chemical_formula_sum   'Eu1 Ga2 Ni2 Rh1'
_cell_volume   96.95181565
_cell_formula_units_Z   1
loop_
 _symmetry_equiv_pos_site_id
 _symmetry_equiv_pos_as_xyz
  1  'x, y, z'
loop_
 _atom_site_type_symbol
 _atom_site_label
 _atom_site_symmetry_multiplicity
 _atom_site_fract_x
 _atom_site_fract_y
 _atom_site_fract_z
 _atom_site_occupancy
  Eu  Eu0  1  0.000000  0.000000  0.000000  1
  Ga  Ga1  1  0.652464  0.326232  0.000000  1
  Ga  Ga2  1  0.347535  0.673768  0.000000  1
  Ni  Ni3  1  0.499999  0.000000  0.499999  1
  Ni  Ni4  1  0.500001  0.500000  0.499999  1
  Rh  Rh5  1  0.000000  0.500000  0.499999  1
