# generated using pymatgen
data_NdTh7CrSe17
_symmetry_space_group_name_H-M   'P 1'
_cell_length_a   8.46806382
_cell_length_b   8.44737276
_cell_length_c   11.20058700
_cell_angle_alpha   80.61375854
_cell_angle_beta   80.47758471
_cell_angle_gamma   64.89850237
_symmetry_Int_Tables_number   1
_chemical_formula_structural   NdTh7CrSe17
_chemical_formula_sum   'Nd1 Th7 Cr1 Se17'
_cell_volume   711.66241868
_cell_formula_units_Z   1
loop_
 _symmetry_equiv_pos_site_id
 _symmetry_equiv_pos_as_xyz
  1  'x, y, z'
loop_
 _atom_site_type_symbol
 _atom_site_label
 _atom_site_symmetry_multiplicity
 _atom_site_fract_x
 _atom_site_fract_y
 _atom_site_fract_z
 _atom_site_occupancy
  Nd  Nd0  1  0.814578  0.303995  0.297386  1
  Th  Th1  1  0.301330  0.816070  0.294893  1
  Th  Th2  1  0.183876  0.697935  0.703260  1
  Th  Th3  1  0.698471  0.185116  0.702881  1
  Th  Th4  1  0.204290  0.203155  0.543514  1
  Th  Th5  1  0.796046  0.795953  0.453602  1
  Th  Th6  1  0.681254  0.678445  0.981349  1
  Th  Th7  1  0.317716  0.319695  0.021816  1
  Cr  Cr8  1  0.000314  0.000845  0.000596  1
  Se  Se9  1  0.824134  0.432004  0.535951  1
  Se  Se10  1  0.432364  0.820106  0.533061  1
  Se  Se11  1  0.178087  0.566884  0.467180  1
  Se  Se12  1  0.568770  0.174350  0.470532  1
  Se  Se13  1  0.947068  0.319314  0.024144  1
  Se  Se14  1  0.319183  0.947611  0.024689  1
  Se  Se15  1  0.053036  0.681340  0.972625  1
  Se  Se16  1  0.680851  0.055133  0.972999  1
  Se  Se17  1  0.216089  0.206538  0.278672  1
  Se  Se18  1  0.789699  0.789338  0.722264  1
  Se  Se19  1  0.056739  0.056128  0.776613  1
  Se  Se20  1  0.946068  0.941585  0.223805  1
  Se  Se21  1  0.303522  0.303106  0.755588  1
  Se  Se22  1  0.691601  0.703624  0.243256  1
  Se  Se23  1  0.518857  0.521350  0.831830  1
  Se  Se24  1  0.474421  0.484865  0.163918  1
  Se  Se25  1  0.001635  0.995514  0.503574  1
