# generated using pymatgen
data_Ce(Tc2Ge)2
_symmetry_space_group_name_H-M   'P 1'
_cell_length_a   7.45227761
_cell_length_b   7.45227848
_cell_length_c   4.09937600
_cell_angle_alpha   90.00000000
_cell_angle_beta   90.00000000
_cell_angle_gamma   147.48728351
_symmetry_Int_Tables_number   1
_chemical_formula_structural   Ce(Tc2Ge)2
_chemical_formula_sum   'Ce1 Tc4 Ge2'
_cell_volume   122.36681120
_cell_formula_units_Z   1
loop_
 _symmetry_equiv_pos_site_id
 _symmetry_equiv_pos_as_xyz
  1  'x, y, z'
loop_
 _atom_site_type_symbol
 _atom_site_label
 _atom_site_symmetry_multiplicity
 _atom_site_fract_x
 _atom_site_fract_y
 _atom_site_fract_z
 _atom_site_occupancy
  Ce  Ce0  1  0.000000  0.000000  0.000000  1
  Tc  Tc1  1  0.698054  0.301947  0.000000  1
  Tc  Tc2  1  0.301947  0.698054  0.000000  1
  Tc  Tc3  1  0.808454  0.191546  0.500001  1
  Tc  Tc4  1  0.191546  0.808454  0.500001  1
  Ge  Ge5  1  0.588187  0.411813  0.500001  1
  Ge  Ge6  1  0.411813  0.588187  0.500001  1
