# generated using pymatgen
data_Yb3Al12Os3Pd
_symmetry_space_group_name_H-M   'P 1'
_cell_length_a   8.86177500
_cell_length_b   8.86285645
_cell_length_c   9.61535285
_cell_angle_alpha   89.99999942
_cell_angle_beta   90.33225457
_cell_angle_gamma   120.00402628
_symmetry_Int_Tables_number   1
_chemical_formula_structural   Yb3Al12Os3Pd
_chemical_formula_sum   'Yb6 Al24 Os6 Pd2'
_cell_volume   653.97769091
_cell_formula_units_Z   2
loop_
 _symmetry_equiv_pos_site_id
 _symmetry_equiv_pos_as_xyz
  1  'x, y, z'
loop_
 _atom_site_type_symbol
 _atom_site_label
 _atom_site_symmetry_multiplicity
 _atom_site_fract_x
 _atom_site_fract_y
 _atom_site_fract_z
 _atom_site_occupancy
  Yb  Yb0  1  0.192982  0.389978  0.253418  1
  Yb  Yb1  1  0.807018  0.610022  0.746582  1
  Yb  Yb2  1  0.615158  0.807578  0.253995  1
  Yb  Yb3  1  0.384842  0.192422  0.746005  1
  Yb  Yb4  1  0.192982  0.803005  0.253418  1
  Yb  Yb5  1  0.807018  0.196995  0.746582  1
  Al  Al6  1  0.329686  0.664843  0.999960  1
  Al  Al7  1  0.670314  0.335157  0.000040  1
  Al  Al8  1  0.665467  0.332733  0.504926  1
  Al  Al9  1  0.334533  0.667267  0.495074  1
  Al  Al10  1  0.162621  0.325071  0.574199  1
  Al  Al11  1  0.837379  0.674929  0.425801  1
  Al  Al12  1  0.675999  0.837999  0.575238  1
  Al  Al13  1  0.845696  0.678530  0.077581  1
  Al  Al14  1  0.324001  0.162001  0.424762  1
  Al  Al15  1  0.154304  0.321470  0.922419  1
  Al  Al16  1  0.162621  0.837549  0.574199  1
  Al  Al17  1  0.321012  0.160507  0.081227  1
  Al  Al18  1  0.837379  0.162451  0.425801  1
  Al  Al19  1  0.678988  0.839493  0.918773  1
  Al  Al20  1  0.845696  0.167166  0.077581  1
  Al  Al21  1  0.154304  0.832834  0.922419  1
  Al  Al22  1  0.562290  0.124866  0.251946  1
  Al  Al23  1  0.437710  0.875134  0.748054  1
  Al  Al24  1  0.877308  0.438654  0.249099  1
  Al  Al25  1  0.122692  0.561346  0.750901  1
  Al  Al26  1  0.562290  0.437425  0.251946  1
  Al  Al27  1  0.437710  0.562575  0.748054  1
  Al  Al28  1  0.002076  0.001038  0.250300  1
  Al  Al29  1  0.997924  0.998962  0.749700  1
  Os  Os30  1  0.000000  0.500000  0.000000  1
  Os  Os31  1  0.500000  0.000000  0.500000  1
  Os  Os32  1  0.000000  0.500000  0.500000  1
  Os  Os33  1  0.500000  0.500000  0.500000  1
  Os  Os34  1  0.000000  0.000000  0.000000  1
  Os  Os35  1  0.000000  0.000000  0.500000  1
  Pd  Pd36  1  0.500000  0.000000  0.000000  1
  Pd  Pd37  1  0.500000  0.500000  0.000000  1
