# generated using pymatgen
data_Lu2HgPdPb
_symmetry_space_group_name_H-M   'P 1'
_cell_length_a   8.19663500
_cell_length_b   8.09783500
_cell_length_c   3.58138600
_cell_angle_alpha   90.00000000
_cell_angle_beta   90.00000000
_cell_angle_gamma   90.00000000
_symmetry_Int_Tables_number   1
_chemical_formula_structural   Lu2HgPdPb
_chemical_formula_sum   'Lu4 Hg2 Pd2 Pb2'
_cell_volume   237.71448782
_cell_formula_units_Z   2
loop_
 _symmetry_equiv_pos_site_id
 _symmetry_equiv_pos_as_xyz
  1  'x, y, z'
loop_
 _atom_site_type_symbol
 _atom_site_label
 _atom_site_symmetry_multiplicity
 _atom_site_fract_x
 _atom_site_fract_y
 _atom_site_fract_z
 _atom_site_occupancy
  Lu  Lu0  1  0.687943  0.164928  0.500000  1
  Lu  Lu1  1  0.135193  0.324427  0.500000  1
  Lu  Lu2  1  0.812057  0.664928  0.500000  1
  Lu  Lu3  1  0.364807  0.824427  0.500000  1
  Hg  Hg4  1  0.374726  0.131665  0.000000  1
  Hg  Hg5  1  0.125274  0.631665  0.000000  1
  Pd  Pd6  1  0.630240  0.880743  0.000000  1
  Pd  Pd7  1  0.869760  0.380743  0.000000  1
  Pb  Pb8  1  0.992734  0.998237  0.000000  1
  Pb  Pb9  1  0.507266  0.498237  0.000000  1
