# generated using pymatgen
data_TaCoSbF12
_symmetry_space_group_name_H-M   'P 1'
_cell_length_a   5.34969688
_cell_length_b   5.65122506
_cell_length_c   9.33017700
_cell_angle_alpha   73.87228205
_cell_angle_beta   88.64910653
_cell_angle_gamma   62.35440487
_symmetry_Int_Tables_number   1
_chemical_formula_structural   TaCoSbF12
_chemical_formula_sum   'Ta1 Co1 Sb1 F12'
_cell_volume   238.19114784
_cell_formula_units_Z   1
loop_
 _symmetry_equiv_pos_site_id
 _symmetry_equiv_pos_as_xyz
  1  'x, y, z'
loop_
 _atom_site_type_symbol
 _atom_site_label
 _atom_site_symmetry_multiplicity
 _atom_site_fract_x
 _atom_site_fract_y
 _atom_site_fract_z
 _atom_site_occupancy
  Ta  Ta0  1  0.224340  0.999223  0.755748  1
  Co  Co1  1  0.503456  0.500541  0.498697  1
  Sb  Sb2  1  0.779107  0.998977  0.247623  1
  F  F3  1  0.953427  0.230143  0.207288  1
  F  F4  1  0.051467  0.770394  0.794048  1
  F  F5  1  0.015821  0.754452  0.141997  1
  F  F6  1  0.448906  0.770110  0.622212  1
  F  F7  1  0.547921  0.221285  0.377408  1
  F  F8  1  0.924934  0.253093  0.575657  1
  F  F9  1  0.065792  0.752273  0.427164  1
  F  F10  1  0.397866  0.244235  0.666011  1
  F  F11  1  0.600396  0.759579  0.324722  1
  F  F12  1  0.515192  0.787162  0.914993  1
  F  F13  1  0.484752  0.218235  0.086678  1
  F  F14  1  0.986620  0.240295  0.859750  1
