# generated using pymatgen
data_Tb20Ir3(Pd2Ru)3
_symmetry_space_group_name_H-M   'P 1'
_cell_length_a   11.08322187
_cell_length_b   11.04618916
_cell_length_c   6.42141371
_cell_angle_alpha   90.02338660
_cell_angle_beta   89.95103164
_cell_angle_gamma   89.84684201
_symmetry_Int_Tables_number   1
_chemical_formula_structural   Tb20Ir3(Pd2Ru)3
_chemical_formula_sum   'Tb20 Ir3 Pd6 Ru3'
_cell_volume   786.15359972
_cell_formula_units_Z   1
loop_
 _symmetry_equiv_pos_site_id
 _symmetry_equiv_pos_as_xyz
  1  'x, y, z'
loop_
 _atom_site_type_symbol
 _atom_site_label
 _atom_site_symmetry_multiplicity
 _atom_site_fract_x
 _atom_site_fract_y
 _atom_site_fract_z
 _atom_site_occupancy
  Tb  Tb0  1  0.298168  0.090070  0.371824  1
  Tb  Tb1  1  0.298352  0.910133  0.872013  1
  Tb  Tb2  1  0.700553  0.085221  0.870239  1
  Tb  Tb3  1  0.701103  0.914482  0.369980  1
  Tb  Tb4  1  0.580474  0.794469  0.870876  1
  Tb  Tb5  1  0.580082  0.206054  0.371182  1
  Tb  Tb6  1  0.411821  0.794897  0.379254  1
  Tb  Tb7  1  0.411324  0.204865  0.878968  1
  Tb  Tb8  1  0.209732  0.415712  0.623467  1
  Tb  Tb9  1  0.210001  0.584661  0.123031  1
  Tb  Tb10  1  0.797130  0.412482  0.126649  1
  Tb  Tb11  1  0.797040  0.587071  0.628712  1
  Tb  Tb12  1  0.915377  0.702121  0.127745  1
  Tb  Tb13  1  0.914767  0.297142  0.630609  1
  Tb  Tb14  1  0.094120  0.702667  0.631668  1
  Tb  Tb15  1  0.093929  0.298391  0.129613  1
  Tb  Tb16  1  0.999903  0.999134  0.498637  1
  Tb  Tb17  1  0.999847  0.000996  0.998441  1
  Tb  Tb18  1  0.495450  0.499140  0.999067  1
  Tb  Tb19  1  0.495207  0.500978  0.499159  1
  Ir  Ir20  1  0.346837  0.345993  0.249525  1
  Ir  Ir21  1  0.346507  0.653887  0.749326  1
  Ir  Ir22  1  0.998305  0.499943  0.379188  1
  Pd  Pd23  1  0.844866  0.153283  0.250188  1
  Pd  Pd24  1  0.844872  0.846688  0.750265  1
  Pd  Pd25  1  0.152926  0.153650  0.748588  1
  Pd  Pd26  1  0.152713  0.846107  0.248017  1
  Pd  Pd27  1  0.654442  0.345676  0.749493  1
  Pd  Pd28  1  0.654574  0.653934  0.249293  1
  Ru  Ru29  1  0.500845  0.999544  0.124697  1
  Ru  Ru30  1  0.500949  0.000385  0.624048  1
  Ru  Ru31  1  0.997785  0.500223  0.876232  1
