# generated using pymatgen
data_Nd17Pa3(IrRh3)4
_symmetry_space_group_name_H-M   'P 1'
_cell_length_a   7.61645414
_cell_length_b   7.66896894
_cell_length_c   14.88904519
_cell_angle_alpha   89.94006067
_cell_angle_beta   90.04450594
_cell_angle_gamma   89.96283333
_symmetry_Int_Tables_number   1
_chemical_formula_structural   Nd17Pa3(IrRh3)4
_chemical_formula_sum   'Nd17 Pa3 Ir4 Rh12'
_cell_volume   869.67342261
_cell_formula_units_Z   1
loop_
 _symmetry_equiv_pos_site_id
 _symmetry_equiv_pos_as_xyz
  1  'x, y, z'
loop_
 _atom_site_type_symbol
 _atom_site_label
 _atom_site_symmetry_multiplicity
 _atom_site_fract_x
 _atom_site_fract_y
 _atom_site_fract_z
 _atom_site_occupancy
  Nd  Nd0  1  0.834622  0.661326  0.380163  1
  Nd  Nd1  1  0.335778  0.838954  0.378897  1
  Nd  Nd2  1  0.837416  0.660435  0.118626  1
  Nd  Nd3  1  0.661368  0.159666  0.880789  1
  Nd  Nd4  1  0.162523  0.337890  0.621540  1
  Nd  Nd5  1  0.514973  0.682116  0.591524  1
  Nd  Nd6  1  0.016432  0.817049  0.907543  1
  Nd  Nd7  1  0.486149  0.319441  0.094027  1
  Nd  Nd8  1  0.985913  0.187935  0.408202  1
  Nd  Nd9  1  0.488939  0.318643  0.409943  1
  Nd  Nd10  1  0.988702  0.178987  0.091577  1
  Nd  Nd11  1  0.507821  0.677136  0.910213  1
  Nd  Nd12  1  0.009460  0.821666  0.590652  1
  Nd  Nd13  1  0.816272  0.515795  0.748383  1
  Nd  Nd14  1  0.317623  0.983061  0.752497  1
  Nd  Nd15  1  0.174196  0.487796  0.249061  1
  Nd  Nd16  1  0.684874  0.011276  0.252888  1
  Pa  Pa17  1  0.660058  0.155501  0.625665  1
  Pa  Pa18  1  0.161176  0.342072  0.877928  1
  Pa  Pa19  1  0.335909  0.841403  0.120846  1
  Ir  Ir20  1  0.693863  0.970981  0.470894  1
  Ir  Ir21  1  0.201996  0.546708  0.030764  1
  Ir  Ir22  1  0.296745  0.051443  0.966379  1
  Ir  Ir23  1  0.798530  0.436221  0.542914  1
  Rh  Rh24  1  0.343808  0.035925  0.548924  1
  Rh  Rh25  1  0.855339  0.457760  0.950812  1
  Rh  Rh26  1  0.637751  0.957181  0.049652  1
  Rh  Rh27  1  0.169580  0.530384  0.456000  1
  Rh  Rh28  1  0.459055  0.363580  0.752206  1
  Rh  Rh29  1  0.964996  0.136787  0.755492  1
  Rh  Rh30  1  0.528032  0.631265  0.239343  1
  Rh  Rh31  1  0.061405  0.879550  0.234213  1
  Rh  Rh32  1  0.703786  0.885754  0.739104  1
  Rh  Rh33  1  0.200726  0.617264  0.760779  1
  Rh  Rh34  1  0.315912  0.133269  0.243320  1
  Rh  Rh35  1  0.788271  0.367783  0.248235  1
