# generated using pymatgen
data_H(SeN4)2
_symmetry_space_group_name_H-M   'P 1'
_cell_length_a   4.37109279
_cell_length_b   4.38797054
_cell_length_c   19.82693414
_cell_angle_alpha   91.58186327
_cell_angle_beta   86.10780971
_cell_angle_gamma   88.61807442
_symmetry_Int_Tables_number   1
_chemical_formula_structural   H(SeN4)2
_chemical_formula_sum   'H1 Se2 N8'
_cell_volume   379.13456990
_cell_formula_units_Z   1
loop_
 _symmetry_equiv_pos_site_id
 _symmetry_equiv_pos_as_xyz
  1  'x, y, z'
loop_
 _atom_site_type_symbol
 _atom_site_label
 _atom_site_symmetry_multiplicity
 _atom_site_fract_x
 _atom_site_fract_y
 _atom_site_fract_z
 _atom_site_occupancy
  H  H0  1  0.961922  0.575625  0.365795  1
  Se  Se1  1  0.991295  0.565149  0.290402  1
  Se  Se2  1  0.491133  0.297052  0.282843  1
  N  N3  1  0.254125  0.972407  0.904711  1
  N  N4  1  0.750323  0.385881  0.694935  1
  N  N5  1  0.167621  0.180634  0.934053  1
  N  N6  1  0.201182  0.068804  0.454873  1
  N  N7  1  0.254247  0.864119  0.101314  1
  N  N8  1  0.924149  0.546605  0.712170  1
  N  N9  1  0.018991  0.248972  0.465602  1
  N  N10  1  0.465275  0.001572  0.099453  1
