# generated using pymatgen
data_Th2P4IrOs3
_symmetry_space_group_name_H-M   'P 1'
_cell_length_a   4.23165700
_cell_length_b   4.23165700
_cell_length_c   9.45751500
_cell_angle_alpha   90.00000000
_cell_angle_beta   90.00000000
_cell_angle_gamma   90.00000000
_symmetry_Int_Tables_number   1
_chemical_formula_structural   Th2P4IrOs3
_chemical_formula_sum   'Th2 P4 Ir1 Os3'
_cell_volume   169.35497364
_cell_formula_units_Z   1
loop_
 _symmetry_equiv_pos_site_id
 _symmetry_equiv_pos_as_xyz
  1  'x, y, z'
loop_
 _atom_site_type_symbol
 _atom_site_label
 _atom_site_symmetry_multiplicity
 _atom_site_fract_x
 _atom_site_fract_y
 _atom_site_fract_z
 _atom_site_occupancy
  Th  Th0  1  0.000000  0.500000  0.240387  1
  Th  Th1  1  0.500000  0.000000  0.758797  1
  P  P2  1  0.000000  0.000000  0.999180  1
  P  P3  1  0.500000  0.500000  0.999180  1
  P  P4  1  0.000000  0.500000  0.630230  1
  P  P5  1  0.500000  0.000000  0.373526  1
  Ir  Ir6  1  0.500000  0.000000  0.115867  1
  Os  Os7  1  0.000000  0.000000  0.498841  1
  Os  Os8  1  0.500000  0.500000  0.498841  1
  Os  Os9  1  0.000000  0.500000  0.885151  1
