# generated using pymatgen
data_Tb20AgIr7Ru4
_symmetry_space_group_name_H-M   'P 1'
_cell_length_a   10.93108975
_cell_length_b   10.93108975
_cell_length_c   6.47937138
_cell_angle_alpha   90.05256305
_cell_angle_beta   90.05256305
_cell_angle_gamma   89.67253810
_symmetry_Int_Tables_number   1
_chemical_formula_structural   Tb20AgIr7Ru4
_chemical_formula_sum   'Tb20 Ag1 Ir7 Ru4'
_cell_volume   774.19852158
_cell_formula_units_Z   1
loop_
 _symmetry_equiv_pos_site_id
 _symmetry_equiv_pos_as_xyz
  1  'x, y, z'
loop_
 _atom_site_type_symbol
 _atom_site_label
 _atom_site_symmetry_multiplicity
 _atom_site_fract_x
 _atom_site_fract_y
 _atom_site_fract_z
 _atom_site_occupancy
  Tb  Tb0  1  0.291215  0.085498  0.378360  1
  Tb  Tb1  1  0.295550  0.912737  0.878296  1
  Tb  Tb2  1  0.700725  0.082678  0.860837  1
  Tb  Tb3  1  0.703452  0.904430  0.382520  1
  Tb  Tb4  1  0.586726  0.792237  0.880912  1
  Tb  Tb5  1  0.575519  0.207269  0.379698  1
  Tb  Tb6  1  0.411327  0.792850  0.379463  1
  Tb  Tb7  1  0.411500  0.206366  0.881031  1
  Tb  Tb8  1  0.207763  0.413274  0.619088  1
  Tb  Tb9  1  0.207150  0.588673  0.120537  1
  Tb  Tb10  1  0.792731  0.424481  0.120302  1
  Tb  Tb11  1  0.793634  0.588500  0.618969  1
  Tb  Tb12  1  0.914502  0.708785  0.121640  1
  Tb  Tb13  1  0.917322  0.299275  0.639163  1
  Tb  Tb14  1  0.087263  0.704450  0.621704  1
  Tb  Tb15  1  0.095570  0.296548  0.117480  1
  Tb  Tb16  1  0.003837  0.995169  0.503503  1
  Tb  Tb17  1  0.004831  0.996163  0.996497  1
  Tb  Tb18  1  0.499075  0.499939  0.998986  1
  Tb  Tb19  1  0.500061  0.500925  0.501014  1
  Ag  Ag20  1  0.842978  0.157022  0.250000  1
  Ir  Ir21  1  0.848986  0.848975  0.749750  1
  Ir  Ir22  1  0.151025  0.151014  0.750250  1
  Ir  Ir23  1  0.153904  0.846096  0.250000  1
  Ir  Ir24  1  0.653700  0.346300  0.750000  1
  Ir  Ir25  1  0.652118  0.651534  0.249579  1
  Ir  Ir26  1  0.348466  0.347882  0.250421  1
  Ir  Ir27  1  0.347316  0.652684  0.750000  1
  Ru  Ru28  1  0.501275  0.999748  0.124727  1
  Ru  Ru29  1  0.499608  0.999381  0.621495  1
  Ru  Ru30  1  0.000619  0.500392  0.878505  1
  Ru  Ru31  1  0.000252  0.498725  0.375273  1
