# generated using pymatgen
data_Na2ThCl6
_symmetry_space_group_name_H-M   'P 1'
_cell_length_a   12.23685400
_cell_length_b   12.23685413
_cell_length_c   6.28103000
_cell_angle_alpha   90.00000000
_cell_angle_beta   90.00000000
_cell_angle_gamma   120.00000505
_symmetry_Int_Tables_number   1
_chemical_formula_structural   Na2ThCl6
_chemical_formula_sum   'Na6 Th3 Cl18'
_cell_volume   814.51866128
_cell_formula_units_Z   3
loop_
 _symmetry_equiv_pos_site_id
 _symmetry_equiv_pos_as_xyz
  1  'x, y, z'
loop_
 _atom_site_type_symbol
 _atom_site_label
 _atom_site_symmetry_multiplicity
 _atom_site_fract_x
 _atom_site_fract_y
 _atom_site_fract_z
 _atom_site_occupancy
  Na  Na0  1  0.000000  0.338899  0.000000  1
  Na  Na1  1  0.661101  0.661101  0.000000  1
  Na  Na2  1  0.338899  0.000000  0.000000  1
  Na  Na3  1  0.000000  0.661101  0.000000  1
  Na  Na4  1  0.338899  0.338899  0.000000  1
  Na  Na5  1  0.661101  0.000000  0.000000  1
  Th  Th6  1  0.333333  0.666667  0.494462  1
  Th  Th7  1  0.666667  0.333333  0.505538  1
  Th  Th8  1  0.000000  0.000000  0.000000  1
  Cl  Cl9  1  0.438410  0.561590  0.246701  1
  Cl  Cl10  1  0.772232  0.227768  0.265391  1
  Cl  Cl11  1  0.227768  0.772232  0.734609  1
  Cl  Cl12  1  0.772232  0.544463  0.265391  1
  Cl  Cl13  1  0.215153  0.107576  0.770398  1
  Cl  Cl14  1  0.455537  0.227768  0.265391  1
  Cl  Cl15  1  0.544463  0.772232  0.734609  1
  Cl  Cl16  1  0.892424  0.784847  0.770398  1
  Cl  Cl17  1  0.561590  0.438410  0.753299  1
  Cl  Cl18  1  0.561590  0.123180  0.753299  1
  Cl  Cl19  1  0.876820  0.438410  0.753299  1
  Cl  Cl20  1  0.123180  0.561590  0.246701  1
  Cl  Cl21  1  0.438410  0.876820  0.246701  1
  Cl  Cl22  1  0.227768  0.455537  0.734609  1
  Cl  Cl23  1  0.107576  0.215153  0.229602  1
  Cl  Cl24  1  0.107576  0.892424  0.229602  1
  Cl  Cl25  1  0.784847  0.892424  0.229602  1
  Cl  Cl26  1  0.892424  0.107576  0.770398  1
