# generated using pymatgen
data_ScPa3Ge4IrPt3
_symmetry_space_group_name_H-M   'P 1'
_cell_length_a   4.36164200
_cell_length_b   6.92307814
_cell_length_c   7.65828655
_cell_angle_alpha   89.88942549
_cell_angle_beta   90.00000000
_cell_angle_gamma   90.00000000
_symmetry_Int_Tables_number   1
_chemical_formula_structural   ScPa3Ge4IrPt3
_chemical_formula_sum   'Sc1 Pa3 Ge4 Ir1 Pt3'
_cell_volume   231.24910117
_cell_formula_units_Z   1
loop_
 _symmetry_equiv_pos_site_id
 _symmetry_equiv_pos_as_xyz
  1  'x, y, z'
loop_
 _atom_site_type_symbol
 _atom_site_label
 _atom_site_symmetry_multiplicity
 _atom_site_fract_x
 _atom_site_fract_y
 _atom_site_fract_z
 _atom_site_occupancy
  Sc  Sc0  1  0.750000  0.504089  0.794698  1
  Pa  Pa1  1  0.250000  0.002120  0.299305  1
  Pa  Pa2  1  0.250000  0.491692  0.205644  1
  Pa  Pa3  1  0.750000  0.008948  0.703516  1
  Ge  Ge4  1  0.250000  0.319335  0.592815  1
  Ge  Ge5  1  0.250000  0.805242  0.908409  1
  Ge  Ge6  1  0.750000  0.682522  0.415242  1
  Ge  Ge7  1  0.750000  0.192251  0.083833  1
  Ir  Ir8  1  0.750000  0.274749  0.413708  1
  Pt  Pt9  1  0.250000  0.223316  0.914526  1
  Pt  Pt10  1  0.250000  0.712333  0.584719  1
  Pt  Pt11  1  0.750000  0.783404  0.083584  1
