# generated using pymatgen
data_Y2HoTh5(ReC2)4
_symmetry_space_group_name_H-M   'P 1'
_cell_length_a   5.30887600
_cell_length_b   6.66685713
_cell_length_c   9.93952309
_cell_angle_alpha   90.18369696
_cell_angle_beta   90.00000000
_cell_angle_gamma   90.00000000
_symmetry_Int_Tables_number   1
_chemical_formula_structural   Y2HoTh5(ReC2)4
_chemical_formula_sum   'Y2 Ho1 Th5 Re4 C8'
_cell_volume   351.79287924
_cell_formula_units_Z   1
loop_
 _symmetry_equiv_pos_site_id
 _symmetry_equiv_pos_as_xyz
  1  'x, y, z'
loop_
 _atom_site_type_symbol
 _atom_site_label
 _atom_site_symmetry_multiplicity
 _atom_site_fract_x
 _atom_site_fract_y
 _atom_site_fract_z
 _atom_site_occupancy
  Y  Y0  1  0.750000  0.676797  0.551171  1
  Y  Y1  1  0.750000  0.180693  0.947122  1
  Ho  Ho2  1  0.250000  0.323601  0.448235  1
  Th  Th3  1  0.250000  0.469964  0.781233  1
  Th  Th4  1  0.750000  0.029136  0.284766  1
  Th  Th5  1  0.250000  0.973183  0.712878  1
  Th  Th6  1  0.750000  0.525195  0.221289  1
  Th  Th7  1  0.250000  0.814665  0.047467  1
  Re  Re8  1  0.250000  0.273707  0.137569  1
  Re  Re9  1  0.750000  0.228736  0.635932  1
  Re  Re10  1  0.250000  0.772411  0.366237  1
  Re  Re11  1  0.750000  0.729210  0.860678  1
  C  C12  1  0.250000  0.170827  0.947893  1
  C  C13  1  0.750000  0.832003  0.052055  1
  C  C14  1  0.250000  0.669798  0.552612  1
  C  C15  1  0.750000  0.330123  0.448378  1
  C  C16  1  0.250000  0.040914  0.262870  1
  C  C17  1  0.750000  0.461844  0.759272  1
  C  C18  1  0.250000  0.535367  0.244576  1
  C  C19  1  0.750000  0.961824  0.737770  1
