# generated using pymatgen
data_Ba2GaP3Ir4
_symmetry_space_group_name_H-M   'P 1'
_cell_length_a   6.99648056
_cell_length_b   6.99648001
_cell_length_c   5.72695300
_cell_angle_alpha   90.00000000
_cell_angle_beta   90.00000000
_cell_angle_gamma   131.69689448
_symmetry_Int_Tables_number   1
_chemical_formula_structural   Ba2GaP3Ir4
_chemical_formula_sum   'Ba2 Ga1 P3 Ir4'
_cell_volume   209.32158545
_cell_formula_units_Z   1
loop_
 _symmetry_equiv_pos_site_id
 _symmetry_equiv_pos_as_xyz
  1  'x, y, z'
loop_
 _atom_site_type_symbol
 _atom_site_label
 _atom_site_symmetry_multiplicity
 _atom_site_fract_x
 _atom_site_fract_y
 _atom_site_fract_z
 _atom_site_occupancy
  Ba  Ba0  1  0.495576  0.504424  0.500000  1
  Ba  Ba1  1  0.991024  0.008976  0.000000  1
  Ga  Ga2  1  0.135648  0.864352  0.500000  1
  P  P3  1  0.656139  0.343861  0.000000  1
  P  P4  1  0.348173  0.651827  0.000000  1
  P  P5  1  0.846496  0.153504  0.500000  1
  Ir  Ir6  1  0.504982  0.998559  0.248042  1
  Ir  Ir7  1  0.001441  0.495018  0.751958  1
  Ir  Ir8  1  0.001441  0.495018  0.248042  1
  Ir  Ir9  1  0.504982  0.998559  0.751958  1
