# generated using pymatgen
data_Li29ZnSi8
_symmetry_space_group_name_H-M   'P 1'
_cell_length_a   9.14498230
_cell_length_b   9.16536939
_cell_length_c   9.07609139
_cell_angle_alpha   109.13274139
_cell_angle_beta   109.44645403
_cell_angle_gamma   109.90013076
_symmetry_Int_Tables_number   1
_chemical_formula_structural   Li29ZnSi8
_chemical_formula_sum   'Li29 Zn1 Si8'
_cell_volume   585.11683218
_cell_formula_units_Z   1
loop_
 _symmetry_equiv_pos_site_id
 _symmetry_equiv_pos_as_xyz
  1  'x, y, z'
loop_
 _atom_site_type_symbol
 _atom_site_label
 _atom_site_symmetry_multiplicity
 _atom_site_fract_x
 _atom_site_fract_y
 _atom_site_fract_z
 _atom_site_occupancy
  Li  Li0  1  0.124455  0.750540  0.876239  1
  Li  Li1  1  0.722874  0.340361  0.809783  1
  Li  Li2  1  0.616338  0.774589  0.587628  1
  Li  Li3  1  0.033878  0.916443  0.692251  1
  Li  Li4  1  0.086290  0.275827  0.116897  1
  Li  Li5  1  0.913587  0.690402  0.030660  1
  Li  Li6  1  0.275400  0.116727  0.084895  1
  Li  Li7  1  0.197052  0.418842  0.535065  1
  Li  Li8  1  0.778775  0.587276  0.620338  1
  Li  Li9  1  0.690052  0.028705  0.911837  1
  Li  Li10  1  0.527133  0.186749  0.413740  1
  Li  Li11  1  0.622446  0.375037  0.246990  1
  Li  Li12  1  0.470249  0.163056  0.882993  1
  Li  Li13  1  0.875216  0.125225  0.751945  1
  Li  Li14  1  0.969447  0.381146  0.659185  1
  Li  Li15  1  0.413615  0.530868  0.189927  1
  Li  Li16  1  0.117668  0.087192  0.276472  1
  Li  Li17  1  0.306382  0.838096  0.221735  1
  Li  Li18  1  0.751932  0.874759  0.124959  1
  Li  Li19  1  0.883783  0.469654  0.159461  1
  Li  Li20  1  0.584272  0.619596  0.776745  1
  Li  Li21  1  0.380922  0.657211  0.963542  1
  Li  Li22  1  0.810176  0.725742  0.341136  1
  Li  Li23  1  0.656618  0.962800  0.380640  1
  Li  Li24  1  0.157211  0.883074  0.466810  1
  Li  Li25  1  0.223015  0.309055  0.841747  1
  Li  Li26  1  0.373347  0.250132  0.626329  1
  Li  Li27  1  0.843623  0.222385  0.307518  1
  Li  Li28  1  0.252644  0.624819  0.377434  1
  Zn  Zn29  1  0.336207  0.817943  0.724935  1
  Si  Si30  1  0.495866  0.995078  0.588881  1
  Si  Si31  1  0.585632  0.500268  0.000991  1
  Si  Si32  1  0.496801  0.996306  0.075439  1
  Si  Si33  1  0.998217  0.085923  0.499455  1
  Si  Si34  1  0.009876  0.590636  0.506373  1
  Si  Si35  1  0.085080  0.500247  0.999931  1
  Si  Si36  1  0.418044  0.411062  0.413290  1
  Si  Si37  1  0.915878  0.916227  0.915805  1
