# generated using pymatgen
data_Dy3Y(WO6)2
_symmetry_space_group_name_H-M   'P 1'
_cell_length_a   5.40313700
_cell_length_b   7.71102977
_cell_length_c   11.49544676
_cell_angle_alpha   75.50560018
_cell_angle_beta   90.00000000
_cell_angle_gamma   90.00000000
_symmetry_Int_Tables_number   1
_chemical_formula_structural   Dy3Y(WO6)2
_chemical_formula_sum   'Dy6 Y2 W4 O24'
_cell_volume   463.69966372
_cell_formula_units_Z   2
loop_
 _symmetry_equiv_pos_site_id
 _symmetry_equiv_pos_as_xyz
  1  'x, y, z'
loop_
 _atom_site_type_symbol
 _atom_site_label
 _atom_site_symmetry_multiplicity
 _atom_site_fract_x
 _atom_site_fract_y
 _atom_site_fract_z
 _atom_site_occupancy
  Dy  Dy0  1  0.738316  0.000000  0.750000  1
  Dy  Dy1  1  0.261684  0.000000  0.250000  1
  Dy  Dy2  1  0.187215  0.795941  0.577631  1
  Dy  Dy3  1  0.812785  0.795941  0.077631  1
  Dy  Dy4  1  0.187215  0.204059  0.922369  1
  Dy  Dy5  1  0.812785  0.204059  0.422369  1
  Y  Y6  1  0.684200  0.500000  0.750000  1
  Y  Y7  1  0.315800  0.500000  0.250000  1
  W  W8  1  0.254208  0.723099  0.885602  1
  W  W9  1  0.745792  0.723099  0.385602  1
  W  W10  1  0.254208  0.276901  0.614398  1
  W  W11  1  0.745792  0.276901  0.114398  1
  O  O12  1  0.041235  0.939078  0.895163  1
  O  O13  1  0.528711  0.849918  0.930761  1
  O  O14  1  0.958765  0.939078  0.395163  1
  O  O15  1  0.459263  0.789062  0.728483  1
  O  O16  1  0.471289  0.849918  0.430761  1
  O  O17  1  0.983312  0.709892  0.771323  1
  O  O18  1  0.540737  0.789062  0.228483  1
  O  O19  1  0.852152  0.635390  0.547701  1
  O  O20  1  0.362124  0.489705  0.887269  1
  O  O21  1  0.016688  0.709892  0.271323  1
  O  O22  1  0.362124  0.510295  0.612731  1
  O  O23  1  0.852152  0.364610  0.952299  1
  O  O24  1  0.147848  0.635390  0.047701  1
  O  O25  1  0.637876  0.489705  0.387269  1
  O  O26  1  0.983312  0.290108  0.728677  1
  O  O27  1  0.637876  0.510295  0.112731  1
  O  O28  1  0.147848  0.364610  0.452299  1
  O  O29  1  0.459263  0.210938  0.771517  1
  O  O30  1  0.016688  0.290108  0.228677  1
  O  O31  1  0.528711  0.150082  0.569239  1
  O  O32  1  0.540737  0.210938  0.271517  1
  O  O33  1  0.041235  0.060922  0.604837  1
  O  O34  1  0.471289  0.150082  0.069239  1
  O  O35  1  0.958765  0.060922  0.104837  1
