# generated using pymatgen
data_LuZrV3Si4
_symmetry_space_group_name_H-M   'P 1'
_cell_length_a   6.69124259
_cell_length_b   6.69184955
_cell_length_c   12.38476352
_cell_angle_alpha   90.09668759
_cell_angle_beta   89.95772183
_cell_angle_gamma   89.89690196
_symmetry_Int_Tables_number   1
_chemical_formula_structural   LuZrV3Si4
_chemical_formula_sum   'Lu4 Zr4 V12 Si16'
_cell_volume   554.54809966
_cell_formula_units_Z   4
loop_
 _symmetry_equiv_pos_site_id
 _symmetry_equiv_pos_as_xyz
  1  'x, y, z'
loop_
 _atom_site_type_symbol
 _atom_site_label
 _atom_site_symmetry_multiplicity
 _atom_site_fract_x
 _atom_site_fract_y
 _atom_site_fract_z
 _atom_site_occupancy
  Lu  Lu0  1  0.500599  0.163532  0.219832  1
  Lu  Lu1  1  0.999623  0.337687  0.529938  1
  Lu  Lu2  1  0.663235  0.999296  0.970504  1
  Lu  Lu3  1  0.337528  0.999636  0.469933  1
  Zr  Zr4  1  0.004267  0.659369  0.029919  1
  Zr  Zr5  1  0.840287  0.504868  0.280733  1
  Zr  Zr6  1  0.160801  0.497024  0.780437  1
  Zr  Zr7  1  0.502948  0.838774  0.719527  1
  V  V8  1  0.330613  0.335052  0.999395  1
  V  V9  1  0.165150  0.830306  0.249337  1
  V  V10  1  0.833367  0.166877  0.750681  1
  V  V11  1  0.667831  0.667451  0.500726  1
  V  V12  1  0.004569  0.159075  0.125382  1
  V  V13  1  0.340743  0.506748  0.375717  1
  V  V14  1  0.658184  0.495896  0.875571  1
  V  V15  1  0.506236  0.342827  0.625493  1
  V  V16  1  0.492513  0.658054  0.123152  1
  V  V17  1  0.994016  0.840294  0.627677  1
  V  V18  1  0.157549  0.005545  0.873731  1
  V  V19  1  0.840950  0.991957  0.373324  1
  Si  Si20  1  0.288409  0.959613  0.064034  1
  Si  Si21  1  0.539626  0.788865  0.314060  1
  Si  Si22  1  0.460098  0.209833  0.814630  1
  Si  Si23  1  0.790594  0.540316  0.685645  1
  Si  Si24  1  0.208324  0.460606  0.185287  1
  Si  Si25  1  0.710297  0.038907  0.564406  1
  Si  Si26  1  0.960013  0.291372  0.935407  1
  Si  Si27  1  0.039447  0.709988  0.435869  1
  Si  Si28  1  0.705121  0.376281  0.069260  1
  Si  Si29  1  0.124042  0.203773  0.317200  1
  Si  Si30  1  0.874211  0.793858  0.819483  1
  Si  Si31  1  0.204721  0.125807  0.682346  1
  Si  Si32  1  0.798116  0.870403  0.180770  1
  Si  Si33  1  0.297617  0.627369  0.570733  1
  Si  Si34  1  0.371125  0.703409  0.928840  1
  Si  Si35  1  0.627234  0.299332  0.431023  1
