# generated using pymatgen
data_Sm4B16Ru11Rh5
_symmetry_space_group_name_H-M   'P 1'
_cell_length_a   9.25825645
_cell_length_b   7.54875526
_cell_length_c   7.53989431
_cell_angle_alpha   89.96223090
_cell_angle_beta   113.95587942
_cell_angle_gamma   114.32576639
_symmetry_Int_Tables_number   1
_chemical_formula_structural   Sm4B16Ru11Rh5
_chemical_formula_sum   'Sm4 B16 Ru11 Rh5'
_cell_volume   429.93337840
_cell_formula_units_Z   1
loop_
 _symmetry_equiv_pos_site_id
 _symmetry_equiv_pos_as_xyz
  1  'x, y, z'
loop_
 _atom_site_type_symbol
 _atom_site_label
 _atom_site_symmetry_multiplicity
 _atom_site_fract_x
 _atom_site_fract_y
 _atom_site_fract_z
 _atom_site_occupancy
  Sm  Sm0  1  0.748905  0.874004  0.123288  1
  Sm  Sm1  1  0.251728  0.626058  0.373448  1
  Sm  Sm2  1  0.749370  0.376290  0.624501  1
  Sm  Sm3  1  0.248126  0.124108  0.875868  1
  B  B4  1  0.910635  0.285015  0.065573  1
  B  B5  1  0.413316  0.562657  0.123673  1
  B  B6  1  0.082296  0.210786  0.150685  1
  B  B7  1  0.588321  0.146438  0.210924  1
  B  B8  1  0.416815  0.057767  0.293372  1
  B  B9  1  0.918277  0.624616  0.362257  1
  B  B10  1  0.586468  0.652997  0.376290  1
  B  B11  1  0.086737  0.878817  0.444518  1
  B  B12  1  0.914066  0.125965  0.562511  1
  B  B13  1  0.410579  0.346035  0.625908  1
  B  B14  1  0.086882  0.375449  0.652156  1
  B  B15  1  0.588043  0.937596  0.711501  1
  B  B16  1  0.414592  0.847836  0.783809  1
  B  B17  1  0.912807  0.790465  0.845009  1
  B  B18  1  0.584337  0.432885  0.871301  1
  B  B19  1  0.083044  0.708015  0.930440  1
  Ru  Ru20  1  0.872868  0.324348  0.333022  1
  Ru  Ru21  1  0.626154  0.959318  0.448910  1
  Ru  Ru22  1  0.127049  0.179175  0.459012  1
  Ru  Ru23  1  0.874693  0.825218  0.540585  1
  Ru  Ru24  1  0.371528  0.039042  0.548469  1
  Ru  Ru25  1  0.128927  0.677163  0.669058  1
  Ru  Ru26  1  0.625997  0.667369  0.677576  1
  Ru  Ru27  1  0.373428  0.538085  0.822857  1
  Ru  Ru28  1  0.874049  0.052935  0.832128  1
  Ru  Ru29  1  0.627331  0.169895  0.948937  1
  Ru  Ru30  1  0.127639  0.450861  0.960945  1
  Rh  Rh31  1  0.875938  0.553907  0.041247  1
  Rh  Rh32  1  0.378062  0.837775  0.051138  1
  Rh  Rh33  1  0.121787  0.946951  0.163184  1
  Rh  Rh34  1  0.625433  0.461177  0.176393  1
  Rh  Rh35  1  0.373774  0.332983  0.319510  1
