# generated using pymatgen
data_Tb4Y(SiB4)2
_symmetry_space_group_name_H-M   'P 1'
_cell_length_a   7.25274300
_cell_length_b   7.25274300
_cell_length_c   8.13504700
_cell_angle_alpha   90.00000000
_cell_angle_beta   90.00000000
_cell_angle_gamma   90.00000000
_symmetry_Int_Tables_number   1
_chemical_formula_structural   Tb4Y(SiB4)2
_chemical_formula_sum   'Tb8 Y2 Si4 B16'
_cell_volume   427.92202844
_cell_formula_units_Z   2
loop_
 _symmetry_equiv_pos_site_id
 _symmetry_equiv_pos_as_xyz
  1  'x, y, z'
loop_
 _atom_site_type_symbol
 _atom_site_label
 _atom_site_symmetry_multiplicity
 _atom_site_fract_x
 _atom_site_fract_y
 _atom_site_fract_z
 _atom_site_occupancy
  Tb  Tb0  1  0.680313  0.180313  0.224497  1
  Tb  Tb1  1  0.319687  0.819687  0.775503  1
  Tb  Tb2  1  0.319687  0.819687  0.224497  1
  Tb  Tb3  1  0.819687  0.680313  0.224497  1
  Tb  Tb4  1  0.819687  0.680313  0.775503  1
  Tb  Tb5  1  0.680313  0.180313  0.775503  1
  Tb  Tb6  1  0.180313  0.319687  0.775503  1
  Tb  Tb7  1  0.180313  0.319687  0.224497  1
  Y  Y8  1  0.000000  0.000000  0.500000  1
  Y  Y9  1  0.500000  0.500000  0.500000  1
  Si  Si10  1  0.114698  0.614698  0.500000  1
  Si  Si11  1  0.885302  0.385302  0.500000  1
  Si  Si12  1  0.385302  0.114698  0.500000  1
  Si  Si13  1  0.614698  0.885302  0.500000  1
  B  B14  1  0.172373  0.039121  0.000000  1
  B  B15  1  0.827627  0.960879  0.000000  1
  B  B16  1  0.960879  0.172373  0.000000  1
  B  B17  1  0.327627  0.539121  0.000000  1
  B  B18  1  0.039121  0.827627  0.000000  1
  B  B19  1  0.672373  0.460879  0.000000  1
  B  B20  1  0.539121  0.672373  0.000000  1
  B  B21  1  0.460879  0.327627  0.000000  1
  B  B22  1  0.090127  0.590127  0.000000  1
  B  B23  1  0.909873  0.409873  0.000000  1
  B  B24  1  0.409873  0.090127  0.000000  1
  B  B25  1  0.590127  0.909873  0.000000  1
  B  B26  1  0.000000  0.000000  0.161140  1
  B  B27  1  0.000000  0.000000  0.838860  1
  B  B28  1  0.500000  0.500000  0.838860  1
  B  B29  1  0.500000  0.500000  0.161140  1
