# generated using pymatgen
data_SbP2Cl15
_symmetry_space_group_name_H-M   'P 1'
_cell_length_a   8.82453925
_cell_length_b   8.82454101
_cell_length_c   10.63418633
_cell_angle_alpha   63.02806897
_cell_angle_beta   63.02806604
_cell_angle_gamma   54.38235319
_symmetry_Int_Tables_number   1
_chemical_formula_structural   SbP2Cl15
_chemical_formula_sum   'Sb1 P2 Cl15'
_cell_volume   579.09774790
_cell_formula_units_Z   1
loop_
 _symmetry_equiv_pos_site_id
 _symmetry_equiv_pos_as_xyz
  1  'x, y, z'
loop_
 _atom_site_type_symbol
 _atom_site_label
 _atom_site_symmetry_multiplicity
 _atom_site_fract_x
 _atom_site_fract_y
 _atom_site_fract_z
 _atom_site_occupancy
  Sb  Sb0  1  0.500000  0.500000  0.500000  1
  P  P1  1  0.283511  0.283511  0.175365  1
  P  P2  1  0.716489  0.716489  0.824635  1
  Cl  Cl3  1  0.323163  0.323163  0.598179  1
  Cl  Cl4  1  0.692654  0.269977  0.673338  1
  Cl  Cl5  1  0.184927  0.184927  0.385062  1
  Cl  Cl6  1  0.568518  0.164906  0.122386  1
  Cl  Cl7  1  0.676837  0.676837  0.401821  1
  Cl  Cl8  1  0.730023  0.307346  0.326662  1
  Cl  Cl9  1  0.269977  0.692654  0.673338  1
  Cl  Cl10  1  0.787108  0.787108  0.934264  1
  Cl  Cl11  1  0.431482  0.835094  0.877614  1
  Cl  Cl12  1  0.212892  0.212892  0.065736  1
  Cl  Cl13  1  0.815073  0.815073  0.614938  1
  Cl  Cl14  1  0.307346  0.730023  0.326662  1
  Cl  Cl15  1  0.164906  0.568518  0.122386  1
  Cl  Cl16  1  0.000000  0.000000  0.000000  1
  Cl  Cl17  1  0.835094  0.431482  0.877614  1
