# generated using pymatgen
data_RbAl2InTe5
_symmetry_space_group_name_H-M   'P 1'
_cell_length_a   11.20559570
_cell_length_b   11.28623610
_cell_length_c   11.21864317
_cell_angle_alpha   91.40795789
_cell_angle_beta   90.63604014
_cell_angle_gamma   91.24886581
_symmetry_Int_Tables_number   1
_chemical_formula_structural   RbAl2InTe5
_chemical_formula_sum   'Rb4 Al8 In4 Te20'
_cell_volume   1417.94917659
_cell_formula_units_Z   4
loop_
 _symmetry_equiv_pos_site_id
 _symmetry_equiv_pos_as_xyz
  1  'x, y, z'
loop_
 _atom_site_type_symbol
 _atom_site_label
 _atom_site_symmetry_multiplicity
 _atom_site_fract_x
 _atom_site_fract_y
 _atom_site_fract_z
 _atom_site_occupancy
  Rb  Rb0  1  0.246252  0.001295  0.751963  1
  Rb  Rb1  1  0.748222  0.244548  0.997921  1
  Rb  Rb2  1  0.000910  0.754588  0.246492  1
  Rb  Rb3  1  0.500696  0.497064  0.499030  1
  Al  Al4  1  0.112981  0.168377  0.424184  1
  Al  Al5  1  0.425499  0.109398  0.176050  1
  Al  Al6  1  0.737415  0.156129  0.356216  1
  Al  Al7  1  0.357741  0.738836  0.159515  1
  Al  Al8  1  0.158811  0.357935  0.733588  1
  Al  Al9  1  0.264913  0.639879  0.837656  1
  Al  Al10  1  0.841739  0.262288  0.639610  1
  Al  Al11  1  0.641581  0.840403  0.261784  1
  In  In12  1  0.838226  0.891412  0.572761  1
  In  In13  1  0.572218  0.839220  0.890797  1
  In  In14  1  0.887051  0.574998  0.837825  1
  In  In15  1  0.168707  0.423271  0.115793  1
  Te  Te16  1  0.200120  0.796193  0.998388  1
  Te  Te17  1  0.800570  0.997968  0.196647  1
  Te  Te18  1  0.187789  0.172933  0.189741  1
  Te  Te19  1  0.826652  0.828111  0.825935  1
  Te  Te20  1  0.998760  0.201692  0.799786  1
  Te  Te21  1  0.930620  0.496089  0.072944  1
  Te  Te22  1  0.072491  0.947202  0.490827  1
  Te  Te23  1  0.486543  0.069723  0.950518  1
  Te  Te24  1  0.732295  0.709419  0.427847  1
  Te  Te25  1  0.430416  0.735235  0.705331  1
  Te  Te26  1  0.707717  0.427933  0.730085  1
  Te  Te27  1  0.268040  0.575761  0.295998  1
  Te  Te28  1  0.283291  0.266593  0.559258  1
  Te  Te29  1  0.563467  0.281018  0.268688  1
  Te  Te30  1  0.680185  0.088217  0.577931  1
  Te  Te31  1  0.577927  0.680437  0.086763  1
  Te  Te32  1  0.087679  0.577607  0.680290  1
  Te  Te33  1  0.319313  0.420058  0.908980  1
  Te  Te34  1  0.921645  0.308790  0.417821  1
  Te  Te35  1  0.421519  0.919379  0.315037  1
