# generated using pymatgen
data_Sc4Fe5Os3
_symmetry_space_group_name_H-M   'P 1'
_cell_length_a   5.01647273
_cell_length_b   5.01647229
_cell_length_c   8.37424300
_cell_angle_alpha   90.00000000
_cell_angle_beta   90.00000000
_cell_angle_gamma   120.88538870
_symmetry_Int_Tables_number   1
_chemical_formula_structural   Sc4Fe5Os3
_chemical_formula_sum   'Sc4 Fe5 Os3'
_cell_volume   180.85429900
_cell_formula_units_Z   1
loop_
 _symmetry_equiv_pos_site_id
 _symmetry_equiv_pos_as_xyz
  1  'x, y, z'
loop_
 _atom_site_type_symbol
 _atom_site_label
 _atom_site_symmetry_multiplicity
 _atom_site_fract_x
 _atom_site_fract_y
 _atom_site_fract_z
 _atom_site_occupancy
  Sc  Sc0  1  0.332986  0.667014  0.437075  1
  Sc  Sc1  1  0.665113  0.334887  0.564017  1
  Sc  Sc2  1  0.665113  0.334887  0.935983  1
  Sc  Sc3  1  0.332986  0.667014  0.062925  1
  Fe  Fe4  1  0.832478  0.659386  0.250000  1
  Fe  Fe5  1  0.340614  0.167522  0.250000  1
  Fe  Fe6  1  0.173903  0.826097  0.750000  1
  Fe  Fe7  1  0.172377  0.344141  0.750000  1
  Fe  Fe8  1  0.655859  0.827623  0.750000  1
  Os  Os9  1  0.000070  0.999930  0.505288  1
  Os  Os10  1  0.000070  0.999930  0.994712  1
  Os  Os11  1  0.828429  0.171571  0.250000  1
