# generated using pymatgen
data_SmSb5(BrO4)2
_symmetry_space_group_name_H-M   'P 1'
_cell_length_a   9.01338086
_cell_length_b   5.67220300
_cell_length_c   5.65331800
_cell_angle_alpha   89.99977777
_cell_angle_beta   92.95426564
_cell_angle_gamma   90.00005180
_symmetry_Int_Tables_number   1
_chemical_formula_structural   SmSb5(BrO4)2
_chemical_formula_sum   'Sm1 Sb5 Br2 O8'
_cell_volume   288.64586348
_cell_formula_units_Z   1
loop_
 _symmetry_equiv_pos_site_id
 _symmetry_equiv_pos_as_xyz
  1  'x, y, z'
loop_
 _atom_site_type_symbol
 _atom_site_label
 _atom_site_symmetry_multiplicity
 _atom_site_fract_x
 _atom_site_fract_y
 _atom_site_fract_z
 _atom_site_occupancy
  Sm  Sm0  1  0.500001  0.236335  0.250000  1
  Sb  Sb1  1  0.787736  0.692346  0.200491  1
  Sb  Sb2  1  0.212262  0.692346  0.299507  1
  Sb  Sb3  1  0.788849  0.307956  0.709294  1
  Sb  Sb4  1  0.499995  0.831094  0.750001  1
  Sb  Sb5  1  0.211147  0.307956  0.790708  1
  Br  Br6  1  0.999997  0.222709  0.249999  1
  Br  Br7  1  0.000014  0.766508  0.750003  1
  O  O8  1  0.324175  0.518259  0.041728  1
  O  O9  1  0.633745  0.922659  0.086020  1
  O  O10  1  0.366256  0.922655  0.413975  1
  O  O11  1  0.675825  0.518255  0.458268  1
  O  O12  1  0.321033  0.448061  0.518845  1
  O  O13  1  0.627917  0.082395  0.598524  1
  O  O14  1  0.372082  0.082401  0.901481  1
  O  O15  1  0.678964  0.448065  0.981152  1
