# generated using pymatgen
data_CeCdTeO6
_symmetry_space_group_name_H-M   'P 1'
_cell_length_a   5.30022300
_cell_length_b   5.30022300
_cell_length_c   9.24617100
_cell_angle_alpha   90.00000000
_cell_angle_beta   90.00000000
_cell_angle_gamma   90.00000000
_symmetry_Int_Tables_number   1
_chemical_formula_structural   CeCdTeO6
_chemical_formula_sum   'Ce2 Cd2 Te2 O12'
_cell_volume   259.74679995
_cell_formula_units_Z   2
loop_
 _symmetry_equiv_pos_site_id
 _symmetry_equiv_pos_as_xyz
  1  'x, y, z'
loop_
 _atom_site_type_symbol
 _atom_site_label
 _atom_site_symmetry_multiplicity
 _atom_site_fract_x
 _atom_site_fract_y
 _atom_site_fract_z
 _atom_site_occupancy
  Ce  Ce0  1  0.500000  0.000000  0.126290  1
  Ce  Ce1  1  0.000000  0.500000  0.873709  1
  Cd  Cd2  1  0.000000  0.000000  0.500000  1
  Cd  Cd3  1  0.500000  0.500000  0.500000  1
  Te  Te4  1  0.000000  0.500000  0.243383  1
  Te  Te5  1  0.500000  0.000000  0.756617  1
  O  O6  1  0.824495  0.324496  0.083867  1
  O  O7  1  0.175504  0.675505  0.083867  1
  O  O8  1  0.260072  0.239927  0.252687  1
  O  O9  1  0.739927  0.760073  0.252687  1
  O  O10  1  0.804590  0.304590  0.379623  1
  O  O11  1  0.195409  0.695409  0.379623  1
  O  O12  1  0.304590  0.195409  0.620378  1
  O  O13  1  0.695409  0.804590  0.620378  1
  O  O14  1  0.760073  0.260072  0.747313  1
  O  O15  1  0.239927  0.739927  0.747313  1
  O  O16  1  0.324496  0.175504  0.916134  1
  O  O17  1  0.675505  0.824495  0.916134  1
