# generated using pymatgen
data_LiTb6Cd22As
_symmetry_space_group_name_H-M   'P 1'
_cell_length_a   9.92080771
_cell_length_b   9.92080667
_cell_length_c   9.92080700
_cell_angle_alpha   60.00000223
_cell_angle_beta   60.00000571
_cell_angle_gamma   60.00000417
_symmetry_Int_Tables_number   1
_chemical_formula_structural   LiTb6Cd22As
_chemical_formula_sum   'Li1 Tb6 Cd22 As1'
_cell_volume   690.44018680
_cell_formula_units_Z   1
loop_
 _symmetry_equiv_pos_site_id
 _symmetry_equiv_pos_as_xyz
  1  'x, y, z'
loop_
 _atom_site_type_symbol
 _atom_site_label
 _atom_site_symmetry_multiplicity
 _atom_site_fract_x
 _atom_site_fract_y
 _atom_site_fract_z
 _atom_site_occupancy
  Li  Li0  1  0.500000  0.500000  0.500000  1
  Tb  Tb1  1  0.795378  0.795378  0.204622  1
  Tb  Tb2  1  0.204622  0.795378  0.204622  1
  Tb  Tb3  1  0.795378  0.204622  0.204622  1
  Tb  Tb4  1  0.204622  0.204622  0.795378  1
  Tb  Tb5  1  0.795378  0.204622  0.795378  1
  Tb  Tb6  1  0.204622  0.795378  0.795378  1
  Cd  Cd7  1  0.834063  0.834063  0.497812  1
  Cd  Cd8  1  0.834063  0.497812  0.834063  1
  Cd  Cd9  1  0.497812  0.834063  0.834063  1
  Cd  Cd10  1  0.834063  0.834063  0.834063  1
  Cd  Cd11  1  0.165937  0.165937  0.502188  1
  Cd  Cd12  1  0.165937  0.502188  0.165937  1
  Cd  Cd13  1  0.502188  0.165937  0.165937  1
  Cd  Cd14  1  0.165937  0.165937  0.165937  1
  Cd  Cd15  1  0.616567  0.616567  0.150298  1
  Cd  Cd16  1  0.616567  0.150298  0.616567  1
  Cd  Cd17  1  0.150298  0.616567  0.616567  1
  Cd  Cd18  1  0.616567  0.616567  0.616567  1
  Cd  Cd19  1  0.383433  0.383433  0.849702  1
  Cd  Cd20  1  0.383433  0.849702  0.383433  1
  Cd  Cd21  1  0.849702  0.383433  0.383433  1
  Cd  Cd22  1  0.383433  0.383433  0.383433  1
  Cd  Cd23  1  0.000000  0.000000  0.500000  1
  Cd  Cd24  1  0.500000  0.000000  0.500000  1
  Cd  Cd25  1  0.000000  0.500000  0.500000  1
  Cd  Cd26  1  0.500000  0.500000  0.000000  1
  Cd  Cd27  1  0.000000  0.500000  0.000000  1
  Cd  Cd28  1  0.500000  0.000000  0.000000  1
  As  As29  1  0.000000  0.000000  0.000000  1
