# generated using pymatgen
data_Nd6Sn6Rh5Au
_symmetry_space_group_name_H-M   'P 1'
_cell_length_a   7.72604200
_cell_length_b   7.72604144
_cell_length_c   8.03904200
_cell_angle_alpha   90.00000000
_cell_angle_beta   90.00000000
_cell_angle_gamma   120.00000238
_symmetry_Int_Tables_number   1
_chemical_formula_structural   Nd6Sn6Rh5Au
_chemical_formula_sum   'Nd6 Sn6 Rh5 Au1'
_cell_volume   415.57462058
_cell_formula_units_Z   1
loop_
 _symmetry_equiv_pos_site_id
 _symmetry_equiv_pos_as_xyz
  1  'x, y, z'
loop_
 _atom_site_type_symbol
 _atom_site_label
 _atom_site_symmetry_multiplicity
 _atom_site_fract_x
 _atom_site_fract_y
 _atom_site_fract_z
 _atom_site_occupancy
  Nd  Nd0  1  0.586010  0.991490  0.743971  1
  Nd  Nd1  1  0.405481  0.413990  0.743971  1
  Nd  Nd2  1  0.008510  0.594519  0.743971  1
  Nd  Nd3  1  0.586875  0.993837  0.256008  1
  Nd  Nd4  1  0.406961  0.413125  0.256008  1
  Nd  Nd5  1  0.006163  0.593039  0.256008  1
  Sn  Sn6  1  0.245781  0.989963  0.000157  1
  Sn  Sn7  1  0.747565  0.743636  0.500161  1
  Sn  Sn8  1  0.996072  0.252435  0.500161  1
  Sn  Sn9  1  0.010037  0.255818  0.000157  1
  Sn  Sn10  1  0.744182  0.754219  0.000157  1
  Sn  Sn11  1  0.256364  0.003928  0.500161  1
  Rh  Rh12  1  0.666667  0.333333  0.501732  1
  Rh  Rh13  1  0.333333  0.666667  0.001495  1
  Rh  Rh14  1  0.333333  0.666667  0.498155  1
  Rh  Rh15  1  0.000000  0.000000  0.749292  1
  Rh  Rh16  1  0.000000  0.000000  0.250973  1
  Au  Au17  1  0.666667  0.333333  0.997462  1
