# generated using pymatgen
data_LaEr2PtO7
_symmetry_space_group_name_H-M   'P 1'
_cell_length_a   6.45074508
_cell_length_b   6.45074554
_cell_length_c   7.53039200
_cell_angle_alpha   90.00000000
_cell_angle_beta   90.00000000
_cell_angle_gamma   109.08328077
_symmetry_Int_Tables_number   1
_chemical_formula_structural   LaEr2PtO7
_chemical_formula_sum   'La2 Er4 Pt2 O14'
_cell_volume   296.13488293
_cell_formula_units_Z   2
loop_
 _symmetry_equiv_pos_site_id
 _symmetry_equiv_pos_as_xyz
  1  'x, y, z'
loop_
 _atom_site_type_symbol
 _atom_site_label
 _atom_site_symmetry_multiplicity
 _atom_site_fract_x
 _atom_site_fract_y
 _atom_site_fract_z
 _atom_site_occupancy
  La  La0  1  0.000000  0.000000  0.500000  1
  La  La1  1  0.000000  0.000000  0.000000  1
  Er  Er2  1  0.512590  0.062529  0.250000  1
  Er  Er3  1  0.937471  0.487410  0.750000  1
  Er  Er4  1  0.487410  0.937471  0.750000  1
  Er  Er5  1  0.062529  0.512590  0.250000  1
  Pt  Pt6  1  0.500000  0.500000  0.500000  1
  Pt  Pt7  1  0.500000  0.500000  0.000000  1
  O  O8  1  0.441786  0.177308  0.533236  1
  O  O9  1  0.822692  0.558214  0.466764  1
  O  O10  1  0.441786  0.177308  0.966764  1
  O  O11  1  0.822692  0.558214  0.033236  1
  O  O12  1  0.558214  0.822692  0.466764  1
  O  O13  1  0.177308  0.441786  0.533236  1
  O  O14  1  0.558214  0.822692  0.033236  1
  O  O15  1  0.177308  0.441786  0.966764  1
  O  O16  1  0.161967  0.874328  0.250000  1
  O  O17  1  0.125672  0.838033  0.750000  1
  O  O18  1  0.838033  0.125672  0.750000  1
  O  O19  1  0.874328  0.161967  0.250000  1
  O  O20  1  0.394948  0.394948  0.250000  1
  O  O21  1  0.605052  0.605052  0.750000  1
