# generated using pymatgen
data_Nd5Sn15Ir3Rh5
_symmetry_space_group_name_H-M   'P 1'
_cell_length_a   4.52833500
_cell_length_b   7.32972927
_cell_length_c   18.76391696
_cell_angle_alpha   89.95746983
_cell_angle_beta   90.00000000
_cell_angle_gamma   90.00000000
_symmetry_Int_Tables_number   1
_chemical_formula_structural   Nd5Sn15Ir3Rh5
_chemical_formula_sum   'Nd5 Sn15 Ir3 Rh5'
_cell_volume   622.80180795
_cell_formula_units_Z   1
loop_
 _symmetry_equiv_pos_site_id
 _symmetry_equiv_pos_as_xyz
  1  'x, y, z'
loop_
 _atom_site_type_symbol
 _atom_site_label
 _atom_site_symmetry_multiplicity
 _atom_site_fract_x
 _atom_site_fract_y
 _atom_site_fract_z
 _atom_site_occupancy
  Nd  Nd0  1  0.500000  0.000862  0.856384  1
  Nd  Nd1  1  0.500000  0.503311  0.357489  1
  Nd  Nd2  1  0.000000  0.002546  0.143397  1
  Nd  Nd3  1  0.000000  0.500552  0.640903  1
  Nd  Nd4  1  0.500000  0.491293  0.930058  1
  Sn  Sn5  1  0.000000  0.716532  0.806238  1
  Sn  Sn6  1  0.000000  0.783631  0.305914  1
  Sn  Sn7  1  0.500000  0.279036  0.194124  1
  Sn  Sn8  1  0.500000  0.218889  0.693150  1
  Sn  Sn9  1  0.000000  0.852684  0.969986  1
  Sn  Sn10  1  0.000000  0.629664  0.467907  1
  Sn  Sn11  1  0.500000  0.133017  0.032628  1
  Sn  Sn12  1  0.500000  0.363997  0.531140  1
  Sn  Sn13  1  0.000000  0.302801  0.818783  1
  Sn  Sn14  1  0.000000  0.202349  0.317838  1
  Sn  Sn15  1  0.500000  0.700396  0.186597  1
  Sn  Sn16  1  0.500000  0.806737  0.678802  1
  Sn  Sn17  1  0.500000  0.019359  0.433381  1
  Sn  Sn18  1  0.000000  0.511006  0.067676  1
  Sn  Sn19  1  0.000000  0.980149  0.567528  1
  Ir  Ir20  1  0.000000  0.227861  0.964595  1
  Ir  Ir21  1  0.500000  0.763015  0.045489  1
  Ir  Ir22  1  0.500000  0.748700  0.533627  1
  Rh  Rh23  1  0.000000  0.247920  0.464711  1
  Rh  Rh24  1  0.000000  0.017182  0.715298  1
  Rh  Rh25  1  0.000000  0.485420  0.213990  1
  Rh  Rh26  1  0.500000  0.990116  0.289188  1
  Rh  Rh27  1  0.500000  0.520976  0.773181  1
