# generated using pymatgen
data_Zr8Co12Si15Ge
_symmetry_space_group_name_H-M   'P 1'
_cell_length_a   5.23957738
_cell_length_b   6.79639843
_cell_length_c   13.77557727
_cell_angle_alpha   90.11693234
_cell_angle_beta   89.96848461
_cell_angle_gamma   90.00912364
_symmetry_Int_Tables_number   1
_chemical_formula_structural   Zr8Co12Si15Ge
_chemical_formula_sum   'Zr8 Co12 Si15 Ge1'
_cell_volume   490.55072395
_cell_formula_units_Z   1
loop_
 _symmetry_equiv_pos_site_id
 _symmetry_equiv_pos_as_xyz
  1  'x, y, z'
loop_
 _atom_site_type_symbol
 _atom_site_label
 _atom_site_symmetry_multiplicity
 _atom_site_fract_x
 _atom_site_fract_y
 _atom_site_fract_z
 _atom_site_occupancy
  Zr  Zr0  1  0.232517  0.401967  0.146503  1
  Zr  Zr1  1  0.732245  0.100920  0.147196  1
  Zr  Zr2  1  0.267470  0.099875  0.645859  1
  Zr  Zr3  1  0.767541  0.399279  0.645901  1
  Zr  Zr4  1  0.231836  0.599810  0.354350  1
  Zr  Zr5  1  0.731918  0.899302  0.354525  1
  Zr  Zr6  1  0.267546  0.899612  0.853192  1
  Zr  Zr7  1  0.767603  0.600268  0.853682  1
  Co  Co8  1  0.992453  0.279258  0.978076  1
  Co  Co9  1  0.504982  0.227390  0.480232  1
  Co  Co10  1  0.774654  0.999548  0.749718  1
  Co  Co11  1  0.499695  0.235439  0.977832  1
  Co  Co12  1  0.725404  0.499466  0.251132  1
  Co  Co13  1  0.495308  0.772141  0.519957  1
  Co  Co14  1  0.004841  0.272191  0.480172  1
  Co  Co15  1  0.003081  0.723010  0.019480  1
  Co  Co16  1  0.225402  0.995827  0.253921  1
  Co  Co17  1  0.274725  0.500285  0.749463  1
  Co  Co18  1  0.507319  0.767091  0.019829  1
  Co  Co19  1  0.995309  0.727194  0.519951  1
  Si  Si20  1  0.719557  0.518555  0.433074  1
  Si  Si21  1  0.780585  0.018809  0.567052  1
  Si  Si22  1  0.482866  0.752556  0.188804  1
  Si  Si23  1  0.019404  0.253724  0.811157  1
  Si  Si24  1  0.519372  0.246371  0.811026  1
  Si  Si25  1  0.219578  0.980484  0.433475  1
  Si  Si26  1  0.280268  0.520695  0.931508  1
  Si  Si27  1  0.978947  0.744765  0.188757  1
  Si  Si28  1  0.719621  0.480581  0.068214  1
  Si  Si29  1  0.280652  0.480728  0.567094  1
  Si  Si30  1  0.480290  0.245931  0.312399  1
  Si  Si31  1  0.018958  0.745914  0.687688  1
  Si  Si32  1  0.777177  0.981507  0.932309  1
  Si  Si33  1  0.519525  0.753642  0.687680  1
  Si  Si34  1  0.981331  0.253269  0.312344  1
  Ge  Ge35  1  0.220020  0.022591  0.066450  1
