# generated using pymatgen
data_NdNi3P3Ru2
_symmetry_space_group_name_H-M   'P 1'
_cell_length_a   3.82398500
_cell_length_b   10.73304800
_cell_length_c   12.01607400
_cell_angle_alpha   90.00000000
_cell_angle_beta   90.00000000
_cell_angle_gamma   90.00000000
_symmetry_Int_Tables_number   1
_chemical_formula_structural   NdNi3P3Ru2
_chemical_formula_sum   'Nd4 Ni12 P12 Ru8'
_cell_volume   493.17590009
_cell_formula_units_Z   4
loop_
 _symmetry_equiv_pos_site_id
 _symmetry_equiv_pos_as_xyz
  1  'x, y, z'
loop_
 _atom_site_type_symbol
 _atom_site_label
 _atom_site_symmetry_multiplicity
 _atom_site_fract_x
 _atom_site_fract_y
 _atom_site_fract_z
 _atom_site_occupancy
  Nd  Nd0  1  0.250000  0.588820  0.708218  1
  Nd  Nd1  1  0.250000  0.911180  0.208218  1
  Nd  Nd2  1  0.750000  0.411180  0.291782  1
  Nd  Nd3  1  0.750000  0.088820  0.791782  1
  Ni  Ni4  1  0.250000  0.224852  0.181745  1
  Ni  Ni5  1  0.250000  0.275148  0.681745  1
  Ni  Ni6  1  0.750000  0.775148  0.818255  1
  Ni  Ni7  1  0.750000  0.724852  0.318255  1
  Ni  Ni8  1  0.250000  0.885828  0.701963  1
  Ni  Ni9  1  0.250000  0.614172  0.201963  1
  Ni  Ni10  1  0.750000  0.114172  0.298037  1
  Ni  Ni11  1  0.750000  0.385828  0.798037  1
  Ni  Ni12  1  0.250000  0.464579  0.931878  1
  Ni  Ni13  1  0.250000  0.035421  0.431878  1
  Ni  Ni14  1  0.750000  0.535421  0.068122  1
  Ni  Ni15  1  0.750000  0.964579  0.568122  1
  P  P16  1  0.250000  0.419264  0.110096  1
  P  P17  1  0.250000  0.080736  0.610096  1
  P  P18  1  0.750000  0.580736  0.889904  1
  P  P19  1  0.750000  0.919264  0.389904  1
  P  P20  1  0.250000  0.274117  0.872891  1
  P  P21  1  0.250000  0.225883  0.372891  1
  P  P22  1  0.750000  0.725883  0.127109  1
  P  P23  1  0.750000  0.774117  0.627109  1
  P  P24  1  0.250000  0.600233  0.391669  1
  P  P25  1  0.250000  0.899767  0.891669  1
  P  P26  1  0.750000  0.399767  0.608331  1
  P  P27  1  0.750000  0.100233  0.108331  1
  Ru  Ru28  1  0.250000  0.707206  0.985251  1
  Ru  Ru29  1  0.250000  0.792794  0.485251  1
  Ru  Ru30  1  0.750000  0.292794  0.014749  1
  Ru  Ru31  1  0.750000  0.207206  0.514749  1
  Ru  Ru32  1  0.250000  0.403085  0.490686  1
  Ru  Ru33  1  0.250000  0.096915  0.990686  1
  Ru  Ru34  1  0.750000  0.596915  0.509314  1
  Ru  Ru35  1  0.750000  0.903085  0.009314  1
