# generated using pymatgen
data_Ho3CrFeCo7P6
_symmetry_space_group_name_H-M   'P 1'
_cell_length_a   3.68234500
_cell_length_b   10.55873000
_cell_length_c   12.12423000
_cell_angle_alpha   90.00000000
_cell_angle_beta   90.00000000
_cell_angle_gamma   90.00000000
_symmetry_Int_Tables_number   1
_chemical_formula_structural   Ho3CrFeCo7P6
_chemical_formula_sum   'Ho6 Cr2 Fe2 Co14 P12'
_cell_volume   471.40081201
_cell_formula_units_Z   2
loop_
 _symmetry_equiv_pos_site_id
 _symmetry_equiv_pos_as_xyz
  1  'x, y, z'
loop_
 _atom_site_type_symbol
 _atom_site_label
 _atom_site_symmetry_multiplicity
 _atom_site_fract_x
 _atom_site_fract_y
 _atom_site_fract_z
 _atom_site_occupancy
  Ho  Ho0  1  0.000000  0.500000  0.523970  1
  Ho  Ho1  1  0.500000  0.000000  0.476030  1
  Ho  Ho2  1  0.500000  0.818897  0.203182  1
  Ho  Ho3  1  0.500000  0.181103  0.203182  1
  Ho  Ho4  1  0.000000  0.681103  0.796818  1
  Ho  Ho5  1  0.000000  0.318897  0.796818  1
  Cr  Cr6  1  0.500000  0.500000  0.154130  1
  Cr  Cr7  1  0.000000  0.000000  0.845870  1
  Fe  Fe8  1  0.000000  0.500000  0.988081  1
  Fe  Fe9  1  0.500000  0.000000  0.011919  1
  Co  Co10  1  0.500000  0.296258  0.430565  1
  Co  Co11  1  0.500000  0.703742  0.430565  1
  Co  Co12  1  0.000000  0.203742  0.569435  1
  Co  Co13  1  0.000000  0.796258  0.569435  1
  Co  Co14  1  0.500000  0.879182  0.708414  1
  Co  Co15  1  0.500000  0.120818  0.708414  1
  Co  Co16  1  0.000000  0.620818  0.291586  1
  Co  Co17  1  0.000000  0.379182  0.291586  1
  Co  Co18  1  0.500000  0.331526  0.993732  1
  Co  Co19  1  0.500000  0.668474  0.993732  1
  Co  Co20  1  0.000000  0.168474  0.006268  1
  Co  Co21  1  0.000000  0.831526  0.006268  1
  Co  Co22  1  0.500000  0.500000  0.700577  1
  Co  Co23  1  0.000000  0.000000  0.299423  1
  P  P24  1  0.500000  0.311321  0.616638  1
  P  P25  1  0.500000  0.688679  0.616638  1
  P  P26  1  0.000000  0.188679  0.383362  1
  P  P27  1  0.000000  0.811321  0.383362  1
  P  P28  1  0.500000  0.500000  0.883300  1
  P  P29  1  0.000000  0.000000  0.116700  1
  P  P30  1  0.500000  0.847021  0.893446  1
  P  P31  1  0.500000  0.152979  0.893446  1
  P  P32  1  0.000000  0.652979  0.106554  1
  P  P33  1  0.000000  0.347021  0.106554  1
  P  P34  1  0.500000  0.500000  0.346377  1
  P  P35  1  0.000000  0.000000  0.653623  1
