# generated using pymatgen
data_Mg2Zr6(Al2Pd)7
_symmetry_space_group_name_H-M   'P 1'
_cell_length_a   8.85291363
_cell_length_b   8.85094880
_cell_length_c   8.85094942
_cell_angle_alpha   59.96484992
_cell_angle_beta   59.99265909
_cell_angle_gamma   59.99265933
_symmetry_Int_Tables_number   1
_chemical_formula_structural   Mg2Zr6(Al2Pd)7
_chemical_formula_sum   'Mg2 Zr6 Al14 Pd7'
_cell_volume   490.21573180
_cell_formula_units_Z   1
loop_
 _symmetry_equiv_pos_site_id
 _symmetry_equiv_pos_as_xyz
  1  'x, y, z'
loop_
 _atom_site_type_symbol
 _atom_site_label
 _atom_site_symmetry_multiplicity
 _atom_site_fract_x
 _atom_site_fract_y
 _atom_site_fract_z
 _atom_site_occupancy
  Mg  Mg0  1  0.881110  0.882875  0.354906  1
  Mg  Mg1  1  0.881110  0.354906  0.882875  1
  Zr  Zr2  1  0.683876  0.683654  0.315325  1
  Zr  Zr3  1  0.317146  0.683654  0.315325  1
  Zr  Zr4  1  0.680854  0.319146  0.319146  1
  Zr  Zr5  1  0.317146  0.315325  0.683654  1
  Zr  Zr6  1  0.683876  0.315325  0.683654  1
  Zr  Zr7  1  0.313946  0.686054  0.686054  1
  Al  Al8  1  0.361112  0.880079  0.880079  1
  Al  Al9  1  0.878732  0.880079  0.880079  1
  Al  Al10  1  0.120572  0.121346  0.637509  1
  Al  Al11  1  0.120572  0.637509  0.121346  1
  Al  Al12  1  0.638932  0.120316  0.120316  1
  Al  Al13  1  0.120434  0.120316  0.120316  1
  Al  Al14  1  0.665360  0.664845  0.004435  1
  Al  Al15  1  0.665360  0.004435  0.664845  1
  Al  Al16  1  0.004733  0.664915  0.664915  1
  Al  Al17  1  0.665436  0.664915  0.664915  1
  Al  Al18  1  0.334834  0.334097  0.996235  1
  Al  Al19  1  0.334834  0.996235  0.334097  1
  Al  Al20  1  0.995652  0.334444  0.334444  1
  Al  Al21  1  0.335460  0.334444  0.334444  1
  Pd  Pd22  1  0.007992  0.992008  0.992008  1
  Pd  Pd23  1  0.000542  0.000540  0.505298  1
  Pd  Pd24  1  0.493620  0.000540  0.505298  1
  Pd  Pd25  1  0.001993  0.498007  0.498007  1
  Pd  Pd26  1  0.493620  0.505298  0.000540  1
  Pd  Pd27  1  0.000542  0.505298  0.000540  1
  Pd  Pd28  1  0.500604  0.999396  0.999396  1
