# generated using pymatgen
data_La2Ni6GePt3
_symmetry_space_group_name_H-M   'P 1'
_cell_length_a   5.05140578
_cell_length_b   5.19573199
_cell_length_c   8.15967500
_cell_angle_alpha   90.00000000
_cell_angle_beta   90.00000000
_cell_angle_gamma   116.55828963
_symmetry_Int_Tables_number   1
_chemical_formula_structural   La2Ni6GePt3
_chemical_formula_sum   'La2 Ni6 Ge1 Pt3'
_cell_volume   191.55896175
_cell_formula_units_Z   1
loop_
 _symmetry_equiv_pos_site_id
 _symmetry_equiv_pos_as_xyz
  1  'x, y, z'
loop_
 _atom_site_type_symbol
 _atom_site_label
 _atom_site_symmetry_multiplicity
 _atom_site_fract_x
 _atom_site_fract_y
 _atom_site_fract_z
 _atom_site_occupancy
  La  La0  1  0.000000  0.000000  0.758359  1
  La  La1  1  0.000000  0.000000  0.241641  1
  Ni  Ni2  1  0.670872  0.358139  0.746070  1
  Ni  Ni3  1  0.670872  0.358139  0.253930  1
  Ni  Ni4  1  0.500000  0.500000  0.000000  1
  Ni  Ni5  1  0.329128  0.641861  0.746070  1
  Ni  Ni6  1  0.329128  0.641861  0.253930  1
  Ni  Ni7  1  0.000000  0.500000  0.500000  1
  Ge  Ge8  1  0.500000  0.500000  0.500000  1
  Pt  Pt9  1  0.500000  0.000000  0.500000  1
  Pt  Pt10  1  0.000000  0.500000  0.000000  1
  Pt  Pt11  1  0.500000  0.000000  0.000000  1
