# generated using pymatgen
data_Zr6Zn23P
_symmetry_space_group_name_H-M   'P 1'
_cell_length_a   8.75837317
_cell_length_b   8.75837321
_cell_length_c   8.75837300
_cell_angle_alpha   60.00000458
_cell_angle_beta   60.00000442
_cell_angle_gamma   60.00000092
_symmetry_Int_Tables_number   1
_chemical_formula_structural   Zr6Zn23P
_chemical_formula_sum   'Zr6 Zn23 P1'
_cell_volume   475.06754780
_cell_formula_units_Z   1
loop_
 _symmetry_equiv_pos_site_id
 _symmetry_equiv_pos_as_xyz
  1  'x, y, z'
loop_
 _atom_site_type_symbol
 _atom_site_label
 _atom_site_symmetry_multiplicity
 _atom_site_fract_x
 _atom_site_fract_y
 _atom_site_fract_z
 _atom_site_occupancy
  Zr  Zr0  1  0.705812  0.294188  0.294188  1
  Zr  Zr1  1  0.294188  0.705812  0.705812  1
  Zr  Zr2  1  0.294188  0.705812  0.294188  1
  Zr  Zr3  1  0.705812  0.294188  0.705812  1
  Zr  Zr4  1  0.294188  0.294188  0.705812  1
  Zr  Zr5  1  0.705812  0.705812  0.294188  1
  Zn  Zn6  1  0.122204  0.122204  0.122204  1
  Zn  Zn7  1  0.877796  0.877796  0.877796  1
  Zn  Zn8  1  0.122204  0.122204  0.633388  1
  Zn  Zn9  1  0.122204  0.633388  0.122204  1
  Zn  Zn10  1  0.877796  0.877796  0.366612  1
  Zn  Zn11  1  0.877796  0.366612  0.877796  1
  Zn  Zn12  1  0.633388  0.122204  0.122204  1
  Zn  Zn13  1  0.366612  0.877796  0.877796  1
  Zn  Zn14  1  0.500000  0.000000  0.000000  1
  Zn  Zn15  1  0.000000  0.500000  0.500000  1
  Zn  Zn16  1  0.000000  0.500000  0.000000  1
  Zn  Zn17  1  0.500000  0.000000  0.500000  1
  Zn  Zn18  1  0.000000  0.000000  0.500000  1
  Zn  Zn19  1  0.500000  0.500000  0.000000  1
  Zn  Zn20  1  0.333245  0.333245  0.333245  1
  Zn  Zn21  1  0.666755  0.666755  0.666755  1
  Zn  Zn22  1  0.333245  0.333245  0.000265  1
  Zn  Zn23  1  0.333245  0.000265  0.333245  1
  Zn  Zn24  1  0.666755  0.666755  0.999735  1
  Zn  Zn25  1  0.666755  0.999735  0.666755  1
  Zn  Zn26  1  0.000265  0.333245  0.333245  1
  Zn  Zn27  1  0.999735  0.666755  0.666755  1
  Zn  Zn28  1  0.000000  0.000000  0.000000  1
  P  P29  1  0.500000  0.500000  0.500000  1
