# generated using pymatgen
data_NdHo2(ZnPt)4
_symmetry_space_group_name_H-M   'P 1'
_cell_length_a   8.22113134
_cell_length_b   8.22113205
_cell_length_c   8.22113138
_cell_angle_alpha   151.78342963
_cell_angle_beta   125.00954634
_cell_angle_gamma   62.94280718
_symmetry_Int_Tables_number   1
_chemical_formula_structural   NdHo2(ZnPt)4
_chemical_formula_sum   'Nd1 Ho2 Zn4 Pt4'
_cell_volume   213.32581463
_cell_formula_units_Z   1
loop_
 _symmetry_equiv_pos_site_id
 _symmetry_equiv_pos_as_xyz
  1  'x, y, z'
loop_
 _atom_site_type_symbol
 _atom_site_label
 _atom_site_symmetry_multiplicity
 _atom_site_fract_x
 _atom_site_fract_y
 _atom_site_fract_z
 _atom_site_occupancy
  Nd  Nd0  1  0.500000  0.000000  0.500000  1
  Ho  Ho1  1  0.875824  0.875824  0.000000  1
  Ho  Ho2  1  0.124176  0.124176  0.000000  1
  Zn  Zn3  1  0.477232  0.674657  0.802575  1
  Zn  Zn4  1  0.872080  0.674657  0.197425  1
  Zn  Zn5  1  0.127920  0.325343  0.802575  1
  Zn  Zn6  1  0.522768  0.325343  0.197425  1
  Pt  Pt7  1  0.275078  0.775078  0.500000  1
  Pt  Pt8  1  0.724922  0.224922  0.500000  1
  Pt  Pt9  1  0.811637  0.500000  0.311637  1
  Pt  Pt10  1  0.188363  0.500000  0.688363  1
