# generated using pymatgen
data_TbNd11(GePd)12
_symmetry_space_group_name_H-M   'P 1'
_cell_length_a   4.51275000
_cell_length_b   7.68899802
_cell_length_c   21.85506402
_cell_angle_alpha   89.99406842
_cell_angle_beta   90.00000000
_cell_angle_gamma   90.00000000
_symmetry_Int_Tables_number   1
_chemical_formula_structural   TbNd11(GePd)12
_chemical_formula_sum   'Tb1 Nd11 Ge12 Pd12'
_cell_volume   758.33849853
_cell_formula_units_Z   1
loop_
 _symmetry_equiv_pos_site_id
 _symmetry_equiv_pos_as_xyz
  1  'x, y, z'
loop_
 _atom_site_type_symbol
 _atom_site_label
 _atom_site_symmetry_multiplicity
 _atom_site_fract_x
 _atom_site_fract_y
 _atom_site_fract_z
 _atom_site_occupancy
  Tb  Tb0  1  0.250000  0.780625  0.501442  1
  Nd  Nd1  1  0.250000  0.708948  0.333628  1
  Nd  Nd2  1  0.750000  0.291766  0.666622  1
  Nd  Nd3  1  0.750000  0.208075  0.166871  1
  Nd  Nd4  1  0.250000  0.791782  0.833053  1
  Nd  Nd5  1  0.250000  0.790648  0.166273  1
  Nd  Nd6  1  0.750000  0.209399  0.833781  1
  Nd  Nd7  1  0.750000  0.290740  0.334271  1
  Nd  Nd8  1  0.250000  0.710121  0.665563  1
  Nd  Nd9  1  0.250000  0.715119  0.001435  1
  Nd  Nd10  1  0.750000  0.284951  0.998601  1
  Nd  Nd11  1  0.750000  0.213275  0.498816  1
  Ge  Ge12  1  0.250000  0.088823  0.071437  1
  Ge  Ge13  1  0.750000  0.911233  0.928518  1
  Ge  Ge14  1  0.750000  0.590998  0.429717  1
  Ge  Ge15  1  0.250000  0.412712  0.571263  1
  Ge  Ge16  1  0.250000  0.083888  0.269413  1
  Ge  Ge17  1  0.750000  0.915751  0.730523  1
  Ge  Ge18  1  0.750000  0.583866  0.230804  1
  Ge  Ge19  1  0.250000  0.416139  0.769129  1
  Ge  Ge20  1  0.250000  0.085247  0.397940  1
  Ge  Ge21  1  0.750000  0.913387  0.601778  1
  Ge  Ge22  1  0.750000  0.585996  0.103125  1
  Ge  Ge23  1  0.250000  0.414033  0.896873  1
  Pd  Pd24  1  0.250000  0.416938  0.237279  1
  Pd  Pd25  1  0.750000  0.583059  0.762829  1
  Pd  Pd26  1  0.750000  0.916941  0.263112  1
  Pd  Pd27  1  0.250000  0.083033  0.736876  1
  Pd  Pd28  1  0.250000  0.419055  0.436510  1
  Pd  Pd29  1  0.750000  0.586902  0.562398  1
  Pd  Pd30  1  0.750000  0.916799  0.064112  1
  Pd  Pd31  1  0.250000  0.083071  0.935856  1
  Pd  Pd32  1  0.250000  0.420326  0.093984  1
  Pd  Pd33  1  0.750000  0.579622  0.906076  1
  Pd  Pd34  1  0.750000  0.919553  0.407626  1
  Pd  Pd35  1  0.250000  0.077176  0.592466  1
