# generated using pymatgen
data_RhS27
_symmetry_space_group_name_H-M   'P 1'
_cell_length_a   15.12588375
_cell_length_b   15.12587725
_cell_length_c   15.12588997
_cell_angle_alpha   118.67217743
_cell_angle_beta   118.67224035
_cell_angle_gamma   118.67215825
_symmetry_Int_Tables_number   1
_chemical_formula_structural   RhS27
_chemical_formula_sum   'Rh1 S27'
_cell_volume   1029.38953742
_cell_formula_units_Z   1
loop_
 _symmetry_equiv_pos_site_id
 _symmetry_equiv_pos_as_xyz
  1  'x, y, z'
loop_
 _atom_site_type_symbol
 _atom_site_label
 _atom_site_symmetry_multiplicity
 _atom_site_fract_x
 _atom_site_fract_y
 _atom_site_fract_z
 _atom_site_occupancy
  Rh  Rh0  1  0.943481  0.943480  0.943480  1
  S  S1  1  0.801333  0.518619  0.518619  1
  S  S2  1  0.518616  0.518616  0.801331  1
  S  S3  1  0.518617  0.801331  0.518617  1
  S  S4  1  0.247140  0.376215  0.636728  1
  S  S5  1  0.349723  0.949050  0.349722  1
  S  S6  1  0.349723  0.349722  0.949051  1
  S  S7  1  0.949050  0.349722  0.349722  1
  S  S8  1  0.128518  0.740954  0.257591  1
  S  S9  1  0.257592  0.128518  0.740954  1
  S  S10  1  0.740953  0.257591  0.128517  1
  S  S11  1  0.740953  0.128517  0.257591  1
  S  S12  1  0.257592  0.740954  0.128518  1
  S  S13  1  0.128519  0.257593  0.740955  1
  S  S14  1  0.345808  0.877941  0.527965  1
  S  S15  1  0.527966  0.345808  0.877941  1
  S  S16  1  0.877940  0.527965  0.345808  1
  S  S17  1  0.877939  0.345807  0.527964  1
  S  S18  1  0.527966  0.877941  0.345808  1
  S  S19  1  0.345809  0.527965  0.877942  1
  S  S20  1  0.247139  0.636728  0.376215  1
  S  S21  1  0.376215  0.247140  0.636728  1
  S  S22  1  0.636729  0.376216  0.247141  1
  S  S23  1  0.636728  0.247140  0.376215  1
  S  S24  1  0.376216  0.636728  0.247140  1
  S  S25  1  0.846359  0.985340  0.985340  1
  S  S26  1  0.985340  0.985340  0.846359  1
  S  S27  1  0.985340  0.846360  0.985340  1
