# generated using pymatgen
data_Ho4Ga4PdRu3
_symmetry_space_group_name_H-M   'P 1'
_cell_length_a   4.38044700
_cell_length_b   6.86902837
_cell_length_c   7.66112081
_cell_angle_alpha   90.28576257
_cell_angle_beta   90.00000000
_cell_angle_gamma   90.00000000
_symmetry_Int_Tables_number   1
_chemical_formula_structural   Ho4Ga4PdRu3
_chemical_formula_sum   'Ho4 Ga4 Pd1 Ru3'
_cell_volume   230.51577412
_cell_formula_units_Z   1
loop_
 _symmetry_equiv_pos_site_id
 _symmetry_equiv_pos_as_xyz
  1  'x, y, z'
loop_
 _atom_site_type_symbol
 _atom_site_label
 _atom_site_symmetry_multiplicity
 _atom_site_fract_x
 _atom_site_fract_y
 _atom_site_fract_z
 _atom_site_occupancy
  Ho  Ho0  1  0.250000  0.017687  0.806005  1
  Ho  Ho1  1  0.250000  0.509945  0.688459  1
  Ho  Ho2  1  0.750000  0.992649  0.199407  1
  Ho  Ho3  1  0.750000  0.487696  0.306254  1
  Ga  Ga4  1  0.250000  0.176533  0.419806  1
  Ga  Ga5  1  0.250000  0.671437  0.085748  1
  Ga  Ga6  1  0.750000  0.825572  0.576261  1
  Ga  Ga7  1  0.750000  0.317877  0.919109  1
  Pd  Pd8  1  0.750000  0.711379  0.906070  1
  Ru  Ru9  1  0.250000  0.790681  0.405484  1
  Ru  Ru10  1  0.250000  0.283803  0.093455  1
  Ru  Ru11  1  0.750000  0.214739  0.593942  1
