# generated using pymatgen
data_YbCd2Ni7C2
_symmetry_space_group_name_H-M   'P 1'
_cell_length_a   5.03425700
_cell_length_b   5.03425773
_cell_length_c   13.47279700
_cell_angle_alpha   90.00000000
_cell_angle_beta   90.00000000
_cell_angle_gamma   120.00000181
_symmetry_Int_Tables_number   1
_chemical_formula_structural   YbCd2Ni7C2
_chemical_formula_sum   'Yb2 Cd4 Ni14 C4'
_cell_volume   295.70537433
_cell_formula_units_Z   2
loop_
 _symmetry_equiv_pos_site_id
 _symmetry_equiv_pos_as_xyz
  1  'x, y, z'
loop_
 _atom_site_type_symbol
 _atom_site_label
 _atom_site_symmetry_multiplicity
 _atom_site_fract_x
 _atom_site_fract_y
 _atom_site_fract_z
 _atom_site_occupancy
  Yb  Yb0  1  0.666667  0.333333  0.750000  1
  Yb  Yb1  1  0.333333  0.666667  0.250000  1
  Cd  Cd2  1  0.666667  0.333333  0.525789  1
  Cd  Cd3  1  0.333333  0.666667  0.474211  1
  Cd  Cd4  1  0.333333  0.666667  0.025789  1
  Cd  Cd5  1  0.666667  0.333333  0.974211  1
  Ni  Ni6  1  0.165820  0.331638  0.654598  1
  Ni  Ni7  1  0.331638  0.165820  0.345402  1
  Ni  Ni8  1  0.331638  0.165820  0.154598  1
  Ni  Ni9  1  0.165820  0.834180  0.845402  1
  Ni  Ni10  1  0.834180  0.668362  0.345402  1
  Ni  Ni11  1  0.834180  0.165820  0.154598  1
  Ni  Ni12  1  0.668362  0.834180  0.654598  1
  Ni  Ni13  1  0.668362  0.834180  0.845402  1
  Ni  Ni14  1  0.165820  0.834180  0.654598  1
  Ni  Ni15  1  0.834180  0.668362  0.154598  1
  Ni  Ni16  1  0.000000  0.000000  0.000000  1
  Ni  Ni17  1  0.165820  0.331638  0.845402  1
  Ni  Ni18  1  0.834180  0.165820  0.345402  1
  Ni  Ni19  1  0.000000  0.000000  0.500000  1
  C  C20  1  0.666667  0.333333  0.250000  1
  C  C21  1  0.000000  0.000000  0.750000  1
  C  C22  1  0.333333  0.666667  0.750000  1
  C  C23  1  0.000000  0.000000  0.250000  1
