# generated using pymatgen
data_TbGd5(TcO7)2
_symmetry_space_group_name_H-M   'P 1'
_cell_length_a   6.54261340
_cell_length_b   6.51838212
_cell_length_c   7.50024184
_cell_angle_alpha   90.04084595
_cell_angle_beta   90.01787485
_cell_angle_gamma   108.63965835
_symmetry_Int_Tables_number   1
_chemical_formula_structural   TbGd5(TcO7)2
_chemical_formula_sum   'Tb1 Gd5 Tc2 O14'
_cell_volume   303.08686062
_cell_formula_units_Z   1
loop_
 _symmetry_equiv_pos_site_id
 _symmetry_equiv_pos_as_xyz
  1  'x, y, z'
loop_
 _atom_site_type_symbol
 _atom_site_label
 _atom_site_symmetry_multiplicity
 _atom_site_fract_x
 _atom_site_fract_y
 _atom_site_fract_z
 _atom_site_occupancy
  Tb  Tb0  1  0.001417  0.459200  0.739774  1
  Gd  Gd1  1  0.461008  0.001196  0.259653  1
  Gd  Gd2  1  0.999337  0.535135  0.244068  1
  Gd  Gd3  1  0.457877  0.459709  0.999943  1
  Gd  Gd4  1  0.537266  0.535183  0.501281  1
  Gd  Gd5  1  0.534000  0.999588  0.755968  1
  Tc  Tc6  1  0.999930  0.000132  0.500396  1
  Tc  Tc7  1  0.995922  0.996098  0.999484  1
  O  O8  1  0.930047  0.068751  0.749657  1
  O  O9  1  0.641269  0.364593  0.753825  1
  O  O10  1  0.305802  0.055844  0.538270  1
  O  O11  1  0.964290  0.703078  0.955556  1
  O  O12  1  0.630703  0.371357  0.248500  1
  O  O13  1  0.921136  0.674895  0.526446  1
  O  O14  1  0.323375  0.081452  0.976801  1
  O  O15  1  0.078864  0.322988  0.022133  1
  O  O16  1  0.674298  0.917835  0.476290  1
  O  O17  1  0.367771  0.628038  0.749738  1
  O  O18  1  0.700041  0.952819  0.040381  1
  O  O19  1  0.047449  0.304980  0.462247  1
  O  O20  1  0.362468  0.637383  0.249142  1
  O  O21  1  0.065728  0.929746  0.250446  1
