# generated using pymatgen
data_Sr4Yb4Si3Ge
_symmetry_space_group_name_H-M   'P 1'
_cell_length_a   4.93076000
_cell_length_b   8.04205094
_cell_length_c   9.12376029
_cell_angle_alpha   90.08046549
_cell_angle_beta   90.00000000
_cell_angle_gamma   90.00000000
_symmetry_Int_Tables_number   1
_chemical_formula_structural   Sr4Yb4Si3Ge
_chemical_formula_sum   'Sr4 Yb4 Si3 Ge1'
_cell_volume   361.78797052
_cell_formula_units_Z   1
loop_
 _symmetry_equiv_pos_site_id
 _symmetry_equiv_pos_as_xyz
  1  'x, y, z'
loop_
 _atom_site_type_symbol
 _atom_site_label
 _atom_site_symmetry_multiplicity
 _atom_site_fract_x
 _atom_site_fract_y
 _atom_site_fract_z
 _atom_site_occupancy
  Sr  Sr0  1  0.250000  0.521954  0.179513  1
  Sr  Sr1  1  0.250000  0.022267  0.320937  1
  Sr  Sr2  1  0.750000  0.978204  0.678604  1
  Sr  Sr3  1  0.750000  0.477047  0.820713  1
  Yb  Yb4  1  0.750000  0.352893  0.426345  1
  Yb  Yb5  1  0.250000  0.147153  0.926379  1
  Yb  Yb6  1  0.750000  0.852856  0.073625  1
  Yb  Yb7  1  0.250000  0.647139  0.573779  1
  Si  Si8  1  0.250000  0.267385  0.606761  1
  Si  Si9  1  0.750000  0.232641  0.106763  1
  Si  Si10  1  0.750000  0.732615  0.393248  1
  Ge  Ge11  1  0.250000  0.767845  0.893334  1
