# generated using pymatgen
data_Tb2HoMg3Ag2Ir
_symmetry_space_group_name_H-M   'P 1'
_cell_length_a   7.82031529
_cell_length_b   7.81592318
_cell_length_c   3.90674300
_cell_angle_alpha   90.00000000
_cell_angle_beta   90.00000000
_cell_angle_gamma   119.91344489
_symmetry_Int_Tables_number   1
_chemical_formula_structural   Tb2HoMg3Ag2Ir
_chemical_formula_sum   'Tb2 Ho1 Mg3 Ag2 Ir1'
_cell_volume   206.97988678
_cell_formula_units_Z   1
loop_
 _symmetry_equiv_pos_site_id
 _symmetry_equiv_pos_as_xyz
  1  'x, y, z'
loop_
 _atom_site_type_symbol
 _atom_site_label
 _atom_site_symmetry_multiplicity
 _atom_site_fract_x
 _atom_site_fract_y
 _atom_site_fract_z
 _atom_site_occupancy
  Tb  Tb0  1  0.569939  0.968524  0.000000  1
  Tb  Tb1  1  0.031598  0.601326  0.000000  1
  Ho  Ho2  1  0.397995  0.430408  0.000000  1
  Mg  Mg3  1  0.254414  0.999282  0.500000  1
  Mg  Mg4  1  0.001657  0.255640  0.500000  1
  Mg  Mg5  1  0.744055  0.745216  0.500000  1
  Ag  Ag6  1  0.666213  0.333563  0.500000  1
  Ag  Ag7  1  0.000375  0.000381  0.000000  1
  Ir  Ir8  1  0.333755  0.665661  0.500000  1
