# generated using pymatgen
data_La4In4Sn12Ir7Rh
_symmetry_space_group_name_H-M   'P 1'
_cell_length_a   4.59537700
_cell_length_b   7.19829000
_cell_length_c   18.82834701
_cell_angle_alpha   89.99586917
_cell_angle_beta   90.00002160
_cell_angle_gamma   89.99994323
_symmetry_Int_Tables_number   1
_chemical_formula_structural   La4In4Sn12Ir7Rh
_chemical_formula_sum   'La4 In4 Sn12 Ir7 Rh1'
_cell_volume   622.82018407
_cell_formula_units_Z   1
loop_
 _symmetry_equiv_pos_site_id
 _symmetry_equiv_pos_as_xyz
  1  'x, y, z'
loop_
 _atom_site_type_symbol
 _atom_site_label
 _atom_site_symmetry_multiplicity
 _atom_site_fract_x
 _atom_site_fract_y
 _atom_site_fract_z
 _atom_site_occupancy
  La  La0  1  0.250001  0.000446  0.859447  1
  La  La1  1  0.249999  0.499375  0.360210  1
  La  La2  1  0.750001  0.999609  0.140328  1
  La  La3  1  0.749999  0.500455  0.640452  1
  In  In4  1  0.250000  0.310284  0.179697  1
  In  In5  1  0.250000  0.190943  0.679742  1
  In  In6  1  0.750000  0.691048  0.820217  1
  In  In7  1  0.750000  0.808371  0.320006  1
  Sn  Sn8  1  0.250000  0.724314  0.198585  1
  Sn  Sn9  1  0.250000  0.774660  0.698471  1
  Sn  Sn10  1  0.749999  0.274899  0.801483  1
  Sn  Sn11  1  0.750001  0.226090  0.301344  1
  Sn  Sn12  1  0.250001  0.862175  0.032984  1
  Sn  Sn13  1  0.249999  0.637832  0.533103  1
  Sn  Sn14  1  0.750001  0.137991  0.966867  1
  Sn  Sn15  1  0.750003  0.362093  0.467095  1
  Sn  Sn16  1  0.250000  0.522131  0.928387  1
  Sn  Sn17  1  0.250000  0.977756  0.428364  1
  Sn  Sn18  1  0.750000  0.477769  0.071885  1
  Sn  Sn19  1  0.749999  0.022317  0.571624  1
  Ir  Ir20  1  0.249999  0.253002  0.032228  1
  Ir  Ir21  1  0.249998  0.246726  0.532268  1
  Ir  Ir22  1  0.749999  0.746688  0.967805  1
  Ir  Ir23  1  0.750000  0.753321  0.467703  1
  Ir  Ir24  1  0.250000  0.028947  0.283902  1
  Ir  Ir25  1  0.250001  0.471251  0.784247  1
  Ir  Ir26  1  0.749999  0.971347  0.715938  1
  Rh  Rh27  1  0.750000  0.528160  0.215618  1
