# generated using pymatgen
data_Er8GaHgPd23
_symmetry_space_group_name_H-M   'P 1'
_cell_length_a   8.30463600
_cell_length_b   8.38439500
_cell_length_c   8.38439500
_cell_angle_alpha   90.00000000
_cell_angle_beta   90.00000000
_cell_angle_gamma   90.00000000
_symmetry_Int_Tables_number   1
_chemical_formula_structural   Er8GaHgPd23
_chemical_formula_sum   'Er8 Ga1 Hg1 Pd23'
_cell_volume   583.79996188
_cell_formula_units_Z   1
loop_
 _symmetry_equiv_pos_site_id
 _symmetry_equiv_pos_as_xyz
  1  'x, y, z'
loop_
 _atom_site_type_symbol
 _atom_site_label
 _atom_site_symmetry_multiplicity
 _atom_site_fract_x
 _atom_site_fract_y
 _atom_site_fract_z
 _atom_site_occupancy
  Er  Er0  1  0.252061  0.242795  0.242795  1
  Er  Er1  1  0.747345  0.747494  0.747494  1
  Er  Er2  1  0.747345  0.747494  0.252506  1
  Er  Er3  1  0.747345  0.252506  0.747494  1
  Er  Er4  1  0.252061  0.242795  0.757205  1
  Er  Er5  1  0.252061  0.757205  0.242795  1
  Er  Er6  1  0.252061  0.757205  0.757205  1
  Er  Er7  1  0.747345  0.252506  0.252506  1
  Ga  Ga8  1  0.999188  0.000000  0.000000  1
  Hg  Hg9  1  0.255989  0.500000  0.500000  1
  Pd  Pd10  1  0.258516  0.500000  0.000000  1
  Pd  Pd11  1  0.740729  0.500000  0.000000  1
  Pd  Pd12  1  0.001892  0.257926  0.500000  1
  Pd  Pd13  1  0.501349  0.262002  0.000000  1
  Pd  Pd14  1  0.001892  0.742074  0.500000  1
  Pd  Pd15  1  0.501349  0.737998  0.000000  1
  Pd  Pd16  1  0.501349  0.000000  0.262002  1
  Pd  Pd17  1  0.258516  0.000000  0.500000  1
  Pd  Pd18  1  0.501349  0.000000  0.737998  1
  Pd  Pd19  1  0.740729  0.000000  0.500000  1
  Pd  Pd20  1  0.001892  0.500000  0.257926  1
  Pd  Pd21  1  0.001892  0.500000  0.742074  1
  Pd  Pd22  1  0.747249  0.500000  0.500000  1
  Pd  Pd23  1  0.498309  0.250727  0.500000  1
  Pd  Pd24  1  0.498309  0.749273  0.500000  1
  Pd  Pd25  1  0.498309  0.500000  0.250727  1
  Pd  Pd26  1  0.498309  0.500000  0.749273  1
  Pd  Pd27  1  0.294308  0.000000  0.000000  1
  Pd  Pd28  1  0.706918  0.000000  0.000000  1
  Pd  Pd29  1  0.998509  0.290088  0.000000  1
  Pd  Pd30  1  0.998509  0.709912  0.000000  1
  Pd  Pd31  1  0.998509  0.000000  0.290088  1
  Pd  Pd32  1  0.998509  0.000000  0.709912  1
