# generated using pymatgen
data_Y3Cu4Ir
_symmetry_space_group_name_H-M   'P 1'
_cell_length_a   13.96192500
_cell_length_b   5.55847707
_cell_length_c   5.55847692
_cell_angle_alpha   44.35348966
_cell_angle_beta   90.00000000
_cell_angle_gamma   90.00000000
_symmetry_Int_Tables_number   1
_chemical_formula_structural   Y3Cu4Ir
_chemical_formula_sum   'Y6 Cu8 Ir2'
_cell_volume   301.56834212
_cell_formula_units_Z   2
loop_
 _symmetry_equiv_pos_site_id
 _symmetry_equiv_pos_as_xyz
  1  'x, y, z'
loop_
 _atom_site_type_symbol
 _atom_site_label
 _atom_site_symmetry_multiplicity
 _atom_site_fract_x
 _atom_site_fract_y
 _atom_site_fract_z
 _atom_site_occupancy
  Y  Y0  1  0.361712  0.012001  0.012001  1
  Y  Y1  1  0.638288  0.012001  0.012001  1
  Y  Y2  1  0.138232  0.192765  0.192765  1
  Y  Y3  1  0.861769  0.192765  0.192765  1
  Y  Y4  1  0.000000  0.472046  0.472046  1
  Y  Y5  1  0.500000  0.732713  0.732713  1
  Cu  Cu6  1  0.343758  0.307752  0.307752  1
  Cu  Cu7  1  0.656242  0.307752  0.307752  1
  Cu  Cu8  1  0.212888  0.491563  0.491563  1
  Cu  Cu9  1  0.787112  0.491563  0.491563  1
  Cu  Cu10  1  0.286967  0.713180  0.713180  1
  Cu  Cu11  1  0.713034  0.713180  0.713180  1
  Cu  Cu12  1  0.156147  0.897026  0.897026  1
  Cu  Cu13  1  0.843853  0.897026  0.897026  1
  Ir  Ir14  1  0.500000  0.449428  0.449428  1
  Ir  Ir15  1  0.000000  0.755244  0.755244  1
