# generated using pymatgen
data_Nd8Tm12Si15Ag
_symmetry_space_group_name_H-M   'P 1'
_cell_length_a   7.70792407
_cell_length_b   7.74135159
_cell_length_c   14.22472234
_cell_angle_alpha   89.68686278
_cell_angle_beta   89.89379870
_cell_angle_gamma   90.09636874
_symmetry_Int_Tables_number   1
_chemical_formula_structural   Nd8Tm12Si15Ag
_chemical_formula_sum   'Nd8 Tm12 Si15 Ag1'
_cell_volume   848.77028013
_cell_formula_units_Z   1
loop_
 _symmetry_equiv_pos_site_id
 _symmetry_equiv_pos_as_xyz
  1  'x, y, z'
loop_
 _atom_site_type_symbol
 _atom_site_label
 _atom_site_symmetry_multiplicity
 _atom_site_fract_x
 _atom_site_fract_y
 _atom_site_fract_z
 _atom_site_occupancy
  Nd  Nd0  1  0.650640  0.992951  0.459457  1
  Nd  Nd1  1  0.358635  0.006436  0.960008  1
  Nd  Nd2  1  0.987173  0.638208  0.538915  1
  Nd  Nd3  1  0.493963  0.856076  0.209346  1
  Nd  Nd4  1  0.512608  0.150672  0.713482  1
  Nd  Nd5  1  0.856923  0.495360  0.792340  1
  Nd  Nd6  1  0.142751  0.504810  0.289178  1
  Nd  Nd7  1  0.007485  0.356700  0.041066  1
  Tm  Tm8  1  0.491530  0.357853  0.123477  1
  Tm  Tm9  1  0.985850  0.148984  0.630906  1
  Tm  Tm10  1  0.858579  0.005757  0.874734  1
  Tm  Tm11  1  0.139108  0.987909  0.371772  1
  Tm  Tm12  1  0.508889  0.636454  0.623776  1
  Tm  Tm13  1  0.360435  0.493021  0.877442  1
  Tm  Tm14  1  0.642778  0.504096  0.374791  1
  Tm  Tm15  1  0.007267  0.860590  0.125195  1
  Tm  Tm16  1  0.313655  0.321921  0.499475  1
  Tm  Tm17  1  0.184310  0.822909  0.750714  1
  Tm  Tm18  1  0.818926  0.181678  0.250435  1
  Tm  Tm19  1  0.681577  0.682559  0.000419  1
  Si  Si20  1  0.710420  0.061534  0.062050  1
  Si  Si21  1  0.940755  0.289483  0.437368  1
  Si  Si22  1  0.437810  0.210000  0.311512  1
  Si  Si23  1  0.561483  0.789777  0.811674  1
  Si  Si24  1  0.210219  0.440159  0.689731  1
  Si  Si25  1  0.789090  0.561616  0.187092  1
  Si  Si26  1  0.061340  0.709524  0.938046  1
  Si  Si27  1  0.794637  0.850783  0.687533  1
  Si  Si28  1  0.203944  0.149128  0.187053  1
  Si  Si29  1  0.849313  0.794366  0.310062  1
  Si  Si30  1  0.353161  0.699309  0.433240  1
  Si  Si31  1  0.650775  0.295964  0.938738  1
  Si  Si32  1  0.702537  0.349334  0.561045  1
  Si  Si33  1  0.296186  0.650229  0.061666  1
  Si  Si34  1  0.149460  0.207441  0.814239  1
  Ag  Ag35  1  0.285789  0.936410  0.562022  1
