# generated using pymatgen
data_ReCl14
_symmetry_space_group_name_H-M   'P 1'
_cell_length_a   7.46247583
_cell_length_b   6.68327203
_cell_length_c   12.85294421
_cell_angle_alpha   77.05695877
_cell_angle_beta   88.97068949
_cell_angle_gamma   67.97421621
_symmetry_Int_Tables_number   1
_chemical_formula_structural   ReCl14
_chemical_formula_sum   'Re1 Cl14'
_cell_volume   577.59278609
_cell_formula_units_Z   1
loop_
 _symmetry_equiv_pos_site_id
 _symmetry_equiv_pos_as_xyz
  1  'x, y, z'
loop_
 _atom_site_type_symbol
 _atom_site_label
 _atom_site_symmetry_multiplicity
 _atom_site_fract_x
 _atom_site_fract_y
 _atom_site_fract_z
 _atom_site_occupancy
  Re  Re0  1  0.000000  0.000000  0.000000  1
  Cl  Cl1  1  0.320888  0.488100  0.731879  1
  Cl  Cl2  1  0.679112  0.511900  0.268121  1
  Cl  Cl3  1  0.828557  0.848692  0.584975  1
  Cl  Cl4  1  0.171443  0.151308  0.415025  1
  Cl  Cl5  1  0.406056  0.745240  0.699336  1
  Cl  Cl6  1  0.673246  0.191738  0.005280  1
  Cl  Cl7  1  0.326754  0.808262  0.994720  1
  Cl  Cl8  1  0.007871  0.781555  0.168062  1
  Cl  Cl9  1  0.992129  0.218445  0.831938  1
  Cl  Cl10  1  0.934220  0.754986  0.923183  1
  Cl  Cl11  1  0.065780  0.245014  0.076817  1
  Cl  Cl12  1  0.382907  0.911365  0.364439  1
  Cl  Cl13  1  0.617093  0.088635  0.635561  1
  Cl  Cl14  1  0.593944  0.254760  0.300664  1
