# generated using pymatgen
data_NdTh2(GaRh)3
_symmetry_space_group_name_H-M   'P 1'
_cell_length_a   7.34796026
_cell_length_b   7.28204528
_cell_length_c   4.01958300
_cell_angle_alpha   90.00000000
_cell_angle_beta   90.00000000
_cell_angle_gamma   119.70369663
_symmetry_Int_Tables_number   1
_chemical_formula_structural   NdTh2(GaRh)3
_chemical_formula_sum   'Nd1 Th2 Ga3 Rh3'
_cell_volume   186.81888388
_cell_formula_units_Z   1
loop_
 _symmetry_equiv_pos_site_id
 _symmetry_equiv_pos_as_xyz
  1  'x, y, z'
loop_
 _atom_site_type_symbol
 _atom_site_label
 _atom_site_symmetry_multiplicity
 _atom_site_fract_x
 _atom_site_fract_y
 _atom_site_fract_z
 _atom_site_occupancy
  Nd  Nd0  1  0.000000  0.412749  0.500000  1
  Th  Th1  1  0.584811  0.586877  0.500000  1
  Th  Th2  1  0.415189  0.002066  0.500000  1
  Ga  Ga3  1  0.000000  0.749968  0.000000  1
  Ga  Ga4  1  0.229465  0.239417  0.000000  1
  Ga  Ga5  1  0.770535  0.009952  0.000000  1
  Rh  Rh6  1  0.356771  0.687145  0.000000  1
  Rh  Rh7  1  0.643229  0.330373  0.000000  1
  Rh  Rh8  1  0.000000  0.981452  0.500000  1
