# generated using pymatgen
data_Ce6Al24Os6PdPt
_symmetry_space_group_name_H-M   'P 1'
_cell_length_a   8.90425132
_cell_length_b   8.90425273
_cell_length_c   9.55149356
_cell_angle_alpha   90.00194647
_cell_angle_beta   89.99805667
_cell_angle_gamma   119.59826230
_symmetry_Int_Tables_number   1
_chemical_formula_structural   Ce6Al24Os6PdPt
_chemical_formula_sum   'Ce6 Al24 Os6 Pd1 Pt1'
_cell_volume   658.47715205
_cell_formula_units_Z   1
loop_
 _symmetry_equiv_pos_site_id
 _symmetry_equiv_pos_as_xyz
  1  'x, y, z'
loop_
 _atom_site_type_symbol
 _atom_site_label
 _atom_site_symmetry_multiplicity
 _atom_site_fract_x
 _atom_site_fract_y
 _atom_site_fract_z
 _atom_site_occupancy
  Ce  Ce0  1  0.184237  0.384964  0.250527  1
  Ce  Ce1  1  0.815763  0.615036  0.749473  1
  Ce  Ce2  1  0.615036  0.815763  0.250527  1
  Ce  Ce3  1  0.384964  0.184237  0.749473  1
  Ce  Ce4  1  0.194875  0.805125  0.251025  1
  Ce  Ce5  1  0.805125  0.194875  0.748975  1
  Al  Al6  1  0.332043  0.667957  0.023560  1
  Al  Al7  1  0.667957  0.332043  0.976440  1
  Al  Al8  1  0.667844  0.332156  0.521339  1
  Al  Al9  1  0.332156  0.667844  0.478661  1
  Al  Al10  1  0.158467  0.323221  0.576579  1
  Al  Al11  1  0.841533  0.676779  0.423421  1
  Al  Al12  1  0.676779  0.841533  0.576579  1
  Al  Al13  1  0.842381  0.676849  0.076961  1
  Al  Al14  1  0.323221  0.158467  0.423421  1
  Al  Al15  1  0.157619  0.323151  0.923039  1
  Al  Al16  1  0.163707  0.836293  0.576754  1
  Al  Al17  1  0.323151  0.157619  0.076961  1
  Al  Al18  1  0.836293  0.163707  0.423246  1
  Al  Al19  1  0.676849  0.842381  0.923039  1
  Al  Al20  1  0.836045  0.163955  0.076026  1
  Al  Al21  1  0.163955  0.836045  0.923974  1
  Al  Al22  1  0.561783  0.127499  0.249859  1
  Al  Al23  1  0.438217  0.872501  0.750141  1
  Al  Al24  1  0.872501  0.438217  0.249859  1
  Al  Al25  1  0.127499  0.561783  0.750141  1
  Al  Al26  1  0.561415  0.438585  0.249470  1
  Al  Al27  1  0.438585  0.561415  0.750530  1
  Al  Al28  1  0.999255  0.000745  0.249985  1
  Al  Al29  1  0.000745  0.999255  0.750015  1
  Os  Os30  1  0.500000  0.000000  0.000000  1
  Os  Os31  1  0.000000  0.500000  0.000000  1
  Os  Os32  1  0.500000  0.000000  0.500000  1
  Os  Os33  1  0.000000  0.500000  0.500000  1
  Os  Os34  1  0.000000  0.000000  0.000000  1
  Os  Os35  1  0.000000  0.000000  0.500000  1
  Pd  Pd36  1  0.500000  0.500000  0.000000  1
  Pt  Pt37  1  0.500000  0.500000  0.500000  1
