# generated using pymatgen
data_Nb3Tc2Ge3Mo
_symmetry_space_group_name_H-M   'P 1'
_cell_length_a   7.00967725
_cell_length_b   7.04899752
_cell_length_c   3.36974600
_cell_angle_alpha   90.00000000
_cell_angle_beta   90.00000000
_cell_angle_gamma   120.18573406
_symmetry_Int_Tables_number   1
_chemical_formula_structural   Nb3Tc2Ge3Mo
_chemical_formula_sum   'Nb3 Tc2 Ge3 Mo1'
_cell_volume   143.92535683
_cell_formula_units_Z   1
loop_
 _symmetry_equiv_pos_site_id
 _symmetry_equiv_pos_as_xyz
  1  'x, y, z'
loop_
 _atom_site_type_symbol
 _atom_site_label
 _atom_site_symmetry_multiplicity
 _atom_site_fract_x
 _atom_site_fract_y
 _atom_site_fract_z
 _atom_site_occupancy
  Nb  Nb0  1  0.000000  0.590063  0.500000  1
  Nb  Nb1  1  0.609944  0.010918  0.500000  1
  Nb  Nb2  1  0.390056  0.400974  0.500000  1
  Tc  Tc3  1  0.262580  0.001895  0.000000  1
  Tc  Tc4  1  0.737420  0.739314  0.000000  1
  Ge  Ge5  1  0.662447  0.336983  0.000000  1
  Ge  Ge6  1  0.000000  0.990047  0.500000  1
  Ge  Ge7  1  0.337553  0.674538  0.000000  1
  Mo  Mo8  1  0.000000  0.255269  0.000000  1
