# generated using pymatgen
data_Er10TlPb5O2
_symmetry_space_group_name_H-M   'P 1'
_cell_length_a   8.97304594
_cell_length_b   8.97304516
_cell_length_c   8.93693300
_cell_angle_alpha   125.65463113
_cell_angle_beta   125.65462756
_cell_angle_gamma   80.72467818
_symmetry_Int_Tables_number   1
_chemical_formula_structural   Er10TlPb5O2
_chemical_formula_sum   'Er10 Tl1 Pb5 O2'
_cell_volume   457.36574486
_cell_formula_units_Z   1
loop_
 _symmetry_equiv_pos_site_id
 _symmetry_equiv_pos_as_xyz
  1  'x, y, z'
loop_
 _atom_site_type_symbol
 _atom_site_label
 _atom_site_symmetry_multiplicity
 _atom_site_fract_x
 _atom_site_fract_y
 _atom_site_fract_z
 _atom_site_occupancy
  Er  Er0  1  0.996130  0.199765  0.495965  1
  Er  Er1  1  0.799854  0.299854  0.801818  1
  Er  Er2  1  0.501982  0.001982  0.801919  1
  Er  Er3  1  0.501790  0.001790  0.202075  1
  Er  Er4  1  0.999859  0.796215  0.496008  1
  Er  Er5  1  0.502805  0.499587  0.002405  1
  Er  Er6  1  0.200386  0.700386  0.202199  1
  Er  Er7  1  0.699765  0.496130  0.495965  1
  Er  Er8  1  0.296215  0.499859  0.496008  1
  Er  Er9  1  0.999587  0.002805  0.002405  1
  Tl  Tl10  1  0.851253  0.351253  0.202495  1
  Pb  Pb11  1  0.149155  0.649155  0.798318  1
  Pb  Pb12  1  0.350673  0.150040  0.500713  1
  Pb  Pb13  1  0.748678  0.748710  0.997385  1
  Pb  Pb14  1  0.650040  0.850673  0.500713  1
  Pb  Pb15  1  0.248710  0.248678  0.997385  1
  O  O16  1  0.751001  0.251001  0.503096  1
  O  O17  1  0.252116  0.752116  0.503127  1
