# generated using pymatgen
data_Er8TiPd24
_symmetry_space_group_name_H-M   'P 1'
_cell_length_a   8.34205300
_cell_length_b   8.34205300
_cell_length_c   8.34205300
_cell_angle_alpha   90.00000000
_cell_angle_beta   90.00000000
_cell_angle_gamma   90.00000000
_symmetry_Int_Tables_number   1
_chemical_formula_structural   Er8TiPd24
_chemical_formula_sum   'Er8 Ti1 Pd24'
_cell_volume   580.52220240
_cell_formula_units_Z   1
loop_
 _symmetry_equiv_pos_site_id
 _symmetry_equiv_pos_as_xyz
  1  'x, y, z'
loop_
 _atom_site_type_symbol
 _atom_site_label
 _atom_site_symmetry_multiplicity
 _atom_site_fract_x
 _atom_site_fract_y
 _atom_site_fract_z
 _atom_site_occupancy
  Er  Er0  1  0.253275  0.253275  0.253275  1
  Er  Er1  1  0.746725  0.746725  0.746725  1
  Er  Er2  1  0.746725  0.746725  0.253275  1
  Er  Er3  1  0.746725  0.253275  0.746725  1
  Er  Er4  1  0.253275  0.253275  0.746725  1
  Er  Er5  1  0.253275  0.746725  0.253275  1
  Er  Er6  1  0.253275  0.746725  0.746725  1
  Er  Er7  1  0.746725  0.253275  0.253275  1
  Ti  Ti8  1  0.000000  0.000000  0.000000  1
  Pd  Pd9  1  0.260715  0.500000  0.000000  1
  Pd  Pd10  1  0.739285  0.500000  0.000000  1
  Pd  Pd11  1  0.000000  0.260715  0.500000  1
  Pd  Pd12  1  0.500000  0.260715  0.000000  1
  Pd  Pd13  1  0.000000  0.739285  0.500000  1
  Pd  Pd14  1  0.500000  0.739285  0.000000  1
  Pd  Pd15  1  0.500000  0.000000  0.260715  1
  Pd  Pd16  1  0.260715  0.000000  0.500000  1
  Pd  Pd17  1  0.500000  0.000000  0.739285  1
  Pd  Pd18  1  0.739285  0.000000  0.500000  1
  Pd  Pd19  1  0.000000  0.500000  0.260715  1
  Pd  Pd20  1  0.000000  0.500000  0.739285  1
  Pd  Pd21  1  0.252812  0.500000  0.500000  1
  Pd  Pd22  1  0.747188  0.500000  0.500000  1
  Pd  Pd23  1  0.500000  0.252812  0.500000  1
  Pd  Pd24  1  0.500000  0.747188  0.500000  1
  Pd  Pd25  1  0.500000  0.500000  0.252812  1
  Pd  Pd26  1  0.500000  0.500000  0.747188  1
  Pd  Pd27  1  0.294027  0.000000  0.000000  1
  Pd  Pd28  1  0.705973  0.000000  0.000000  1
  Pd  Pd29  1  0.000000  0.294027  0.000000  1
  Pd  Pd30  1  0.000000  0.705973  0.000000  1
  Pd  Pd31  1  0.000000  0.000000  0.294027  1
  Pd  Pd32  1  0.000000  0.000000  0.705973  1
