# generated using pymatgen
data_Tm8B24OsW3
_symmetry_space_group_name_H-M   'P 1'
_cell_length_a   3.57873800
_cell_length_b   9.21478449
_cell_length_c   11.60065919
_cell_angle_alpha   89.92714860
_cell_angle_beta   90.00000000
_cell_angle_gamma   90.00000000
_symmetry_Int_Tables_number   1
_chemical_formula_structural   Tm8B24OsW3
_chemical_formula_sum   'Tm8 B24 Os1 W3'
_cell_volume   382.55810219
_cell_formula_units_Z   1
loop_
 _symmetry_equiv_pos_site_id
 _symmetry_equiv_pos_as_xyz
  1  'x, y, z'
loop_
 _atom_site_type_symbol
 _atom_site_label
 _atom_site_symmetry_multiplicity
 _atom_site_fract_x
 _atom_site_fract_y
 _atom_site_fract_z
 _atom_site_occupancy
  Tm  Tm0  1  0.000000  0.320698  0.413364  1
  Tm  Tm1  1  0.000000  0.678854  0.585745  1
  Tm  Tm2  1  0.000000  0.820752  0.085509  1
  Tm  Tm3  1  0.000000  0.178375  0.913583  1
  Tm  Tm4  1  0.000000  0.943856  0.372917  1
  Tm  Tm5  1  0.000000  0.054940  0.629708  1
  Tm  Tm6  1  0.000000  0.445029  0.126840  1
  Tm  Tm7  1  0.000000  0.558760  0.871276  1
  B  B8  1  0.500000  0.550971  0.435197  1
  B  B9  1  0.500000  0.448406  0.565243  1
  B  B10  1  0.500000  0.050021  0.063303  1
  B  B11  1  0.500000  0.945392  0.932283  1
  B  B12  1  0.500000  0.751716  0.422481  1
  B  B13  1  0.500000  0.247839  0.578359  1
  B  B14  1  0.500000  0.252638  0.077333  1
  B  B15  1  0.500000  0.751642  0.918522  1
  B  B16  1  0.500000  0.795078  0.264038  1
  B  B17  1  0.500000  0.204144  0.737663  1
  B  B18  1  0.500000  0.294605  0.236232  1
  B  B19  1  0.500000  0.709483  0.765243  1
  B  B20  1  0.500000  0.631576  0.182351  1
  B  B21  1  0.500000  0.369381  0.818229  1
  B  B22  1  0.500000  0.130488  0.317079  1
  B  B23  1  0.500000  0.869150  0.685876  1
  B  B24  1  0.500000  0.977514  0.212335  1
  B  B25  1  0.500000  0.016597  0.788280  1
  B  B26  1  0.500000  0.477856  0.287152  1
  B  B27  1  0.500000  0.523343  0.712583  1
  B  B28  1  0.500000  0.602985  0.027102  1
  B  B29  1  0.500000  0.400237  0.971492  1
  B  B30  1  0.500000  0.100930  0.472535  1
  B  B31  1  0.500000  0.897858  0.529906  1
  Os  Os32  1  0.000000  0.861376  0.820801  1
  W  W33  1  0.000000  0.638788  0.320379  1
  W  W34  1  0.000000  0.360551  0.680854  1
  W  W35  1  0.000000  0.138171  0.178208  1
