# generated using pymatgen
data_Tb2Dy14Cd4CoRu3
_symmetry_space_group_name_H-M   'P 1'
_cell_length_a   9.62816170
_cell_length_b   9.63689077
_cell_length_c   9.56302651
_cell_angle_alpha   59.74391906
_cell_angle_beta   59.71655026
_cell_angle_gamma   59.96315133
_symmetry_Int_Tables_number   1
_chemical_formula_structural   Tb2Dy14Cd4CoRu3
_chemical_formula_sum   'Tb2 Dy14 Cd4 Co1 Ru3'
_cell_volume   624.68000760
_cell_formula_units_Z   1
loop_
 _symmetry_equiv_pos_site_id
 _symmetry_equiv_pos_as_xyz
  1  'x, y, z'
loop_
 _atom_site_type_symbol
 _atom_site_label
 _atom_site_symmetry_multiplicity
 _atom_site_fract_x
 _atom_site_fract_y
 _atom_site_fract_z
 _atom_site_occupancy
  Tb  Tb0  1  0.187688  0.187277  0.810406  1
  Tb  Tb1  1  0.065103  0.439009  0.057152  1
  Dy  Dy2  1  0.438851  0.438531  0.057430  1
  Dy  Dy3  1  0.594101  0.594074  0.600933  1
  Dy  Dy4  1  0.187694  0.814322  0.810403  1
  Dy  Dy5  1  0.060856  0.060950  0.437800  1
  Dy  Dy6  1  0.438964  0.065201  0.057506  1
  Dy  Dy7  1  0.814633  0.187378  0.810421  1
  Dy  Dy8  1  0.439923  0.061149  0.437690  1
  Dy  Dy9  1  0.594193  0.210978  0.600803  1
  Dy  Dy10  1  0.810933  0.811126  0.188825  1
  Dy  Dy11  1  0.211881  0.593953  0.600460  1
  Dy  Dy12  1  0.810766  0.189167  0.188985  1
  Dy  Dy13  1  0.060865  0.440499  0.437610  1
  Dy  Dy14  1  0.189613  0.810543  0.189097  1
  Dy  Dy15  1  0.595796  0.596290  0.211676  1
  Cd  Cd16  1  0.830367  0.830797  0.508026  1
  Cd  Cd17  1  0.830260  0.830838  0.829502  1
  Cd  Cd18  1  0.509061  0.830509  0.829690  1
  Cd  Cd19  1  0.830050  0.509583  0.829504  1
  Co  Co20  1  0.390404  0.389717  0.830294  1
  Ru  Ru21  1  0.388590  0.388300  0.391534  1
  Ru  Ru22  1  0.830939  0.388248  0.392465  1
  Ru  Ru23  1  0.388464  0.831558  0.391788  1
