# generated using pymatgen
data_Nd8Y12Si15P
_symmetry_space_group_name_H-M   'P 1'
_cell_length_a   7.77653187
_cell_length_b   7.80725987
_cell_length_c   14.39608300
_cell_angle_alpha   89.38449918
_cell_angle_beta   90.21524284
_cell_angle_gamma   90.17962356
_symmetry_Int_Tables_number   1
_chemical_formula_structural   Nd8Y12Si15P
_chemical_formula_sum   'Nd8 Y12 Si15 P1'
_cell_volume   873.97443592
_cell_formula_units_Z   1
loop_
 _symmetry_equiv_pos_site_id
 _symmetry_equiv_pos_as_xyz
  1  'x, y, z'
loop_
 _atom_site_type_symbol
 _atom_site_label
 _atom_site_symmetry_multiplicity
 _atom_site_fract_x
 _atom_site_fract_y
 _atom_site_fract_z
 _atom_site_occupancy
  Nd  Nd0  1  0.633964  0.990005  0.459081  1
  Nd  Nd1  1  0.361811  0.006007  0.956212  1
  Nd  Nd2  1  0.996641  0.641119  0.541717  1
  Nd  Nd3  1  0.491099  0.855640  0.209629  1
  Nd  Nd4  1  0.508867  0.145884  0.708733  1
  Nd  Nd5  1  0.860433  0.494897  0.792091  1
  Nd  Nd6  1  0.136099  0.501244  0.290445  1
  Nd  Nd7  1  0.007318  0.358692  0.042541  1
  Y  Y8  1  0.489888  0.359673  0.124033  1
  Y  Y9  1  0.992941  0.141605  0.627247  1
  Y  Y10  1  0.860845  0.010241  0.874215  1
  Y  Y11  1  0.141955  0.983172  0.380370  1
  Y  Y12  1  0.503038  0.648208  0.618592  1
  Y  Y13  1  0.361032  0.492789  0.875842  1
  Y  Y14  1  0.643732  0.503659  0.374637  1
  Y  Y15  1  0.009434  0.861565  0.125946  1
  Y  Y16  1  0.316266  0.319887  0.499364  1
  Y  Y17  1  0.184301  0.821054  0.749961  1
  Y  Y18  1  0.816351  0.177891  0.251119  1
  Y  Y19  1  0.683522  0.682492  0.999324  1
  Si  Si20  1  0.710192  0.064195  0.061076  1
  Si  Si21  1  0.935076  0.285758  0.440295  1
  Si  Si22  1  0.435778  0.202126  0.311509  1
  Si  Si23  1  0.564908  0.791267  0.809477  1
  Si  Si24  1  0.209940  0.442658  0.688050  1
  Si  Si25  1  0.787879  0.563460  0.187853  1
  Si  Si26  1  0.064227  0.709893  0.938709  1
  Si  Si27  1  0.796533  0.847004  0.687632  1
  Si  Si28  1  0.204026  0.150684  0.192336  1
  Si  Si29  1  0.845763  0.797051  0.311219  1
  Si  Si30  1  0.349458  0.686045  0.425498  1
  Si  Si31  1  0.654465  0.297421  0.939837  1
  Si  Si32  1  0.702482  0.347493  0.561366  1
  Si  Si33  1  0.295035  0.653710  0.059796  1
  Si  Si34  1  0.153488  0.205855  0.812914  1
  P  P35  1  0.291215  0.959658  0.571334  1
