# generated using pymatgen
data_Tb3DyTm(ReO6)2
_symmetry_space_group_name_H-M   'P 1'
_cell_length_a   6.84258823
_cell_length_b   6.84258905
_cell_length_c   7.54068305
_cell_angle_alpha   73.74358390
_cell_angle_beta   73.74358184
_cell_angle_gamma   49.08843548
_symmetry_Int_Tables_number   1
_chemical_formula_structural   Tb3DyTm(ReO6)2
_chemical_formula_sum   'Tb3 Dy1 Tm1 Re2 O12'
_cell_volume   253.86799264
_cell_formula_units_Z   1
loop_
 _symmetry_equiv_pos_site_id
 _symmetry_equiv_pos_as_xyz
  1  'x, y, z'
loop_
 _atom_site_type_symbol
 _atom_site_label
 _atom_site_symmetry_multiplicity
 _atom_site_fract_x
 _atom_site_fract_y
 _atom_site_fract_z
 _atom_site_occupancy
  Tb  Tb0  1  0.803279  0.803279  0.358400  1
  Tb  Tb1  1  0.196693  0.196693  0.642000  1
  Tb  Tb2  1  0.184634  0.184634  0.176520  1
  Dy  Dy3  1  0.815307  0.815307  0.823099  1
  Tm  Tm4  1  0.499974  0.499974  0.500155  1
  Re  Re5  1  0.286370  0.713711  0.999806  1
  Re  Re6  1  0.713711  0.286370  0.999806  1
  O  O7  1  0.413817  0.916928  0.914454  1
  O  O8  1  0.082118  0.587696  0.084782  1
  O  O9  1  0.587696  0.082118  0.084782  1
  O  O10  1  0.916928  0.413817  0.914454  1
  O  O11  1  0.599089  0.098231  0.572526  1
  O  O12  1  0.901061  0.401548  0.428469  1
  O  O13  1  0.401548  0.901061  0.428469  1
  O  O14  1  0.000607  0.000607  0.823747  1
  O  O15  1  0.998915  0.998915  0.175994  1
  O  O16  1  0.498099  0.498099  0.792957  1
  O  O17  1  0.501922  0.501922  0.207056  1
  O  O18  1  0.098231  0.599089  0.572526  1
