# generated using pymatgen
data_Dy6Co2P12Ru15Rh
_symmetry_space_group_name_H-M   'P 1'
_cell_length_a   3.91127000
_cell_length_b   11.12685500
_cell_length_c   12.58719600
_cell_angle_alpha   90.00000000
_cell_angle_beta   90.00000000
_cell_angle_gamma   90.00000000
_symmetry_Int_Tables_number   1
_chemical_formula_structural   Dy6Co2P12Ru15Rh
_chemical_formula_sum   'Dy6 Co2 P12 Ru15 Rh1'
_cell_volume   547.79645857
_cell_formula_units_Z   1
loop_
 _symmetry_equiv_pos_site_id
 _symmetry_equiv_pos_as_xyz
  1  'x, y, z'
loop_
 _atom_site_type_symbol
 _atom_site_label
 _atom_site_symmetry_multiplicity
 _atom_site_fract_x
 _atom_site_fract_y
 _atom_site_fract_z
 _atom_site_occupancy
  Dy  Dy0  1  0.000000  0.500000  0.525605  1
  Dy  Dy1  1  0.500000  0.000000  0.476666  1
  Dy  Dy2  1  0.500000  0.817591  0.203749  1
  Dy  Dy3  1  0.500000  0.182409  0.203749  1
  Dy  Dy4  1  0.000000  0.679510  0.795305  1
  Dy  Dy5  1  0.000000  0.320490  0.795305  1
  Co  Co6  1  0.000000  0.500000  0.986531  1
  Co  Co7  1  0.500000  0.000000  0.013696  1
  P  P8  1  0.500000  0.500000  0.881883  1
  P  P9  1  0.000000  0.000000  0.115784  1
  P  P10  1  0.500000  0.500000  0.338621  1
  P  P11  1  0.000000  0.000000  0.661961  1
  P  P12  1  0.500000  0.302069  0.618063  1
  P  P13  1  0.500000  0.697931  0.618063  1
  P  P14  1  0.000000  0.198518  0.382769  1
  P  P15  1  0.000000  0.801482  0.382769  1
  P  P16  1  0.500000  0.849222  0.898271  1
  P  P17  1  0.500000  0.150778  0.898271  1
  P  P18  1  0.000000  0.649987  0.101411  1
  P  P19  1  0.000000  0.350013  0.101411  1
  Ru  Ru20  1  0.500000  0.500000  0.153648  1
  Ru  Ru21  1  0.000000  0.000000  0.847094  1
  Ru  Ru22  1  0.500000  0.500000  0.694208  1
  Ru  Ru23  1  0.500000  0.334847  0.989813  1
  Ru  Ru24  1  0.500000  0.665153  0.989813  1
  Ru  Ru25  1  0.000000  0.165945  0.010239  1
  Ru  Ru26  1  0.000000  0.834055  0.010239  1
  Ru  Ru27  1  0.500000  0.301904  0.430106  1
  Ru  Ru28  1  0.500000  0.698096  0.430106  1
  Ru  Ru29  1  0.000000  0.196960  0.570066  1
  Ru  Ru30  1  0.000000  0.803040  0.570066  1
  Ru  Ru31  1  0.500000  0.878507  0.716208  1
  Ru  Ru32  1  0.500000  0.121493  0.716208  1
  Ru  Ru33  1  0.000000  0.621976  0.283753  1
  Ru  Ru34  1  0.000000  0.378024  0.283753  1
  Rh  Rh35  1  0.000000  0.000000  0.304798  1
