# generated using pymatgen
data_LiHo16In3Ir3Pd
_symmetry_space_group_name_H-M   'P 1'
_cell_length_a   9.60858559
_cell_length_b   9.63558119
_cell_length_c   9.63558183
_cell_angle_alpha   60.03854865
_cell_angle_beta   59.81798221
_cell_angle_gamma   59.81797796
_symmetry_Int_Tables_number   1
_chemical_formula_structural   LiHo16In3Ir3Pd
_chemical_formula_sum   'Li1 Ho16 In3 Ir3 Pd1'
_cell_volume   629.25351092
_cell_formula_units_Z   1
loop_
 _symmetry_equiv_pos_site_id
 _symmetry_equiv_pos_as_xyz
  1  'x, y, z'
loop_
 _atom_site_type_symbol
 _atom_site_label
 _atom_site_symmetry_multiplicity
 _atom_site_fract_x
 _atom_site_fract_y
 _atom_site_fract_z
 _atom_site_occupancy
  Li  Li0  1  0.427887  0.428330  0.428330  1
  Ho  Ho1  1  0.440218  0.433836  0.063010  1
  Ho  Ho2  1  0.653511  0.647403  0.050669  1
  Ho  Ho3  1  0.182457  0.812975  0.191429  1
  Ho  Ho4  1  0.061925  0.438879  0.060566  1
  Ho  Ho5  1  0.186029  0.809002  0.809002  1
  Ho  Ho6  1  0.063129  0.437272  0.437272  1
  Ho  Ho7  1  0.814208  0.186948  0.186948  1
  Ho  Ho8  1  0.653476  0.647811  0.647811  1
  Ho  Ho9  1  0.809335  0.190700  0.808940  1
  Ho  Ho10  1  0.182457  0.191429  0.812975  1
  Ho  Ho11  1  0.045512  0.651035  0.651035  1
  Ho  Ho12  1  0.439547  0.062381  0.062381  1
  Ho  Ho13  1  0.061925  0.060566  0.438879  1
  Ho  Ho14  1  0.653511  0.050669  0.647403  1
  Ho  Ho15  1  0.809335  0.808940  0.190700  1
  Ho  Ho16  1  0.440218  0.063010  0.433836  1
  In  In17  1  0.416546  0.417473  0.745715  1
  In  In18  1  0.416546  0.745715  0.417473  1
  In  In19  1  0.747726  0.416622  0.416622  1
  Ir  Ir20  1  0.856394  0.857182  0.857182  1
  Ir  Ir21  1  0.855319  0.426084  0.858321  1
  Ir  Ir22  1  0.855319  0.858321  0.426084  1
  Pd  Pd23  1  0.427475  0.857421  0.857421  1
