# generated using pymatgen
data_Ca4Pr16(Ga3Bi)3
_symmetry_space_group_name_H-M   'P 1'
_cell_length_a   8.21687000
_cell_length_b   8.21687000
_cell_length_c   14.15143700
_cell_angle_alpha   90.00000000
_cell_angle_beta   90.00000000
_cell_angle_gamma   90.00000000
_symmetry_Int_Tables_number   1
_chemical_formula_structural   Ca4Pr16(Ga3Bi)3
_chemical_formula_sum   'Ca4 Pr16 Ga9 Bi3'
_cell_volume   955.46190111
_cell_formula_units_Z   1
loop_
 _symmetry_equiv_pos_site_id
 _symmetry_equiv_pos_as_xyz
  1  'x, y, z'
loop_
 _atom_site_type_symbol
 _atom_site_label
 _atom_site_symmetry_multiplicity
 _atom_site_fract_x
 _atom_site_fract_y
 _atom_site_fract_z
 _atom_site_occupancy
  Ca  Ca0  1  0.500000  0.500000  0.757098  1
  Ca  Ca1  1  0.000000  0.000000  0.244923  1
  Ca  Ca2  1  0.000000  0.000000  0.755077  1
  Ca  Ca3  1  0.500000  0.500000  0.242902  1
  Pr  Pr4  1  0.676574  0.163586  0.104001  1
  Pr  Pr5  1  0.168291  0.667533  0.607575  1
  Pr  Pr6  1  0.323426  0.836414  0.104001  1
  Pr  Pr7  1  0.831709  0.332467  0.607575  1
  Pr  Pr8  1  0.836414  0.676574  0.104001  1
  Pr  Pr9  1  0.332467  0.168291  0.607575  1
  Pr  Pr10  1  0.163586  0.323426  0.104001  1
  Pr  Pr11  1  0.667533  0.831709  0.607575  1
  Pr  Pr12  1  0.836414  0.323426  0.895999  1
  Pr  Pr13  1  0.332467  0.831709  0.392425  1
  Pr  Pr14  1  0.163586  0.676574  0.895999  1
  Pr  Pr15  1  0.667533  0.168291  0.392425  1
  Pr  Pr16  1  0.676574  0.836414  0.895999  1
  Pr  Pr17  1  0.168291  0.332467  0.392425  1
  Pr  Pr18  1  0.323426  0.163586  0.895999  1
  Pr  Pr19  1  0.831709  0.667533  0.392425  1
  Ga  Ga20  1  0.621784  0.122603  0.750771  1
  Ga  Ga21  1  0.122603  0.621784  0.249229  1
  Ga  Ga22  1  0.877397  0.378216  0.249229  1
  Ga  Ga23  1  0.378216  0.877397  0.750771  1
  Ga  Ga24  1  0.877397  0.621784  0.750771  1
  Ga  Ga25  1  0.378216  0.122603  0.249229  1
  Ga  Ga26  1  0.122603  0.378216  0.750771  1
  Ga  Ga27  1  0.621784  0.877397  0.249229  1
  Ga  Ga28  1  0.000000  0.000000  0.000000  1
  Bi  Bi29  1  0.500000  0.500000  0.500000  1
  Bi  Bi30  1  0.500000  0.500000  0.000000  1
  Bi  Bi31  1  0.000000  0.000000  0.500000  1
