# generated using pymatgen
data_Sc2UMnAs6Ru7
_symmetry_space_group_name_H-M   'P 1'
_cell_length_a   7.05336852
_cell_length_b   7.05336850
_cell_length_c   7.03346755
_cell_angle_alpha   109.16083151
_cell_angle_beta   109.16082762
_cell_angle_gamma   109.01929420
_symmetry_Int_Tables_number   1
_chemical_formula_structural   Sc2UMnAs6Ru7
_chemical_formula_sum   'Sc2 U1 Mn1 As6 Ru7'
_cell_volume   272.87208779
_cell_formula_units_Z   1
loop_
 _symmetry_equiv_pos_site_id
 _symmetry_equiv_pos_as_xyz
  1  'x, y, z'
loop_
 _atom_site_type_symbol
 _atom_site_label
 _atom_site_symmetry_multiplicity
 _atom_site_fract_x
 _atom_site_fract_y
 _atom_site_fract_z
 _atom_site_occupancy
  Sc  Sc0  1  0.500000  0.000000  0.000000  1
  Sc  Sc1  1  0.000000  0.500000  0.000000  1
  U  U2  1  0.000000  0.000000  0.500000  1
  Mn  Mn3  1  0.500000  0.500000  0.500000  1
  As  As4  1  0.317016  0.004526  0.308509  1
  As  As5  1  0.004526  0.317016  0.308509  1
  As  As6  1  0.995474  0.682984  0.691491  1
  As  As7  1  0.318323  0.318323  0.013511  1
  As  As8  1  0.681677  0.681677  0.986489  1
  As  As9  1  0.682984  0.995474  0.691491  1
  Ru  Ru10  1  0.750427  0.504253  0.256299  1
  Ru  Ru11  1  0.504253  0.750427  0.256299  1
  Ru  Ru12  1  0.495747  0.249573  0.743701  1
  Ru  Ru13  1  0.750271  0.249729  0.500000  1
  Ru  Ru14  1  0.249729  0.750271  0.500000  1
  Ru  Ru15  1  0.249573  0.495747  0.743701  1
  Ru  Ru16  1  0.000000  0.000000  0.000000  1
