# generated using pymatgen
data_Ta2Fe(Co10B3)2
_symmetry_space_group_name_H-M   'P 1'
_cell_length_a   7.42525649
_cell_length_b   7.42508711
_cell_length_c   7.42534901
_cell_angle_alpha   60.00266677
_cell_angle_beta   59.99859191
_cell_angle_gamma   59.99540381
_symmetry_Int_Tables_number   1
_chemical_formula_structural   Ta2Fe(Co10B3)2
_chemical_formula_sum   'Ta2 Fe1 Co20 B6'
_cell_volume   289.47024483
_cell_formula_units_Z   1
loop_
 _symmetry_equiv_pos_site_id
 _symmetry_equiv_pos_as_xyz
  1  'x, y, z'
loop_
 _atom_site_type_symbol
 _atom_site_label
 _atom_site_symmetry_multiplicity
 _atom_site_fract_x
 _atom_site_fract_y
 _atom_site_fract_z
 _atom_site_occupancy
  Ta  Ta0  1  0.749993  0.749967  0.750016  1
  Ta  Ta1  1  0.250023  0.250015  0.249978  1
  Fe  Fe2  1  0.999990  0.999987  0.000050  1
  Co  Co3  1  0.616292  0.616277  0.151135  1
  Co  Co4  1  0.616306  0.151106  0.616287  1
  Co  Co5  1  0.151122  0.616307  0.616299  1
  Co  Co6  1  0.616262  0.616295  0.616289  1
  Co  Co7  1  0.383705  0.383735  0.848854  1
  Co  Co8  1  0.383699  0.848879  0.383722  1
  Co  Co9  1  0.848885  0.383702  0.383695  1
  Co  Co10  1  0.383732  0.383718  0.383699  1
  Co  Co11  1  0.000005  0.999989  0.339521  1
  Co  Co12  1  0.660486  0.999995  0.339519  1
  Co  Co13  1  0.000004  0.660483  0.339521  1
  Co  Co14  1  0.660491  0.339508  0.999992  1
  Co  Co15  1  0.999999  0.339504  0.999999  1
  Co  Co16  1  0.999989  0.339522  0.660477  1
  Co  Co17  1  0.339504  0.660506  0.999990  1
  Co  Co18  1  0.339510  0.999980  0.660499  1
  Co  Co19  1  0.339517  0.999986  0.000003  1
  Co  Co20  1  0.000001  0.999996  0.660492  1
  Co  Co21  1  0.000012  0.660498  0.999985  1
  Co  Co22  1  0.660484  0.000007  0.999990  1
  B  B23  1  0.726542  0.726561  0.273439  1
  B  B24  1  0.273474  0.726545  0.273432  1
  B  B25  1  0.726568  0.273443  0.273392  1
  B  B26  1  0.273449  0.273462  0.726558  1
  B  B27  1  0.726522  0.273470  0.726573  1
  B  B28  1  0.273435  0.726556  0.726594  1
