# generated using pymatgen
data_Ba6CaCd(Os2O9)2
_symmetry_space_group_name_H-M   'P 1'
_cell_length_a   6.00041800
_cell_length_b   6.00041887
_cell_length_c   14.55158200
_cell_angle_alpha   90.00000000
_cell_angle_beta   90.00000000
_cell_angle_gamma   119.99998419
_symmetry_Int_Tables_number   1
_chemical_formula_structural   Ba6CaCd(Os2O9)2
_chemical_formula_sum   'Ba6 Ca1 Cd1 Os4 O18'
_cell_volume   453.73678026
_cell_formula_units_Z   1
loop_
 _symmetry_equiv_pos_site_id
 _symmetry_equiv_pos_as_xyz
  1  'x, y, z'
loop_
 _atom_site_type_symbol
 _atom_site_label
 _atom_site_symmetry_multiplicity
 _atom_site_fract_x
 _atom_site_fract_y
 _atom_site_fract_z
 _atom_site_occupancy
  Ba  Ba0  1  0.666667  0.333333  0.091031  1
  Ba  Ba1  1  0.333333  0.666667  0.592282  1
  Ba  Ba2  1  0.333333  0.666667  0.908969  1
  Ba  Ba3  1  0.666667  0.333333  0.407718  1
  Ba  Ba4  1  0.000000  0.000000  0.248649  1
  Ba  Ba5  1  0.000000  0.000000  0.751351  1
  Ca  Ca6  1  0.000000  0.000000  0.500000  1
  Cd  Cd7  1  0.000000  0.000000  0.000000  1
  Os  Os8  1  0.333333  0.666667  0.164279  1
  Os  Os9  1  0.666667  0.333333  0.663994  1
  Os  Os10  1  0.666667  0.333333  0.835721  1
  Os  Os11  1  0.333333  0.666667  0.336006  1
  O  O12  1  0.178142  0.356284  0.090588  1
  O  O13  1  0.821054  0.178946  0.590365  1
  O  O14  1  0.357892  0.178946  0.590365  1
  O  O15  1  0.643716  0.821858  0.090588  1
  O  O16  1  0.178142  0.821858  0.090588  1
  O  O17  1  0.821858  0.643716  0.909412  1
  O  O18  1  0.821858  0.178142  0.909412  1
  O  O19  1  0.821054  0.642108  0.590365  1
  O  O20  1  0.356284  0.178142  0.909412  1
  O  O21  1  0.642108  0.821054  0.409635  1
  O  O22  1  0.178946  0.357892  0.409635  1
  O  O23  1  0.178946  0.821054  0.409635  1
  O  O24  1  0.015505  0.507752  0.249833  1
  O  O25  1  0.507752  0.015505  0.750167  1
  O  O26  1  0.507752  0.492248  0.750167  1
  O  O27  1  0.492248  0.507752  0.249833  1
  O  O28  1  0.492248  0.984495  0.249833  1
  O  O29  1  0.984495  0.492248  0.750167  1
