# generated using pymatgen
data_DyTm5(Lu2Sn3)2
_symmetry_space_group_name_H-M   'P 1'
_cell_length_a   8.83967892
_cell_length_b   8.83967994
_cell_length_c   6.40757700
_cell_angle_alpha   90.00000000
_cell_angle_beta   90.00000000
_cell_angle_gamma   120.05241183
_symmetry_Int_Tables_number   1
_chemical_formula_structural   DyTm5(Lu2Sn3)2
_chemical_formula_sum   'Dy1 Tm5 Lu4 Sn6'
_cell_volume   433.37902477
_cell_formula_units_Z   1
loop_
 _symmetry_equiv_pos_site_id
 _symmetry_equiv_pos_as_xyz
  1  'x, y, z'
loop_
 _atom_site_type_symbol
 _atom_site_label
 _atom_site_symmetry_multiplicity
 _atom_site_fract_x
 _atom_site_fract_y
 _atom_site_fract_z
 _atom_site_occupancy
  Dy  Dy0  1  0.761366  0.761366  0.750000  1
  Tm  Tm1  1  0.238959  0.000142  0.750000  1
  Tm  Tm2  1  0.000142  0.238959  0.750000  1
  Tm  Tm3  1  0.238585  0.238585  0.250000  1
  Tm  Tm4  1  0.761207  0.000142  0.250000  1
  Tm  Tm5  1  0.000142  0.761207  0.250000  1
  Lu  Lu6  1  0.666645  0.333248  0.000049  1
  Lu  Lu7  1  0.333248  0.666645  0.000049  1
  Lu  Lu8  1  0.333248  0.666645  0.499951  1
  Lu  Lu9  1  0.666645  0.333248  0.499951  1
  Sn  Sn10  1  0.394826  0.394826  0.750000  1
  Sn  Sn11  1  0.604536  0.000399  0.750000  1
  Sn  Sn12  1  0.000399  0.604536  0.750000  1
  Sn  Sn13  1  0.604834  0.604834  0.250000  1
  Sn  Sn14  1  0.395212  0.000006  0.250000  1
  Sn  Sn15  1  0.000006  0.395212  0.250000  1
