# generated using pymatgen
data_Tb5In2Ga
_symmetry_space_group_name_H-M   'P 1'
_cell_length_a   9.15437242
_cell_length_b   9.15438074
_cell_length_c   9.15437200
_cell_angle_alpha   96.10700097
_cell_angle_beta   96.10676105
_cell_angle_gamma   141.92758449
_symmetry_Int_Tables_number   1
_chemical_formula_structural   Tb5In2Ga
_chemical_formula_sum   'Tb10 In4 Ga2'
_cell_volume   447.20376035
_cell_formula_units_Z   2
loop_
 _symmetry_equiv_pos_site_id
 _symmetry_equiv_pos_as_xyz
  1  'x, y, z'
loop_
 _atom_site_type_symbol
 _atom_site_label
 _atom_site_symmetry_multiplicity
 _atom_site_fract_x
 _atom_site_fract_y
 _atom_site_fract_z
 _atom_site_occupancy
  Tb  Tb0  1  0.750019  0.250000  0.500019  1
  Tb  Tb1  1  0.249981  0.750000  0.499981  1
  Tb  Tb2  1  0.210212  0.919217  0.129504  1
  Tb  Tb3  1  0.080796  0.210236  0.291027  1
  Tb  Tb4  1  0.919204  0.789764  0.708973  1
  Tb  Tb5  1  0.789788  0.080783  0.870496  1
  Tb  Tb6  1  0.419209  0.710236  0.129441  1
  Tb  Tb7  1  0.580791  0.289764  0.870559  1
  Tb  Tb8  1  0.710287  0.580783  0.290996  1
  Tb  Tb9  1  0.289713  0.419217  0.709004  1
  In  In10  1  0.661880  0.838068  0.499932  1
  In  In11  1  0.161864  0.661932  0.823813  1
  In  In12  1  0.838136  0.338068  0.176187  1
  In  In13  1  0.338120  0.161932  0.500068  1
  Ga  Ga14  1  0.250010  0.250000  0.000010  1
  Ga  Ga15  1  0.749990  0.750000  0.999990  1
