# generated using pymatgen
data_Ba3Pu2BiO9
_symmetry_space_group_name_H-M   'P 1'
_cell_length_a   6.25137520
_cell_length_b   6.23700299
_cell_length_c   13.97346704
_cell_angle_alpha   102.63688511
_cell_angle_beta   102.57790700
_cell_angle_gamma   89.54993812
_symmetry_Int_Tables_number   1
_chemical_formula_structural   Ba3Pu2BiO9
_chemical_formula_sum   'Ba6 Pu4 Bi2 O18'
_cell_volume   518.41402648
_cell_formula_units_Z   2
loop_
 _symmetry_equiv_pos_site_id
 _symmetry_equiv_pos_as_xyz
  1  'x, y, z'
loop_
 _atom_site_type_symbol
 _atom_site_label
 _atom_site_symmetry_multiplicity
 _atom_site_fract_x
 _atom_site_fract_y
 _atom_site_fract_z
 _atom_site_occupancy
  Ba  Ba0  1  0.922748  0.422388  0.836422  1
  Ba  Ba1  1  0.256873  0.756393  0.502865  1
  Ba  Ba2  1  0.586680  0.086363  0.168723  1
  Ba  Ba3  1  0.743127  0.243607  0.497135  1
  Ba  Ba4  1  0.077252  0.577612  0.163578  1
  Ba  Ba5  1  0.413320  0.913637  0.831277  1
  Pu  Pu6  1  0.500000  0.500000  0.000000  1
  Pu  Pu7  1  0.334441  0.334001  0.668920  1
  Pu  Pu8  1  0.665559  0.665999  0.331080  1
  Pu  Pu9  1  0.000000  0.000000  0.000000  1
  Bi  Bi10  1  0.831530  0.832467  0.664691  1
  Bi  Bi11  1  0.168470  0.167533  0.335309  1
  O  O12  1  0.622250  0.148123  0.694251  1
  O  O13  1  0.955804  0.482106  0.355937  1
  O  O14  1  0.296092  0.792444  0.025510  1
  O  O15  1  0.044196  0.517894  0.644063  1
  O  O16  1  0.377750  0.851877  0.305749  1
  O  O17  1  0.703908  0.207556  0.974490  1
  O  O18  1  0.140395  0.052994  0.670013  1
  O  O19  1  0.471087  0.384305  0.331507  1
  O  O20  1  0.784799  0.712079  0.999664  1
  O  O21  1  0.701800  0.790631  0.495293  1
  O  O22  1  0.035422  0.115926  0.155220  1
  O  O23  1  0.377292  0.460373  0.837441  1
  O  O24  1  0.964578  0.884074  0.844780  1
  O  O25  1  0.298200  0.209369  0.504707  1
  O  O26  1  0.622708  0.539627  0.162559  1
  O  O27  1  0.528913  0.615695  0.668493  1
  O  O28  1  0.859605  0.947006  0.329987  1
  O  O29  1  0.215201  0.287921  0.000336  1
