# generated using pymatgen
data_Lu2AlB2Ir2Ru3
_symmetry_space_group_name_H-M   'P 1'
_cell_length_a   9.54522380
_cell_length_b   9.52933380
_cell_length_c   3.06585700
_cell_angle_alpha   90.00000000
_cell_angle_beta   90.00000000
_cell_angle_gamma   89.92962143
_symmetry_Int_Tables_number   1
_chemical_formula_structural   Lu2AlB2Ir2Ru3
_chemical_formula_sum   'Lu4 Al2 B4 Ir4 Ru6'
_cell_volume   278.86898885
_cell_formula_units_Z   2
loop_
 _symmetry_equiv_pos_site_id
 _symmetry_equiv_pos_as_xyz
  1  'x, y, z'
loop_
 _atom_site_type_symbol
 _atom_site_label
 _atom_site_symmetry_multiplicity
 _atom_site_fract_x
 _atom_site_fract_y
 _atom_site_fract_z
 _atom_site_occupancy
  Lu  Lu0  1  0.675273  0.175442  0.000000  1
  Lu  Lu1  1  0.323843  0.826107  0.000000  1
  Lu  Lu2  1  0.174655  0.323950  0.000000  1
  Lu  Lu3  1  0.825720  0.674959  0.000000  1
  Al  Al4  1  0.000007  0.999145  0.000000  1
  Al  Al5  1  0.501749  0.499699  0.000000  1
  B  B6  1  0.120581  0.623606  0.000000  1
  B  B7  1  0.875774  0.379790  0.000000  1
  B  B8  1  0.623689  0.879441  0.000000  1
  B  B9  1  0.375456  0.121092  0.000000  1
  Ir  Ir10  1  0.930954  0.214902  0.500000  1
  Ir  Ir11  1  0.284531  0.568322  0.500000  1
  Ir  Ir12  1  0.569356  0.716323  0.500000  1
  Ir  Ir13  1  0.430675  0.284227  0.500000  1
  Ru  Ru14  1  0.216492  0.068539  0.500000  1
  Ru  Ru15  1  0.782955  0.930543  0.500000  1
  Ru  Ru16  1  0.070367  0.783265  0.500000  1
  Ru  Ru17  1  0.717564  0.430583  0.500000  1
  Ru  Ru18  1  0.499525  0.000807  0.500000  1
  Ru  Ru19  1  0.000835  0.499258  0.500000  1
