# generated using pymatgen
data_Sr4Al11Ga3Ag2
_symmetry_space_group_name_H-M   'P 1'
_cell_length_a   6.26437501
_cell_length_b   6.27062957
_cell_length_c   11.94584600
_cell_angle_alpha   74.78387674
_cell_angle_beta   74.79943453
_cell_angle_gamma   89.99999317
_symmetry_Int_Tables_number   1
_chemical_formula_structural   Sr4Al11Ga3Ag2
_chemical_formula_sum   'Sr4 Al11 Ga3 Ag2'
_cell_volume   435.76432734
_cell_formula_units_Z   1
loop_
 _symmetry_equiv_pos_site_id
 _symmetry_equiv_pos_as_xyz
  1  'x, y, z'
loop_
 _atom_site_type_symbol
 _atom_site_label
 _atom_site_symmetry_multiplicity
 _atom_site_fract_x
 _atom_site_fract_y
 _atom_site_fract_z
 _atom_site_occupancy
  Sr  Sr0  1  0.998860  0.998860  0.002281  1
  Sr  Sr1  1  0.499474  0.499474  0.001052  1
  Sr  Sr2  1  0.749229  0.249229  0.501542  1
  Sr  Sr3  1  0.249315  0.749315  0.501371  1
  Al  Al4  1  0.195628  0.195628  0.608746  1
  Al  Al5  1  0.809130  0.809130  0.381740  1
  Al  Al6  1  0.622681  0.126194  0.247587  1
  Al  Al7  1  0.129732  0.626217  0.247587  1
  Al  Al8  1  0.622681  0.626217  0.247587  1
  Al  Al9  1  0.129732  0.126194  0.247587  1
  Al  Al10  1  0.878881  0.371768  0.750831  1
  Al  Al11  1  0.370288  0.877400  0.750831  1
  Al  Al12  1  0.878881  0.877400  0.750831  1
  Al  Al13  1  0.370288  0.371768  0.750831  1
  Al  Al14  1  0.691984  0.691984  0.616033  1
  Ga  Ga15  1  0.057795  0.557795  0.884410  1
  Ga  Ga16  1  0.444934  0.944934  0.110130  1
  Ga  Ga17  1  0.943339  0.443339  0.113322  1
  Ag  Ag18  1  0.311004  0.311004  0.377993  1
  Ag  Ag19  1  0.560976  0.060976  0.878047  1
