# generated using pymatgen
data_La2Pr2Si10(OsPt)3
_symmetry_space_group_name_H-M   'P 1'
_cell_length_a   8.29770282
_cell_length_b   8.31903151
_cell_length_c   8.31903043
_cell_angle_alpha   137.50266940
_cell_angle_beta   105.66162191
_cell_angle_gamma   89.62247149
_symmetry_Int_Tables_number   1
_chemical_formula_structural   La2Pr2Si10(OsPt)3
_chemical_formula_sum   'La2 Pr2 Si10 Os3 Pt3'
_cell_volume   356.81377225
_cell_formula_units_Z   1
loop_
 _symmetry_equiv_pos_site_id
 _symmetry_equiv_pos_as_xyz
  1  'x, y, z'
loop_
 _atom_site_type_symbol
 _atom_site_label
 _atom_site_symmetry_multiplicity
 _atom_site_fract_x
 _atom_site_fract_y
 _atom_site_fract_z
 _atom_site_occupancy
  La  La0  1  0.863933  0.628683  0.235249  1
  La  La1  1  0.137839  0.371526  0.766313  1
  Pr  Pr2  1  0.396938  0.131550  0.265388  1
  Pr  Pr3  1  0.604433  0.870279  0.734155  1
  Si  Si4  1  0.493897  0.754379  0.254554  1
  Si  Si5  1  0.493897  0.239343  0.739518  1
  Si  Si6  1  0.222974  0.973367  0.744825  1
  Si  Si7  1  0.775917  0.524496  0.747483  1
  Si  Si8  1  0.775917  0.028434  0.251422  1
  Si  Si9  1  0.222974  0.478149  0.249607  1
  Si  Si10  1  0.051877  0.898334  0.153543  1
  Si  Si11  1  0.959226  0.104541  0.854685  1
  Si  Si12  1  0.748173  0.394259  0.353913  1
  Si  Si13  1  0.251875  0.604307  0.647568  1
  Os  Os14  1  0.999762  0.751015  0.752021  1
  Os  Os15  1  0.999762  0.247741  0.248748  1
  Os  Os16  1  0.246509  0.859643  0.386867  1
  Pt  Pt17  1  0.749353  0.138438  0.610914  1
  Pt  Pt18  1  0.473845  0.361454  0.112392  1
  Pt  Pt19  1  0.530899  0.640064  0.890836  1
