# generated using pymatgen
data_Mn8Tc3Os
_symmetry_space_group_name_H-M   'P 1'
_cell_length_a   4.66302200
_cell_length_b   4.66302242
_cell_length_c   7.62166800
_cell_angle_alpha   90.00000000
_cell_angle_beta   90.00000000
_cell_angle_gamma   119.99999699
_symmetry_Int_Tables_number   1
_chemical_formula_structural   Mn8Tc3Os
_chemical_formula_sum   'Mn8 Tc3 Os1'
_cell_volume   143.52106230
_cell_formula_units_Z   1
loop_
 _symmetry_equiv_pos_site_id
 _symmetry_equiv_pos_as_xyz
  1  'x, y, z'
loop_
 _atom_site_type_symbol
 _atom_site_label
 _atom_site_symmetry_multiplicity
 _atom_site_fract_x
 _atom_site_fract_y
 _atom_site_fract_z
 _atom_site_occupancy
  Mn  Mn0  1  0.651556  0.825778  0.750009  1
  Mn  Mn1  1  0.348242  0.174121  0.250450  1
  Mn  Mn2  1  0.825879  0.174121  0.250450  1
  Mn  Mn3  1  0.174222  0.348444  0.750009  1
  Mn  Mn4  1  0.174222  0.825778  0.750009  1
  Mn  Mn5  1  0.825879  0.651758  0.250450  1
  Mn  Mn6  1  0.000000  0.000000  0.499994  1
  Mn  Mn7  1  0.000000  0.000000  0.999437  1
  Tc  Tc8  1  0.666667  0.333333  0.931450  1
  Tc  Tc9  1  0.666667  0.333333  0.567561  1
  Tc  Tc10  1  0.333333  0.666667  0.069078  1
  Os  Os11  1  0.333333  0.666667  0.431102  1
