# generated using pymatgen
data_LiTb8Dy8In3Ir4
_symmetry_space_group_name_H-M   'P 1'
_cell_length_a   9.67640988
_cell_length_b   9.67594172
_cell_length_c   9.67556880
_cell_angle_alpha   59.90676127
_cell_angle_beta   59.90492639
_cell_angle_gamma   59.89857550
_symmetry_Int_Tables_number   1
_chemical_formula_structural   LiTb8Dy8In3Ir4
_chemical_formula_sum   'Li1 Tb8 Dy8 In3 Ir4'
_cell_volume   639.17004590
_cell_formula_units_Z   1
loop_
 _symmetry_equiv_pos_site_id
 _symmetry_equiv_pos_as_xyz
  1  'x, y, z'
loop_
 _atom_site_type_symbol
 _atom_site_label
 _atom_site_symmetry_multiplicity
 _atom_site_fract_x
 _atom_site_fract_y
 _atom_site_fract_z
 _atom_site_occupancy
  Li  Li0  1  0.321400  0.321871  0.321537  1
  Tb  Tb1  1  0.098714  0.099136  0.704472  1
  Tb  Tb2  1  0.689911  0.310121  0.689858  1
  Tb  Tb3  1  0.690254  0.689845  0.309755  1
  Tb  Tb4  1  0.689286  0.311578  0.311219  1
  Tb  Tb5  1  0.309490  0.689917  0.690169  1
  Tb  Tb6  1  0.561884  0.936859  0.561873  1
  Tb  Tb7  1  0.704905  0.098930  0.098524  1
  Tb  Tb8  1  0.558283  0.941696  0.941839  1
  Dy  Dy9  1  0.098936  0.704804  0.098919  1
  Dy  Dy10  1  0.942066  0.941609  0.558152  1
  Dy  Dy11  1  0.941970  0.558094  0.941635  1
  Dy  Dy12  1  0.310700  0.689879  0.311297  1
  Dy  Dy13  1  0.937061  0.561806  0.561908  1
  Dy  Dy14  1  0.310698  0.311633  0.689765  1
  Dy  Dy15  1  0.099139  0.099301  0.099349  1
  Dy  Dy16  1  0.561827  0.561740  0.936932  1
  In  In17  1  0.004655  0.332467  0.332299  1
  In  In18  1  0.332328  0.004510  0.332454  1
  In  In19  1  0.332270  0.332583  0.004543  1
  Ir  Ir20  1  0.892923  0.891397  0.892113  1
  Ir  Ir21  1  0.893369  0.891604  0.326118  1
  Ir  Ir22  1  0.325545  0.891801  0.893204  1
  Ir  Ir23  1  0.892386  0.326820  0.892067  1
