# generated using pymatgen
data_Sr2Ga4SiPt3
_symmetry_space_group_name_H-M   'P 1'
_cell_length_a   8.64914974
_cell_length_b   8.73168738
_cell_length_c   8.73166761
_cell_angle_alpha   138.32694684
_cell_angle_beta   107.53518619
_cell_angle_gamma   87.37429373
_symmetry_Int_Tables_number   1
_chemical_formula_structural   Sr2Ga4SiPt3
_chemical_formula_sum   'Sr4 Ga8 Si2 Pt6'
_cell_volume   401.01196740
_cell_formula_units_Z   2
loop_
 _symmetry_equiv_pos_site_id
 _symmetry_equiv_pos_as_xyz
  1  'x, y, z'
loop_
 _atom_site_type_symbol
 _atom_site_label
 _atom_site_symmetry_multiplicity
 _atom_site_fract_x
 _atom_site_fract_y
 _atom_site_fract_z
 _atom_site_occupancy
  Sr  Sr0  1  0.866274  0.629999  0.236270  1
  Sr  Sr1  1  0.133726  0.370001  0.763730  1
  Sr  Sr2  1  0.392867  0.129727  0.263155  1
  Sr  Sr3  1  0.607133  0.870273  0.736845  1
  Ga  Ga4  1  0.499995  0.747402  0.247402  1
  Ga  Ga5  1  0.500005  0.252598  0.752598  1
  Ga  Ga6  1  0.234572  0.976439  0.750712  1
  Ga  Ga7  1  0.765418  0.516109  0.741839  1
  Ga  Ga8  1  0.765428  0.023561  0.249288  1
  Ga  Ga9  1  0.234582  0.483891  0.258161  1
  Ga  Ga10  1  0.038874  0.893730  0.145178  1
  Ga  Ga11  1  0.961126  0.106270  0.854822  1
  Si  Si12  1  0.748528  0.393947  0.354583  1
  Si  Si13  1  0.251472  0.606053  0.645417  1
  Pt  Pt14  1  0.000007  0.738037  0.738059  1
  Pt  Pt15  1  0.999993  0.261963  0.261941  1
  Pt  Pt16  1  0.253958  0.864794  0.389204  1
  Pt  Pt17  1  0.746042  0.135206  0.610796  1
  Pt  Pt18  1  0.488734  0.366301  0.122434  1
  Pt  Pt19  1  0.511266  0.633699  0.877566  1
