# generated using pymatgen
data_Y8Sc11Si16Hg
_symmetry_space_group_name_H-M   'P 1'
_cell_length_a   7.06297307
_cell_length_b   7.41013192
_cell_length_c   14.04517200
_cell_angle_alpha   90.00000000
_cell_angle_beta   90.00000000
_cell_angle_gamma   89.90094397
_symmetry_Int_Tables_number   1
_chemical_formula_structural   Y8Sc11Si16Hg
_chemical_formula_sum   'Y8 Sc11 Si16 Hg1'
_cell_volume   735.08896380
_cell_formula_units_Z   1
loop_
 _symmetry_equiv_pos_site_id
 _symmetry_equiv_pos_as_xyz
  1  'x, y, z'
loop_
 _atom_site_type_symbol
 _atom_site_label
 _atom_site_symmetry_multiplicity
 _atom_site_fract_x
 _atom_site_fract_y
 _atom_site_fract_z
 _atom_site_occupancy
  Y  Y0  1  0.010172  0.173872  0.096879  1
  Y  Y1  1  0.990886  0.817254  0.901649  1
  Y  Y2  1  0.484457  0.673230  0.901782  1
  Y  Y3  1  0.990886  0.817254  0.598351  1
  Y  Y4  1  0.511152  0.323949  0.097137  1
  Y  Y5  1  0.010172  0.173872  0.403121  1
  Y  Y6  1  0.511152  0.323949  0.402863  1
  Y  Y7  1  0.484457  0.673230  0.598218  1
  Sc  Sc8  1  0.838402  0.498014  0.250000  1
  Sc  Sc9  1  0.339453  0.002651  0.250000  1
  Sc  Sc10  1  0.657769  0.998338  0.750000  1
  Sc  Sc11  1  0.325580  0.183226  0.625745  1
  Sc  Sc12  1  0.671124  0.823871  0.375066  1
  Sc  Sc13  1  0.169741  0.679997  0.373241  1
  Sc  Sc14  1  0.671124  0.823871  0.124934  1
  Sc  Sc15  1  0.837887  0.325266  0.625842  1
  Sc  Sc16  1  0.325580  0.183226  0.874255  1
  Sc  Sc17  1  0.837887  0.325266  0.874158  1
  Sc  Sc18  1  0.169741  0.679997  0.126759  1
  Si  Si19  1  0.027854  0.096158  0.750000  1
  Si  Si20  1  0.967670  0.886537  0.250000  1
  Si  Si21  1  0.467160  0.617566  0.250000  1
  Si  Si22  1  0.544451  0.379055  0.750000  1
  Si  Si23  1  0.291495  0.889232  0.750000  1
  Si  Si24  1  0.713164  0.127647  0.250000  1
  Si  Si25  1  0.212631  0.373254  0.250000  1
  Si  Si26  1  0.769748  0.630718  0.750000  1
  Si  Si27  1  0.161587  0.459266  0.528670  1
  Si  Si28  1  0.842448  0.536347  0.461952  1
  Si  Si29  1  0.344315  0.965810  0.462058  1
  Si  Si30  1  0.842448  0.536347  0.038048  1
  Si  Si31  1  0.657422  0.033356  0.540515  1
  Si  Si32  1  0.161587  0.459266  0.971330  1
  Si  Si33  1  0.657422  0.033356  0.959485  1
  Si  Si34  1  0.344315  0.965810  0.037942  1
  Hg  Hg35  1  0.156658  0.509943  0.750000  1
