# generated using pymatgen
data_Hf3ZrSi4Pd3Pt
_symmetry_space_group_name_H-M   'P 1'
_cell_length_a   3.89379200
_cell_length_b   6.62160981
_cell_length_c   7.61342203
_cell_angle_alpha   90.14240334
_cell_angle_beta   90.00000000
_cell_angle_gamma   90.00000000
_symmetry_Int_Tables_number   1
_chemical_formula_structural   Hf3ZrSi4Pd3Pt
_chemical_formula_sum   'Hf3 Zr1 Si4 Pd3 Pt1'
_cell_volume   196.29755791
_cell_formula_units_Z   1
loop_
 _symmetry_equiv_pos_site_id
 _symmetry_equiv_pos_as_xyz
  1  'x, y, z'
loop_
 _atom_site_type_symbol
 _atom_site_label
 _atom_site_symmetry_multiplicity
 _atom_site_fract_x
 _atom_site_fract_y
 _atom_site_fract_z
 _atom_site_occupancy
  Hf  Hf0  1  0.250000  0.527988  0.678679  1
  Hf  Hf1  1  0.250000  0.026800  0.820363  1
  Hf  Hf2  1  0.750000  0.973431  0.179073  1
  Zr  Zr3  1  0.750000  0.471972  0.322049  1
  Si  Si4  1  0.250000  0.258213  0.123564  1
  Si  Si5  1  0.750000  0.741262  0.876576  1
  Si  Si6  1  0.250000  0.759897  0.376583  1
  Si  Si7  1  0.750000  0.239682  0.624842  1
  Pd  Pd8  1  0.250000  0.143252  0.437846  1
  Pd  Pd9  1  0.750000  0.356677  0.936990  1
  Pd  Pd10  1  0.250000  0.644964  0.060953  1
  Pt  Pt11  1  0.750000  0.855860  0.562482  1
