# generated using pymatgen
data_CaTb4PrGdIrBr12
_symmetry_space_group_name_H-M   'P 1'
_cell_length_a   9.38157014
_cell_length_b   9.35261550
_cell_length_c   9.38964197
_cell_angle_alpha   106.70567422
_cell_angle_beta   106.46981681
_cell_angle_gamma   107.51907579
_symmetry_Int_Tables_number   1
_chemical_formula_structural   CaTb4PrGdIrBr12
_chemical_formula_sum   'Ca1 Tb4 Pr1 Gd1 Ir1 Br12'
_cell_volume   687.97252879
_cell_formula_units_Z   1
loop_
 _symmetry_equiv_pos_site_id
 _symmetry_equiv_pos_as_xyz
  1  'x, y, z'
loop_
 _atom_site_type_symbol
 _atom_site_label
 _atom_site_symmetry_multiplicity
 _atom_site_fract_x
 _atom_site_fract_y
 _atom_site_fract_z
 _atom_site_occupancy
  Ca  Ca0  1  0.499667  0.501156  0.498011  1
  Tb  Tb1  1  0.316397  0.026011  0.106951  1
  Tb  Tb2  1  0.024659  0.107360  0.315120  1
  Tb  Tb3  1  0.976836  0.896777  0.687445  1
  Tb  Tb4  1  0.683790  0.972575  0.893996  1
  Pr  Pr5  1  0.894184  0.685647  0.977075  1
  Gd  Gd6  1  0.104293  0.307223  0.023838  1
  Ir  Ir7  1  0.000611  0.000539  0.001406  1
  Br  Br8  1  0.229899  0.684689  0.076154  1
  Br  Br9  1  0.458699  0.374801  0.160126  1
  Br  Br10  1  0.679982  0.072127  0.217142  1
  Br  Br11  1  0.929283  0.788597  0.329507  1
  Br  Br12  1  0.158279  0.454897  0.375199  1
  Br  Br13  1  0.374361  0.159060  0.454206  1
  Br  Br14  1  0.626560  0.844202  0.547000  1
  Br  Br15  1  0.839947  0.545830  0.616451  1
  Br  Br16  1  0.072930  0.217846  0.679386  1
  Br  Br17  1  0.320366  0.929189  0.784213  1
  Br  Br18  1  0.532923  0.623141  0.833231  1
  Br  Br19  1  0.776339  0.308334  0.923544  1
