# generated using pymatgen
data_Er4Al18AgIr4Pd
_symmetry_space_group_name_H-M   'P 1'
_cell_length_a   7.59396519
_cell_length_b   7.59397348
_cell_length_c   9.42903711
_cell_angle_alpha   89.95846446
_cell_angle_beta   89.95846319
_cell_angle_gamma   119.52586609
_symmetry_Int_Tables_number   1
_chemical_formula_structural   Er4Al18AgIr4Pd
_chemical_formula_sum   'Er4 Al18 Ag1 Ir4 Pd1'
_cell_volume   473.14076114
_cell_formula_units_Z   1
loop_
 _symmetry_equiv_pos_site_id
 _symmetry_equiv_pos_as_xyz
  1  'x, y, z'
loop_
 _atom_site_type_symbol
 _atom_site_label
 _atom_site_symmetry_multiplicity
 _atom_site_fract_x
 _atom_site_fract_y
 _atom_site_fract_z
 _atom_site_occupancy
  Er  Er0  1  0.995336  0.672388  0.250266  1
  Er  Er1  1  0.004664  0.327612  0.749734  1
  Er  Er2  1  0.672392  0.995335  0.250266  1
  Er  Er3  1  0.327608  0.004665  0.749734  1
  Al  Al4  1  0.134818  0.134818  0.254672  1
  Al  Al5  1  0.865182  0.865182  0.745328  1
  Al  Al6  1  0.000999  0.344221  0.078855  1
  Al  Al7  1  0.999001  0.655779  0.921145  1
  Al  Al8  1  0.000162  0.660748  0.575321  1
  Al  Al9  1  0.339252  0.999838  0.424678  1
  Al  Al10  1  0.999838  0.339252  0.424679  1
  Al  Al11  1  0.660748  0.000162  0.575322  1
  Al  Al12  1  0.655779  0.999001  0.921144  1
  Al  Al13  1  0.344221  0.000999  0.078856  1
  Al  Al14  1  0.335882  0.335882  0.555555  1
  Al  Al15  1  0.664118  0.664118  0.444445  1
  Al  Al16  1  0.658537  0.658537  0.059401  1
  Al  Al17  1  0.341463  0.341463  0.940599  1
  Al  Al18  1  0.338240  0.550243  0.250799  1
  Al  Al19  1  0.661760  0.449757  0.749201  1
  Al  Al20  1  0.550243  0.338240  0.250799  1
  Al  Al21  1  0.449757  0.661760  0.749201  1
  Ag  Ag22  1  0.000000  0.000000  0.000000  1
  Ir  Ir23  1  0.671926  0.328076  0.000000  1
  Ir  Ir24  1  0.328074  0.671924  0.000000  1
  Ir  Ir25  1  0.328161  0.671837  0.500000  1
  Ir  Ir26  1  0.671839  0.328163  0.500000  1
  Pd  Pd27  1  0.000000  0.000000  0.500000  1
