# generated using pymatgen
data_SrPa(PPd)2
_symmetry_space_group_name_H-M   'P 1'
_cell_length_a   4.22925600
_cell_length_b   8.04392333
_cell_length_c   7.32331362
_cell_angle_alpha   90.04415493
_cell_angle_beta   90.00000000
_cell_angle_gamma   90.00000000
_symmetry_Int_Tables_number   1
_chemical_formula_structural   SrPa(PPd)2
_chemical_formula_sum   'Sr2 Pa2 P4 Pd4'
_cell_volume   249.13767123
_cell_formula_units_Z   2
loop_
 _symmetry_equiv_pos_site_id
 _symmetry_equiv_pos_as_xyz
  1  'x, y, z'
loop_
 _atom_site_type_symbol
 _atom_site_label
 _atom_site_symmetry_multiplicity
 _atom_site_fract_x
 _atom_site_fract_y
 _atom_site_fract_z
 _atom_site_occupancy
  Sr  Sr0  1  0.250000  0.500278  0.249323  1
  Sr  Sr1  1  0.750000  0.499722  0.750677  1
  Pa  Pa2  1  0.750000  0.999832  0.749395  1
  Pa  Pa3  1  0.250000  0.000168  0.250605  1
  P  P4  1  0.250000  0.782988  0.916591  1
  P  P5  1  0.750000  0.217012  0.083409  1
  P  P6  1  0.750000  0.782526  0.416905  1
  P  P7  1  0.250000  0.217474  0.583095  1
  Pd  Pd8  1  0.250000  0.773010  0.583012  1
  Pd  Pd9  1  0.750000  0.226990  0.416988  1
  Pd  Pd10  1  0.750000  0.774906  0.083247  1
  Pd  Pd11  1  0.250000  0.225094  0.916753  1
