# generated using pymatgen
data_La8In2RuRh
_symmetry_space_group_name_H-M   'P 1'
_cell_length_a   10.08647025
_cell_length_b   10.13072446
_cell_length_c   10.12983434
_cell_angle_alpha   60.02223939
_cell_angle_beta   59.96556231
_cell_angle_gamma   59.96721670
_symmetry_Int_Tables_number   1
_chemical_formula_structural   La8In2RuRh
_chemical_formula_sum   'La16 In4 Ru2 Rh2'
_cell_volume   731.67650345
_cell_formula_units_Z   2
loop_
 _symmetry_equiv_pos_site_id
 _symmetry_equiv_pos_as_xyz
  1  'x, y, z'
loop_
 _atom_site_type_symbol
 _atom_site_label
 _atom_site_symmetry_multiplicity
 _atom_site_fract_x
 _atom_site_fract_y
 _atom_site_fract_z
 _atom_site_occupancy
  La  La0  1  0.186730  0.194988  0.808292  1
  La  La1  1  0.437219  0.060762  0.060815  1
  La  La2  1  0.441982  0.058018  0.439609  1
  La  La3  1  0.059591  0.438557  0.058728  1
  La  La4  1  0.652250  0.043179  0.650529  1
  La  La5  1  0.191659  0.807644  0.807651  1
  La  La6  1  0.059564  0.058694  0.438626  1
  La  La7  1  0.810208  0.189926  0.189954  1
  La  La8  1  0.808364  0.807882  0.195144  1
  La  La9  1  0.652217  0.650513  0.043174  1
  La  La10  1  0.655605  0.652909  0.652880  1
  La  La11  1  0.058778  0.440666  0.440732  1
  La  La12  1  0.043258  0.651005  0.650938  1
  La  La13  1  0.808295  0.195203  0.807869  1
  La  La14  1  0.442066  0.439566  0.058008  1
  La  La15  1  0.186737  0.808350  0.194936  1
  In  In16  1  0.420716  0.739577  0.419870  1
  In  In17  1  0.420722  0.419877  0.739556  1
  In  In18  1  0.739903  0.420160  0.420157  1
  In  In19  1  0.420593  0.420610  0.420594  1
  Ru  Ru20  1  0.861735  0.415974  0.862873  1
  Ru  Ru21  1  0.861734  0.862864  0.415961  1
  Rh  Rh22  1  0.419404  0.860967  0.860974  1
  Rh  Rh23  1  0.860670  0.862109  0.862126  1
