# generated using pymatgen
data_Y4ErTm3(Si3Rh)4
_symmetry_space_group_name_H-M   'P 1'
_cell_length_a   8.15360914
_cell_length_b   8.16071974
_cell_length_c   7.85858400
_cell_angle_alpha   90.00000000
_cell_angle_beta   90.00000000
_cell_angle_gamma   120.02881984
_symmetry_Int_Tables_number   1
_chemical_formula_structural   Y4ErTm3(Si3Rh)4
_chemical_formula_sum   'Y4 Er1 Tm3 Si12 Rh4'
_cell_volume   452.71729721
_cell_formula_units_Z   1
loop_
 _symmetry_equiv_pos_site_id
 _symmetry_equiv_pos_as_xyz
  1  'x, y, z'
loop_
 _atom_site_type_symbol
 _atom_site_label
 _atom_site_symmetry_multiplicity
 _atom_site_fract_x
 _atom_site_fract_y
 _atom_site_fract_z
 _atom_site_occupancy
  Y  Y0  1  0.000202  0.000101  0.250000  1
  Y  Y1  1  0.000134  0.000067  0.750000  1
  Y  Y2  1  0.491026  0.508839  0.250000  1
  Y  Y3  1  0.491026  0.982188  0.250000  1
  Er  Er4  1  0.016146  0.508073  0.250000  1
  Tm  Tm5  1  0.509072  0.490866  0.750000  1
  Tm  Tm6  1  0.981777  0.490888  0.750000  1
  Tm  Tm7  1  0.509073  0.018205  0.750000  1
  Si  Si8  1  0.833063  0.167163  0.501719  1
  Si  Si9  1  0.833063  0.665901  0.501719  1
  Si  Si10  1  0.334522  0.167261  0.502063  1
  Si  Si11  1  0.833063  0.167163  0.998281  1
  Si  Si12  1  0.833063  0.665901  0.998281  1
  Si  Si13  1  0.334522  0.167261  0.997937  1
  Si  Si14  1  0.167344  0.832325  0.999207  1
  Si  Si15  1  0.665041  0.832520  0.998063  1
  Si  Si16  1  0.167344  0.335019  0.999207  1
  Si  Si17  1  0.167344  0.832325  0.500793  1
  Si  Si18  1  0.665041  0.832520  0.501937  1
  Si  Si19  1  0.167344  0.335019  0.500793  1
  Rh  Rh20  1  0.667770  0.333885  0.470727  1
  Rh  Rh21  1  0.667770  0.333885  0.029273  1
  Rh  Rh22  1  0.332626  0.666313  0.960893  1
  Rh  Rh23  1  0.332626  0.666313  0.539107  1
