# generated using pymatgen
data_AcEu3(CdPt)4
_symmetry_space_group_name_H-M   'P 1'
_cell_length_a   4.34407000
_cell_length_b   7.51624133
_cell_length_c   8.91683799
_cell_angle_alpha   90.46861569
_cell_angle_beta   90.00000000
_cell_angle_gamma   90.00000000
_symmetry_Int_Tables_number   1
_chemical_formula_structural   AcEu3(CdPt)4
_chemical_formula_sum   'Ac1 Eu3 Cd4 Pt4'
_cell_volume   291.13463914
_cell_formula_units_Z   1
loop_
 _symmetry_equiv_pos_site_id
 _symmetry_equiv_pos_as_xyz
  1  'x, y, z'
loop_
 _atom_site_type_symbol
 _atom_site_label
 _atom_site_symmetry_multiplicity
 _atom_site_fract_x
 _atom_site_fract_y
 _atom_site_fract_z
 _atom_site_occupancy
  Ac  Ac0  1  0.250000  0.039327  0.319948  1
  Eu  Eu1  1  0.250000  0.539536  0.176851  1
  Eu  Eu2  1  0.750000  0.958797  0.687764  1
  Eu  Eu3  1  0.750000  0.461022  0.818070  1
  Cd  Cd4  1  0.250000  0.143062  0.934527  1
  Cd  Cd5  1  0.250000  0.638498  0.565753  1
  Cd  Cd6  1  0.750000  0.852834  0.057698  1
  Cd  Cd7  1  0.750000  0.368899  0.440408  1
  Pt  Pt8  1  0.250000  0.251915  0.627505  1
  Pt  Pt9  1  0.250000  0.752399  0.870592  1
  Pt  Pt10  1  0.750000  0.747301  0.371576  1
  Pt  Pt11  1  0.750000  0.246409  0.129307  1
