# generated using pymatgen
data_Rb3ReO5
_symmetry_space_group_name_H-M   'P 1'
_cell_length_a   8.78557800
_cell_length_b   8.75766400
_cell_length_c   9.48687900
_cell_angle_alpha   90.00000000
_cell_angle_beta   90.00000000
_cell_angle_gamma   90.00000000
_symmetry_Int_Tables_number   1
_chemical_formula_structural   Rb3ReO5
_chemical_formula_sum   'Rb12 Re4 O20'
_cell_volume   729.93128691
_cell_formula_units_Z   4
loop_
 _symmetry_equiv_pos_site_id
 _symmetry_equiv_pos_as_xyz
  1  'x, y, z'
loop_
 _atom_site_type_symbol
 _atom_site_label
 _atom_site_symmetry_multiplicity
 _atom_site_fract_x
 _atom_site_fract_y
 _atom_site_fract_z
 _atom_site_occupancy
  Rb  Rb0  1  0.250000  0.000000  0.489246  1
  Rb  Rb1  1  0.750000  0.000000  0.510754  1
  Rb  Rb2  1  0.250000  0.500000  0.010754  1
  Rb  Rb3  1  0.750000  0.500000  0.989246  1
  Rb  Rb4  1  0.250000  0.000000  0.011597  1
  Rb  Rb5  1  0.750000  0.000000  0.988403  1
  Rb  Rb6  1  0.250000  0.500000  0.488403  1
  Rb  Rb7  1  0.750000  0.500000  0.511597  1
  Rb  Rb8  1  0.539875  0.250000  0.250000  1
  Rb  Rb9  1  0.460125  0.750000  0.750000  1
  Rb  Rb10  1  0.960125  0.750000  0.250000  1
  Rb  Rb11  1  0.039875  0.250000  0.750000  1
  Re  Re12  1  0.013302  0.250000  0.250000  1
  Re  Re13  1  0.986698  0.750000  0.750000  1
  Re  Re14  1  0.486698  0.750000  0.250000  1
  Re  Re15  1  0.513302  0.250000  0.750000  1
  O  O16  1  0.221275  0.250000  0.250000  1
  O  O17  1  0.778725  0.750000  0.750000  1
  O  O18  1  0.278725  0.750000  0.250000  1
  O  O19  1  0.721275  0.250000  0.750000  1
  O  O20  1  0.589099  0.569824  0.250629  1
  O  O21  1  0.410901  0.430176  0.749371  1
  O  O22  1  0.910901  0.430176  0.250629  1
  O  O23  1  0.910901  0.069824  0.249371  1
  O  O24  1  0.089099  0.569824  0.749371  1
  O  O25  1  0.089099  0.930176  0.750629  1
  O  O26  1  0.589099  0.930176  0.249371  1
  O  O27  1  0.410901  0.069824  0.750629  1
  O  O28  1  0.513102  0.249243  0.551809  1
  O  O29  1  0.486898  0.750757  0.448191  1
  O  O30  1  0.986898  0.750757  0.551809  1
  O  O31  1  0.986898  0.749243  0.948191  1
  O  O32  1  0.013102  0.249243  0.448191  1
  O  O33  1  0.013102  0.250757  0.051809  1
  O  O34  1  0.513102  0.250757  0.948191  1
  O  O35  1  0.486898  0.749243  0.051809  1
