# generated using pymatgen
data_Er4Tc5Ru3
_symmetry_space_group_name_H-M   'P 1'
_cell_length_a   5.29824139
_cell_length_b   5.29824058
_cell_length_c   9.13171200
_cell_angle_alpha   90.00000000
_cell_angle_beta   90.00000000
_cell_angle_gamma   122.05433970
_symmetry_Int_Tables_number   1
_chemical_formula_structural   Er4Tc5Ru3
_chemical_formula_sum   'Er4 Tc5 Ru3'
_cell_volume   217.25934062
_cell_formula_units_Z   1
loop_
 _symmetry_equiv_pos_site_id
 _symmetry_equiv_pos_as_xyz
  1  'x, y, z'
loop_
 _atom_site_type_symbol
 _atom_site_label
 _atom_site_symmetry_multiplicity
 _atom_site_fract_x
 _atom_site_fract_y
 _atom_site_fract_z
 _atom_site_occupancy
  Er  Er0  1  0.335323  0.664677  0.434927  1
  Er  Er1  1  0.665216  0.334784  0.563312  1
  Er  Er2  1  0.665216  0.334784  0.936688  1
  Er  Er3  1  0.335323  0.664677  0.065073  1
  Tc  Tc4  1  0.170923  0.341976  0.750000  1
  Tc  Tc5  1  0.171531  0.828469  0.750000  1
  Tc  Tc6  1  0.340430  0.174516  0.250000  1
  Tc  Tc7  1  0.825484  0.659570  0.250000  1
  Tc  Tc8  1  0.658024  0.829077  0.750000  1
  Ru  Ru9  1  0.003156  0.996844  0.001588  1
  Ru  Ru10  1  0.826217  0.173783  0.250000  1
  Ru  Ru11  1  0.003156  0.996844  0.498412  1
