# generated using pymatgen
data_Cs2BeH4
_symmetry_space_group_name_H-M   'P 1'
_cell_length_a   6.13057900
_cell_length_b   8.47129700
_cell_length_c   10.77402400
_cell_angle_alpha   90.00000000
_cell_angle_beta   90.00000000
_cell_angle_gamma   90.00000000
_symmetry_Int_Tables_number   1
_chemical_formula_structural   Cs2BeH4
_chemical_formula_sum   'Cs8 Be4 H16'
_cell_volume   559.53768287
_cell_formula_units_Z   4
loop_
 _symmetry_equiv_pos_site_id
 _symmetry_equiv_pos_as_xyz
  1  'x, y, z'
loop_
 _atom_site_type_symbol
 _atom_site_label
 _atom_site_symmetry_multiplicity
 _atom_site_fract_x
 _atom_site_fract_y
 _atom_site_fract_z
 _atom_site_occupancy
  Cs  Cs0  1  0.250000  0.654127  0.096805  1
  Cs  Cs1  1  0.250000  0.154127  0.403195  1
  Cs  Cs2  1  0.750000  0.345873  0.903195  1
  Cs  Cs3  1  0.750000  0.845873  0.596805  1
  Cs  Cs4  1  0.250000  0.987958  0.819544  1
  Cs  Cs5  1  0.250000  0.487958  0.680456  1
  Cs  Cs6  1  0.750000  0.012042  0.180456  1
  Cs  Cs7  1  0.750000  0.512042  0.319544  1
  Be  Be8  1  0.250000  0.745890  0.414557  1
  Be  Be9  1  0.250000  0.245890  0.085443  1
  Be  Be10  1  0.750000  0.254110  0.585443  1
  Be  Be11  1  0.750000  0.754110  0.914557  1
  H  H12  1  0.055278  0.809149  0.352398  1
  H  H13  1  0.444722  0.309149  0.147602  1
  H  H14  1  0.555278  0.190851  0.647602  1
  H  H15  1  0.944722  0.690851  0.852398  1
  H  H16  1  0.944722  0.190851  0.647602  1
  H  H17  1  0.555278  0.690851  0.852398  1
  H  H18  1  0.444722  0.809149  0.352398  1
  H  H19  1  0.055278  0.309149  0.147602  1
  H  H20  1  0.250000  0.572712  0.407311  1
  H  H21  1  0.250000  0.072712  0.092689  1
  H  H22  1  0.750000  0.427288  0.592689  1
  H  H23  1  0.750000  0.927288  0.907311  1
  H  H24  1  0.250000  0.299445  0.955345  1
  H  H25  1  0.250000  0.799445  0.544655  1
  H  H26  1  0.750000  0.700555  0.044655  1
  H  H27  1  0.750000  0.200555  0.455345  1
