# generated using pymatgen
data_Eu2YZn11
_symmetry_space_group_name_H-M   'P 1'
_cell_length_a   8.29523678
_cell_length_b   8.29523764
_cell_length_c   8.29523628
_cell_angle_alpha   148.56222755
_cell_angle_beta   116.28976856
_cell_angle_gamma   72.77539400
_symmetry_Int_Tables_number   1
_chemical_formula_structural   Eu2YZn11
_chemical_formula_sum   'Eu2 Y1 Zn11'
_cell_volume   262.80790426
_cell_formula_units_Z   1
loop_
 _symmetry_equiv_pos_site_id
 _symmetry_equiv_pos_as_xyz
  1  'x, y, z'
loop_
 _atom_site_type_symbol
 _atom_site_label
 _atom_site_symmetry_multiplicity
 _atom_site_fract_x
 _atom_site_fract_y
 _atom_site_fract_z
 _atom_site_occupancy
  Eu  Eu0  1  0.001034  0.001034  0.000000  1
  Eu  Eu1  1  0.296407  0.296407  0.000000  1
  Y  Y2  1  0.703715  0.703715  0.000000  1
  Zn  Zn3  1  0.499284  0.999284  0.500000  1
  Zn  Zn4  1  0.682795  0.500509  0.182287  1
  Zn  Zn5  1  0.318222  0.500509  0.817713  1
  Zn  Zn6  1  0.696333  0.338192  0.358142  1
  Zn  Zn7  1  0.305609  0.660126  0.645483  1
  Zn  Zn8  1  0.980050  0.338192  0.641858  1
  Zn  Zn9  1  0.014644  0.660126  0.354517  1
  Zn  Zn10  1  0.431278  0.139142  0.292136  1
  Zn  Zn11  1  0.579593  0.861811  0.717782  1
  Zn  Zn12  1  0.847007  0.139142  0.707864  1
  Zn  Zn13  1  0.144029  0.861811  0.282218  1
