# generated using pymatgen
data_Ce2Lu10Tc3Os
_symmetry_space_group_name_H-M   'P 1'
_cell_length_a   7.29941055
_cell_length_b   9.16182000
_cell_length_c   6.27344600
_cell_angle_alpha   90.00000000
_cell_angle_beta   87.89140286
_cell_angle_gamma   90.00000000
_symmetry_Int_Tables_number   1
_chemical_formula_structural   Ce2Lu10Tc3Os
_chemical_formula_sum   'Ce2 Lu10 Tc3 Os1'
_cell_volume   419.25817789
_cell_formula_units_Z   1
loop_
 _symmetry_equiv_pos_site_id
 _symmetry_equiv_pos_as_xyz
  1  'x, y, z'
loop_
 _atom_site_type_symbol
 _atom_site_label
 _atom_site_symmetry_multiplicity
 _atom_site_fract_x
 _atom_site_fract_y
 _atom_site_fract_z
 _atom_site_occupancy
  Ce  Ce0  1  0.062415  0.250000  0.637889  1
  Ce  Ce1  1  0.940930  0.750000  0.355748  1
  Lu  Lu2  1  0.462843  0.750000  0.125758  1
  Lu  Lu3  1  0.538200  0.250000  0.873324  1
  Lu  Lu4  1  0.172722  0.062483  0.163903  1
  Lu  Lu5  1  0.825948  0.938762  0.833484  1
  Lu  Lu6  1  0.325763  0.933240  0.663905  1
  Lu  Lu7  1  0.825948  0.561238  0.833484  1
  Lu  Lu8  1  0.677349  0.066999  0.332368  1
  Lu  Lu9  1  0.172722  0.437517  0.163903  1
  Lu  Lu10  1  0.677349  0.433001  0.332368  1
  Lu  Lu11  1  0.325763  0.566760  0.663905  1
  Tc  Tc12  1  0.358823  0.250000  0.477052  1
  Tc  Tc13  1  0.638731  0.750000  0.520814  1
  Tc  Tc14  1  0.111898  0.750000  0.998011  1
  Os  Os15  1  0.882597  0.250000  0.024084  1
