# generated using pymatgen
data_Sc5U3(SnPt2)4
_symmetry_space_group_name_H-M   'P 1'
_cell_length_a   7.61446952
_cell_length_b   7.61446952
_cell_length_c   7.00066900
_cell_angle_alpha   90.00000000
_cell_angle_beta   90.00000000
_cell_angle_gamma   88.31363283
_symmetry_Int_Tables_number   1
_chemical_formula_structural   Sc5U3(SnPt2)4
_chemical_formula_sum   'Sc5 U3 Sn4 Pt8'
_cell_volume   405.72401210
_cell_formula_units_Z   1
loop_
 _symmetry_equiv_pos_site_id
 _symmetry_equiv_pos_as_xyz
  1  'x, y, z'
loop_
 _atom_site_type_symbol
 _atom_site_label
 _atom_site_symmetry_multiplicity
 _atom_site_fract_x
 _atom_site_fract_y
 _atom_site_fract_z
 _atom_site_occupancy
  Sc  Sc0  1  0.685800  0.315988  0.500000  1
  Sc  Sc1  1  0.315988  0.685800  0.500000  1
  Sc  Sc2  1  0.181639  0.181639  0.000000  1
  Sc  Sc3  1  0.851874  0.851874  0.500000  1
  Sc  Sc4  1  0.153786  0.153786  0.500000  1
  U  U5  1  0.815457  0.815457  0.000000  1
  U  U6  1  0.352584  0.643630  0.000000  1
  U  U7  1  0.643630  0.352584  0.000000  1
  Sn  Sn8  1  0.494367  0.003631  0.262294  1
  Sn  Sn9  1  0.003631  0.494367  0.737706  1
  Sn  Sn10  1  0.494367  0.003631  0.737706  1
  Sn  Sn11  1  0.003631  0.494367  0.262294  1
  Pt  Pt12  1  0.867271  0.133083  0.221331  1
  Pt  Pt13  1  0.133083  0.867271  0.221331  1
  Pt  Pt14  1  0.367521  0.367521  0.713021  1
  Pt  Pt15  1  0.633747  0.633747  0.711297  1
  Pt  Pt16  1  0.133083  0.867271  0.778669  1
  Pt  Pt17  1  0.867271  0.133083  0.778669  1
  Pt  Pt18  1  0.633747  0.633747  0.288703  1
  Pt  Pt19  1  0.367521  0.367521  0.286979  1
