# generated using pymatgen
data_Hf13In3(Ir2N)4
_symmetry_space_group_name_H-M   'P 1'
_cell_length_a   8.69431118
_cell_length_b   8.68965668
_cell_length_c   8.69430000
_cell_angle_alpha   59.98233214
_cell_angle_beta   59.99996903
_cell_angle_gamma   59.98231609
_symmetry_Int_Tables_number   1
_chemical_formula_structural   Hf13In3(Ir2N)4
_chemical_formula_sum   'Hf13 In3 Ir8 N4'
_cell_volume   464.34549648
_cell_formula_units_Z   1
loop_
 _symmetry_equiv_pos_site_id
 _symmetry_equiv_pos_as_xyz
  1  'x, y, z'
loop_
 _atom_site_type_symbol
 _atom_site_label
 _atom_site_symmetry_multiplicity
 _atom_site_fract_x
 _atom_site_fract_y
 _atom_site_fract_z
 _atom_site_occupancy
  Hf  Hf0  1  0.625005  0.124985  0.625005  1
  Hf  Hf1  1  0.812013  0.817839  0.185073  1
  Hf  Hf2  1  0.184776  0.189871  0.812676  1
  Hf  Hf3  1  0.812677  0.189871  0.812676  1
  Hf  Hf4  1  0.185074  0.817840  0.185073  1
  Hf  Hf5  1  0.185074  0.817840  0.812012  1
  Hf  Hf6  1  0.812677  0.189870  0.184776  1
  Hf  Hf7  1  0.437974  0.432177  0.064924  1
  Hf  Hf8  1  0.065220  0.060137  0.437323  1
  Hf  Hf9  1  0.437322  0.060136  0.437323  1
  Hf  Hf10  1  0.064925  0.432177  0.064924  1
  Hf  Hf11  1  0.064925  0.432176  0.437974  1
  Hf  Hf12  1  0.437323  0.060135  0.065219  1
  In  In13  1  0.125004  0.624997  0.624997  1
  In  In14  1  0.624999  0.624995  0.125007  1
  In  In15  1  0.625002  0.624997  0.624997  1
  Ir  Ir16  1  0.774110  0.400660  0.412617  1
  Ir  Ir17  1  0.408876  0.773371  0.408878  1
  Ir  Ir18  1  0.412615  0.400663  0.774108  1
  Ir  Ir19  1  0.412614  0.400660  0.412616  1
  Ir  Ir20  1  0.475900  0.849322  0.837389  1
  Ir  Ir21  1  0.841123  0.476629  0.841125  1
  Ir  Ir22  1  0.837389  0.849325  0.475897  1
  Ir  Ir23  1  0.837388  0.849321  0.837390  1
  N  N24  1  0.624999  0.125000  0.125001  1
  N  N25  1  0.124999  0.625002  0.125000  1
  N  N26  1  0.125001  0.125001  0.624999  1
  N  N27  1  0.125001  0.125001  0.125000  1
