# generated using pymatgen
data_Dy12Y4Cd4OsPt3
_symmetry_space_group_name_H-M   'P 1'
_cell_length_a   9.70412980
_cell_length_b   9.70477593
_cell_length_c   9.70477571
_cell_angle_alpha   59.60719840
_cell_angle_beta   59.60548455
_cell_angle_gamma   59.60548244
_symmetry_Int_Tables_number   1
_chemical_formula_structural   Dy12Y4Cd4OsPt3
_chemical_formula_sum   'Dy12 Y4 Cd4 Os1 Pt3'
_cell_volume   640.48153302
_cell_formula_units_Z   1
loop_
 _symmetry_equiv_pos_site_id
 _symmetry_equiv_pos_as_xyz
  1  'x, y, z'
loop_
 _atom_site_type_symbol
 _atom_site_label
 _atom_site_symmetry_multiplicity
 _atom_site_fract_x
 _atom_site_fract_y
 _atom_site_fract_z
 _atom_site_occupancy
  Dy  Dy0  1  0.351630  0.351743  0.351743  1
  Dy  Dy1  1  0.349673  0.349583  0.948356  1
  Dy  Dy2  1  0.349673  0.948356  0.349583  1
  Dy  Dy3  1  0.948417  0.349600  0.349600  1
  Dy  Dy4  1  0.814833  0.188924  0.188924  1
  Dy  Dy5  1  0.188918  0.809784  0.809784  1
  Dy  Dy6  1  0.188965  0.814790  0.188921  1
  Dy  Dy7  1  0.809829  0.188940  0.809836  1
  Dy  Dy8  1  0.188965  0.188921  0.814790  1
  Dy  Dy9  1  0.809829  0.809836  0.188940  1
  Dy  Dy10  1  0.935979  0.564822  0.564822  1
  Dy  Dy11  1  0.558212  0.937936  0.937936  1
  Y  Y12  1  0.565183  0.935548  0.565171  1
  Y  Y13  1  0.937467  0.558832  0.937460  1
  Y  Y14  1  0.565183  0.565171  0.935548  1
  Y  Y15  1  0.937467  0.937460  0.558832  1
  Cd  Cd16  1  0.580552  0.580559  0.580559  1
  Cd  Cd17  1  0.581118  0.581211  0.254546  1
  Cd  Cd18  1  0.581118  0.254546  0.581211  1
  Cd  Cd19  1  0.254541  0.581158  0.581158  1
  Os  Os20  1  0.143265  0.142940  0.142940  1
  Pt  Pt21  1  0.143430  0.143547  0.572330  1
  Pt  Pt22  1  0.143430  0.572330  0.143547  1
  Pt  Pt23  1  0.572326  0.143469  0.143469  1
