# generated using pymatgen
data_TbTm2Th11Os6
_symmetry_space_group_name_H-M   'P 1'
_cell_length_a   9.89533074
_cell_length_b   9.96782709
_cell_length_c   6.36671292
_cell_angle_alpha   90.10915232
_cell_angle_beta   90.10081283
_cell_angle_gamma   120.20383375
_symmetry_Int_Tables_number   1
_chemical_formula_structural   TbTm2Th11Os6
_chemical_formula_sum   'Tb1 Tm2 Th11 Os6'
_cell_volume   542.72281519
_cell_formula_units_Z   1
loop_
 _symmetry_equiv_pos_site_id
 _symmetry_equiv_pos_as_xyz
  1  'x, y, z'
loop_
 _atom_site_type_symbol
 _atom_site_label
 _atom_site_symmetry_multiplicity
 _atom_site_fract_x
 _atom_site_fract_y
 _atom_site_fract_z
 _atom_site_occupancy
  Tb  Tb0  1  0.928982  0.465045  0.799136  1
  Tm  Tm1  1  0.460049  0.536528  0.299985  1
  Tm  Tm2  1  0.074622  0.536137  0.301567  1
  Th  Th3  1  0.252917  0.128659  0.509791  1
  Th  Th4  1  0.540257  0.078671  0.797029  1
  Th  Th5  1  0.745528  0.872635  0.013648  1
  Th  Th6  1  0.667607  0.334134  0.274418  1
  Th  Th7  1  0.126423  0.870170  0.010636  1
  Th  Th8  1  0.459156  0.915998  0.295274  1
  Th  Th9  1  0.537620  0.466623  0.801687  1
  Th  Th10  1  0.874803  0.130646  0.510933  1
  Th  Th11  1  0.125873  0.256015  0.015115  1
  Th  Th12  1  0.873345  0.746238  0.509214  1
  Th  Th13  1  0.331620  0.664225  0.769740  1
  Os  Os14  1  0.812131  0.629053  0.049726  1
  Os  Os15  1  0.813953  0.183498  0.045796  1
  Os  Os16  1  0.629186  0.812455  0.545296  1
  Os  Os17  1  0.371787  0.187159  0.042192  1
  Os  Os18  1  0.187179  0.370073  0.549955  1
  Os  Os19  1  0.186963  0.816039  0.542861  1
