# generated using pymatgen
data_Nb3Al2BPt
_symmetry_space_group_name_H-M   'P 1'
_cell_length_a   8.45520720
_cell_length_b   8.45520757
_cell_length_c   8.45520600
_cell_angle_alpha   59.99999830
_cell_angle_beta   59.99999688
_cell_angle_gamma   59.99999934
_symmetry_Int_Tables_number   1
_chemical_formula_structural   Nb3Al2BPt
_chemical_formula_sum   'Nb12 Al8 B4 Pt4'
_cell_volume   427.42282022
_cell_formula_units_Z   4
loop_
 _symmetry_equiv_pos_site_id
 _symmetry_equiv_pos_as_xyz
  1  'x, y, z'
loop_
 _atom_site_type_symbol
 _atom_site_label
 _atom_site_symmetry_multiplicity
 _atom_site_fract_x
 _atom_site_fract_y
 _atom_site_fract_z
 _atom_site_occupancy
  Nb  Nb0  1  0.561720  0.938280  0.561720  1
  Nb  Nb1  1  0.311720  0.688280  0.688280  1
  Nb  Nb2  1  0.688280  0.311720  0.311720  1
  Nb  Nb3  1  0.311720  0.688280  0.311720  1
  Nb  Nb4  1  0.688280  0.688280  0.311720  1
  Nb  Nb5  1  0.311720  0.311720  0.688280  1
  Nb  Nb6  1  0.561720  0.561720  0.938280  1
  Nb  Nb7  1  0.938280  0.561720  0.561720  1
  Nb  Nb8  1  0.561720  0.938280  0.938280  1
  Nb  Nb9  1  0.938280  0.938280  0.561720  1
  Nb  Nb10  1  0.688280  0.311720  0.688280  1
  Nb  Nb11  1  0.938280  0.561720  0.938280  1
  Al  Al12  1  0.915252  0.915252  0.915252  1
  Al  Al13  1  0.995755  0.334748  0.334748  1
  Al  Al14  1  0.334748  0.995755  0.334748  1
  Al  Al15  1  0.334748  0.334748  0.995755  1
  Al  Al16  1  0.915252  0.254245  0.915252  1
  Al  Al17  1  0.915252  0.915252  0.254245  1
  Al  Al18  1  0.254245  0.915252  0.915252  1
  Al  Al19  1  0.334748  0.334748  0.334748  1
  B  B20  1  0.625000  0.625000  0.625000  1
  B  B21  1  0.125000  0.625000  0.625000  1
  B  B22  1  0.625000  0.125000  0.625000  1
  B  B23  1  0.625000  0.625000  0.125000  1
  Pt  Pt24  1  0.125000  0.125000  0.125000  1
  Pt  Pt25  1  0.625000  0.125000  0.125000  1
  Pt  Pt26  1  0.125000  0.625000  0.125000  1
  Pt  Pt27  1  0.125000  0.125000  0.625000  1
