# generated using pymatgen
data_Sr6Co4TcO15
_symmetry_space_group_name_H-M   'P 1'
_cell_length_a   6.97925359
_cell_length_b   6.97925429
_cell_length_c   6.97925356
_cell_angle_alpha   87.19149558
_cell_angle_beta   87.19149828
_cell_angle_gamma   87.19149222
_symmetry_Int_Tables_number   1
_chemical_formula_structural   Sr6Co4TcO15
_chemical_formula_sum   'Sr6 Co4 Tc1 O15'
_cell_volume   338.77299643
_cell_formula_units_Z   1
loop_
 _symmetry_equiv_pos_site_id
 _symmetry_equiv_pos_as_xyz
  1  'x, y, z'
loop_
 _atom_site_type_symbol
 _atom_site_label
 _atom_site_symmetry_multiplicity
 _atom_site_fract_x
 _atom_site_fract_y
 _atom_site_fract_z
 _atom_site_occupancy
  Sr  Sr0  1  0.500000  0.869372  0.130628  1
  Sr  Sr1  1  0.130628  0.500000  0.869372  1
  Sr  Sr2  1  0.869372  0.130628  0.500000  1
  Sr  Sr3  1  0.000000  0.685979  0.314021  1
  Sr  Sr4  1  0.314021  0.000000  0.685979  1
  Sr  Sr5  1  0.685979  0.314021  0.000000  1
  Co  Co6  1  0.706585  0.706585  0.706585  1
  Co  Co7  1  0.293415  0.293415  0.293415  1
  Co  Co8  1  0.902091  0.902091  0.902091  1
  Co  Co9  1  0.097909  0.097909  0.097909  1
  Tc  Tc10  1  0.500000  0.500000  0.500000  1
  O  O11  1  0.380183  0.556537  0.255491  1
  O  O12  1  0.255491  0.380183  0.556537  1
  O  O13  1  0.556537  0.255491  0.380183  1
  O  O14  1  0.619817  0.744509  0.443463  1
  O  O15  1  0.443463  0.619817  0.744509  1
  O  O16  1  0.744509  0.443463  0.619817  1
  O  O17  1  0.209236  0.035720  0.346304  1
  O  O18  1  0.346304  0.209236  0.035720  1
  O  O19  1  0.035720  0.346304  0.209236  1
  O  O20  1  0.790764  0.653696  0.964280  1
  O  O21  1  0.964280  0.790764  0.653696  1
  O  O22  1  0.155653  0.844347  0.000000  1
  O  O23  1  0.844347  0.000000  0.155653  1
  O  O24  1  0.000000  0.155653  0.844347  1
  O  O25  1  0.653696  0.964280  0.790764  1
