# generated using pymatgen
data_Ta2GaCo2P
_symmetry_space_group_name_H-M   'P 1'
_cell_length_a   6.23708000
_cell_length_b   3.65048100
_cell_length_c   7.10883900
_cell_angle_alpha   90.00000000
_cell_angle_beta   90.00000000
_cell_angle_gamma   90.00000000
_symmetry_Int_Tables_number   1
_chemical_formula_structural   Ta2GaCo2P
_chemical_formula_sum   'Ta4 Ga2 Co4 P2'
_cell_volume   161.85647783
_cell_formula_units_Z   2
loop_
 _symmetry_equiv_pos_site_id
 _symmetry_equiv_pos_as_xyz
  1  'x, y, z'
loop_
 _atom_site_type_symbol
 _atom_site_label
 _atom_site_symmetry_multiplicity
 _atom_site_fract_x
 _atom_site_fract_y
 _atom_site_fract_z
 _atom_site_occupancy
  Ta  Ta0  1  0.026892  0.250000  0.826615  1
  Ta  Ta1  1  0.526892  0.250000  0.673385  1
  Ta  Ta2  1  0.981646  0.750000  0.181520  1
  Ta  Ta3  1  0.481646  0.750000  0.318480  1
  Ga  Ga4  1  0.228489  0.750000  0.621287  1
  Ga  Ga5  1  0.728489  0.750000  0.878713  1
  Co  Co6  1  0.136465  0.250000  0.419803  1
  Co  Co7  1  0.636465  0.250000  0.080197  1
  Co  Co8  1  0.852301  0.750000  0.547733  1
  Co  Co9  1  0.352301  0.750000  0.952267  1
  P  P10  1  0.774209  0.250000  0.380210  1
  P  P11  1  0.274209  0.250000  0.119790  1
