# generated using pymatgen
data_K6VIrF12
_symmetry_space_group_name_H-M   'P 1'
_cell_length_a   6.40532400
_cell_length_b   6.16632528
_cell_length_c   10.76207800
_cell_angle_alpha   55.14722452
_cell_angle_beta   90.00013418
_cell_angle_gamma   89.93128075
_symmetry_Int_Tables_number   1
_chemical_formula_structural   K6VIrF12
_chemical_formula_sum   'K6 V1 Ir1 F12'
_cell_volume   348.82449966
_cell_formula_units_Z   1
loop_
 _symmetry_equiv_pos_site_id
 _symmetry_equiv_pos_as_xyz
  1  'x, y, z'
loop_
 _atom_site_type_symbol
 _atom_site_label
 _atom_site_symmetry_multiplicity
 _atom_site_fract_x
 _atom_site_fract_y
 _atom_site_fract_z
 _atom_site_occupancy
  K  K0  1  0.500000  0.500000  0.000000  1
  K  K1  1  0.000000  0.500000  0.500000  1
  K  K2  1  0.051435  0.729436  0.753838  1
  K  K3  1  0.948565  0.270564  0.246162  1
  K  K4  1  0.550530  0.265309  0.747950  1
  K  K5  1  0.449470  0.734691  0.252050  1
  V  V6  1  0.500000  0.000000  0.500000  1
  Ir  Ir7  1  0.000000  0.000000  0.000000  1
  F  F8  1  0.753243  0.776485  0.559446  1
  F  F9  1  0.246757  0.223515  0.440554  1
  F  F10  1  0.262663  0.227639  0.938131  1
  F  F11  1  0.737337  0.772361  0.061869  1
  F  F12  1  0.457832  0.880014  0.713665  1
  F  F13  1  0.542168  0.119986  0.286335  1
  F  F14  1  0.955731  0.118087  0.781890  1
  F  F15  1  0.044269  0.881913  0.218110  1
  F  F16  1  0.326288  0.697543  0.541046  1
  F  F17  1  0.673712  0.302457  0.458954  1
  F  F18  1  0.823393  0.311724  0.956761  1
  F  F19  1  0.176607  0.688276  0.043239  1
