# generated using pymatgen
data_Er4Al18Ga6CoPt8
_symmetry_space_group_name_H-M   'P 1'
_cell_length_a   7.48037221
_cell_length_b   7.47426215
_cell_length_c   13.16969087
_cell_angle_alpha   84.60786508
_cell_angle_beta   100.72590805
_cell_angle_gamma   119.75229986
_symmetry_Int_Tables_number   1
_chemical_formula_structural   Er4Al18Ga6CoPt8
_chemical_formula_sum   'Er4 Al18 Ga6 Co1 Pt8'
_cell_volume   628.08847720
_cell_formula_units_Z   1
loop_
 _symmetry_equiv_pos_site_id
 _symmetry_equiv_pos_as_xyz
  1  'x, y, z'
loop_
 _atom_site_type_symbol
 _atom_site_label
 _atom_site_symmetry_multiplicity
 _atom_site_fract_x
 _atom_site_fract_y
 _atom_site_fract_z
 _atom_site_occupancy
  Er  Er0  1  0.741051  0.006345  0.189496  1
  Er  Er1  1  0.264192  0.000025  0.809745  1
  Er  Er2  1  0.055257  0.665697  0.188994  1
  Er  Er3  1  0.938387  0.329220  0.811243  1
  Al  Al4  1  0.882141  0.664766  0.670502  1
  Al  Al5  1  0.119660  0.335901  0.329048  1
  Al  Al6  1  0.603385  0.459477  0.817071  1
  Al  Al7  1  0.397311  0.554315  0.177761  1
  Al  Al8  1  0.231223  0.340702  0.670451  1
  Al  Al9  1  0.768005  0.660050  0.329488  1
  Al  Al10  1  0.854180  0.333414  0.559386  1
  Al  Al11  1  0.186591  0.000066  0.559266  1
  Al  Al12  1  0.813829  0.999763  0.440681  1
  Al  Al13  1  0.352185  0.986268  0.054001  1
  Al  Al14  1  0.638423  0.990157  0.946875  1
  Al  Al15  1  0.556149  0.993217  0.671572  1
  Al  Al16  1  0.443489  0.004937  0.328677  1
  Al  Al17  1  0.520009  0.668679  0.560177  1
  Al  Al18  1  0.480256  0.331168  0.439774  1
  Al  Al19  1  0.675350  0.667419  0.043859  1
  Al  Al20  1  0.316203  0.339303  0.957017  1
  Al  Al21  1  0.145876  0.666025  0.440995  1
  Ga  Ga22  1  0.800071  0.866049  0.816044  1
  Ga  Ga23  1  0.199679  0.132662  0.183882  1
  Ga  Ga24  1  0.997380  0.665356  0.941194  1
  Ga  Ga25  1  0.029023  0.346687  0.057773  1
  Ga  Ga26  1  0.391730  0.662174  0.823848  1
  Ga  Ga27  1  0.597516  0.336930  0.182215  1
  Co  Co28  1  0.335540  0.671223  0.001865  1
  Pt  Pt29  1  0.547165  0.325910  0.638410  1
  Pt  Pt30  1  0.452804  0.673584  0.361255  1
  Pt  Pt31  1  0.888211  0.008634  0.636950  1
  Pt  Pt32  1  0.112085  0.991079  0.362953  1
  Pt  Pt33  1  0.664417  0.324250  0.996633  1
  Pt  Pt34  1  0.204834  0.667430  0.638017  1
  Pt  Pt35  1  0.796089  0.332284  0.362661  1
  Pt  Pt36  1  0.000304  0.998827  0.000219  1
