# generated using pymatgen
data_Sc2TiB2Ir3Rh2
_symmetry_space_group_name_H-M   'P 1'
_cell_length_a   3.12722800
_cell_length_b   9.39476745
_cell_length_c   9.38157345
_cell_angle_alpha   89.96438299
_cell_angle_beta   90.00000000
_cell_angle_gamma   90.00000000
_symmetry_Int_Tables_number   1
_chemical_formula_structural   Sc2TiB2Ir3Rh2
_chemical_formula_sum   'Sc4 Ti2 B4 Ir6 Rh4'
_cell_volume   275.62663299
_cell_formula_units_Z   2
loop_
 _symmetry_equiv_pos_site_id
 _symmetry_equiv_pos_as_xyz
  1  'x, y, z'
loop_
 _atom_site_type_symbol
 _atom_site_label
 _atom_site_symmetry_multiplicity
 _atom_site_fract_x
 _atom_site_fract_y
 _atom_site_fract_z
 _atom_site_occupancy
  Sc  Sc0  1  0.000000  0.174604  0.174613  1
  Sc  Sc1  1  0.000000  0.674850  0.325169  1
  Sc  Sc2  1  0.000000  0.325002  0.674821  1
  Sc  Sc3  1  0.000000  0.824497  0.825106  1
  Ti  Ti4  1  0.000000  0.498620  0.997697  1
  Ti  Ti5  1  0.000000  0.000263  0.499960  1
  B  B6  1  0.000000  0.877997  0.121828  1
  B  B7  1  0.000000  0.378950  0.378436  1
  B  B8  1  0.000000  0.622659  0.622284  1
  B  B9  1  0.000000  0.121623  0.878270  1
  Ir  Ir10  1  0.500000  0.716747  0.070793  1
  Ir  Ir11  1  0.500000  0.429856  0.217377  1
  Ir  Ir12  1  0.500000  0.929618  0.282227  1
  Ir  Ir13  1  0.500000  0.218312  0.429234  1
  Ir  Ir14  1  0.500000  0.782244  0.570995  1
  Ir  Ir15  1  0.500000  0.071383  0.717958  1
  Rh  Rh16  1  0.500000  0.999628  0.999602  1
  Rh  Rh17  1  0.500000  0.500413  0.501187  1
  Rh  Rh18  1  0.500000  0.571121  0.782724  1
  Rh  Rh19  1  0.500000  0.281611  0.929715  1
