# generated using pymatgen
data_Yb2PrGa9Ag2
_symmetry_space_group_name_H-M   'P 1'
_cell_length_a   8.37199659
_cell_length_b   8.37199564
_cell_length_c   8.37199547
_cell_angle_alpha   149.02285628
_cell_angle_beta   110.97186623
_cell_angle_gamma   77.56791984
_symmetry_Int_Tables_number   1
_chemical_formula_structural   Yb2PrGa9Ag2
_chemical_formula_sum   'Yb2 Pr1 Ga9 Ag2'
_cell_volume   276.84714321
_cell_formula_units_Z   1
loop_
 _symmetry_equiv_pos_site_id
 _symmetry_equiv_pos_as_xyz
  1  'x, y, z'
loop_
 _atom_site_type_symbol
 _atom_site_label
 _atom_site_symmetry_multiplicity
 _atom_site_fract_x
 _atom_site_fract_y
 _atom_site_fract_z
 _atom_site_occupancy
  Yb  Yb0  1  0.201043  0.201043  0.000000  1
  Yb  Yb1  1  0.798957  0.798957  0.000000  1
  Pr  Pr2  1  0.500000  0.500000  0.000000  1
  Ga  Ga3  1  0.071633  0.353357  0.718276  1
  Ga  Ga4  1  0.928367  0.646643  0.281724  1
  Ga  Ga5  1  0.635082  0.353357  0.281724  1
  Ga  Ga6  1  0.364918  0.646643  0.718276  1
  Ga  Ga7  1  0.794954  0.160475  0.634479  1
  Ga  Ga8  1  0.205046  0.839525  0.365521  1
  Ga  Ga9  1  0.525995  0.160475  0.365521  1
  Ga  Ga10  1  0.474005  0.839525  0.634479  1
  Ga  Ga11  1  0.000000  0.500000  0.500000  1
  Ag  Ag12  1  0.815497  0.000000  0.815497  1
  Ag  Ag13  1  0.184503  0.000000  0.184503  1
