# generated using pymatgen
data_Tb3In3CuAgPt
_symmetry_space_group_name_H-M   'P 1'
_cell_length_a   7.68575700
_cell_length_b   7.68575568
_cell_length_c   3.95233100
_cell_angle_alpha   90.00000000
_cell_angle_beta   90.00000000
_cell_angle_gamma   120.00000997
_symmetry_Int_Tables_number   1
_chemical_formula_structural   Tb3In3CuAgPt
_chemical_formula_sum   'Tb3 In3 Cu1 Ag1 Pt1'
_cell_volume   202.18881223
_cell_formula_units_Z   1
loop_
 _symmetry_equiv_pos_site_id
 _symmetry_equiv_pos_as_xyz
  1  'x, y, z'
loop_
 _atom_site_type_symbol
 _atom_site_label
 _atom_site_symmetry_multiplicity
 _atom_site_fract_x
 _atom_site_fract_y
 _atom_site_fract_z
 _atom_site_occupancy
  Tb  Tb0  1  0.017305  0.599212  0.500000  1
  Tb  Tb1  1  0.400788  0.418093  0.500000  1
  Tb  Tb2  1  0.581907  0.982695  0.500000  1
  In  In3  1  0.754967  0.750740  0.000000  1
  In  In4  1  0.995772  0.245033  0.000000  1
  In  In5  1  0.249260  0.004228  0.000000  1
  Cu  Cu6  1  0.000000  0.000000  0.500000  1
  Ag  Ag7  1  0.666667  0.333333  0.000000  1
  Pt  Pt8  1  0.333333  0.666667  0.000000  1
