# generated using pymatgen
data_Eu4DyNb3O14
_symmetry_space_group_name_H-M   'P 1'
_cell_length_a   7.63991728
_cell_length_b   7.66359837
_cell_length_c   7.66359800
_cell_angle_alpha   60.00000160
_cell_angle_beta   59.89741282
_cell_angle_gamma   59.89740999
_symmetry_Int_Tables_number   1
_chemical_formula_structural   Eu4DyNb3O14
_chemical_formula_sum   'Eu4 Dy1 Nb3 O14'
_cell_volume   316.78451461
_cell_formula_units_Z   1
loop_
 _symmetry_equiv_pos_site_id
 _symmetry_equiv_pos_as_xyz
  1  'x, y, z'
loop_
 _atom_site_type_symbol
 _atom_site_label
 _atom_site_symmetry_multiplicity
 _atom_site_fract_x
 _atom_site_fract_y
 _atom_site_fract_z
 _atom_site_occupancy
  Eu  Eu0  1  0.625000  0.125000  0.125000  1
  Eu  Eu1  1  0.125000  0.625000  0.125000  1
  Eu  Eu2  1  0.125000  0.125000  0.625000  1
  Eu  Eu3  1  0.125000  0.125000  0.125000  1
  Dy  Dy4  1  0.125000  0.625000  0.625000  1
  Nb  Nb5  1  0.625000  0.125000  0.625000  1
  Nb  Nb6  1  0.625000  0.625000  0.125000  1
  Nb  Nb7  1  0.625000  0.625000  0.625000  1
  O  O8  1  0.257615  0.247462  0.247462  1
  O  O9  1  0.992385  0.002538  0.002538  1
  O  O10  1  0.668972  0.702130  0.314450  1
  O  O11  1  0.305831  0.267893  0.713138  1
  O  O12  1  0.668972  0.314450  0.702130  1
  O  O13  1  0.305831  0.713138  0.267893  1
  O  O14  1  0.305831  0.713138  0.713138  1
  O  O15  1  0.668972  0.314450  0.314450  1
  O  O16  1  0.581028  0.547870  0.935550  1
  O  O17  1  0.944169  0.982107  0.536862  1
  O  O18  1  0.581028  0.935550  0.547870  1
  O  O19  1  0.944169  0.536862  0.982107  1
  O  O20  1  0.944169  0.536862  0.536862  1
  O  O21  1  0.581028  0.935550  0.935550  1
