# generated using pymatgen
data_Tb2U(Ga2Co3)3
_symmetry_space_group_name_H-M   'P 1'
_cell_length_a   4.19445700
_cell_length_b   8.54973223
_cell_length_c   8.54973406
_cell_angle_alpha   60.00080058
_cell_angle_beta   90.00000000
_cell_angle_gamma   90.00000000
_symmetry_Int_Tables_number   1
_chemical_formula_structural   Tb2U(Ga2Co3)3
_chemical_formula_sum   'Tb2 U1 Ga6 Co9'
_cell_volume   265.53085933
_cell_formula_units_Z   1
loop_
 _symmetry_equiv_pos_site_id
 _symmetry_equiv_pos_as_xyz
  1  'x, y, z'
loop_
 _atom_site_type_symbol
 _atom_site_label
 _atom_site_symmetry_multiplicity
 _atom_site_fract_x
 _atom_site_fract_y
 _atom_site_fract_z
 _atom_site_occupancy
  Tb  Tb0  1  0.500000  0.333366  0.333328  1
  Tb  Tb1  1  0.500000  0.666672  0.666634  1
  U  U2  1  0.000000  0.999876  0.000124  1
  Ga  Ga3  1  0.000000  0.494561  0.505439  1
  Ga  Ga4  1  0.000000  0.505602  0.000032  1
  Ga  Ga5  1  0.000000  0.999968  0.494398  1
  Ga  Ga6  1  0.500000  0.724580  0.275420  1
  Ga  Ga7  1  0.500000  0.275428  0.000115  1
  Ga  Ga8  1  0.500000  0.999885  0.724572  1
  Co  Co9  1  0.000000  0.170168  0.170739  1
  Co  Co10  1  0.000000  0.170649  0.659192  1
  Co  Co11  1  0.000000  0.659140  0.170113  1
  Co  Co12  1  0.000000  0.829261  0.829832  1
  Co  Co13  1  0.000000  0.340808  0.829351  1
  Co  Co14  1  0.000000  0.829887  0.340860  1
  Co  Co15  1  0.500000  0.302406  0.697594  1
  Co  Co16  1  0.500000  0.697594  0.999950  1
  Co  Co17  1  0.500000  0.000050  0.302406  1
