# generated using pymatgen
data_Ca6InHg3Pb2
_symmetry_space_group_name_H-M   'P 1'
_cell_length_a   5.46365425
_cell_length_b   7.66012300
_cell_length_c   16.53277979
_cell_angle_alpha   90.00000000
_cell_angle_beta   89.99948596
_cell_angle_gamma   90.00000000
_symmetry_Int_Tables_number   1
_chemical_formula_structural   Ca6InHg3Pb2
_chemical_formula_sum   'Ca12 In2 Hg6 Pb4'
_cell_volume   691.93425735
_cell_formula_units_Z   2
loop_
 _symmetry_equiv_pos_site_id
 _symmetry_equiv_pos_as_xyz
  1  'x, y, z'
loop_
 _atom_site_type_symbol
 _atom_site_label
 _atom_site_symmetry_multiplicity
 _atom_site_fract_x
 _atom_site_fract_y
 _atom_site_fract_z
 _atom_site_occupancy
  Ca  Ca0  1  0.500006  0.249489  0.000838  1
  Ca  Ca1  1  0.500006  0.750510  0.000838  1
  Ca  Ca2  1  0.999952  0.250536  0.165839  1
  Ca  Ca3  1  0.999952  0.749465  0.165839  1
  Ca  Ca4  1  0.500000  0.249914  0.332104  1
  Ca  Ca5  1  0.500000  0.750087  0.332104  1
  Ca  Ca6  1  0.000002  0.249430  0.499769  1
  Ca  Ca7  1  0.000002  0.750570  0.499769  1
  Ca  Ca8  1  0.499981  0.250485  0.666897  1
  Ca  Ca9  1  0.499981  0.749516  0.666897  1
  Ca  Ca10  1  0.000056  0.250064  0.834563  1
  Ca  Ca11  1  0.000056  0.749937  0.834563  1
  In  In12  1  0.000040  0.500000  0.000088  1
  In  In13  1  0.499930  0.000000  0.166529  1
  Hg  Hg14  1  0.999986  0.000000  0.007150  1
  Hg  Hg15  1  0.499979  0.500000  0.159531  1
  Hg  Hg16  1  0.000004  0.000000  0.326075  1
  Hg  Hg17  1  0.499988  0.500000  0.499914  1
  Hg  Hg18  1  0.999998  0.000000  0.666753  1
  Hg  Hg19  1  0.500007  0.500000  0.840620  1
  Pb  Pb20  1  0.000040  0.500000  0.333841  1
  Pb  Pb21  1  0.500037  0.000000  0.499833  1
  Pb  Pb22  1  0.999957  0.500000  0.666809  1
  Pb  Pb23  1  0.500042  0.000000  0.832833  1
