# generated using pymatgen
data_Dy4Lu12MgCd(Ni2Ag)2
_symmetry_space_group_name_H-M   'P 1'
_cell_length_a   9.38919147
_cell_length_b   9.36136566
_cell_length_c   9.36136700
_cell_angle_alpha   59.99999881
_cell_angle_beta   60.09798558
_cell_angle_gamma   60.09797878
_symmetry_Int_Tables_number   1
_chemical_formula_structural   Dy4Lu12MgCd(Ni2Ag)2
_chemical_formula_sum   'Dy4 Lu12 Mg1 Cd1 Ni4 Ag2'
_cell_volume   582.68425084
_cell_formula_units_Z   1
loop_
 _symmetry_equiv_pos_site_id
 _symmetry_equiv_pos_as_xyz
  1  'x, y, z'
loop_
 _atom_site_type_symbol
 _atom_site_label
 _atom_site_symmetry_multiplicity
 _atom_site_fract_x
 _atom_site_fract_y
 _atom_site_fract_z
 _atom_site_occupancy
  Dy  Dy0  1  0.599299  0.598588  0.598727  1
  Dy  Dy1  1  0.599299  0.598588  0.203386  1
  Dy  Dy2  1  0.599302  0.204046  0.598326  1
  Dy  Dy3  1  0.194698  0.601309  0.601997  1
  Lu  Lu4  1  0.061488  0.437958  0.438186  1
  Lu  Lu5  1  0.436024  0.063636  0.064187  1
  Lu  Lu6  1  0.436024  0.063636  0.436152  1
  Lu  Lu7  1  0.061488  0.437958  0.062368  1
  Lu  Lu8  1  0.436750  0.436669  0.063291  1
  Lu  Lu9  1  0.060173  0.061604  0.439111  1
  Lu  Lu10  1  0.181870  0.814763  0.815666  1
  Lu  Lu11  1  0.814322  0.181790  0.187749  1
  Lu  Lu12  1  0.814322  0.181790  0.816140  1
  Lu  Lu13  1  0.181870  0.814763  0.187700  1
  Lu  Lu14  1  0.814328  0.814186  0.185743  1
  Lu  Lu15  1  0.183973  0.184357  0.815835  1
  Mg  Mg16  1  0.529746  0.826523  0.821865  1
  Cd  Cd17  1  0.833806  0.504775  0.830709  1
  Ni  Ni18  1  0.389442  0.392905  0.391541  1
  Ni  Ni19  1  0.389442  0.392905  0.826114  1
  Ni  Ni20  1  0.388155  0.824920  0.393463  1
  Ni  Ni21  1  0.826048  0.391869  0.391041  1
  Ag  Ag22  1  0.834064  0.835231  0.834738  1
  Ag  Ag23  1  0.834064  0.835231  0.495967  1
