# generated using pymatgen
data_Er5Tm2Rh3
_symmetry_space_group_name_H-M   'P 1'
_cell_length_a   9.71364400
_cell_length_b   9.71335175
_cell_length_c   6.11854100
_cell_angle_alpha   90.00298601
_cell_angle_beta   90.00000000
_cell_angle_gamma   120.00099529
_symmetry_Int_Tables_number   1
_chemical_formula_structural   Er5Tm2Rh3
_chemical_formula_sum   'Er10 Tm4 Rh6'
_cell_volume   499.94870621
_cell_formula_units_Z   2
loop_
 _symmetry_equiv_pos_site_id
 _symmetry_equiv_pos_as_xyz
  1  'x, y, z'
loop_
 _atom_site_type_symbol
 _atom_site_label
 _atom_site_symmetry_multiplicity
 _atom_site_fract_x
 _atom_site_fract_y
 _atom_site_fract_z
 _atom_site_occupancy
  Er  Er0  1  0.124032  0.875920  0.245747  1
  Er  Er1  1  0.751888  0.875920  0.245747  1
  Er  Er2  1  0.124090  0.248180  0.245741  1
  Er  Er3  1  0.666684  0.333367  0.536446  1
  Er  Er4  1  0.082309  0.541190  0.545865  1
  Er  Er5  1  0.458881  0.541190  0.545865  1
  Er  Er6  1  0.458842  0.917683  0.545937  1
  Er  Er7  1  0.247917  0.123954  0.745743  1
  Er  Er8  1  0.876036  0.123954  0.745743  1
  Er  Er9  1  0.876012  0.752023  0.745851  1
  Tm  Tm10  1  0.333335  0.666669  0.036353  1
  Tm  Tm11  1  0.541444  0.458564  0.046275  1
  Tm  Tm12  1  0.917120  0.458564  0.046275  1
  Tm  Tm13  1  0.541428  0.082855  0.046295  1
  Rh  Rh14  1  0.810252  0.620505  0.309439  1
  Rh  Rh15  1  0.379538  0.189754  0.309469  1
  Rh  Rh16  1  0.810217  0.189754  0.309469  1
  Rh  Rh17  1  0.189719  0.379438  0.810557  1
  Rh  Rh18  1  0.189740  0.810260  0.810590  1
  Rh  Rh19  1  0.620520  0.810260  0.810590  1
