# generated using pymatgen
data_Tb8YHo7MgIn3Pt4
_symmetry_space_group_name_H-M   'P 1'
_cell_length_a   9.74241692
_cell_length_b   9.71588171
_cell_length_c   9.71902177
_cell_angle_alpha   60.05004995
_cell_angle_beta   60.24977285
_cell_angle_gamma   60.29058606
_symmetry_Int_Tables_number   1
_chemical_formula_structural   Tb8YHo7MgIn3Pt4
_chemical_formula_sum   'Tb8 Y1 Ho7 Mg1 In3 Pt4'
_cell_volume   653.40619044
_cell_formula_units_Z   1
loop_
 _symmetry_equiv_pos_site_id
 _symmetry_equiv_pos_as_xyz
  1  'x, y, z'
loop_
 _atom_site_type_symbol
 _atom_site_label
 _atom_site_symmetry_multiplicity
 _atom_site_fract_x
 _atom_site_fract_y
 _atom_site_fract_z
 _atom_site_occupancy
  Tb  Tb0  1  0.058731  0.443635  0.058078  1
  Tb  Tb1  1  0.439342  0.437791  0.062562  1
  Tb  Tb2  1  0.059538  0.058949  0.442744  1
  Tb  Tb3  1  0.187174  0.816029  0.815193  1
  Tb  Tb4  1  0.813530  0.187160  0.187483  1
  Tb  Tb5  1  0.814797  0.185745  0.813840  1
  Tb  Tb6  1  0.187187  0.813473  0.186904  1
  Tb  Tb7  1  0.814159  0.814491  0.186129  1
  Y  Y8  1  0.188213  0.189011  0.811021  1
  Ho  Ho9  1  0.596677  0.597700  0.597966  1
  Ho  Ho10  1  0.599831  0.598949  0.200337  1
  Ho  Ho11  1  0.601399  0.198608  0.599094  1
  Ho  Ho12  1  0.193994  0.603412  0.601529  1
  Ho  Ho13  1  0.056870  0.442393  0.442191  1
  Ho  Ho14  1  0.441999  0.059650  0.059586  1
  Ho  Ho15  1  0.439904  0.061191  0.438836  1
  Mg  Mg16  1  0.519846  0.825016  0.827669  1
  In  In17  1  0.833809  0.833049  0.833155  1
  In  In18  1  0.830285  0.832533  0.503339  1
  In  In19  1  0.830464  0.502985  0.832144  1
  Pt  Pt20  1  0.389086  0.393405  0.396880  1
  Pt  Pt21  1  0.390141  0.390457  0.821026  1
  Pt  Pt22  1  0.391120  0.822597  0.390524  1
  Pt  Pt23  1  0.821910  0.391772  0.391773  1
