# generated using pymatgen
data_CeEuClO2
_symmetry_space_group_name_H-M   'P 1'
_cell_length_a   4.03722500
_cell_length_b   4.03722663
_cell_length_c   7.19192200
_cell_angle_alpha   90.00000000
_cell_angle_beta   90.00000000
_cell_angle_gamma   119.99999487
_symmetry_Int_Tables_number   1
_chemical_formula_structural   CeEuClO2
_chemical_formula_sum   'Ce1 Eu1 Cl1 O2'
_cell_volume   101.51768498
_cell_formula_units_Z   1
loop_
 _symmetry_equiv_pos_site_id
 _symmetry_equiv_pos_as_xyz
  1  'x, y, z'
loop_
 _atom_site_type_symbol
 _atom_site_label
 _atom_site_symmetry_multiplicity
 _atom_site_fract_x
 _atom_site_fract_y
 _atom_site_fract_z
 _atom_site_occupancy
  Ce  Ce0  1  0.333333  0.666667  0.311522  1
  Eu  Eu1  1  0.666667  0.333333  0.702729  1
  Cl  Cl2  1  0.000000  0.000000  0.005860  1
  O  O3  1  0.333333  0.666667  0.621172  1
  O  O4  1  0.666667  0.333333  0.358716  1
