# generated using pymatgen
data_Np7CrSnSe17
_symmetry_space_group_name_H-M   'P 1'
_cell_length_a   8.22790653
_cell_length_b   8.23297428
_cell_length_c   10.92437100
_cell_angle_alpha   80.42343790
_cell_angle_beta   80.48967945
_cell_angle_gamma   65.25190277
_symmetry_Int_Tables_number   1
_chemical_formula_structural   Np7CrSnSe17
_chemical_formula_sum   'Np7 Cr1 Sn1 Se17'
_cell_volume   658.90190347
_cell_formula_units_Z   1
loop_
 _symmetry_equiv_pos_site_id
 _symmetry_equiv_pos_as_xyz
  1  'x, y, z'
loop_
 _atom_site_type_symbol
 _atom_site_label
 _atom_site_symmetry_multiplicity
 _atom_site_fract_x
 _atom_site_fract_y
 _atom_site_fract_z
 _atom_site_occupancy
  Np  Np0  1  0.818967  0.302178  0.297624  1
  Np  Np1  1  0.698157  0.179995  0.700080  1
  Np  Np2  1  0.180597  0.697616  0.700490  1
  Np  Np3  1  0.302111  0.819251  0.298253  1
  Np  Np4  1  0.204664  0.204673  0.541885  1
  Np  Np5  1  0.795787  0.796061  0.455209  1
  Np  Np6  1  0.679939  0.679727  0.983298  1
  Cr  Cr7  1  0.997853  0.998523  0.998614  1
  Sn  Sn8  1  0.339500  0.339180  0.018747  1
  Se  Se9  1  0.823017  0.431777  0.535321  1
  Se  Se10  1  0.569358  0.174788  0.464177  1
  Se  Se11  1  0.174959  0.569217  0.464230  1
  Se  Se12  1  0.431986  0.823184  0.535765  1
  Se  Se13  1  0.928267  0.320712  0.031161  1
  Se  Se14  1  0.683871  0.045491  0.967313  1
  Se  Se15  1  0.045974  0.683830  0.967737  1
  Se  Se16  1  0.319759  0.930026  0.033670  1
  Se  Se17  1  0.204996  0.206054  0.282877  1
  Se  Se18  1  0.788667  0.786954  0.719474  1
  Se  Se19  1  0.057231  0.056291  0.771772  1
  Se  Se20  1  0.942278  0.942897  0.226982  1
  Se  Se21  1  0.304118  0.303678  0.747612  1
  Se  Se22  1  0.699676  0.700615  0.244868  1
  Se  Se23  1  0.525842  0.525392  0.827654  1
  Se  Se24  1  0.484056  0.483868  0.183313  1
  Se  Se25  1  0.998370  0.998023  0.501873  1
