# generated using pymatgen
data_Sc20Si2Bi9As
_symmetry_space_group_name_H-M   'P 1'
_cell_length_a   7.63728505
_cell_length_b   8.80271500
_cell_length_c   11.29520390
_cell_angle_alpha   90.00000000
_cell_angle_beta   90.05934781
_cell_angle_gamma   90.00000000
_symmetry_Int_Tables_number   1
_chemical_formula_structural   Sc20Si2Bi9As
_chemical_formula_sum   'Sc20 Si2 Bi9 As1'
_cell_volume   759.36309003
_cell_formula_units_Z   1
loop_
 _symmetry_equiv_pos_site_id
 _symmetry_equiv_pos_as_xyz
  1  'x, y, z'
loop_
 _atom_site_type_symbol
 _atom_site_label
 _atom_site_symmetry_multiplicity
 _atom_site_fract_x
 _atom_site_fract_y
 _atom_site_fract_z
 _atom_site_occupancy
  Sc  Sc0  1  0.190616  0.042340  0.935264  1
  Sc  Sc1  1  0.323078  0.061021  0.443403  1
  Sc  Sc2  1  0.323078  0.438979  0.443403  1
  Sc  Sc3  1  0.330681  0.750000  0.714285  1
  Sc  Sc4  1  0.460202  0.750000  0.003636  1
  Sc  Sc5  1  0.160280  0.250000  0.219012  1
  Sc  Sc6  1  0.816976  0.926658  0.061599  1
  Sc  Sc7  1  0.643811  0.750000  0.294425  1
  Sc  Sc8  1  0.034558  0.750000  0.502809  1
  Sc  Sc9  1  0.682953  0.943616  0.559627  1
  Sc  Sc10  1  0.190616  0.457660  0.935264  1
  Sc  Sc11  1  0.357032  0.250000  0.707875  1
  Sc  Sc12  1  0.163973  0.750000  0.210599  1
  Sc  Sc13  1  0.966399  0.250000  0.496045  1
  Sc  Sc14  1  0.682953  0.556384  0.559627  1
  Sc  Sc15  1  0.661605  0.250000  0.293421  1
  Sc  Sc16  1  0.816976  0.573342  0.061599  1
  Sc  Sc17  1  0.518781  0.250000  0.993784  1
  Sc  Sc18  1  0.810981  0.250000  0.762524  1
  Sc  Sc19  1  0.859433  0.750000  0.793099  1
  Si  Si20  1  0.088717  0.750000  0.976383  1
  Si  Si21  1  0.596885  0.250000  0.530336  1
  Bi  Bi22  1  0.065957  0.489458  0.674433  1
  Bi  Bi23  1  0.565781  0.513849  0.824399  1
  Bi  Bi24  1  0.934703  0.989290  0.325205  1
  Bi  Bi25  1  0.435606  0.008952  0.176257  1
  Bi  Bi26  1  0.565781  0.986151  0.824399  1
  Bi  Bi27  1  0.435606  0.491048  0.176257  1
  Bi  Bi28  1  0.065957  0.010542  0.674433  1
  Bi  Bi29  1  0.934703  0.510710  0.325205  1
  Bi  Bi30  1  0.906130  0.250000  0.023726  1
  As  As31  1  0.409190  0.750000  0.477663  1
