# generated using pymatgen
data_Ho5TmAl24Ru5Pt3
_symmetry_space_group_name_H-M   'P 1'
_cell_length_a   8.79853335
_cell_length_b   8.83631204
_cell_length_c   9.52665977
_cell_angle_alpha   89.86480693
_cell_angle_beta   90.14466404
_cell_angle_gamma   119.71192567
_symmetry_Int_Tables_number   1
_chemical_formula_structural   Ho5TmAl24Ru5Pt3
_chemical_formula_sum   'Ho5 Tm1 Al24 Ru5 Pt3'
_cell_volume   643.28622949
_cell_formula_units_Z   1
loop_
 _symmetry_equiv_pos_site_id
 _symmetry_equiv_pos_as_xyz
  1  'x, y, z'
loop_
 _atom_site_type_symbol
 _atom_site_label
 _atom_site_symmetry_multiplicity
 _atom_site_fract_x
 _atom_site_fract_y
 _atom_site_fract_z
 _atom_site_occupancy
  Ho  Ho0  1  0.804682  0.190841  0.748840  1
  Ho  Ho1  1  0.195184  0.808962  0.251091  1
  Ho  Ho2  1  0.387558  0.191017  0.750151  1
  Ho  Ho3  1  0.612328  0.808848  0.249793  1
  Ho  Ho4  1  0.806890  0.615186  0.750228  1
  Tm  Tm5  1  0.194192  0.386515  0.250081  1
  Al  Al6  1  0.664204  0.327424  0.971506  1
  Al  Al7  1  0.335650  0.672248  0.028959  1
  Al  Al8  1  0.338532  0.669398  0.472204  1
  Al  Al9  1  0.661271  0.330355  0.527340  1
  Al  Al10  1  0.832934  0.158531  0.421845  1
  Al  Al11  1  0.167436  0.841554  0.577747  1
  Al  Al12  1  0.326987  0.164528  0.422664  1
  Al  Al13  1  0.167322  0.842016  0.921357  1
  Al  Al14  1  0.672637  0.835517  0.576915  1
  Al  Al15  1  0.833066  0.158086  0.078979  1
  Al  Al16  1  0.831758  0.675167  0.423482  1
  Al  Al17  1  0.673994  0.841525  0.921576  1
  Al  Al18  1  0.168106  0.324672  0.576005  1
  Al  Al19  1  0.325726  0.158516  0.078730  1
  Al  Al20  1  0.161706  0.323087  0.921806  1
  Al  Al21  1  0.838227  0.676766  0.078703  1
  Al  Al22  1  0.437740  0.562697  0.746588  1
  Al  Al23  1  0.561795  0.437078  0.253342  1
  Al  Al24  1  0.127438  0.563780  0.750421  1
  Al  Al25  1  0.872743  0.435969  0.249602  1
  Al  Al26  1  0.439188  0.877271  0.750510  1
  Al  Al27  1  0.560754  0.122693  0.249467  1
  Al  Al28  1  0.998002  0.997307  0.749816  1
  Al  Al29  1  0.002577  0.003919  0.250156  1
  Ru  Ru30  1  0.499601  0.499822  0.499744  1
  Ru  Ru31  1  0.499919  0.999825  0.000023  1
  Ru  Ru32  1  0.499937  0.999851  0.499959  1
  Ru  Ru33  1  0.999993  0.999977  0.999993  1
  Ru  Ru34  1  0.999981  0.999960  0.500004  1
  Pt  Pt35  1  0.499360  0.499639  0.000365  1
  Pt  Pt36  1  0.000295  0.499715  0.000398  1
  Pt  Pt37  1  0.000290  0.499741  0.499611  1
