# generated using pymatgen
data_Pa2Si5Rh3
_symmetry_space_group_name_H-M   'P 1'
_cell_length_a   8.11152439
_cell_length_b   8.11152475
_cell_length_c   8.11152393
_cell_angle_alpha   137.28292095
_cell_angle_beta   105.01744922
_cell_angle_gamma   90.35376419
_symmetry_Int_Tables_number   1
_chemical_formula_structural   Pa2Si5Rh3
_chemical_formula_sum   'Pa4 Si10 Rh6'
_cell_volume   333.58916003
_cell_formula_units_Z   2
loop_
 _symmetry_equiv_pos_site_id
 _symmetry_equiv_pos_as_xyz
  1  'x, y, z'
loop_
 _atom_site_type_symbol
 _atom_site_label
 _atom_site_symmetry_multiplicity
 _atom_site_fract_x
 _atom_site_fract_y
 _atom_site_fract_z
 _atom_site_occupancy
  Pa  Pa0  1  0.636483  0.867441  0.769042  1
  Pa  Pa1  1  0.363517  0.132559  0.230958  1
  Pa  Pa2  1  0.098400  0.367441  0.730958  1
  Pa  Pa3  1  0.901600  0.632559  0.269042  1
  Si  Si4  1  0.275905  0.025905  0.750000  1
  Si  Si5  1  0.724095  0.974095  0.250000  1
  Si  Si6  1  0.724095  0.474095  0.750000  1
  Si  Si7  1  0.275905  0.525905  0.250000  1
  Si  Si8  1  0.456205  0.609243  0.846961  1
  Si  Si9  1  0.543795  0.390757  0.153039  1
  Si  Si10  1  0.762282  0.109243  0.653039  1
  Si  Si11  1  0.237718  0.890757  0.346961  1
  Si  Si12  1  0.000000  0.750000  0.750000  1
  Si  Si13  1  0.000000  0.250000  0.250000  1
  Rh  Rh14  1  0.250965  0.640212  0.610754  1
  Rh  Rh15  1  0.749035  0.359788  0.389246  1
  Rh  Rh16  1  0.029458  0.140212  0.889246  1
  Rh  Rh17  1  0.970542  0.859788  0.110754  1
  Rh  Rh18  1  0.500000  0.750000  0.250000  1
  Rh  Rh19  1  0.500000  0.250000  0.750000  1
