# generated using pymatgen
data_TcIrPt2F24
_symmetry_space_group_name_H-M   'P 1'
_cell_length_a   5.13087037
_cell_length_b   8.97320700
_cell_length_c   9.82970741
_cell_angle_alpha   90.00000000
_cell_angle_beta   89.67855327
_cell_angle_gamma   90.00000000
_symmetry_Int_Tables_number   1
_chemical_formula_structural   TcIrPt2F24
_chemical_formula_sum   'Tc1 Ir1 Pt2 F24'
_cell_volume   452.55616436
_cell_formula_units_Z   1
loop_
 _symmetry_equiv_pos_site_id
 _symmetry_equiv_pos_as_xyz
  1  'x, y, z'
loop_
 _atom_site_type_symbol
 _atom_site_label
 _atom_site_symmetry_multiplicity
 _atom_site_fract_x
 _atom_site_fract_y
 _atom_site_fract_z
 _atom_site_occupancy
  Tc  Tc0  1  0.593397  0.250000  0.873192  1
  Ir  Ir1  1  0.093341  0.750000  0.626642  1
  Pt  Pt2  1  0.906541  0.250000  0.373077  1
  Pt  Pt3  1  0.406753  0.750000  0.127292  1
  F  F4  1  0.249359  0.602000  0.519266  1
  F  F5  1  0.250755  0.900250  0.017685  1
  F  F6  1  0.938296  0.898053  0.735314  1
  F  F7  1  0.202460  0.250000  0.489456  1
  F  F8  1  0.744105  0.103987  0.978251  1
  F  F9  1  0.562918  0.899795  0.236165  1
  F  F10  1  0.301995  0.250000  0.984967  1
  F  F11  1  0.249359  0.898000  0.519266  1
  F  F12  1  0.748441  0.399522  0.483422  1
  F  F13  1  0.443490  0.395785  0.767146  1
  F  F14  1  0.744105  0.396013  0.978251  1
  F  F15  1  0.802039  0.750000  0.512754  1
  F  F16  1  0.703971  0.750000  0.010082  1
  F  F17  1  0.250755  0.599750  0.017685  1
  F  F18  1  0.443490  0.104215  0.767146  1
  F  F19  1  0.063563  0.399565  0.263028  1
  F  F20  1  0.610076  0.250000  0.256783  1
  F  F21  1  0.562918  0.600205  0.236165  1
  F  F22  1  0.884715  0.250000  0.760775  1
  F  F23  1  0.108089  0.750000  0.243233  1
  F  F24  1  0.063563  0.100435  0.263028  1
  F  F25  1  0.938296  0.601947  0.735314  1
  F  F26  1  0.384773  0.750000  0.741193  1
  F  F27  1  0.748441  0.100478  0.483422  1
