# generated using pymatgen
data_La2NdAg(Pt2O7)2
_symmetry_space_group_name_H-M   'P 1'
_cell_length_a   7.33697250
_cell_length_b   7.33697389
_cell_length_c   7.35305186
_cell_angle_alpha   61.41898350
_cell_angle_beta   61.41898591
_cell_angle_gamma   61.37204289
_symmetry_Int_Tables_number   1
_chemical_formula_structural   La2NdAg(Pt2O7)2
_chemical_formula_sum   'La2 Nd1 Ag1 Pt4 O14'
_cell_volume   288.71214771
_cell_formula_units_Z   1
loop_
 _symmetry_equiv_pos_site_id
 _symmetry_equiv_pos_as_xyz
  1  'x, y, z'
loop_
 _atom_site_type_symbol
 _atom_site_label
 _atom_site_symmetry_multiplicity
 _atom_site_fract_x
 _atom_site_fract_y
 _atom_site_fract_z
 _atom_site_occupancy
  La  La0  1  0.625000  0.125000  0.625000  1
  La  La1  1  0.125000  0.625000  0.625000  1
  Nd  Nd2  1  0.625000  0.625000  0.125000  1
  Ag  Ag3  1  0.625000  0.625000  0.625000  1
  Pt  Pt4  1  0.125000  0.125000  0.625000  1
  Pt  Pt5  1  0.125000  0.625000  0.125000  1
  Pt  Pt6  1  0.625000  0.125000  0.125000  1
  Pt  Pt7  1  0.125000  0.125000  0.125000  1
  O  O8  1  0.509948  0.509948  0.506038  1
  O  O9  1  0.740052  0.740052  0.743962  1
  O  O10  1  0.450862  0.055750  0.450392  1
  O  O11  1  0.214435  0.790807  0.209423  1
  O  O12  1  0.451799  0.451799  0.057324  1
  O  O13  1  0.055750  0.450862  0.450392  1
  O  O14  1  0.459193  0.035565  0.040577  1
  O  O15  1  0.039049  0.039049  0.457859  1
  O  O16  1  0.035565  0.459193  0.040577  1
  O  O17  1  0.790807  0.214435  0.209423  1
  O  O18  1  0.194250  0.799138  0.799608  1
  O  O19  1  0.799138  0.194250  0.799608  1
  O  O20  1  0.210951  0.210951  0.792141  1
  O  O21  1  0.798201  0.798201  0.192676  1
