# generated using pymatgen
data_Gd3YGa12Ru
_symmetry_space_group_name_H-M   'P 1'
_cell_length_a   7.50181674
_cell_length_b   7.50181634
_cell_length_c   7.50914300
_cell_angle_alpha   109.49100059
_cell_angle_beta   109.49099951
_cell_angle_gamma   109.45143940
_symmetry_Int_Tables_number   1
_chemical_formula_structural   Gd3YGa12Ru
_chemical_formula_sum   'Gd3 Y1 Ga12 Ru1'
_cell_volume   325.23349144
_cell_formula_units_Z   1
loop_
 _symmetry_equiv_pos_site_id
 _symmetry_equiv_pos_as_xyz
  1  'x, y, z'
loop_
 _atom_site_type_symbol
 _atom_site_label
 _atom_site_symmetry_multiplicity
 _atom_site_fract_x
 _atom_site_fract_y
 _atom_site_fract_z
 _atom_site_occupancy
  Gd  Gd0  1  0.000000  0.500000  0.000000  1
  Gd  Gd1  1  0.500000  0.000000  0.000000  1
  Gd  Gd2  1  0.500000  0.500000  0.500000  1
  Y  Y3  1  0.000000  0.000000  0.500000  1
  Ga  Ga4  1  0.749951  0.250049  0.500000  1
  Ga  Ga5  1  0.749951  0.499902  0.249951  1
  Ga  Ga6  1  0.500098  0.250049  0.750049  1
  Ga  Ga7  1  0.250049  0.500098  0.750049  1
  Ga  Ga8  1  0.250049  0.749951  0.500000  1
  Ga  Ga9  1  0.499902  0.749951  0.249951  1
  Ga  Ga10  1  0.709575  0.709575  0.999852  1
  Ga  Ga11  1  0.290425  0.000000  0.290277  1
  Ga  Ga12  1  0.000000  0.290425  0.290277  1
  Ga  Ga13  1  0.290425  0.290425  0.000148  1
  Ga  Ga14  1  0.709575  0.000000  0.709723  1
  Ga  Ga15  1  0.000000  0.709575  0.709723  1
  Ru  Ru16  1  0.000000  0.000000  0.000000  1
