# generated using pymatgen
data_Nd2SmMg3PdPb2
_symmetry_space_group_name_H-M   'P 1'
_cell_length_a   7.65316759
_cell_length_b   7.65316720
_cell_length_c   4.64106400
_cell_angle_alpha   90.00000000
_cell_angle_beta   90.00000000
_cell_angle_gamma   119.88902098
_symmetry_Int_Tables_number   1
_chemical_formula_structural   Nd2SmMg3PdPb2
_chemical_formula_sum   'Nd2 Sm1 Mg3 Pd1 Pb2'
_cell_volume   235.67591357
_cell_formula_units_Z   1
loop_
 _symmetry_equiv_pos_site_id
 _symmetry_equiv_pos_as_xyz
  1  'x, y, z'
loop_
 _atom_site_type_symbol
 _atom_site_label
 _atom_site_symmetry_multiplicity
 _atom_site_fract_x
 _atom_site_fract_y
 _atom_site_fract_z
 _atom_site_occupancy
  Nd  Nd0  1  0.399734  0.000135  0.500000  1
  Nd  Nd1  1  0.000135  0.399734  0.500000  1
  Sm  Sm2  1  0.600658  0.600658  0.500000  1
  Mg  Mg3  1  0.771641  0.999506  0.000000  1
  Mg  Mg4  1  0.999506  0.771641  0.000000  1
  Mg  Mg5  1  0.228452  0.228452  0.000000  1
  Pd  Pd6  1  0.999264  0.999264  0.500000  1
  Pb  Pb7  1  0.334154  0.666456  0.000000  1
  Pb  Pb8  1  0.666456  0.334154  0.000000  1
