# generated using pymatgen
data_CaNdHo2(Rh2O7)2
_symmetry_space_group_name_H-M   'P 1'
_cell_length_a   7.28906865
_cell_length_b   7.23895164
_cell_length_c   7.28906900
_cell_angle_alpha   120.04033274
_cell_angle_beta   120.25686944
_cell_angle_gamma   89.93969801
_symmetry_Int_Tables_number   1
_chemical_formula_structural   CaNdHo2(Rh2O7)2
_chemical_formula_sum   'Ca1 Nd1 Ho2 Rh4 O14'
_cell_volume   270.87729930
_cell_formula_units_Z   1
loop_
 _symmetry_equiv_pos_site_id
 _symmetry_equiv_pos_as_xyz
  1  'x, y, z'
loop_
 _atom_site_type_symbol
 _atom_site_label
 _atom_site_symmetry_multiplicity
 _atom_site_fract_x
 _atom_site_fract_y
 _atom_site_fract_z
 _atom_site_occupancy
  Ca  Ca0  1  0.500000  0.000000  0.000000  1
  Nd  Nd1  1  0.500000  0.500000  0.500000  1
  Ho  Ho2  1  0.500000  0.500000  0.000000  1
  Ho  Ho3  1  0.000000  0.500000  0.500000  1
  Rh  Rh4  1  0.000000  0.000000  0.500000  1
  Rh  Rh5  1  0.000000  0.500000  0.000000  1
  Rh  Rh6  1  0.000000  0.000000  0.000000  1
  Rh  Rh7  1  0.500000  0.000000  0.500000  1
  O  O8  1  0.368135  0.620326  0.752288  1
  O  O9  1  0.631865  0.379674  0.247712  1
  O  O10  1  0.329801  0.080194  0.250318  1
  O  O11  1  0.915502  0.664636  0.249371  1
  O  O12  1  0.332709  0.664952  0.241891  1
  O  O13  1  0.927763  0.089371  0.258850  1
  O  O14  1  0.330288  0.089314  0.661528  1
  O  O15  1  0.922875  0.664793  0.831851  1
  O  O16  1  0.670199  0.919806  0.749682  1
  O  O17  1  0.084498  0.335364  0.750629  1
  O  O18  1  0.667291  0.335048  0.758109  1
  O  O19  1  0.072237  0.910629  0.741150  1
  O  O20  1  0.669712  0.910686  0.338472  1
  O  O21  1  0.077125  0.335207  0.168149  1
