# generated using pymatgen
data_Ho4Er12Cd4Ir3Pd
_symmetry_space_group_name_H-M   'P 1'
_cell_length_a   9.57499488
_cell_length_b   9.57362964
_cell_length_c   9.57362969
_cell_angle_alpha   60.18204385
_cell_angle_beta   60.14630795
_cell_angle_gamma   60.14630492
_symmetry_Int_Tables_number   1
_chemical_formula_structural   Ho4Er12Cd4Ir3Pd
_chemical_formula_sum   'Ho4 Er12 Cd4 Ir3 Pd1'
_cell_volume   622.77368597
_cell_formula_units_Z   1
loop_
 _symmetry_equiv_pos_site_id
 _symmetry_equiv_pos_as_xyz
  1  'x, y, z'
loop_
 _atom_site_type_symbol
 _atom_site_label
 _atom_site_symmetry_multiplicity
 _atom_site_fract_x
 _atom_site_fract_y
 _atom_site_fract_z
 _atom_site_occupancy
  Ho  Ho0  1  0.813259  0.188233  0.813252  1
  Ho  Ho1  1  0.187079  0.814775  0.187052  1
  Ho  Ho2  1  0.813259  0.813252  0.188233  1
  Ho  Ho3  1  0.187079  0.187052  0.814775  1
  Er  Er4  1  0.597694  0.597720  0.597720  1
  Er  Er5  1  0.603564  0.603621  0.197520  1
  Er  Er6  1  0.603564  0.197520  0.603621  1
  Er  Er7  1  0.197360  0.603661  0.603661  1
  Er  Er8  1  0.054806  0.440250  0.440250  1
  Er  Er9  1  0.438387  0.060615  0.060615  1
  Er  Er10  1  0.440286  0.054881  0.440296  1
  Er  Er11  1  0.060650  0.438363  0.060614  1
  Er  Er12  1  0.440286  0.440296  0.054881  1
  Er  Er13  1  0.060650  0.060614  0.438363  1
  Er  Er14  1  0.188696  0.812893  0.812893  1
  Er  Er15  1  0.814639  0.187308  0.187308  1
  Cd  Cd16  1  0.831291  0.831070  0.831070  1
  Cd  Cd17  1  0.830723  0.830961  0.506614  1
  Cd  Cd18  1  0.830723  0.506614  0.830961  1
  Cd  Cd19  1  0.506584  0.830768  0.830768  1
  Ir  Ir20  1  0.391364  0.391532  0.823851  1
  Ir  Ir21  1  0.391364  0.823851  0.391532  1
  Ir  Ir22  1  0.823849  0.391355  0.391355  1
  Pd  Pd23  1  0.392847  0.392796  0.392796  1
