# generated using pymatgen
data_EuHo3Ni13C4
_symmetry_space_group_name_H-M   'P 1'
_cell_length_a   8.38107359
_cell_length_b   8.38107344
_cell_length_c   3.86980700
_cell_angle_alpha   90.00000000
_cell_angle_beta   90.00000000
_cell_angle_gamma   90.70542554
_symmetry_Int_Tables_number   1
_chemical_formula_structural   EuHo3Ni13C4
_chemical_formula_sum   'Eu1 Ho3 Ni13 C4'
_cell_volume   271.80390324
_cell_formula_units_Z   1
loop_
 _symmetry_equiv_pos_site_id
 _symmetry_equiv_pos_as_xyz
  1  'x, y, z'
loop_
 _atom_site_type_symbol
 _atom_site_label
 _atom_site_symmetry_multiplicity
 _atom_site_fract_x
 _atom_site_fract_y
 _atom_site_fract_z
 _atom_site_occupancy
  Eu  Eu0  1  0.350586  0.350586  0.500000  1
  Ho  Ho1  1  0.651096  0.651096  0.500000  1
  Ho  Ho2  1  0.812710  0.187024  0.500000  1
  Ho  Ho3  1  0.187024  0.812710  0.500000  1
  Ni  Ni4  1  0.997232  0.997232  0.000000  1
  Ni  Ni5  1  0.216059  0.575081  0.000000  1
  Ni  Ni6  1  0.787243  0.430928  0.000000  1
  Ni  Ni7  1  0.430928  0.787243  0.000000  1
  Ni  Ni8  1  0.575081  0.216059  0.000000  1
  Ni  Ni9  1  0.992564  0.504908  0.500000  1
  Ni  Ni10  1  0.504908  0.992564  0.500000  1
  Ni  Ni11  1  0.068039  0.287272  0.000000  1
  Ni  Ni12  1  0.924718  0.707902  0.000000  1
  Ni  Ni13  1  0.707902  0.924718  0.000000  1
  Ni  Ni14  1  0.287272  0.068039  0.000000  1
  Ni  Ni15  1  0.120357  0.120357  0.500000  1
  Ni  Ni16  1  0.874920  0.874920  0.500000  1
  C  C17  1  0.447040  0.561067  0.000000  1
  C  C18  1  0.561067  0.447040  0.000000  1
  C  C19  1  0.004114  0.499141  0.000000  1
  C  C20  1  0.499141  0.004114  0.000000  1
