# generated using pymatgen
data_CdAsPd3Pt2
_symmetry_space_group_name_H-M   'P 1'
_cell_length_a   4.03676500
_cell_length_b   4.03676500
_cell_length_c   7.19791700
_cell_angle_alpha   90.00000000
_cell_angle_beta   90.00000000
_cell_angle_gamma   90.00000000
_symmetry_Int_Tables_number   1
_chemical_formula_structural   CdAsPd3Pt2
_chemical_formula_sum   'Cd1 As1 Pd3 Pt2'
_cell_volume   117.29345252
_cell_formula_units_Z   1
loop_
 _symmetry_equiv_pos_site_id
 _symmetry_equiv_pos_as_xyz
  1  'x, y, z'
loop_
 _atom_site_type_symbol
 _atom_site_label
 _atom_site_symmetry_multiplicity
 _atom_site_fract_x
 _atom_site_fract_y
 _atom_site_fract_z
 _atom_site_occupancy
  Cd  Cd0  1  0.500000  0.500000  0.002207  1
  As  As1  1  0.000000  0.000000  0.500504  1
  Pd  Pd2  1  0.000000  0.000000  0.999252  1
  Pd  Pd3  1  0.500000  0.000000  0.288907  1
  Pd  Pd4  1  0.000000  0.500000  0.288907  1
  Pt  Pt5  1  0.500000  0.000000  0.710112  1
  Pt  Pt6  1  0.000000  0.500000  0.710112  1
