# generated using pymatgen
data_Zr3Ta11Ni20
_symmetry_space_group_name_H-M   'P 1'
_cell_length_a   7.50501312
_cell_length_b   7.50501361
_cell_length_c   8.93589995
_cell_angle_alpha   89.93596707
_cell_angle_beta   89.93596261
_cell_angle_gamma   107.60554382
_symmetry_Int_Tables_number   1
_chemical_formula_structural   Zr3Ta11Ni20
_chemical_formula_sum   'Zr3 Ta11 Ni20'
_cell_volume   479.74108108
_cell_formula_units_Z   1
loop_
 _symmetry_equiv_pos_site_id
 _symmetry_equiv_pos_as_xyz
  1  'x, y, z'
loop_
 _atom_site_type_symbol
 _atom_site_label
 _atom_site_symmetry_multiplicity
 _atom_site_fract_x
 _atom_site_fract_y
 _atom_site_fract_z
 _atom_site_occupancy
  Zr  Zr0  1  0.188485  0.188485  0.690986  1
  Zr  Zr1  1  0.689594  0.689594  0.807484  1
  Zr  Zr2  1  0.810058  0.810058  0.308144  1
  Ta  Ta3  1  0.001785  0.001785  0.002833  1
  Ta  Ta4  1  0.498579  0.498579  0.497381  1
  Ta  Ta5  1  0.313183  0.685481  0.000376  1
  Ta  Ta6  1  0.186544  0.813324  0.499520  1
  Ta  Ta7  1  0.685481  0.313183  0.000376  1
  Ta  Ta8  1  0.813324  0.186544  0.499520  1
  Ta  Ta9  1  0.503082  0.010487  0.250295  1
  Ta  Ta10  1  0.993333  0.493418  0.750817  1
  Ta  Ta11  1  0.493418  0.993333  0.750817  1
  Ta  Ta12  1  0.010487  0.503082  0.250295  1
  Ta  Ta13  1  0.315108  0.315108  0.187278  1
  Ni  Ni14  1  0.645771  0.945575  0.010682  1
  Ni  Ni15  1  0.853260  0.552269  0.508082  1
  Ni  Ni16  1  0.055181  0.352423  0.993162  1
  Ni  Ni17  1  0.447222  0.147163  0.492576  1
  Ni  Ni18  1  0.352423  0.055181  0.993162  1
  Ni  Ni19  1  0.147163  0.447222  0.492576  1
  Ni  Ni20  1  0.945575  0.645771  0.010682  1
  Ni  Ni21  1  0.552269  0.853260  0.508082  1
  Ni  Ni22  1  0.110940  0.110940  0.390432  1
  Ni  Ni23  1  0.394180  0.394180  0.902162  1
  Ni  Ni24  1  0.899481  0.899481  0.597852  1
  Ni  Ni25  1  0.599459  0.599459  0.101861  1
  Ni  Ni26  1  0.160334  0.860288  0.203951  1
  Ni  Ni27  1  0.339137  0.636350  0.704164  1
  Ni  Ni28  1  0.136353  0.839004  0.798084  1
  Ni  Ni29  1  0.364415  0.658735  0.295084  1
  Ni  Ni30  1  0.839004  0.136353  0.798084  1
  Ni  Ni31  1  0.658735  0.364415  0.295084  1
  Ni  Ni32  1  0.860288  0.160334  0.203951  1
  Ni  Ni33  1  0.636350  0.339137  0.704164  1
