# generated using pymatgen
data_Dy12In2SiTc3
_symmetry_space_group_name_H-M   'P 1'
_cell_length_a   8.54791734
_cell_length_b   8.54791819
_cell_length_c   8.54791882
_cell_angle_alpha   112.93267099
_cell_angle_beta   112.41044994
_cell_angle_gamma   103.24479295
_symmetry_Int_Tables_number   1
_chemical_formula_structural   Dy12In2SiTc3
_chemical_formula_sum   'Dy12 In2 Si1 Tc3'
_cell_volume   476.58784415
_cell_formula_units_Z   1
loop_
 _symmetry_equiv_pos_site_id
 _symmetry_equiv_pos_as_xyz
  1  'x, y, z'
loop_
 _atom_site_type_symbol
 _atom_site_label
 _atom_site_symmetry_multiplicity
 _atom_site_fract_x
 _atom_site_fract_y
 _atom_site_fract_z
 _atom_site_occupancy
  Dy  Dy0  1  0.449593  0.244695  0.204898  1
  Dy  Dy1  1  0.556191  0.758014  0.798175  1
  Dy  Dy2  1  0.039797  0.244695  0.795102  1
  Dy  Dy3  1  0.959839  0.758014  0.201825  1
  Dy  Dy4  1  0.188373  0.287970  0.466215  1
  Dy  Dy5  1  0.821755  0.722158  0.533785  1
  Dy  Dy6  1  0.188373  0.722158  0.900403  1
  Dy  Dy7  1  0.821755  0.287970  0.099597  1
  Dy  Dy8  1  0.330552  0.647124  0.316571  1
  Dy  Dy9  1  0.658033  0.342321  0.684287  1
  Dy  Dy10  1  0.330552  0.013981  0.683429  1
  Dy  Dy11  1  0.658033  0.973746  0.315713  1
  In  In12  1  0.501201  0.501201  0.000000  1
  In  In13  1  0.996763  0.996763  0.000000  1
  Si  Si14  1  0.877815  0.377815  0.500000  1
  Tc  Tc15  1  0.327197  0.003392  0.323804  1
  Tc  Tc16  1  0.679588  0.003392  0.676196  1
  Tc  Tc17  1  0.114589  0.614589  0.500000  1
