# generated using pymatgen
data_DySc4(In2Pt)2
_symmetry_space_group_name_H-M   'P 1'
_cell_length_a   3.50181000
_cell_length_b   7.83749800
_cell_length_c   17.58446200
_cell_angle_alpha   90.00000000
_cell_angle_beta   90.00000000
_cell_angle_gamma   90.00000000
_symmetry_Int_Tables_number   1
_chemical_formula_structural   DySc4(In2Pt)2
_chemical_formula_sum   'Dy2 Sc8 In8 Pt4'
_cell_volume   482.61310106
_cell_formula_units_Z   2
loop_
 _symmetry_equiv_pos_site_id
 _symmetry_equiv_pos_as_xyz
  1  'x, y, z'
loop_
 _atom_site_type_symbol
 _atom_site_label
 _atom_site_symmetry_multiplicity
 _atom_site_fract_x
 _atom_site_fract_y
 _atom_site_fract_z
 _atom_site_occupancy
  Dy  Dy0  1  0.000000  0.000000  0.000000  1
  Dy  Dy1  1  0.000000  0.500000  0.500000  1
  Sc  Sc2  1  0.000000  0.117849  0.414001  1
  Sc  Sc3  1  0.000000  0.882151  0.585999  1
  Sc  Sc4  1  0.000000  0.382151  0.914001  1
  Sc  Sc5  1  0.000000  0.617849  0.085999  1
  Sc  Sc6  1  0.000000  0.244908  0.221337  1
  Sc  Sc7  1  0.000000  0.755092  0.778663  1
  Sc  Sc8  1  0.000000  0.255092  0.721337  1
  Sc  Sc9  1  0.000000  0.744908  0.278663  1
  In  In10  1  0.500000  0.421079  0.349676  1
  In  In11  1  0.500000  0.578921  0.650324  1
  In  In12  1  0.500000  0.078921  0.849676  1
  In  In13  1  0.500000  0.921079  0.150324  1
  In  In14  1  0.500000  0.299766  0.066732  1
  In  In15  1  0.500000  0.700234  0.933268  1
  In  In16  1  0.500000  0.200234  0.566732  1
  In  In17  1  0.500000  0.799766  0.433268  1
  Pt  Pt18  1  0.500000  0.028925  0.304946  1
  Pt  Pt19  1  0.500000  0.971075  0.695054  1
  Pt  Pt20  1  0.500000  0.471075  0.804946  1
  Pt  Pt21  1  0.500000  0.528925  0.195054  1
