# generated using pymatgen
data_Tm4Sn5GeIr7
_symmetry_space_group_name_H-M   'P 1'
_cell_length_a   7.50408745
_cell_length_b   7.50408662
_cell_length_c   7.50408776
_cell_angle_alpha   109.41967975
_cell_angle_beta   109.49700598
_cell_angle_gamma   109.49698989
_symmetry_Int_Tables_number   1
_chemical_formula_structural   Tm4Sn5GeIr7
_chemical_formula_sum   'Tm4 Sn5 Ge1 Ir7'
_cell_volume   325.29056511
_cell_formula_units_Z   1
loop_
 _symmetry_equiv_pos_site_id
 _symmetry_equiv_pos_as_xyz
  1  'x, y, z'
loop_
 _atom_site_type_symbol
 _atom_site_label
 _atom_site_symmetry_multiplicity
 _atom_site_fract_x
 _atom_site_fract_y
 _atom_site_fract_z
 _atom_site_occupancy
  Tm  Tm0  1  0.000000  0.990102  0.524927  1
  Tm  Tm1  1  0.000000  0.524927  0.990102  1
  Tm  Tm2  1  0.465175  0.990102  0.990102  1
  Tm  Tm3  1  0.534825  0.524927  0.524927  1
  Sn  Sn4  1  0.687768  0.699440  0.011672  1
  Sn  Sn5  1  0.312232  0.011672  0.323904  1
  Sn  Sn6  1  0.000000  0.294177  0.294177  1
  Sn  Sn7  1  0.312232  0.323904  0.011672  1
  Sn  Sn8  1  0.687768  0.011672  0.699440  1
  Ge  Ge9  1  0.000000  0.662250  0.662250  1
  Ir  Ir10  1  0.754074  0.250275  0.496201  1
  Ir  Ir11  1  0.754074  0.496201  0.250275  1
  Ir  Ir12  1  0.500000  0.257991  0.757991  1
  Ir  Ir13  1  0.245926  0.496201  0.742127  1
  Ir  Ir14  1  0.245926  0.742127  0.496201  1
  Ir  Ir15  1  0.500000  0.757991  0.257991  1
  Ir  Ir16  1  0.000000  0.966042  0.966042  1
