# generated using pymatgen
data_Tm3Pa(SiRu)4
_symmetry_space_group_name_H-M   'P 1'
_cell_length_a   4.35052000
_cell_length_b   6.90236665
_cell_length_c   7.09382260
_cell_angle_alpha   89.55770503
_cell_angle_beta   90.00000000
_cell_angle_gamma   90.00000000
_symmetry_Int_Tables_number   1
_chemical_formula_structural   Tm3Pa(SiRu)4
_chemical_formula_sum   'Tm3 Pa1 Si4 Ru4'
_cell_volume   213.01323011
_cell_formula_units_Z   1
loop_
 _symmetry_equiv_pos_site_id
 _symmetry_equiv_pos_as_xyz
  1  'x, y, z'
loop_
 _atom_site_type_symbol
 _atom_site_label
 _atom_site_symmetry_multiplicity
 _atom_site_fract_x
 _atom_site_fract_y
 _atom_site_fract_z
 _atom_site_occupancy
  Tm  Tm0  1  0.750000  0.013177  0.189878  1
  Tm  Tm1  1  0.250000  0.487121  0.685230  1
  Tm  Tm2  1  0.750000  0.517156  0.309664  1
  Pa  Pa3  1  0.250000  0.982081  0.808481  1
  Si  Si4  1  0.250000  0.300829  0.108932  1
  Si  Si5  1  0.750000  0.690565  0.890339  1
  Si  Si6  1  0.250000  0.798722  0.387734  1
  Si  Si7  1  0.750000  0.209852  0.604156  1
  Ru  Ru8  1  0.750000  0.849821  0.572723  1
  Ru  Ru9  1  0.250000  0.148062  0.446090  1
  Ru  Ru10  1  0.750000  0.340771  0.938194  1
  Ru  Ru11  1  0.250000  0.661842  0.058579  1
