# generated using pymatgen
data_Tb12Th4MgTl2HgRu4
_symmetry_space_group_name_H-M   'P 1'
_cell_length_a   9.70521458
_cell_length_b   9.74603914
_cell_length_c   9.74603800
_cell_angle_alpha   59.99999708
_cell_angle_beta   59.86075080
_cell_angle_gamma   59.86075099
_symmetry_Int_Tables_number   1
_chemical_formula_structural   Tb12Th4MgTl2HgRu4
_chemical_formula_sum   'Tb12 Th4 Mg1 Tl2 Hg1 Ru4'
_cell_volume   650.47272589
_cell_formula_units_Z   1
loop_
 _symmetry_equiv_pos_site_id
 _symmetry_equiv_pos_as_xyz
  1  'x, y, z'
loop_
 _atom_site_type_symbol
 _atom_site_label
 _atom_site_symmetry_multiplicity
 _atom_site_fract_x
 _atom_site_fract_y
 _atom_site_fract_z
 _atom_site_occupancy
  Tb  Tb0  1  0.060261  0.439321  0.439626  1
  Tb  Tb1  1  0.436474  0.062349  0.062684  1
  Tb  Tb2  1  0.436474  0.062349  0.438493  1
  Tb  Tb3  1  0.060261  0.439321  0.060793  1
  Tb  Tb4  1  0.436455  0.438304  0.062621  1
  Tb  Tb5  1  0.060290  0.060957  0.439377  1
  Tb  Tb6  1  0.187430  0.813730  0.813062  1
  Tb  Tb7  1  0.812642  0.190280  0.184719  1
  Tb  Tb8  1  0.812642  0.190280  0.812357  1
  Tb  Tb9  1  0.187430  0.813730  0.185778  1
  Tb  Tb10  1  0.812348  0.812415  0.187618  1
  Tb  Tb11  1  0.185258  0.187042  0.813850  1
  Th  Th12  1  0.598016  0.597086  0.596607  1
  Th  Th13  1  0.598016  0.597086  0.208293  1
  Th  Th14  1  0.597059  0.209212  0.596865  1
  Th  Th15  1  0.203561  0.597893  0.599273  1
  Mg  Mg16  1  0.527502  0.822712  0.824892  1
  Tl  Tl17  1  0.831690  0.835953  0.837239  1
  Tl  Tl18  1  0.831690  0.835953  0.495117  1
  Hg  Hg19  1  0.831614  0.492063  0.838161  1
  Ru  Ru20  1  0.391984  0.394473  0.394330  1
  Ru  Ru21  1  0.391984  0.394473  0.819214  1
  Ru  Ru22  1  0.391816  0.818957  0.394614  1
  Ru  Ru23  1  0.817106  0.394059  0.394418  1
