# generated using pymatgen
data_Ce4Zn(InAu5)2
_symmetry_space_group_name_H-M   'P 1'
_cell_length_a   8.53547000
_cell_length_b   8.53547042
_cell_length_c   10.20538400
_cell_angle_alpha   90.00000000
_cell_angle_beta   90.00000000
_cell_angle_gamma   107.33073080
_symmetry_Int_Tables_number   1
_chemical_formula_structural   Ce4Zn(InAu5)2
_chemical_formula_sum   'Ce8 Zn2 In4 Au20'
_cell_volume   709.75132538
_cell_formula_units_Z   2
loop_
 _symmetry_equiv_pos_site_id
 _symmetry_equiv_pos_as_xyz
  1  'x, y, z'
loop_
 _atom_site_type_symbol
 _atom_site_label
 _atom_site_symmetry_multiplicity
 _atom_site_fract_x
 _atom_site_fract_y
 _atom_site_fract_z
 _atom_site_occupancy
  Ce  Ce0  1  0.698510  0.301490  0.000000  1
  Ce  Ce1  1  0.198510  0.801490  0.500000  1
  Ce  Ce2  1  0.800668  0.800668  0.297201  1
  Ce  Ce3  1  0.300668  0.300668  0.202799  1
  Ce  Ce4  1  0.801490  0.198510  0.500000  1
  Ce  Ce5  1  0.301490  0.698510  0.000000  1
  Ce  Ce6  1  0.699332  0.699332  0.797201  1
  Ce  Ce7  1  0.199332  0.199332  0.702799  1
  Zn  Zn8  1  0.000000  0.000000  0.000000  1
  Zn  Zn9  1  0.500000  0.500000  0.500000  1
  In  In10  1  0.514752  0.014752  0.250000  1
  In  In11  1  0.985248  0.485248  0.750000  1
  In  In12  1  0.014752  0.514752  0.250000  1
  In  In13  1  0.485248  0.985248  0.750000  1
  Au  Au14  1  0.162694  0.431854  0.480927  1
  Au  Au15  1  0.904280  0.904280  0.594467  1
  Au  Au16  1  0.568146  0.837306  0.519073  1
  Au  Au17  1  0.889976  0.159144  0.202588  1
  Au  Au18  1  0.389976  0.659144  0.297412  1
  Au  Au19  1  0.659144  0.389976  0.297412  1
  Au  Au20  1  0.404280  0.404280  0.905533  1
  Au  Au21  1  0.931854  0.662694  0.019073  1
  Au  Au22  1  0.340856  0.610024  0.702588  1
  Au  Au23  1  0.337306  0.068146  0.980927  1
  Au  Au24  1  0.595720  0.595720  0.094467  1
  Au  Au25  1  0.662694  0.931854  0.019073  1
  Au  Au26  1  0.095720  0.095720  0.405533  1
  Au  Au27  1  0.610024  0.340856  0.702588  1
  Au  Au28  1  0.110024  0.840856  0.797412  1
  Au  Au29  1  0.068146  0.337306  0.980927  1
  Au  Au30  1  0.837306  0.568146  0.519073  1
  Au  Au31  1  0.159144  0.889976  0.202588  1
  Au  Au32  1  0.431854  0.162694  0.480927  1
  Au  Au33  1  0.840856  0.110024  0.797412  1
