# generated using pymatgen
data_CeNd4Sn15Ir8
_symmetry_space_group_name_H-M   'P 1'
_cell_length_a   4.52096100
_cell_length_b   7.33633002
_cell_length_c   18.73438902
_cell_angle_alpha   90.17439512
_cell_angle_beta   90.00000000
_cell_angle_gamma   90.00000000
_symmetry_Int_Tables_number   1
_chemical_formula_structural   CeNd4Sn15Ir8
_chemical_formula_sum   'Ce1 Nd4 Sn15 Ir8'
_cell_volume   621.36550860
_cell_formula_units_Z   1
loop_
 _symmetry_equiv_pos_site_id
 _symmetry_equiv_pos_as_xyz
  1  'x, y, z'
loop_
 _atom_site_type_symbol
 _atom_site_label
 _atom_site_symmetry_multiplicity
 _atom_site_fract_x
 _atom_site_fract_y
 _atom_site_fract_z
 _atom_site_occupancy
  Ce  Ce0  1  0.000000  0.991262  0.141082  1
  Nd  Nd1  1  0.500000  0.004039  0.856818  1
  Nd  Nd2  1  0.500000  0.498651  0.357828  1
  Nd  Nd3  1  0.000000  0.499854  0.641852  1
  Nd  Nd4  1  0.500000  0.493891  0.930976  1
  Sn  Sn5  1  0.000000  0.720191  0.805892  1
  Sn  Sn6  1  0.000000  0.778347  0.306888  1
  Sn  Sn7  1  0.500000  0.272239  0.192848  1
  Sn  Sn8  1  0.500000  0.219261  0.692694  1
  Sn  Sn9  1  0.000000  0.853274  0.968907  1
  Sn  Sn10  1  0.000000  0.631739  0.467629  1
  Sn  Sn11  1  0.500000  0.138099  0.032891  1
  Sn  Sn12  1  0.500000  0.367383  0.531765  1
  Sn  Sn13  1  0.000000  0.304562  0.819135  1
  Sn  Sn14  1  0.000000  0.199604  0.317283  1
  Sn  Sn15  1  0.500000  0.695955  0.187359  1
  Sn  Sn16  1  0.500000  0.806783  0.678431  1
  Sn  Sn17  1  0.500000  0.021617  0.433016  1
  Sn  Sn18  1  0.000000  0.514943  0.067671  1
  Sn  Sn19  1  0.000000  0.980748  0.567633  1
  Ir  Ir20  1  0.000000  0.229368  0.965285  1
  Ir  Ir21  1  0.000000  0.248843  0.464290  1
  Ir  Ir22  1  0.500000  0.769345  0.046915  1
  Ir  Ir23  1  0.500000  0.751322  0.533219  1
  Ir  Ir24  1  0.000000  0.018539  0.715714  1
  Ir  Ir25  1  0.000000  0.482060  0.214312  1
  Ir  Ir26  1  0.500000  0.985573  0.288117  1
  Ir  Ir27  1  0.500000  0.522502  0.773554  1
