# generated using pymatgen
data_Er10Tl3In(HgPd)4
_symmetry_space_group_name_H-M   'P 1'
_cell_length_a   3.60525000
_cell_length_b   8.02480944
_cell_length_c   18.27672441
_cell_angle_alpha   89.93061598
_cell_angle_beta   90.00000000
_cell_angle_gamma   90.00000000
_symmetry_Int_Tables_number   1
_chemical_formula_structural   Er10Tl3In(HgPd)4
_chemical_formula_sum   'Er10 Tl3 In1 Hg4 Pd4'
_cell_volume   528.77164566
_cell_formula_units_Z   1
loop_
 _symmetry_equiv_pos_site_id
 _symmetry_equiv_pos_as_xyz
  1  'x, y, z'
loop_
 _atom_site_type_symbol
 _atom_site_label
 _atom_site_symmetry_multiplicity
 _atom_site_fract_x
 _atom_site_fract_y
 _atom_site_fract_z
 _atom_site_occupancy
  Er  Er0  1  0.000000  0.500262  0.500149  1
  Er  Er1  1  0.000000  0.000330  0.999193  1
  Er  Er2  1  0.000000  0.743056  0.284315  1
  Er  Er3  1  0.000000  0.256799  0.716093  1
  Er  Er4  1  0.000000  0.756475  0.784386  1
  Er  Er5  1  0.000000  0.242780  0.215740  1
  Er  Er6  1  0.000000  0.608181  0.083602  1
  Er  Er7  1  0.000000  0.391116  0.916532  1
  Er  Er8  1  0.000000  0.892634  0.584048  1
  Er  Er9  1  0.000000  0.107744  0.416485  1
  Tl  Tl10  1  0.500000  0.582008  0.647840  1
  Tl  Tl11  1  0.500000  0.418000  0.352279  1
  Tl  Tl12  1  0.500000  0.918081  0.147746  1
  In  In13  1  0.500000  0.081928  0.851031  1
  Hg  Hg14  1  0.500000  0.713610  0.933337  1
  Hg  Hg15  1  0.500000  0.289411  0.065315  1
  Hg  Hg16  1  0.500000  0.789381  0.434407  1
  Hg  Hg17  1  0.500000  0.210614  0.565742  1
  Pd  Pd18  1  0.500000  0.528243  0.196662  1
  Pd  Pd19  1  0.500000  0.468462  0.803532  1
  Pd  Pd20  1  0.500000  0.972748  0.698224  1
  Pd  Pd21  1  0.500000  0.028136  0.303343  1
