# generated using pymatgen
data_Er12InCo4Pt
_symmetry_space_group_name_H-M   'P 1'
_cell_length_a   8.24494281
_cell_length_b   8.24494226
_cell_length_c   8.24494314
_cell_angle_alpha   111.02914840
_cell_angle_beta   110.75441594
_cell_angle_gamma   106.66611902
_symmetry_Int_Tables_number   1
_chemical_formula_structural   Er12InCo4Pt
_chemical_formula_sum   'Er12 In1 Co4 Pt1'
_cell_volume   430.68704928
_cell_formula_units_Z   1
loop_
 _symmetry_equiv_pos_site_id
 _symmetry_equiv_pos_as_xyz
  1  'x, y, z'
loop_
 _atom_site_type_symbol
 _atom_site_label
 _atom_site_symmetry_multiplicity
 _atom_site_fract_x
 _atom_site_fract_y
 _atom_site_fract_z
 _atom_site_occupancy
  Er  Er0  1  0.185212  0.289265  0.474477  1
  Er  Er1  1  0.814788  0.710735  0.525523  1
  Er  Er2  1  0.185212  0.710735  0.895947  1
  Er  Er3  1  0.814788  0.289265  0.104053  1
  Er  Er4  1  0.315594  0.620676  0.305082  1
  Er  Er5  1  0.684406  0.379324  0.694918  1
  Er  Er6  1  0.315594  0.010513  0.694918  1
  Er  Er7  1  0.684406  0.989487  0.305082  1
  Er  Er8  1  0.415514  0.217430  0.198084  1
  Er  Er9  1  0.584486  0.782570  0.801916  1
  Er  Er10  1  0.019346  0.217430  0.801916  1
  Er  Er11  1  0.980654  0.782570  0.198084  1
  In  In12  1  0.500000  0.500000  0.000000  1
  Co  Co13  1  0.112127  0.612127  0.500000  1
  Co  Co14  1  0.887873  0.387873  0.500000  1
  Co  Co15  1  0.377725  0.000000  0.377725  1
  Co  Co16  1  0.622275  0.000000  0.622275  1
  Pt  Pt17  1  0.000000  0.000000  0.000000  1
