# generated using pymatgen
data_TmMg3P7N12
_symmetry_space_group_name_H-M   'P 1'
_cell_length_a   7.31038923
_cell_length_b   7.31039018
_cell_length_c   7.31038952
_cell_angle_alpha   109.50813237
_cell_angle_beta   109.50813303
_cell_angle_gamma   109.50811841
_symmetry_Int_Tables_number   1
_chemical_formula_structural   TmMg3P7N12
_chemical_formula_sum   'Tm1 Mg3 P7 N12'
_cell_volume   300.33421990
_cell_formula_units_Z   1
loop_
 _symmetry_equiv_pos_site_id
 _symmetry_equiv_pos_as_xyz
  1  'x, y, z'
loop_
 _atom_site_type_symbol
 _atom_site_label
 _atom_site_symmetry_multiplicity
 _atom_site_fract_x
 _atom_site_fract_y
 _atom_site_fract_z
 _atom_site_occupancy
  Tm  Tm0  1  0.335505  0.335505  0.335505  1
  Mg  Mg1  1  0.001212  0.656002  0.001212  1
  Mg  Mg2  1  0.656002  0.001212  0.001212  1
  Mg  Mg3  1  0.001212  0.001212  0.656002  1
  P  P4  1  0.503316  0.250678  0.755000  1
  P  P5  1  0.503316  0.755000  0.250678  1
  P  P6  1  0.755000  0.250678  0.503316  1
  P  P7  1  0.250678  0.503316  0.755000  1
  P  P8  1  0.755000  0.503316  0.250678  1
  P  P9  1  0.250678  0.755000  0.503316  1
  P  P10  1  0.978150  0.978150  0.978150  1
  N  N11  1  0.001749  0.725961  0.433337  1
  N  N12  1  0.279952  0.704406  0.279952  1
  N  N13  1  0.282243  0.570642  0.570642  1
  N  N14  1  0.570642  0.570642  0.282243  1
  N  N15  1  0.570642  0.282243  0.570642  1
  N  N16  1  0.725961  0.001749  0.433337  1
  N  N17  1  0.433337  0.001749  0.725961  1
  N  N18  1  0.725961  0.433337  0.001749  1
  N  N19  1  0.279952  0.279952  0.704406  1
  N  N20  1  0.704406  0.279952  0.279952  1
  N  N21  1  0.001749  0.433337  0.725961  1
  N  N22  1  0.433337  0.725961  0.001749  1
