# generated using pymatgen
data_Sm2Dy3Ti2Nb(Co4P3)4
_symmetry_space_group_name_H-M   'P 1'
_cell_length_a   12.21134700
_cell_length_b   12.21134700
_cell_length_c   3.70867500
_cell_angle_alpha   90.00000000
_cell_angle_beta   90.00000000
_cell_angle_gamma   119.99999730
_symmetry_Int_Tables_number   1
_chemical_formula_structural   Sm2Dy3Ti2Nb(Co4P3)4
_chemical_formula_sum   'Sm2 Dy3 Ti2 Nb1 Co16 P12'
_cell_volume   478.93498785
_cell_formula_units_Z   1
loop_
 _symmetry_equiv_pos_site_id
 _symmetry_equiv_pos_as_xyz
  1  'x, y, z'
loop_
 _atom_site_type_symbol
 _atom_site_label
 _atom_site_symmetry_multiplicity
 _atom_site_fract_x
 _atom_site_fract_y
 _atom_site_fract_z
 _atom_site_occupancy
  Sm  Sm0  1  0.332816  0.666449  0.000000  1
  Sm  Sm1  1  0.666449  0.332816  0.000000  1
  Dy  Dy2  1  0.815748  0.000510  0.500000  1
  Dy  Dy3  1  0.000510  0.815748  0.500000  1
  Dy  Dy4  1  0.183535  0.183535  0.500000  1
  Ti  Ti5  1  0.440078  0.999825  0.000000  1
  Ti  Ti6  1  0.999825  0.440078  0.000000  1
  Nb  Nb7  1  0.556909  0.556909  0.000000  1
  Co  Co8  1  0.280479  0.000195  0.500000  1
  Co  Co9  1  0.000195  0.280479  0.500000  1
  Co  Co10  1  0.721870  0.721870  0.500000  1
  Co  Co11  1  0.627163  0.804043  0.000000  1
  Co  Co12  1  0.197792  0.823692  0.000000  1
  Co  Co13  1  0.176050  0.374039  0.000000  1
  Co  Co14  1  0.374039  0.176050  0.000000  1
  Co  Co15  1  0.804043  0.627163  0.000000  1
  Co  Co16  1  0.823692  0.197792  0.000000  1
  Co  Co17  1  0.520692  0.876287  0.500000  1
  Co  Co18  1  0.123525  0.644714  0.500000  1
  Co  Co19  1  0.353670  0.478782  0.500000  1
  Co  Co20  1  0.478782  0.353670  0.500000  1
  Co  Co21  1  0.876287  0.520692  0.500000  1
  Co  Co22  1  0.644714  0.123525  0.500000  1
  Co  Co23  1  0.000412  0.000412  0.000000  1
  P  P24  1  0.178662  0.999837  0.000000  1
  P  P25  1  0.999837  0.178662  0.000000  1
  P  P26  1  0.822166  0.822166  0.000000  1
  P  P27  1  0.522957  0.690397  0.500000  1
  P  P28  1  0.311705  0.834703  0.500000  1
  P  P29  1  0.164844  0.477524  0.500000  1
  P  P30  1  0.477524  0.164844  0.500000  1
  P  P31  1  0.690397  0.522957  0.500000  1
  P  P32  1  0.834703  0.311705  0.500000  1
  P  P33  1  0.641607  0.000614  0.000000  1
  P  P34  1  0.000614  0.641607  0.000000  1
  P  P35  1  0.355706  0.355706  0.000000  1
