# generated using pymatgen
data_Pr4IrPd5O19
_symmetry_space_group_name_H-M   'P 1'
_cell_length_a   7.86153100
_cell_length_b   7.80638436
_cell_length_c   7.86153027
_cell_angle_alpha   109.87530683
_cell_angle_beta   109.74445566
_cell_angle_gamma   109.07938642
_symmetry_Int_Tables_number   1
_chemical_formula_structural   Pr4IrPd5O19
_chemical_formula_sum   'Pr4 Ir1 Pd5 O19'
_cell_volume   370.07062003
_cell_formula_units_Z   1
loop_
 _symmetry_equiv_pos_site_id
 _symmetry_equiv_pos_as_xyz
  1  'x, y, z'
loop_
 _atom_site_type_symbol
 _atom_site_label
 _atom_site_symmetry_multiplicity
 _atom_site_fract_x
 _atom_site_fract_y
 _atom_site_fract_z
 _atom_site_occupancy
  Pr  Pr0  1  0.012862  0.019422  0.328894  1
  Pr  Pr1  1  0.000643  0.319892  0.996150  1
  Pr  Pr2  1  0.676258  0.680108  0.680752  1
  Pr  Pr3  1  0.309472  0.980578  0.993441  1
  Ir  Ir4  1  0.659814  0.500000  0.159814  1
  Pd  Pd5  1  0.338438  0.500000  0.838438  1
  Pd  Pd6  1  0.840908  0.339820  0.498973  1
  Pd  Pd7  1  0.501618  0.161907  0.659023  1
  Pd  Pd8  1  0.159153  0.660180  0.501087  1
  Pd  Pd9  1  0.497116  0.838093  0.339711  1
  O  O10  1  0.340813  0.000000  0.340813  1
  O  O11  1  0.350783  0.344407  0.003307  1
  O  O12  1  0.997632  0.663430  0.661351  1
  O  O13  1  0.658901  0.655593  0.006377  1
  O  O14  1  0.997921  0.336570  0.334202  1
  O  O15  1  0.663370  0.000000  0.663370  1
  O  O16  1  0.001128  0.000000  0.001128  1
  O  O17  1  0.367817  0.331431  0.604618  1
  O  O18  1  0.038483  0.279518  0.671328  1
  O  O19  1  0.757794  0.395077  0.718073  1
  O  O20  1  0.391810  0.720482  0.758964  1
  O  O21  1  0.247140  0.967884  0.641851  1
  O  O22  1  0.609522  0.356677  0.312838  1
  O  O23  1  0.322996  0.604923  0.362717  1
  O  O24  1  0.673966  0.032116  0.279254  1
  O  O25  1  0.956160  0.643323  0.252845  1
  O  O26  1  0.703874  0.737079  0.387502  1
  O  O27  1  0.650423  0.262921  0.966793  1
  O  O28  1  0.273186  0.668569  0.036386  1
