# generated using pymatgen
data_Tm6AlNiOs
_symmetry_space_group_name_H-M   'P 1'
_cell_length_a   8.25428892
_cell_length_b   8.25428974
_cell_length_c   8.25428970
_cell_angle_alpha   112.96213051
_cell_angle_beta   111.00006422
_cell_angle_gamma   104.56678019
_symmetry_Int_Tables_number   1
_chemical_formula_structural   Tm6AlNiOs
_chemical_formula_sum   'Tm12 Al2 Ni2 Os2'
_cell_volume   430.43890582
_cell_formula_units_Z   2
loop_
 _symmetry_equiv_pos_site_id
 _symmetry_equiv_pos_as_xyz
  1  'x, y, z'
loop_
 _atom_site_type_symbol
 _atom_site_label
 _atom_site_symmetry_multiplicity
 _atom_site_fract_x
 _atom_site_fract_y
 _atom_site_fract_z
 _atom_site_occupancy
  Tm  Tm0  1  0.436779  0.242618  0.194161  1
  Tm  Tm1  1  0.563221  0.757382  0.805839  1
  Tm  Tm2  1  0.048457  0.242618  0.805839  1
  Tm  Tm3  1  0.951543  0.757382  0.194161  1
  Tm  Tm4  1  0.181771  0.280388  0.462158  1
  Tm  Tm5  1  0.818229  0.719612  0.537842  1
  Tm  Tm6  1  0.181771  0.719612  0.901383  1
  Tm  Tm7  1  0.818229  0.280388  0.098617  1
  Tm  Tm8  1  0.329698  0.641829  0.312133  1
  Tm  Tm9  1  0.670302  0.358171  0.687867  1
  Tm  Tm10  1  0.329698  0.017564  0.687867  1
  Tm  Tm11  1  0.670302  0.982436  0.312133  1
  Al  Al12  1  0.500000  0.500000  0.000000  1
  Al  Al13  1  0.000000  0.000000  0.000000  1
  Ni  Ni14  1  0.117651  0.617651  0.500000  1
  Ni  Ni15  1  0.882349  0.382349  0.500000  1
  Os  Os16  1  0.325069  0.000000  0.325069  1
  Os  Os17  1  0.674931  0.000000  0.674931  1
