# generated using pymatgen
data_HoSc(Tc2Ge)4
_symmetry_space_group_name_H-M   'P 1'
_cell_length_a   7.33525776
_cell_length_b   7.33525776
_cell_length_c   4.26129800
_cell_angle_alpha   90.00000000
_cell_angle_beta   90.00000000
_cell_angle_gamma   88.57550047
_symmetry_Int_Tables_number   1
_chemical_formula_structural   HoSc(Tc2Ge)4
_chemical_formula_sum   'Ho1 Sc1 Tc8 Ge4'
_cell_volume   229.21256773
_cell_formula_units_Z   1
loop_
 _symmetry_equiv_pos_site_id
 _symmetry_equiv_pos_as_xyz
  1  'x, y, z'
loop_
 _atom_site_type_symbol
 _atom_site_label
 _atom_site_symmetry_multiplicity
 _atom_site_fract_x
 _atom_site_fract_y
 _atom_site_fract_z
 _atom_site_occupancy
  Ho  Ho0  1  0.500000  0.500000  0.500000  1
  Sc  Sc1  1  0.000000  0.000000  0.000000  1
  Tc  Tc2  1  0.605660  0.145100  0.000000  1
  Tc  Tc3  1  0.394340  0.854900  0.000000  1
  Tc  Tc4  1  0.652610  0.903113  0.500000  1
  Tc  Tc5  1  0.096887  0.347390  0.500000  1
  Tc  Tc6  1  0.347390  0.096887  0.500000  1
  Tc  Tc7  1  0.903113  0.652610  0.500000  1
  Tc  Tc8  1  0.145100  0.605660  0.000000  1
  Tc  Tc9  1  0.854900  0.394340  0.000000  1
  Ge  Ge10  1  0.290217  0.290217  0.000000  1
  Ge  Ge11  1  0.709783  0.709783  0.000000  1
  Ge  Ge12  1  0.800254  0.199746  0.500000  1
  Ge  Ge13  1  0.199746  0.800254  0.500000  1
