# generated using pymatgen
data_La10CoSn4Ru
_symmetry_space_group_name_H-M   'P 1'
_cell_length_a   8.41704500
_cell_length_b   9.18356100
_cell_length_c   12.83139200
_cell_angle_alpha   90.00000000
_cell_angle_beta   90.00000000
_cell_angle_gamma   90.00000000
_symmetry_Int_Tables_number   1
_chemical_formula_structural   La10CoSn4Ru
_chemical_formula_sum   'La20 Co2 Sn8 Ru2'
_cell_volume   991.84666415
_cell_formula_units_Z   2
loop_
 _symmetry_equiv_pos_site_id
 _symmetry_equiv_pos_as_xyz
  1  'x, y, z'
loop_
 _atom_site_type_symbol
 _atom_site_label
 _atom_site_symmetry_multiplicity
 _atom_site_fract_x
 _atom_site_fract_y
 _atom_site_fract_z
 _atom_site_occupancy
  La  La0  1  0.319787  0.528246  0.433918  1
  La  La1  1  0.872792  0.250000  0.803209  1
  La  La2  1  0.180213  0.528246  0.933918  1
  La  La3  1  0.319787  0.971754  0.433918  1
  La  La4  1  0.123420  0.750000  0.196008  1
  La  La5  1  0.843993  0.750000  0.792802  1
  La  La6  1  0.376580  0.750000  0.696008  1
  La  La7  1  0.951012  0.750000  0.501812  1
  La  La8  1  0.443396  0.250000  0.997907  1
  La  La9  1  0.677771  0.465787  0.566903  1
  La  La10  1  0.822229  0.034213  0.066903  1
  La  La11  1  0.656007  0.750000  0.292802  1
  La  La12  1  0.548988  0.750000  0.001812  1
  La  La13  1  0.056604  0.250000  0.497907  1
  La  La14  1  0.677771  0.034213  0.566903  1
  La  La15  1  0.180213  0.971754  0.933918  1
  La  La16  1  0.627208  0.250000  0.303209  1
  La  La17  1  0.344845  0.250000  0.702808  1
  La  La18  1  0.822229  0.465787  0.066903  1
  La  La19  1  0.155155  0.250000  0.202808  1
  Co  Co20  1  0.082833  0.250000  0.985150  1
  Co  Co21  1  0.417167  0.250000  0.485150  1
  Sn  Sn22  1  0.929992  0.492143  0.328344  1
  Sn  Sn23  1  0.430772  0.506088  0.172510  1
  Sn  Sn24  1  0.430772  0.993912  0.172510  1
  Sn  Sn25  1  0.570008  0.492143  0.828344  1
  Sn  Sn26  1  0.069228  0.506088  0.672510  1
  Sn  Sn27  1  0.570008  0.007857  0.828344  1
  Sn  Sn28  1  0.929992  0.007857  0.328344  1
  Sn  Sn29  1  0.069228  0.993912  0.672510  1
  Ru  Ru30  1  0.916535  0.750000  0.016955  1
  Ru  Ru31  1  0.583465  0.750000  0.516955  1
