# generated using pymatgen
data_Li5Ti6NbIr12
_symmetry_space_group_name_H-M   'P 1'
_cell_length_a   4.33002400
_cell_length_b   6.07144200
_cell_length_c   12.95109500
_cell_angle_alpha   90.00000000
_cell_angle_beta   89.99704480
_cell_angle_gamma   90.00000000
_symmetry_Int_Tables_number   1
_chemical_formula_structural   Li5Ti6NbIr12
_chemical_formula_sum   'Li5 Ti6 Nb1 Ir12'
_cell_volume   340.47767676
_cell_formula_units_Z   1
loop_
 _symmetry_equiv_pos_site_id
 _symmetry_equiv_pos_as_xyz
  1  'x, y, z'
loop_
 _atom_site_type_symbol
 _atom_site_label
 _atom_site_symmetry_multiplicity
 _atom_site_fract_x
 _atom_site_fract_y
 _atom_site_fract_z
 _atom_site_occupancy
  Li  Li0  1  0.499562  0.500000  0.168296  1
  Li  Li1  1  0.999596  0.000000  0.334518  1
  Li  Li2  1  0.499998  0.500000  0.500002  1
  Li  Li3  1  0.000405  0.000000  0.665481  1
  Li  Li4  1  0.500438  0.500000  0.831702  1
  Ti  Ti5  1  0.000000  0.500000  0.000000  1
  Ti  Ti6  1  0.499679  0.000000  0.178769  1
  Ti  Ti7  1  0.999609  0.500000  0.340128  1
  Ti  Ti8  1  0.499998  0.000000  0.499999  1
  Ti  Ti9  1  0.000390  0.500000  0.659871  1
  Ti  Ti10  1  0.500322  0.000000  0.821232  1
  Nb  Nb11  1  0.000001  0.000000  0.000004  1
  Ir  Ir12  1  0.499999  0.253160  0.000000  1
  Ir  Ir13  1  0.499999  0.746840  0.000000  1
  Ir  Ir14  1  0.999638  0.253745  0.168514  1
  Ir  Ir15  1  0.999638  0.746254  0.168514  1
  Ir  Ir16  1  0.499609  0.253031  0.334504  1
  Ir  Ir17  1  0.499609  0.746970  0.334504  1
  Ir  Ir18  1  0.000000  0.247628  0.500001  1
  Ir  Ir19  1  0.000000  0.752371  0.500001  1
  Ir  Ir20  1  0.500389  0.253034  0.665495  1
  Ir  Ir21  1  0.500389  0.746967  0.665495  1
  Ir  Ir22  1  0.000361  0.253746  0.831484  1
  Ir  Ir23  1  0.000361  0.746253  0.831484  1
