# generated using pymatgen
data_YHo2In3HgIr2
_symmetry_space_group_name_H-M   'P 1'
_cell_length_a   7.79381800
_cell_length_b   7.78600871
_cell_length_c   3.86520700
_cell_angle_alpha   90.00000000
_cell_angle_beta   90.00000000
_cell_angle_gamma   120.03188275
_symmetry_Int_Tables_number   1
_chemical_formula_structural   YHo2In3HgIr2
_chemical_formula_sum   'Y1 Ho2 In3 Hg1 Ir2'
_cell_volume   203.06212108
_cell_formula_units_Z   1
loop_
 _symmetry_equiv_pos_site_id
 _symmetry_equiv_pos_as_xyz
  1  'x, y, z'
loop_
 _atom_site_type_symbol
 _atom_site_label
 _atom_site_symmetry_multiplicity
 _atom_site_fract_x
 _atom_site_fract_y
 _atom_site_fract_z
 _atom_site_occupancy
  Y  Y0  1  0.585123  0.614704  0.000000  1
  Ho  Ho1  1  0.384578  0.969378  0.000000  1
  Ho  Ho2  1  0.030567  0.415245  0.000000  1
  In  In3  1  0.002435  0.745215  0.500000  1
  In  In4  1  0.254666  0.256985  0.500000  1
  In  In5  1  0.742966  0.997909  0.500000  1
  Hg  Hg6  1  0.666804  0.332976  0.500000  1
  Ir  Ir7  1  0.000694  0.000661  0.000000  1
  Ir  Ir8  1  0.332167  0.666928  0.500000  1
