# generated using pymatgen
data_Tb2Ho6Hf11Si16Pd
_symmetry_space_group_name_H-M   'P 1'
_cell_length_a   7.27630365
_cell_length_b   7.27606634
_cell_length_c   13.23864801
_cell_angle_alpha   89.79963366
_cell_angle_beta   90.19723049
_cell_angle_gamma   89.90111776
_symmetry_Int_Tables_number   1
_chemical_formula_structural   Tb2Ho6Hf11Si16Pd
_chemical_formula_sum   'Tb2 Ho6 Hf11 Si16 Pd1'
_cell_volume   700.88249801
_cell_formula_units_Z   1
loop_
 _symmetry_equiv_pos_site_id
 _symmetry_equiv_pos_as_xyz
  1  'x, y, z'
loop_
 _atom_site_type_symbol
 _atom_site_label
 _atom_site_symmetry_multiplicity
 _atom_site_fract_x
 _atom_site_fract_y
 _atom_site_fract_z
 _atom_site_occupancy
  Tb  Tb0  1  0.346289  0.996706  0.789494  1
  Tb  Tb1  1  0.652655  0.006419  0.283215  1
  Ho  Ho2  1  0.997001  0.346908  0.210791  1
  Ho  Ho3  1  0.005769  0.652472  0.716612  1
  Ho  Ho4  1  0.154977  0.495683  0.464482  1
  Ho  Ho5  1  0.498832  0.848431  0.032885  1
  Ho  Ho6  1  0.848597  0.498717  0.967233  1
  Ho  Ho7  1  0.495378  0.155154  0.535502  1
  Hf  Hf8  1  0.824820  0.824638  0.500033  1
  Hf  Hf9  1  0.321434  0.677915  0.248437  1
  Hf  Hf10  1  0.678320  0.321908  0.751447  1
  Hf  Hf11  1  0.145359  0.997590  0.373495  1
  Hf  Hf12  1  0.856751  0.002514  0.879264  1
  Hf  Hf13  1  0.504010  0.645556  0.626355  1
  Hf  Hf14  1  0.356082  0.493165  0.877522  1
  Hf  Hf15  1  0.493487  0.355741  0.122362  1
  Hf  Hf16  1  0.645400  0.503841  0.373706  1
  Hf  Hf17  1  0.997669  0.145570  0.626579  1
  Hf  Hf18  1  0.002625  0.855996  0.120476  1
  Si  Si19  1  0.356982  0.297527  0.315605  1
  Si  Si20  1  0.642083  0.703593  0.819862  1
  Si  Si21  1  0.207211  0.860249  0.568744  1
  Si  Si22  1  0.133605  0.778733  0.928355  1
  Si  Si23  1  0.780980  0.134375  0.071496  1
  Si  Si24  1  0.860769  0.208007  0.431659  1
  Si  Si25  1  0.296524  0.358595  0.684032  1
  Si  Si26  1  0.704421  0.640711  0.179902  1
  Si  Si27  1  0.290920  0.056679  0.184525  1
  Si  Si28  1  0.705923  0.949271  0.686768  1
  Si  Si29  1  0.449252  0.796452  0.435447  1
  Si  Si30  1  0.208147  0.559891  0.063519  1
  Si  Si31  1  0.561531  0.208545  0.936651  1
  Si  Si32  1  0.796891  0.450069  0.564785  1
  Si  Si33  1  0.055880  0.292586  0.815112  1
  Si  Si34  1  0.949705  0.705038  0.313056  1
  Pd  Pd35  1  0.173722  0.174752  0.000591  1
