# generated using pymatgen
data_LaZnNi2BIr
_symmetry_space_group_name_H-M   'P 1'
_cell_length_a   5.41955065
_cell_length_b   5.41955102
_cell_length_c   7.04525600
_cell_angle_alpha   90.00000000
_cell_angle_beta   90.00000000
_cell_angle_gamma   122.45475129
_symmetry_Int_Tables_number   1
_chemical_formula_structural   LaZnNi2BIr
_chemical_formula_sum   'La2 Zn2 Ni4 B2 Ir2'
_cell_volume   174.61070680
_cell_formula_units_Z   2
loop_
 _symmetry_equiv_pos_site_id
 _symmetry_equiv_pos_as_xyz
  1  'x, y, z'
loop_
 _atom_site_type_symbol
 _atom_site_label
 _atom_site_symmetry_multiplicity
 _atom_site_fract_x
 _atom_site_fract_y
 _atom_site_fract_z
 _atom_site_occupancy
  La  La0  1  0.000000  0.000000  0.500000  1
  La  La1  1  0.000000  0.000000  0.000000  1
  Zn  Zn2  1  0.320659  0.679341  0.000000  1
  Zn  Zn3  1  0.679341  0.320659  0.000000  1
  Ni  Ni4  1  0.500000  0.000000  0.302007  1
  Ni  Ni5  1  0.000000  0.500000  0.302007  1
  Ni  Ni6  1  0.500000  0.000000  0.697993  1
  Ni  Ni7  1  0.000000  0.500000  0.697993  1
  B  B8  1  0.667449  0.332551  0.500000  1
  B  B9  1  0.332551  0.667449  0.500000  1
  Ir  Ir10  1  0.500000  0.500000  0.287629  1
  Ir  Ir11  1  0.500000  0.500000  0.712371  1
