# generated using pymatgen
data_U2Be4Ru5
_symmetry_space_group_name_H-M   'P 1'
_cell_length_a   3.20206600
_cell_length_b   8.80480403
_cell_length_c   10.53275913
_cell_angle_alpha   89.99579980
_cell_angle_beta   90.00000000
_cell_angle_gamma   90.00000000
_symmetry_Int_Tables_number   1
_chemical_formula_structural   U2Be4Ru5
_chemical_formula_sum   'U4 Be8 Ru10'
_cell_volume   296.95601379
_cell_formula_units_Z   2
loop_
 _symmetry_equiv_pos_site_id
 _symmetry_equiv_pos_as_xyz
  1  'x, y, z'
loop_
 _atom_site_type_symbol
 _atom_site_label
 _atom_site_symmetry_multiplicity
 _atom_site_fract_x
 _atom_site_fract_y
 _atom_site_fract_z
 _atom_site_occupancy
  U  U0  1  0.500000  0.842558  0.180433  1
  U  U1  1  0.500000  0.157442  0.819567  1
  U  U2  1  0.500000  0.657321  0.680551  1
  U  U3  1  0.500000  0.342679  0.319449  1
  Be  Be4  1  0.500000  0.965370  0.591077  1
  Be  Be5  1  0.500000  0.034630  0.408923  1
  Be  Be6  1  0.500000  0.839791  0.904387  1
  Be  Be7  1  0.500000  0.160209  0.095613  1
  Be  Be8  1  0.500000  0.660191  0.404412  1
  Be  Be9  1  0.500000  0.339809  0.595588  1
  Be  Be10  1  0.500000  0.465220  0.908811  1
  Be  Be11  1  0.500000  0.534780  0.091189  1
  Ru  Ru12  1  0.000000  0.658630  0.953778  1
  Ru  Ru13  1  0.000000  0.341370  0.046222  1
  Ru  Ru14  1  0.000000  0.841241  0.454086  1
  Ru  Ru15  1  0.000000  0.158759  0.545914  1
  Ru  Ru16  1  0.000000  0.000000  0.000000  1
  Ru  Ru17  1  0.000000  0.399829  0.756978  1
  Ru  Ru18  1  0.000000  0.600171  0.243022  1
  Ru  Ru19  1  0.000000  0.500000  0.500000  1
  Ru  Ru20  1  0.000000  0.899467  0.742920  1
  Ru  Ru21  1  0.000000  0.100533  0.257080  1
