# generated using pymatgen
data_Mg(Sb3Pd10)2
_symmetry_space_group_name_H-M   'P 1'
_cell_length_a   7.80854933
_cell_length_b   7.80854841
_cell_length_c   7.80854848
_cell_angle_alpha   98.93729595
_cell_angle_beta   98.93729933
_cell_angle_gamma   98.93729686
_symmetry_Int_Tables_number   1
_chemical_formula_structural   Mg(Sb3Pd10)2
_chemical_formula_sum   'Mg1 Sb6 Pd20'
_cell_volume   456.69662328
_cell_formula_units_Z   1
loop_
 _symmetry_equiv_pos_site_id
 _symmetry_equiv_pos_as_xyz
  1  'x, y, z'
loop_
 _atom_site_type_symbol
 _atom_site_label
 _atom_site_symmetry_multiplicity
 _atom_site_fract_x
 _atom_site_fract_y
 _atom_site_fract_z
 _atom_site_occupancy
  Mg  Mg0  1  0.000000  0.000000  0.000000  1
  Sb  Sb1  1  0.455538  0.878445  0.726847  1
  Sb  Sb2  1  0.878445  0.726847  0.455538  1
  Sb  Sb3  1  0.726847  0.455538  0.878445  1
  Sb  Sb4  1  0.544462  0.121555  0.273153  1
  Sb  Sb5  1  0.121555  0.273153  0.544462  1
  Sb  Sb6  1  0.273153  0.544462  0.121555  1
  Pd  Pd7  1  0.377358  0.377358  0.377358  1
  Pd  Pd8  1  0.622642  0.622642  0.622642  1
  Pd  Pd9  1  0.998693  0.338735  0.224971  1
  Pd  Pd10  1  0.338735  0.224971  0.998693  1
  Pd  Pd11  1  0.224971  0.998692  0.338735  1
  Pd  Pd12  1  0.001307  0.661265  0.775029  1
  Pd  Pd13  1  0.661265  0.775029  0.001308  1
  Pd  Pd14  1  0.775029  0.001308  0.661265  1
  Pd  Pd15  1  0.690028  0.143649  0.988187  1
  Pd  Pd16  1  0.143649  0.988187  0.690028  1
  Pd  Pd17  1  0.988187  0.690028  0.143649  1
  Pd  Pd18  1  0.309972  0.856351  0.011813  1
  Pd  Pd19  1  0.856351  0.011813  0.309972  1
  Pd  Pd20  1  0.011813  0.309972  0.856351  1
  Pd  Pd21  1  0.207990  0.663873  0.477334  1
  Pd  Pd22  1  0.663873  0.477334  0.207990  1
  Pd  Pd23  1  0.477334  0.207990  0.663873  1
  Pd  Pd24  1  0.792010  0.336127  0.522666  1
  Pd  Pd25  1  0.336127  0.522666  0.792010  1
  Pd  Pd26  1  0.522666  0.792010  0.336127  1
