# generated using pymatgen
data_Tb5Er8Tm3(InRh)4
_symmetry_space_group_name_H-M   'P 1'
_cell_length_a   9.62158464
_cell_length_b   9.62117308
_cell_length_c   9.62294061
_cell_angle_alpha   59.99610764
_cell_angle_beta   59.91773207
_cell_angle_gamma   59.90638416
_symmetry_Int_Tables_number   1
_chemical_formula_structural   Tb5Er8Tm3(InRh)4
_chemical_formula_sum   'Tb5 Er8 Tm3 In4 Rh4'
_cell_volume   629.03690447
_cell_formula_units_Z   1
loop_
 _symmetry_equiv_pos_site_id
 _symmetry_equiv_pos_as_xyz
  1  'x, y, z'
loop_
 _atom_site_type_symbol
 _atom_site_label
 _atom_site_symmetry_multiplicity
 _atom_site_fract_x
 _atom_site_fract_y
 _atom_site_fract_z
 _atom_site_occupancy
  Tb  Tb0  1  0.062233  0.062272  0.436998  1
  Tb  Tb1  1  0.437349  0.062241  0.437318  1
  Tb  Tb2  1  0.062041  0.437117  0.062269  1
  Tb  Tb3  1  0.049762  0.649609  0.649662  1
  Tb  Tb4  1  0.437520  0.437503  0.062145  1
  Er  Er5  1  0.649638  0.049033  0.648360  1
  Er  Er6  1  0.189035  0.812113  0.188240  1
  Er  Er7  1  0.188760  0.188124  0.812343  1
  Er  Er8  1  0.810581  0.810538  0.190559  1
  Er  Er9  1  0.440296  0.058642  0.058828  1
  Er  Er10  1  0.812176  0.188805  0.188621  1
  Er  Er11  1  0.059564  0.439973  0.439919  1
  Er  Er12  1  0.810687  0.190488  0.810789  1
  Tm  Tm13  1  0.189890  0.811758  0.811911  1
  Tm  Tm14  1  0.649805  0.648524  0.048682  1
  Tm  Tm15  1  0.650411  0.652345  0.652226  1
  In  In16  1  0.417533  0.417517  0.417100  1
  In  In17  1  0.748197  0.418001  0.417770  1
  In  In18  1  0.419034  0.747553  0.416472  1
  In  In19  1  0.418933  0.416683  0.747556  1
  Rh  Rh20  1  0.856883  0.857307  0.426277  1
  Rh  Rh21  1  0.855198  0.859474  0.860166  1
  Rh  Rh22  1  0.427915  0.857612  0.858290  1
  Rh  Rh23  1  0.856558  0.426768  0.857501  1
