# generated using pymatgen
data_Ce3Dy5(SiPd)8
_symmetry_space_group_name_H-M   'P 1'
_cell_length_a   4.36145000
_cell_length_b   7.52030034
_cell_length_c   14.16546100
_cell_angle_alpha   90.04522529
_cell_angle_beta   90.00000000
_cell_angle_gamma   90.00000000
_symmetry_Int_Tables_number   1
_chemical_formula_structural   Ce3Dy5(SiPd)8
_chemical_formula_sum   'Ce3 Dy5 Si8 Pd8'
_cell_volume   464.61867411
_cell_formula_units_Z   1
loop_
 _symmetry_equiv_pos_site_id
 _symmetry_equiv_pos_as_xyz
  1  'x, y, z'
loop_
 _atom_site_type_symbol
 _atom_site_label
 _atom_site_symmetry_multiplicity
 _atom_site_fract_x
 _atom_site_fract_y
 _atom_site_fract_z
 _atom_site_occupancy
  Ce  Ce0  1  0.500000  0.791277  0.747806  1
  Ce  Ce1  1  0.500000  0.707682  0.999659  1
  Ce  Ce2  1  0.500000  0.697026  0.498425  1
  Dy  Dy3  1  0.000000  0.217512  0.752434  1
  Dy  Dy4  1  0.500000  0.790596  0.251216  1
  Dy  Dy5  1  0.000000  0.210762  0.248806  1
  Dy  Dy6  1  0.000000  0.291337  0.499289  1
  Dy  Dy7  1  0.000000  0.298589  0.001875  1
  Si  Si8  1  0.500000  0.405527  0.644423  1
  Si  Si9  1  0.000000  0.586989  0.852437  1
  Si  Si10  1  0.500000  0.406065  0.353850  1
  Si  Si11  1  0.000000  0.591631  0.144109  1
  Si  Si12  1  0.500000  0.093935  0.095336  1
  Si  Si13  1  0.000000  0.911223  0.405316  1
  Si  Si14  1  0.500000  0.092815  0.909616  1
  Si  Si15  1  0.000000  0.913479  0.590219  1
  Pd  Pd16  1  0.500000  0.078053  0.607969  1
  Pd  Pd17  1  0.000000  0.925381  0.892870  1
  Pd  Pd18  1  0.500000  0.075685  0.389356  1
  Pd  Pd19  1  0.000000  0.925183  0.111301  1
  Pd  Pd20  1  0.500000  0.417202  0.158602  1
  Pd  Pd21  1  0.000000  0.578494  0.341152  1
  Pd  Pd22  1  0.500000  0.413201  0.850030  1
  Pd  Pd23  1  0.000000  0.580353  0.653904  1
