# generated using pymatgen
data_Cu7F12
_symmetry_space_group_name_H-M   'P 1'
_cell_length_a   6.73011900
_cell_length_b   6.72737502
_cell_length_c   6.72844875
_cell_angle_alpha   109.41434298
_cell_angle_beta   109.47977558
_cell_angle_gamma   109.53500792
_symmetry_Int_Tables_number   1
_chemical_formula_structural   Cu7F12
_chemical_formula_sum   'Cu7 F12'
_cell_volume   234.46507636
_cell_formula_units_Z   1
loop_
 _symmetry_equiv_pos_site_id
 _symmetry_equiv_pos_as_xyz
  1  'x, y, z'
loop_
 _atom_site_type_symbol
 _atom_site_label
 _atom_site_symmetry_multiplicity
 _atom_site_fract_x
 _atom_site_fract_y
 _atom_site_fract_z
 _atom_site_occupancy
  Cu  Cu0  1  0.999992  0.499997  0.499998  1
  Cu  Cu1  1  0.000004  0.499992  0.999996  1
  Cu  Cu2  1  0.000003  0.000006  0.500005  1
  Cu  Cu3  1  0.499996  0.499997  0.499988  1
  Cu  Cu4  1  0.500011  0.000004  0.500009  1
  Cu  Cu5  1  0.499998  0.499994  0.999995  1
  Cu  Cu6  1  0.500003  0.000007  0.000001  1
  F  F7  1  0.178845  0.857249  0.678339  1
  F  F8  1  0.142365  0.321273  0.821079  1
  F  F9  1  0.178878  0.500485  0.321666  1
  F  F10  1  0.321531  0.821068  0.142743  1
  F  F11  1  0.499774  0.678642  0.821037  1
  F  F12  1  0.321545  0.178832  0.500389  1
  F  F13  1  0.678471  0.821168  0.499613  1
  F  F14  1  0.500225  0.321356  0.178971  1
  F  F15  1  0.678476  0.178948  0.857283  1
  F  F16  1  0.821114  0.499515  0.678338  1
  F  F17  1  0.857622  0.678726  0.178903  1
  F  F18  1  0.821149  0.142743  0.321651  1
