# generated using pymatgen
data_Tb2HoRuI3
_symmetry_space_group_name_H-M   'P 1'
_cell_length_a   4.23204600
_cell_length_b   8.90614930
_cell_length_c   12.32905553
_cell_angle_alpha   86.09715650
_cell_angle_beta   90.00000000
_cell_angle_gamma   90.00000000
_symmetry_Int_Tables_number   1
_chemical_formula_structural   Tb2HoRuI3
_chemical_formula_sum   'Tb4 Ho2 Ru2 I6'
_cell_volume   463.61963231
_cell_formula_units_Z   2
loop_
 _symmetry_equiv_pos_site_id
 _symmetry_equiv_pos_as_xyz
  1  'x, y, z'
loop_
 _atom_site_type_symbol
 _atom_site_label
 _atom_site_symmetry_multiplicity
 _atom_site_fract_x
 _atom_site_fract_y
 _atom_site_fract_z
 _atom_site_occupancy
  Tb  Tb0  1  0.750000  0.098123  0.684582  1
  Tb  Tb1  1  0.250000  0.901877  0.315418  1
  Tb  Tb2  1  0.250000  0.261201  0.897726  1
  Tb  Tb3  1  0.750000  0.738799  0.102274  1
  Ho  Ho4  1  0.750000  0.130310  0.124906  1
  Ho  Ho5  1  0.250000  0.869690  0.875094  1
  Ru  Ru6  1  0.750000  0.052524  0.907757  1
  Ru  Ru7  1  0.250000  0.947476  0.092243  1
  I  I8  1  0.250000  0.352579  0.636873  1
  I  I9  1  0.750000  0.647421  0.363127  1
  I  I10  1  0.750000  0.141894  0.392258  1
  I  I11  1  0.250000  0.858106  0.607742  1
  I  I12  1  0.250000  0.425840  0.132786  1
  I  I13  1  0.750000  0.574160  0.867214  1
