# generated using pymatgen
data_Dy12Y8Co3Bi8Os
_symmetry_space_group_name_H-M   'P 1'
_cell_length_a   8.01976251
_cell_length_b   8.91638700
_cell_length_c   12.45939632
_cell_angle_alpha   90.00000000
_cell_angle_beta   90.29800247
_cell_angle_gamma   90.00000000
_symmetry_Int_Tables_number   1
_chemical_formula_structural   Dy12Y8Co3Bi8Os
_chemical_formula_sum   'Dy12 Y8 Co3 Bi8 Os1'
_cell_volume   890.92581706
_cell_formula_units_Z   1
loop_
 _symmetry_equiv_pos_site_id
 _symmetry_equiv_pos_as_xyz
  1  'x, y, z'
loop_
 _atom_site_type_symbol
 _atom_site_label
 _atom_site_symmetry_multiplicity
 _atom_site_fract_x
 _atom_site_fract_y
 _atom_site_fract_z
 _atom_site_occupancy
  Dy  Dy0  1  0.376654  0.750000  0.694072  1
  Dy  Dy1  1  0.120102  0.750000  0.187171  1
  Dy  Dy2  1  0.945037  0.750000  0.503597  1
  Dy  Dy3  1  0.547827  0.750000  0.002322  1
  Dy  Dy4  1  0.676057  0.040899  0.564994  1
  Dy  Dy5  1  0.324738  0.964574  0.436527  1
  Dy  Dy6  1  0.175274  0.965722  0.936983  1
  Dy  Dy7  1  0.324738  0.535426  0.436527  1
  Dy  Dy8  1  0.824533  0.035308  0.063138  1
  Dy  Dy9  1  0.676057  0.459101  0.564994  1
  Dy  Dy10  1  0.824533  0.464692  0.063138  1
  Dy  Dy11  1  0.175274  0.534278  0.936983  1
  Y  Y12  1  0.845700  0.750000  0.799473  1
  Y  Y13  1  0.153292  0.250000  0.199072  1
  Y  Y14  1  0.346781  0.250000  0.700272  1
  Y  Y15  1  0.655401  0.750000  0.293951  1
  Y  Y16  1  0.620913  0.250000  0.309413  1
  Y  Y17  1  0.879059  0.250000  0.810575  1
  Y  Y18  1  0.049637  0.250000  0.496880  1
  Y  Y19  1  0.453126  0.250000  0.997421  1
  Co  Co20  1  0.434111  0.250000  0.490722  1
  Co  Co21  1  0.059645  0.250000  0.992007  1
  Co  Co22  1  0.938493  0.750000  0.008149  1
  Bi  Bi23  1  0.570317  0.491944  0.827233  1
  Bi  Bi24  1  0.429353  0.507335  0.173145  1
  Bi  Bi25  1  0.069933  0.507483  0.674182  1
  Bi  Bi26  1  0.429353  0.992665  0.173145  1
  Bi  Bi27  1  0.931744  0.492428  0.325842  1
  Bi  Bi28  1  0.570317  0.008056  0.827233  1
  Bi  Bi29  1  0.931744  0.007572  0.325842  1
  Bi  Bi30  1  0.069933  0.992517  0.674182  1
  Os  Os31  1  0.570324  0.750000  0.510813  1
