# generated using pymatgen
data_ThPa6Cd3O20
_symmetry_space_group_name_H-M   'P 1'
_cell_length_a   10.14224388
_cell_length_b   10.14224552
_cell_length_c   6.66213679
_cell_angle_alpha   83.58831456
_cell_angle_beta   83.58831187
_cell_angle_gamma   141.39897376
_symmetry_Int_Tables_number   1
_chemical_formula_structural   ThPa6Cd3O20
_chemical_formula_sum   'Th1 Pa6 Cd3 O20'
_cell_volume   402.41290105
_cell_formula_units_Z   1
loop_
 _symmetry_equiv_pos_site_id
 _symmetry_equiv_pos_as_xyz
  1  'x, y, z'
loop_
 _atom_site_type_symbol
 _atom_site_label
 _atom_site_symmetry_multiplicity
 _atom_site_fract_x
 _atom_site_fract_y
 _atom_site_fract_z
 _atom_site_occupancy
  Th  Th0  1  0.000000  0.000000  0.500000  1
  Pa  Pa1  1  0.899858  0.100142  0.000000  1
  Pa  Pa2  1  0.398878  0.601122  0.500000  1
  Pa  Pa3  1  0.100142  0.899858  0.000000  1
  Pa  Pa4  1  0.698895  0.301105  0.000000  1
  Pa  Pa5  1  0.601122  0.398878  0.500000  1
  Pa  Pa6  1  0.301105  0.698895  0.000000  1
  Cd  Cd7  1  0.500000  0.500000  0.000000  1
  Cd  Cd8  1  0.203642  0.796358  0.500000  1
  Cd  Cd9  1  0.796358  0.203642  0.500000  1
  O  O10  1  0.266894  0.470565  0.874723  1
  O  O11  1  0.886779  0.886779  0.879340  1
  O  O12  1  0.767084  0.966665  0.363524  1
  O  O13  1  0.033335  0.232916  0.636476  1
  O  O14  1  0.470565  0.266894  0.874723  1
  O  O15  1  0.379098  0.379098  0.387712  1
  O  O16  1  0.620902  0.620902  0.612288  1
  O  O17  1  0.066334  0.667931  0.899072  1
  O  O18  1  0.529435  0.733106  0.125277  1
  O  O19  1  0.966665  0.767084  0.363524  1
  O  O20  1  0.232916  0.033335  0.636476  1
  O  O21  1  0.667931  0.066334  0.899072  1
  O  O22  1  0.113221  0.113221  0.120660  1
  O  O23  1  0.581184  0.191993  0.356656  1
  O  O24  1  0.808007  0.418816  0.643344  1
  O  O25  1  0.418816  0.808007  0.643344  1
  O  O26  1  0.733106  0.529435  0.125277  1
  O  O27  1  0.191993  0.581184  0.356656  1
  O  O28  1  0.332069  0.933666  0.100928  1
  O  O29  1  0.933666  0.332069  0.100928  1
