# generated using pymatgen
data_Sm3Pa(InNi2)2
_symmetry_space_group_name_H-M   'P 1'
_cell_length_a   7.56614424
_cell_length_b   7.56614312
_cell_length_c   3.64067500
_cell_angle_alpha   90.00000000
_cell_angle_beta   90.00000000
_cell_angle_gamma   92.06170358
_symmetry_Int_Tables_number   1
_chemical_formula_structural   Sm3Pa(InNi2)2
_chemical_formula_sum   'Sm3 Pa1 In2 Ni4'
_cell_volume   208.28109607
_cell_formula_units_Z   1
loop_
 _symmetry_equiv_pos_site_id
 _symmetry_equiv_pos_as_xyz
  1  'x, y, z'
loop_
 _atom_site_type_symbol
 _atom_site_label
 _atom_site_symmetry_multiplicity
 _atom_site_fract_x
 _atom_site_fract_y
 _atom_site_fract_z
 _atom_site_occupancy
  Sm  Sm0  1  0.324191  0.824191  0.500000  1
  Sm  Sm1  1  0.174892  0.328657  0.500000  1
  Sm  Sm2  1  0.828657  0.674892  0.500000  1
  Pa  Pa3  1  0.670033  0.170033  0.500000  1
  In  In4  1  0.500307  0.501633  0.000000  1
  In  In5  1  0.001633  0.000307  0.000000  1
  Ni  Ni6  1  0.110456  0.610456  0.000000  1
  Ni  Ni7  1  0.854653  0.354653  0.000000  1
  Ni  Ni8  1  0.632950  0.902228  0.000000  1
  Ni  Ni9  1  0.402228  0.132950  0.000000  1
