# generated using pymatgen
data_Ti2BeB2Ru4Rh
_symmetry_space_group_name_H-M   'P 1'
_cell_length_a   2.94746700
_cell_length_b   9.02005344
_cell_length_c   9.09590364
_cell_angle_alpha   90.00034695
_cell_angle_beta   90.00000000
_cell_angle_gamma   90.00000000
_symmetry_Int_Tables_number   1
_chemical_formula_structural   Ti2BeB2Ru4Rh
_chemical_formula_sum   'Ti4 Be2 B4 Ru8 Rh2'
_cell_volume   241.82651258
_cell_formula_units_Z   2
loop_
 _symmetry_equiv_pos_site_id
 _symmetry_equiv_pos_as_xyz
  1  'x, y, z'
loop_
 _atom_site_type_symbol
 _atom_site_label
 _atom_site_symmetry_multiplicity
 _atom_site_fract_x
 _atom_site_fract_y
 _atom_site_fract_z
 _atom_site_occupancy
  Ti  Ti0  1  0.000000  0.825729  0.678389  1
  Ti  Ti1  1  0.000000  0.174271  0.321611  1
  Ti  Ti2  1  0.000000  0.673803  0.170012  1
  Ti  Ti3  1  0.000000  0.326197  0.829988  1
  Be  Be4  1  0.000000  0.500000  0.500000  1
  Be  Be5  1  0.000000  0.000000  0.000000  1
  B  B6  1  0.000000  0.371739  0.129091  1
  B  B7  1  0.000000  0.628261  0.870909  1
  B  B8  1  0.000000  0.124952  0.631252  1
  B  B9  1  0.000000  0.875048  0.368748  1
  Ru  Ru10  1  0.500000  0.205484  0.071302  1
  Ru  Ru11  1  0.500000  0.794516  0.928698  1
  Ru  Ru12  1  0.500000  0.428803  0.294079  1
  Ru  Ru13  1  0.500000  0.571197  0.705921  1
  Ru  Ru14  1  0.500000  0.928755  0.206600  1
  Ru  Ru15  1  0.500000  0.071245  0.793400  1
  Ru  Ru16  1  0.500000  0.000000  0.500000  1
  Ru  Ru17  1  0.500000  0.500000  0.000000  1
  Rh  Rh18  1  0.500000  0.294366  0.570331  1
  Rh  Rh19  1  0.500000  0.705634  0.429669  1
