# generated using pymatgen
data_U6Co3Sb8Pt3
_symmetry_space_group_name_H-M   'P 1'
_cell_length_a   8.27207867
_cell_length_b   8.25972809
_cell_length_c   8.25972836
_cell_angle_alpha   109.10224902
_cell_angle_beta   109.86224538
_cell_angle_gamma   109.38905355
_symmetry_Int_Tables_number   1
_chemical_formula_structural   U6Co3Sb8Pt3
_chemical_formula_sum   'U6 Co3 Sb8 Pt3'
_cell_volume   434.74183162
_cell_formula_units_Z   1
loop_
 _symmetry_equiv_pos_site_id
 _symmetry_equiv_pos_as_xyz
  1  'x, y, z'
loop_
 _atom_site_type_symbol
 _atom_site_label
 _atom_site_symmetry_multiplicity
 _atom_site_fract_x
 _atom_site_fract_y
 _atom_site_fract_z
 _atom_site_occupancy
  U  U0  1  0.888221  0.264694  0.135939  1
  U  U1  1  0.611779  0.747719  0.376474  1
  U  U2  1  0.250000  0.117586  0.867586  1
  U  U3  1  0.750000  0.383066  0.633066  1
  U  U4  1  0.132213  0.873122  0.251437  1
  U  U5  1  0.367787  0.619225  0.740909  1
  Co  Co6  1  0.379599  0.247943  0.624171  1
  Co  Co7  1  0.120401  0.744573  0.868344  1
  Co  Co8  1  0.250000  0.622451  0.372451  1
  Sb  Sb9  1  0.663655  0.493791  0.988140  1
  Sb  Sb10  1  0.487660  0.993479  0.663269  1
  Sb  Sb11  1  0.012340  0.675608  0.505820  1
  Sb  Sb12  1  0.836345  0.824485  0.830136  1
  Sb  Sb13  1  0.485535  0.991533  0.162154  1
  Sb  Sb14  1  0.174384  0.511664  0.004111  1
  Sb  Sb15  1  0.014465  0.176618  0.505998  1
  Sb  Sb16  1  0.325616  0.329727  0.337279  1
  Pt  Pt17  1  0.750000  0.877528  0.127528  1
  Pt  Pt18  1  0.626424  0.377966  0.253644  1
  Pt  Pt19  1  0.873576  0.127219  0.751541  1
