# generated using pymatgen
data_Li3Nd4AlRh4
_symmetry_space_group_name_H-M   'P 1'
_cell_length_a   4.08593100
_cell_length_b   7.09966843
_cell_length_c   8.49912724
_cell_angle_alpha   90.45261752
_cell_angle_beta   90.00000000
_cell_angle_gamma   90.00000000
_symmetry_Int_Tables_number   1
_chemical_formula_structural   Li3Nd4AlRh4
_chemical_formula_sum   'Li3 Nd4 Al1 Rh4'
_cell_volume   246.54140974
_cell_formula_units_Z   1
loop_
 _symmetry_equiv_pos_site_id
 _symmetry_equiv_pos_as_xyz
  1  'x, y, z'
loop_
 _atom_site_type_symbol
 _atom_site_label
 _atom_site_symmetry_multiplicity
 _atom_site_fract_x
 _atom_site_fract_y
 _atom_site_fract_z
 _atom_site_occupancy
  Li  Li0  1  0.250000  0.625888  0.551329  1
  Li  Li1  1  0.750000  0.369438  0.446013  1
  Li  Li2  1  0.750000  0.871842  0.056734  1
  Nd  Nd3  1  0.250000  0.544809  0.178079  1
  Nd  Nd4  1  0.750000  0.461371  0.818113  1
  Nd  Nd5  1  0.750000  0.957293  0.683628  1
  Nd  Nd6  1  0.250000  0.040189  0.317569  1
  Al  Al7  1  0.250000  0.129341  0.944446  1
  Rh  Rh8  1  0.250000  0.763178  0.882488  1
  Rh  Rh9  1  0.750000  0.241940  0.105920  1
  Rh  Rh10  1  0.750000  0.753356  0.370261  1
  Rh  Rh11  1  0.250000  0.241355  0.645420  1
