# generated using pymatgen
data_Na(TlSe8)3
_symmetry_space_group_name_H-M   'P 1'
_cell_length_a   11.15054009
_cell_length_b   11.15053982
_cell_length_c   11.24664662
_cell_angle_alpha   131.30097852
_cell_angle_beta   120.08244995
_cell_angle_gamma   80.13837108
_symmetry_Int_Tables_number   1
_chemical_formula_structural   Na(TlSe8)3
_chemical_formula_sum   'Na1 Tl3 Se24'
_cell_volume   881.20504819
_cell_formula_units_Z   1
loop_
 _symmetry_equiv_pos_site_id
 _symmetry_equiv_pos_as_xyz
  1  'x, y, z'
loop_
 _atom_site_type_symbol
 _atom_site_label
 _atom_site_symmetry_multiplicity
 _atom_site_fract_x
 _atom_site_fract_y
 _atom_site_fract_z
 _atom_site_occupancy
  Na  Na0  1  0.000000  0.000000  0.000000  1
  Tl  Tl1  1  0.500000  0.500000  0.000000  1
  Tl  Tl2  1  0.752014  0.252014  0.500000  1
  Tl  Tl3  1  0.247986  0.747986  0.500000  1
  Se  Se4  1  0.646579  0.752193  0.896521  1
  Se  Se5  1  0.855671  0.750057  0.103479  1
  Se  Se6  1  0.353421  0.247807  0.103479  1
  Se  Se7  1  0.144329  0.249943  0.896521  1
  Se  Se8  1  0.247855  0.136016  0.675552  1
  Se  Se9  1  0.243699  0.929378  0.892313  1
  Se  Se10  1  0.037066  0.351387  0.107687  1
  Se  Se11  1  0.460464  0.572303  0.324448  1
  Se  Se12  1  0.752145  0.863984  0.324448  1
  Se  Se13  1  0.756301  0.070622  0.107687  1
  Se  Se14  1  0.962934  0.648613  0.892313  1
  Se  Se15  1  0.539536  0.427697  0.675552  1
  Se  Se16  1  0.922181  0.825471  0.526365  1
  Se  Se17  1  0.579667  0.105794  0.904428  1
  Se  Se18  1  0.201367  0.675239  0.095572  1
  Se  Se19  1  0.299106  0.395815  0.473635  1
  Se  Se20  1  0.077819  0.174529  0.473635  1
  Se  Se21  1  0.420333  0.894206  0.095572  1
  Se  Se22  1  0.798634  0.324761  0.904428  1
  Se  Se23  1  0.700894  0.604185  0.526365  1
  Se  Se24  1  0.671220  0.057848  0.729069  1
  Se  Se25  1  0.831753  0.558383  0.390136  1
  Se  Se26  1  0.168247  0.441617  0.609864  1
  Se  Se27  1  0.328780  0.942152  0.270931  1
