# generated using pymatgen
data_Ho16In4IrPd2Ru
_symmetry_space_group_name_H-M   'P 1'
_cell_length_a   9.64185937
_cell_length_b   9.63767098
_cell_length_c   9.65745612
_cell_angle_alpha   60.25545759
_cell_angle_beta   60.18291657
_cell_angle_gamma   60.12378144
_symmetry_Int_Tables_number   1
_chemical_formula_structural   Ho16In4IrPd2Ru
_chemical_formula_sum   'Ho16 In4 Ir1 Pd2 Ru1'
_cell_volume   637.26269387
_cell_formula_units_Z   1
loop_
 _symmetry_equiv_pos_site_id
 _symmetry_equiv_pos_as_xyz
  1  'x, y, z'
loop_
 _atom_site_type_symbol
 _atom_site_label
 _atom_site_symmetry_multiplicity
 _atom_site_fract_x
 _atom_site_fract_y
 _atom_site_fract_z
 _atom_site_occupancy
  Ho  Ho0  1  0.443581  0.433169  0.060521  1
  Ho  Ho1  1  0.649164  0.641390  0.057430  1
  Ho  Ho2  1  0.185553  0.808410  0.195059  1
  Ho  Ho3  1  0.061562  0.433960  0.059834  1
  Ho  Ho4  1  0.192049  0.808971  0.808935  1
  Ho  Ho5  1  0.063856  0.435290  0.437457  1
  Ho  Ho6  1  0.810572  0.191306  0.187874  1
  Ho  Ho7  1  0.656728  0.649604  0.650232  1
  Ho  Ho8  1  0.811742  0.196325  0.808561  1
  Ho  Ho9  1  0.183093  0.196256  0.809584  1
  Ho  Ho10  1  0.048531  0.646348  0.647618  1
  Ho  Ho11  1  0.438320  0.061016  0.061638  1
  Ho  Ho12  1  0.061882  0.059132  0.435013  1
  Ho  Ho13  1  0.648033  0.059547  0.642364  1
  Ho  Ho14  1  0.811466  0.808260  0.195384  1
  Ho  Ho15  1  0.441853  0.061138  0.433876  1
  In  In16  1  0.415508  0.417046  0.417014  1
  In  In17  1  0.416061  0.418534  0.748960  1
  In  In18  1  0.416397  0.748382  0.418714  1
  In  In19  1  0.750030  0.417447  0.416912  1
  Ir  Ir20  1  0.856036  0.862972  0.427094  1
  Pd  Pd21  1  0.428649  0.859637  0.859544  1
  Pd  Pd22  1  0.853271  0.858661  0.858133  1
  Ru  Ru23  1  0.856065  0.427201  0.862251  1
