# generated using pymatgen
data_Dy5Mo3P12Ir9Ru7
_symmetry_space_group_name_H-M   'P 1'
_cell_length_a   12.64606256
_cell_length_b   12.57669553
_cell_length_c   3.99586200
_cell_angle_alpha   90.00000000
_cell_angle_beta   90.00000000
_cell_angle_gamma   119.76595978
_symmetry_Int_Tables_number   1
_chemical_formula_structural   Dy5Mo3P12Ir9Ru7
_chemical_formula_sum   'Dy5 Mo3 P12 Ir9 Ru7'
_cell_volume   551.67382487
_cell_formula_units_Z   1
loop_
 _symmetry_equiv_pos_site_id
 _symmetry_equiv_pos_as_xyz
  1  'x, y, z'
loop_
 _atom_site_type_symbol
 _atom_site_label
 _atom_site_symmetry_multiplicity
 _atom_site_fract_x
 _atom_site_fract_y
 _atom_site_fract_z
 _atom_site_occupancy
  Dy  Dy0  1  0.666932  0.332684  0.000000  1
  Dy  Dy1  1  0.333473  0.667029  0.000000  1
  Dy  Dy2  1  0.812245  0.999287  0.500000  1
  Dy  Dy3  1  0.186340  0.187288  0.500000  1
  Dy  Dy4  1  0.000553  0.813801  0.500000  1
  Mo  Mo5  1  0.445991  0.001011  0.000000  1
  Mo  Mo6  1  0.554751  0.551691  0.000000  1
  Mo  Mo7  1  0.998102  0.446451  0.000000  1
  P  P8  1  0.630859  0.997664  0.000000  1
  P  P9  1  0.365227  0.371024  0.000000  1
  P  P10  1  0.005944  0.636417  0.000000  1
  P  P11  1  0.688102  0.520816  0.500000  1
  P  P12  1  0.832785  0.307739  0.500000  1
  P  P13  1  0.315631  0.833836  0.500000  1
  P  P14  1  0.518541  0.683728  0.500000  1
  P  P15  1  0.181222  0.002298  0.000000  1
  P  P16  1  0.818908  0.818921  0.000000  1
  P  P17  1  0.996433  0.182482  0.000000  1
  P  P18  1  0.478780  0.164504  0.500000  1
  P  P19  1  0.167296  0.482312  0.500000  1
  Ir  Ir20  1  0.625834  0.805327  0.000000  1
  Ir  Ir21  1  0.179865  0.375795  0.000000  1
  Ir  Ir22  1  0.372193  0.184112  0.000000  1
  Ir  Ir23  1  0.194915  0.821571  0.000000  1
  Ir  Ir24  1  0.811572  0.627099  0.000000  1
  Ir  Ir25  1  0.866220  0.503857  0.500000  1
  Ir  Ir26  1  0.494605  0.359742  0.500000  1
  Ir  Ir27  1  0.639054  0.128852  0.500000  1
  Ir  Ir28  1  0.999180  0.001016  0.000000  1
  Ru  Ru29  1  0.128273  0.641681  0.500000  1
  Ru  Ru30  1  0.359391  0.485960  0.500000  1
  Ru  Ru31  1  0.511391  0.869757  0.500000  1
  Ru  Ru32  1  0.718583  0.716913  0.500000  1
  Ru  Ru33  1  0.001003  0.282538  0.500000  1
  Ru  Ru34  1  0.817042  0.192993  0.000000  1
  Ru  Ru35  1  0.282766  0.001805  0.500000  1
