# generated using pymatgen
data_Y11TmTc4
_symmetry_space_group_name_H-M   'P 1'
_cell_length_a   6.28891267
_cell_length_b   7.40646293
_cell_length_c   9.24291300
_cell_angle_alpha   90.04979610
_cell_angle_beta   89.82401023
_cell_angle_gamma   89.95664636
_symmetry_Int_Tables_number   1
_chemical_formula_structural   Y11TmTc4
_chemical_formula_sum   'Y11 Tm1 Tc4'
_cell_volume   430.51961646
_cell_formula_units_Z   1
loop_
 _symmetry_equiv_pos_site_id
 _symmetry_equiv_pos_as_xyz
  1  'x, y, z'
loop_
 _atom_site_type_symbol
 _atom_site_label
 _atom_site_symmetry_multiplicity
 _atom_site_fract_x
 _atom_site_fract_y
 _atom_site_fract_z
 _atom_site_occupancy
  Y  Y0  1  0.162705  0.175498  0.436838  1
  Y  Y1  1  0.662749  0.324870  0.563255  1
  Y  Y2  1  0.838520  0.824223  0.937409  1
  Y  Y3  1  0.663222  0.324397  0.937759  1
  Y  Y4  1  0.835397  0.824015  0.563111  1
  Y  Y5  1  0.335960  0.675827  0.435831  1
  Y  Y6  1  0.164338  0.176564  0.063051  1
  Y  Y7  1  0.872503  0.542684  0.248613  1
  Y  Y8  1  0.626766  0.040437  0.249521  1
  Y  Y9  1  0.128040  0.458492  0.750804  1
  Y  Y10  1  0.371758  0.957889  0.751040  1
  Tm  Tm11  1  0.337879  0.674325  0.063085  1
  Tc  Tc12  1  0.043815  0.885356  0.247966  1
  Tc  Tc13  1  0.459275  0.387499  0.249487  1
  Tc  Tc14  1  0.958596  0.113989  0.749175  1
  Tc  Tc15  1  0.538475  0.613934  0.753055  1
