# generated using pymatgen
data_ErLu7Ti12Si15Sn
_symmetry_space_group_name_H-M   'P 1'
_cell_length_a   7.04535887
_cell_length_b   7.01127647
_cell_length_c   12.88555413
_cell_angle_alpha   89.96973117
_cell_angle_beta   89.74789942
_cell_angle_gamma   89.88384874
_symmetry_Int_Tables_number   1
_chemical_formula_structural   ErLu7Ti12Si15Sn
_chemical_formula_sum   'Er1 Lu7 Ti12 Si15 Sn1'
_cell_volume   636.49963231
_cell_formula_units_Z   1
loop_
 _symmetry_equiv_pos_site_id
 _symmetry_equiv_pos_as_xyz
  1  'x, y, z'
loop_
 _atom_site_type_symbol
 _atom_site_label
 _atom_site_symmetry_multiplicity
 _atom_site_fract_x
 _atom_site_fract_y
 _atom_site_fract_z
 _atom_site_occupancy
  Er  Er0  1  0.999026  0.659432  0.033938  1
  Lu  Lu1  1  0.343074  0.998622  0.461243  1
  Lu  Lu2  1  0.506662  0.834955  0.718315  1
  Lu  Lu3  1  0.501916  0.159640  0.217118  1
  Lu  Lu4  1  0.840910  0.497112  0.282223  1
  Lu  Lu5  1  0.159364  0.509866  0.786002  1
  Lu  Lu6  1  0.661577  0.997031  0.968927  1
  Lu  Lu7  1  0.991425  0.348785  0.527099  1
  Ti  Ti8  1  0.326964  0.326513  0.001256  1
  Ti  Ti9  1  0.173927  0.826141  0.249813  1
  Ti  Ti10  1  0.816600  0.174730  0.751884  1
  Ti  Ti11  1  0.672046  0.672983  0.499456  1
  Ti  Ti12  1  0.152439  0.007268  0.883045  1
  Ti  Ti13  1  0.493412  0.649280  0.126779  1
  Ti  Ti14  1  0.514394  0.355199  0.626461  1
  Ti  Ti15  1  0.653626  0.493710  0.875752  1
  Ti  Ti16  1  0.347956  0.508658  0.372988  1
  Ti  Ti17  1  0.847113  0.993523  0.375509  1
  Ti  Ti18  1  0.009162  0.150791  0.123625  1
  Ti  Ti19  1  0.979367  0.836184  0.618719  1
  Si  Si20  1  0.370882  0.703546  0.934485  1
  Si  Si21  1  0.629003  0.297111  0.431562  1
  Si  Si22  1  0.704204  0.366956  0.067968  1
  Si  Si23  1  0.295896  0.632581  0.566802  1
  Si  Si24  1  0.796567  0.868778  0.183462  1
  Si  Si25  1  0.131353  0.202955  0.316308  1
  Si  Si26  1  0.869588  0.799750  0.817118  1
  Si  Si27  1  0.295695  0.952791  0.067104  1
  Si  Si28  1  0.548748  0.791108  0.313675  1
  Si  Si29  1  0.459767  0.208615  0.820183  1
  Si  Si30  1  0.795282  0.544420  0.686840  1
  Si  Si31  1  0.208230  0.452327  0.185507  1
  Si  Si32  1  0.704151  0.048344  0.564463  1
  Si  Si33  1  0.953049  0.292452  0.934925  1
  Si  Si34  1  0.046914  0.709057  0.432472  1
  Sn  Sn35  1  0.199707  0.128790  0.676971  1
