# generated using pymatgen
data_AcTlPt4
_symmetry_space_group_name_H-M   'P 1'
_cell_length_a   5.57158152
_cell_length_b   5.57158141
_cell_length_c   5.57158200
_cell_angle_alpha   59.99999652
_cell_angle_beta   59.99999717
_cell_angle_gamma   59.99999746
_symmetry_Int_Tables_number   1
_chemical_formula_structural   AcTlPt4
_chemical_formula_sum   'Ac1 Tl1 Pt4'
_cell_volume   122.29831406
_cell_formula_units_Z   1
loop_
 _symmetry_equiv_pos_site_id
 _symmetry_equiv_pos_as_xyz
  1  'x, y, z'
loop_
 _atom_site_type_symbol
 _atom_site_label
 _atom_site_symmetry_multiplicity
 _atom_site_fract_x
 _atom_site_fract_y
 _atom_site_fract_z
 _atom_site_occupancy
  Ac  Ac0  1  0.750000  0.750000  0.750000  1
  Tl  Tl1  1  0.500000  0.500000  0.500000  1
  Pt  Pt2  1  0.125739  0.622785  0.125739  1
  Pt  Pt3  1  0.125739  0.125739  0.622785  1
  Pt  Pt4  1  0.622785  0.125739  0.125739  1
  Pt  Pt5  1  0.125739  0.125739  0.125739  1
