# generated using pymatgen
data_Er5Tm3Co3Si12Rh
_symmetry_space_group_name_H-M   'P 1'
_cell_length_a   8.00488000
_cell_length_b   8.00535509
_cell_length_c   7.81330502
_cell_angle_alpha   90.00628564
_cell_angle_beta   90.00000000
_cell_angle_gamma   119.99803686
_symmetry_Int_Tables_number   1
_chemical_formula_structural   Er5Tm3Co3Si12Rh
_chemical_formula_sum   'Er5 Tm3 Co3 Si12 Rh1'
_cell_volume   433.62011866
_cell_formula_units_Z   1
loop_
 _symmetry_equiv_pos_site_id
 _symmetry_equiv_pos_as_xyz
  1  'x, y, z'
loop_
 _atom_site_type_symbol
 _atom_site_label
 _atom_site_symmetry_multiplicity
 _atom_site_fract_x
 _atom_site_fract_y
 _atom_site_fract_z
 _atom_site_occupancy
  Er  Er0  1  0.010614  0.505355  0.750070  1
  Er  Er1  1  0.494742  0.505355  0.750070  1
  Er  Er2  1  0.508206  0.016414  0.248480  1
  Er  Er3  1  0.000033  0.000065  0.751521  1
  Er  Er4  1  0.000006  0.000013  0.248702  1
  Tm  Tm5  1  0.984260  0.492195  0.248461  1
  Tm  Tm6  1  0.507932  0.492195  0.248461  1
  Tm  Tm7  1  0.494914  0.989828  0.749903  1
  Co  Co8  1  0.333205  0.666411  0.034761  1
  Co  Co9  1  0.666545  0.333088  0.967269  1
  Co  Co10  1  0.666558  0.333115  0.533089  1
  Si  Si11  1  0.166357  0.833725  0.500865  1
  Si  Si12  1  0.166185  0.332371  0.500422  1
  Si  Si13  1  0.667368  0.833725  0.500865  1
  Si  Si14  1  0.342385  0.171234  0.998609  1
  Si  Si15  1  0.827853  0.655708  0.500278  1
  Si  Si16  1  0.828849  0.171234  0.998609  1
  Si  Si17  1  0.828721  0.657442  0.999159  1
  Si  Si18  1  0.171978  0.343955  0.001421  1
  Si  Si19  1  0.655838  0.827986  0.000895  1
  Si  Si20  1  0.344095  0.172097  0.500792  1
  Si  Si21  1  0.828000  0.172097  0.500792  1
  Si  Si22  1  0.172148  0.827986  0.000895  1
  Rh  Rh23  1  0.333204  0.666409  0.465610  1
