# generated using pymatgen
data_PrPuSi4
_symmetry_space_group_name_H-M   'P 1'
_cell_length_a   4.11755726
_cell_length_b   4.11755647
_cell_length_c   7.57959171
_cell_angle_alpha   105.76075846
_cell_angle_beta   105.76075693
_cell_angle_gamma   90.00001000
_symmetry_Int_Tables_number   1
_chemical_formula_structural   PrPuSi4
_chemical_formula_sum   'Pr1 Pu1 Si4'
_cell_volume   118.64731639
_cell_formula_units_Z   1
loop_
 _symmetry_equiv_pos_site_id
 _symmetry_equiv_pos_as_xyz
  1  'x, y, z'
loop_
 _atom_site_type_symbol
 _atom_site_label
 _atom_site_symmetry_multiplicity
 _atom_site_fract_x
 _atom_site_fract_y
 _atom_site_fract_z
 _atom_site_occupancy
  Pr  Pr0  1  0.000000  0.000000  0.000000  1
  Pu  Pu1  1  0.250000  0.749999  0.499999  1
  Si  Si2  1  0.585428  0.585428  0.170858  1
  Si  Si3  1  0.667850  0.167851  0.335703  1
  Si  Si4  1  0.832148  0.332149  0.664298  1
  Si  Si5  1  0.414570  0.414570  0.829141  1
