# generated using pymatgen
data_Tm5Sn3O
_symmetry_space_group_name_H-M   'P 1'
_cell_length_a   8.90704099
_cell_length_b   8.90704214
_cell_length_c   8.90704171
_cell_angle_alpha   126.08418002
_cell_angle_beta   126.08418212
_cell_angle_gamma   79.74982489
_symmetry_Int_Tables_number   1
_chemical_formula_structural   Tm5Sn3O
_chemical_formula_sum   'Tm10 Sn6 O2'
_cell_volume   445.80847106
_cell_formula_units_Z   2
loop_
 _symmetry_equiv_pos_site_id
 _symmetry_equiv_pos_as_xyz
  1  'x, y, z'
loop_
 _atom_site_type_symbol
 _atom_site_label
 _atom_site_symmetry_multiplicity
 _atom_site_fract_x
 _atom_site_fract_y
 _atom_site_fract_z
 _atom_site_occupancy
  Tm  Tm0  1  0.500528  0.302235  0.500000  1
  Tm  Tm1  1  0.802235  0.000528  0.500000  1
  Tm  Tm2  1  0.000528  0.500528  0.198293  1
  Tm  Tm3  1  0.302235  0.802235  0.801707  1
  Tm  Tm4  1  0.501208  0.699760  0.500000  1
  Tm  Tm5  1  0.199760  0.001208  0.500000  1
  Tm  Tm6  1  0.001208  0.501208  0.801447  1
  Tm  Tm7  1  0.699760  0.199760  0.198553  1
  Tm  Tm8  1  0.503605  0.503605  0.000000  1
  Tm  Tm9  1  0.003605  0.003605  0.000000  1
  Sn  Sn10  1  0.146170  0.355252  0.500000  1
  Sn  Sn11  1  0.855252  0.646170  0.500000  1
  Sn  Sn12  1  0.646170  0.146170  0.790917  1
  Sn  Sn13  1  0.355252  0.855252  0.209083  1
  Sn  Sn14  1  0.751921  0.751921  0.000000  1
  Sn  Sn15  1  0.251921  0.251921  0.000000  1
  O  O16  1  0.750744  0.250744  0.500000  1
  O  O17  1  0.250744  0.750744  0.500000  1
