# generated using pymatgen
data_Dy7ErSc12Si11Ge5
_symmetry_space_group_name_H-M   'P 1'
_cell_length_a   7.13485360
_cell_length_b   7.39213373
_cell_length_c   14.02324042
_cell_angle_alpha   89.97101614
_cell_angle_beta   89.25192755
_cell_angle_gamma   90.06436081
_symmetry_Int_Tables_number   1
_chemical_formula_structural   Dy7ErSc12Si11Ge5
_chemical_formula_sum   'Dy7 Er1 Sc12 Si11 Ge5'
_cell_volume   739.54722315
_cell_formula_units_Z   1
loop_
 _symmetry_equiv_pos_site_id
 _symmetry_equiv_pos_as_xyz
  1  'x, y, z'
loop_
 _atom_site_type_symbol
 _atom_site_label
 _atom_site_symmetry_multiplicity
 _atom_site_fract_x
 _atom_site_fract_y
 _atom_site_fract_z
 _atom_site_occupancy
  Dy  Dy0  1  0.009282  0.174749  0.096659  1
  Dy  Dy1  1  0.992244  0.825022  0.902905  1
  Dy  Dy2  1  0.490817  0.676077  0.902904  1
  Dy  Dy3  1  0.996733  0.821498  0.598712  1
  Dy  Dy4  1  0.506178  0.323557  0.096889  1
  Dy  Dy5  1  0.003054  0.177946  0.401231  1
  Dy  Dy6  1  0.502315  0.322102  0.401340  1
  Er  Er7  1  0.497137  0.678069  0.599203  1
  Sc  Sc8  1  0.169523  0.501004  0.750590  1
  Sc  Sc9  1  0.830828  0.499334  0.250556  1
  Sc  Sc10  1  0.330938  0.000987  0.249370  1
  Sc  Sc11  1  0.668911  0.998842  0.750616  1
  Sc  Sc12  1  0.342509  0.171543  0.626666  1
  Sc  Sc13  1  0.657622  0.828730  0.373220  1
  Sc  Sc14  1  0.157860  0.671450  0.373361  1
  Sc  Sc15  1  0.662786  0.825763  0.125864  1
  Sc  Sc16  1  0.842286  0.328715  0.626638  1
  Sc  Sc17  1  0.335916  0.176273  0.874640  1
  Sc  Sc18  1  0.836785  0.322211  0.874827  1
  Sc  Sc19  1  0.165777  0.676590  0.124676  1
  Si  Si20  1  0.041219  0.116520  0.750925  1
  Si  Si21  1  0.959059  0.882833  0.248670  1
  Si  Si22  1  0.458670  0.616897  0.248955  1
  Si  Si23  1  0.541984  0.383332  0.751017  1
  Si  Si24  1  0.292866  0.872040  0.750662  1
  Si  Si25  1  0.707651  0.128062  0.248803  1
  Si  Si26  1  0.207008  0.372741  0.248633  1
  Si  Si27  1  0.792234  0.627134  0.751076  1
  Si  Si28  1  0.164220  0.463259  0.959853  1
  Si  Si29  1  0.659168  0.035280  0.960690  1
  Si  Si30  1  0.341055  0.964418  0.039175  1
  Ge  Ge31  1  0.179437  0.460034  0.541244  1
  Ge  Ge32  1  0.820903  0.540878  0.459308  1
  Ge  Ge33  1  0.322356  0.958886  0.459192  1
  Ge  Ge34  1  0.835075  0.537225  0.039878  1
  Ge  Ge35  1  0.677598  0.039998  0.541051  1
