# generated using pymatgen
data_U2ReTcC4
_symmetry_space_group_name_H-M   'P 1'
_cell_length_a   3.18791400
_cell_length_b   5.59754100
_cell_length_c   11.02683900
_cell_angle_alpha   90.00000000
_cell_angle_beta   90.00000000
_cell_angle_gamma   90.00000000
_symmetry_Int_Tables_number   1
_chemical_formula_structural   U2ReTcC4
_chemical_formula_sum   'U4 Re2 Tc2 C8'
_cell_volume   196.76820049
_cell_formula_units_Z   2
loop_
 _symmetry_equiv_pos_site_id
 _symmetry_equiv_pos_as_xyz
  1  'x, y, z'
loop_
 _atom_site_type_symbol
 _atom_site_label
 _atom_site_symmetry_multiplicity
 _atom_site_fract_x
 _atom_site_fract_y
 _atom_site_fract_z
 _atom_site_occupancy
  U  U0  1  0.250000  0.083414  0.858980  1
  U  U1  1  0.250000  0.583414  0.641020  1
  U  U2  1  0.750000  0.918469  0.142060  1
  U  U3  1  0.750000  0.418469  0.357940  1
  Re  Re4  1  0.750000  0.580258  0.895900  1
  Re  Re5  1  0.750000  0.080258  0.604100  1
  Tc  Tc6  1  0.250000  0.418969  0.102893  1
  Tc  Tc7  1  0.250000  0.918969  0.397107  1
  C  C8  1  0.250000  0.159930  0.244085  1
  C  C9  1  0.250000  0.659930  0.255915  1
  C  C10  1  0.750000  0.839127  0.756521  1
  C  C11  1  0.750000  0.339127  0.743479  1
  C  C12  1  0.250000  0.743308  0.992288  1
  C  C13  1  0.250000  0.243308  0.507712  1
  C  C14  1  0.750000  0.256526  0.006463  1
  C  C15  1  0.750000  0.756526  0.493537  1
