# generated using pymatgen
data_Dy4ScSi3H
_symmetry_space_group_name_H-M   'P 1'
_cell_length_a   8.37682900
_cell_length_b   8.37682863
_cell_length_c   6.10661500
_cell_angle_alpha   90.00000000
_cell_angle_beta   90.00000000
_cell_angle_gamma   120.00000541
_symmetry_Int_Tables_number   1
_chemical_formula_structural   Dy4ScSi3H
_chemical_formula_sum   'Dy8 Sc2 Si6 H2'
_cell_volume   371.09955117
_cell_formula_units_Z   2
loop_
 _symmetry_equiv_pos_site_id
 _symmetry_equiv_pos_as_xyz
  1  'x, y, z'
loop_
 _atom_site_type_symbol
 _atom_site_label
 _atom_site_symmetry_multiplicity
 _atom_site_fract_x
 _atom_site_fract_y
 _atom_site_fract_z
 _atom_site_occupancy
  Dy  Dy0  1  0.333333  0.666667  0.500000  1
  Dy  Dy1  1  0.666667  0.333333  0.500000  1
  Dy  Dy2  1  0.748533  0.748533  0.754223  1
  Dy  Dy3  1  0.251467  0.000000  0.754223  1
  Dy  Dy4  1  0.000000  0.251467  0.754223  1
  Dy  Dy5  1  0.251467  0.251467  0.245777  1
  Dy  Dy6  1  0.748533  0.000000  0.245777  1
  Dy  Dy7  1  0.000000  0.748533  0.245777  1
  Sc  Sc8  1  0.666667  0.333333  0.000000  1
  Sc  Sc9  1  0.333333  0.666667  0.000000  1
  Si  Si10  1  0.392378  0.392378  0.764614  1
  Si  Si11  1  0.607622  0.000000  0.764614  1
  Si  Si12  1  0.000000  0.607622  0.764614  1
  Si  Si13  1  0.607622  0.607622  0.235386  1
  Si  Si14  1  0.392378  0.000000  0.235386  1
  Si  Si15  1  0.000000  0.392378  0.235386  1
  H  H16  1  0.000000  0.000000  0.500000  1
  H  H17  1  0.000000  0.000000  0.000000  1
