# generated using pymatgen
data_Er8Ga(Si4Ni)3
_symmetry_space_group_name_H-M   'P 1'
_cell_length_a   7.94315300
_cell_length_b   7.94315250
_cell_length_c   8.00081600
_cell_angle_alpha   90.00000000
_cell_angle_beta   90.00000000
_cell_angle_gamma   119.99999790
_symmetry_Int_Tables_number   1
_chemical_formula_structural   Er8Ga(Si4Ni)3
_chemical_formula_sum   'Er8 Ga1 Si12 Ni3'
_cell_volume   437.17040346
_cell_formula_units_Z   1
loop_
 _symmetry_equiv_pos_site_id
 _symmetry_equiv_pos_as_xyz
  1  'x, y, z'
loop_
 _atom_site_type_symbol
 _atom_site_label
 _atom_site_symmetry_multiplicity
 _atom_site_fract_x
 _atom_site_fract_y
 _atom_site_fract_z
 _atom_site_occupancy
  Er  Er0  1  0.502155  0.004313  0.247179  1
  Er  Er1  1  0.502101  0.004201  0.752985  1
  Er  Er2  1  0.995687  0.497845  0.247179  1
  Er  Er3  1  0.995799  0.497899  0.752985  1
  Er  Er4  1  0.502155  0.497845  0.247179  1
  Er  Er5  1  0.502101  0.497899  0.752985  1
  Er  Er6  1  0.000000  0.000000  0.246476  1
  Er  Er7  1  0.000000  0.000000  0.753919  1
  Ga  Ga8  1  0.333333  0.666667  0.499107  1
  Si  Si9  1  0.171492  0.342983  0.000125  1
  Si  Si10  1  0.829108  0.658216  0.000048  1
  Si  Si11  1  0.657017  0.828508  0.000125  1
  Si  Si12  1  0.825343  0.650686  0.500147  1
  Si  Si13  1  0.341784  0.170892  0.000048  1
  Si  Si14  1  0.161343  0.322685  0.500368  1
  Si  Si15  1  0.171492  0.828508  0.000125  1
  Si  Si16  1  0.349314  0.174657  0.500147  1
  Si  Si17  1  0.829108  0.170892  0.000048  1
  Si  Si18  1  0.677315  0.838657  0.500368  1
  Si  Si19  1  0.825343  0.174657  0.500147  1
  Si  Si20  1  0.161343  0.838657  0.500368  1
  Ni  Ni21  1  0.333333  0.666667  0.002161  1
  Ni  Ni22  1  0.666667  0.333333  0.997925  1
  Ni  Ni23  1  0.666667  0.333333  0.497858  1
