# generated using pymatgen
data_Ce2Pr2(Al8Pt3)3
_symmetry_space_group_name_H-M   'P 1'
_cell_length_a   7.63086859
_cell_length_b   7.63829853
_cell_length_c   13.34714140
_cell_angle_alpha   84.50913752
_cell_angle_beta   79.00798342
_cell_angle_gamma   59.89042532
_symmetry_Int_Tables_number   1
_chemical_formula_structural   Ce2Pr2(Al8Pt3)3
_chemical_formula_sum   'Ce2 Pr2 Al24 Pt9'
_cell_volume   660.64362095
_cell_formula_units_Z   1
loop_
 _symmetry_equiv_pos_site_id
 _symmetry_equiv_pos_as_xyz
  1  'x, y, z'
loop_
 _atom_site_type_symbol
 _atom_site_label
 _atom_site_symmetry_multiplicity
 _atom_site_fract_x
 _atom_site_fract_y
 _atom_site_fract_z
 _atom_site_occupancy
  Ce  Ce0  1  0.395211  0.167690  0.805935  1
  Ce  Ce1  1  0.604789  0.832310  0.194065  1
  Pr  Pr2  1  0.733424  0.498539  0.808638  1
  Pr  Pr3  1  0.266576  0.501461  0.191362  1
  Al  Al4  1  0.684655  0.834768  0.947110  1
  Al  Al5  1  0.315345  0.165232  0.052890  1
  Al  Al6  1  0.146366  0.833040  0.560110  1
  Al  Al7  1  0.853634  0.166960  0.439890  1
  Al  Al8  1  0.480510  0.167193  0.558183  1
  Al  Al9  1  0.519490  0.832807  0.441817  1
  Al  Al10  1  0.215171  0.165676  0.333933  1
  Al  Al11  1  0.784829  0.834324  0.666067  1
  Al  Al12  1  0.437590  0.507665  0.666617  1
  Al  Al13  1  0.562410  0.492335  0.333383  1
  Al  Al14  1  0.110996  0.158843  0.665302  1
  Al  Al15  1  0.889004  0.841157  0.334698  1
  Al  Al16  1  0.350192  0.500577  0.945172  1
  Al  Al17  1  0.649808  0.499423  0.054828  1
  Al  Al18  1  0.015739  0.165750  0.955564  1
  Al  Al19  1  0.984261  0.834250  0.044436  1
  Al  Al20  1  0.185787  0.499946  0.442313  1
  Al  Al21  1  0.814213  0.500054  0.557687  1
  Al  Al22  1  0.737383  0.161524  0.183769  1
  Al  Al23  1  0.262617  0.838476  0.816231  1
  Al  Al24  1  0.063096  0.632040  0.815041  1
  Al  Al25  1  0.936904  0.367960  0.184959  1
  Al  Al26  1  0.856752  0.038475  0.816064  1
  Al  Al27  1  0.143248  0.961525  0.183937  1
  Pt  Pt28  1  0.121173  0.493709  0.637349  1
  Pt  Pt29  1  0.878827  0.506291  0.362651  1
  Pt  Pt30  1  0.658305  0.171288  0.000009  1
  Pt  Pt31  1  0.341695  0.828712  0.999991  1
  Pt  Pt32  1  0.539102  0.166593  0.363036  1
  Pt  Pt33  1  0.460898  0.833407  0.636964  1
  Pt  Pt34  1  0.780965  0.173122  0.636497  1
  Pt  Pt35  1  0.219035  0.826878  0.363503  1
  Pt  Pt36  1  0.000000  0.500000  0.000000  1
