# generated using pymatgen
data_Ho2ThZnAg3Ge2
_symmetry_space_group_name_H-M   'P 1'
_cell_length_a   7.26922458
_cell_length_b   7.21898757
_cell_length_c   4.23521700
_cell_angle_alpha   90.00000000
_cell_angle_beta   90.00000000
_cell_angle_gamma   119.77164863
_symmetry_Int_Tables_number   1
_chemical_formula_structural   Ho2ThZnAg3Ge2
_chemical_formula_sum   'Ho2 Th1 Zn1 Ag3 Ge2'
_cell_volume   192.91473804
_cell_formula_units_Z   1
loop_
 _symmetry_equiv_pos_site_id
 _symmetry_equiv_pos_as_xyz
  1  'x, y, z'
loop_
 _atom_site_type_symbol
 _atom_site_label
 _atom_site_symmetry_multiplicity
 _atom_site_fract_x
 _atom_site_fract_y
 _atom_site_fract_z
 _atom_site_occupancy
  Ho  Ho0  1  0.582545  0.999194  0.000000  1
  Ho  Ho1  1  0.417455  0.416650  0.000000  1
  Th  Th2  1  0.000000  0.581653  0.000000  1
  Zn  Zn3  1  0.000000  0.004794  0.000000  1
  Ag  Ag4  1  0.750822  0.754080  0.500000  1
  Ag  Ag5  1  0.249178  0.003258  0.500000  1
  Ag  Ag6  1  0.000000  0.241513  0.500000  1
  Ge  Ge7  1  0.661734  0.330296  0.500000  1
  Ge  Ge8  1  0.338266  0.668562  0.500000  1
