# generated using pymatgen
data_Ho8AlCdPd2
_symmetry_space_group_name_H-M   'P 1'
_cell_length_a   9.60966581
_cell_length_b   9.60966608
_cell_length_c   9.62575700
_cell_angle_alpha   59.94459068
_cell_angle_beta   59.94458973
_cell_angle_gamma   59.97797370
_symmetry_Int_Tables_number   1
_chemical_formula_structural   Ho8AlCdPd2
_chemical_formula_sum   'Ho16 Al2 Cd2 Pd4'
_cell_volume   627.91378068
_cell_formula_units_Z   2
loop_
 _symmetry_equiv_pos_site_id
 _symmetry_equiv_pos_as_xyz
  1  'x, y, z'
loop_
 _atom_site_type_symbol
 _atom_site_label
 _atom_site_symmetry_multiplicity
 _atom_site_fract_x
 _atom_site_fract_y
 _atom_site_fract_z
 _atom_site_occupancy
  Ho  Ho0  1  0.354758  0.354758  0.352738  1
  Ho  Ho1  1  0.354758  0.354758  0.937747  1
  Ho  Ho2  1  0.356783  0.934191  0.354514  1
  Ho  Ho3  1  0.934191  0.356783  0.354514  1
  Ho  Ho4  1  0.808926  0.192390  0.190131  1
  Ho  Ho5  1  0.192390  0.808926  0.808553  1
  Ho  Ho6  1  0.192390  0.808926  0.190131  1
  Ho  Ho7  1  0.808926  0.192390  0.808553  1
  Ho  Ho8  1  0.189349  0.189349  0.810651  1
  Ho  Ho9  1  0.806751  0.806751  0.193249  1
  Ho  Ho10  1  0.932304  0.565767  0.566017  1
  Ho  Ho11  1  0.565767  0.932304  0.935912  1
  Ho  Ho12  1  0.565767  0.932304  0.566017  1
  Ho  Ho13  1  0.932304  0.565767  0.935912  1
  Ho  Ho14  1  0.566537  0.566537  0.933463  1
  Ho  Ho15  1  0.935401  0.935401  0.564599  1
  Al  Al16  1  0.581783  0.581783  0.578950  1
  Al  Al17  1  0.581783  0.581783  0.257482  1
  Cd  Cd18  1  0.581963  0.257370  0.580333  1
  Cd  Cd19  1  0.257370  0.581963  0.580333  1
  Pd  Pd20  1  0.144461  0.144461  0.144798  1
  Pd  Pd21  1  0.144461  0.144461  0.566281  1
  Pd  Pd22  1  0.143768  0.567108  0.144562  1
  Pd  Pd23  1  0.567108  0.143768  0.144562  1
