# generated using pymatgen
data_Tb15CeCd3HgRu4
_symmetry_space_group_name_H-M   'P 1'
_cell_length_a   9.70070675
_cell_length_b   9.70070712
_cell_length_c   9.69832002
_cell_angle_alpha   59.35579255
_cell_angle_beta   59.35578896
_cell_angle_gamma   59.37562720
_symmetry_Int_Tables_number   1
_chemical_formula_structural   Tb15CeCd3HgRu4
_chemical_formula_sum   'Tb15 Ce1 Cd3 Hg1 Ru4'
_cell_volume   635.97386879
_cell_formula_units_Z   1
loop_
 _symmetry_equiv_pos_site_id
 _symmetry_equiv_pos_as_xyz
  1  'x, y, z'
loop_
 _atom_site_type_symbol
 _atom_site_label
 _atom_site_symmetry_multiplicity
 _atom_site_fract_x
 _atom_site_fract_y
 _atom_site_fract_z
 _atom_site_occupancy
  Tb  Tb0  1  0.561589  0.561589  0.940129  1
  Tb  Tb1  1  0.937382  0.561390  0.939030  1
  Tb  Tb2  1  0.561390  0.937382  0.939030  1
  Tb  Tb3  1  0.938050  0.938050  0.561542  1
  Tb  Tb4  1  0.561816  0.938212  0.562058  1
  Tb  Tb5  1  0.938212  0.561816  0.562058  1
  Tb  Tb6  1  0.189445  0.189445  0.812354  1
  Tb  Tb7  1  0.811388  0.188335  0.811700  1
  Tb  Tb8  1  0.188334  0.811389  0.811700  1
  Tb  Tb9  1  0.811096  0.811097  0.189174  1
  Tb  Tb10  1  0.190094  0.811336  0.190390  1
  Tb  Tb11  1  0.811336  0.190095  0.190391  1
  Tb  Tb12  1  0.346180  0.346180  0.957604  1
  Tb  Tb13  1  0.346825  0.955820  0.346546  1
  Tb  Tb14  1  0.955820  0.346825  0.346546  1
  Ce  Ce15  1  0.341587  0.341587  0.341883  1
  Cd  Cd16  1  0.579184  0.258973  0.579799  1
  Cd  Cd17  1  0.258973  0.579184  0.579799  1
  Cd  Cd18  1  0.579355  0.579355  0.580143  1
  Hg  Hg19  1  0.583531  0.583531  0.247831  1
  Ru  Ru20  1  0.147132  0.147132  0.575330  1
  Ru  Ru21  1  0.147217  0.574903  0.147613  1
  Ru  Ru22  1  0.574903  0.147217  0.147613  1
  Ru  Ru23  1  0.139161  0.139161  0.139739  1
