# generated using pymatgen
data_CaTh5(CdHg2)6
_symmetry_space_group_name_H-M   'P 1'
_cell_length_a   5.16266703
_cell_length_b   7.40573000
_cell_length_c   15.69934603
_cell_angle_alpha   90.00000000
_cell_angle_beta   90.00305614
_cell_angle_gamma   90.00000000
_symmetry_Int_Tables_number   1
_chemical_formula_structural   CaTh5(CdHg2)6
_chemical_formula_sum   'Ca1 Th5 Cd6 Hg12'
_cell_volume   600.23809046
_cell_formula_units_Z   1
loop_
 _symmetry_equiv_pos_site_id
 _symmetry_equiv_pos_as_xyz
  1  'x, y, z'
loop_
 _atom_site_type_symbol
 _atom_site_label
 _atom_site_symmetry_multiplicity
 _atom_site_fract_x
 _atom_site_fract_y
 _atom_site_fract_z
 _atom_site_occupancy
  Ca  Ca0  1  0.500175  0.000000  0.833362  1
  Th  Th1  1  0.000005  0.500001  0.999225  1
  Th  Th2  1  0.499842  0.000000  0.165942  1
  Th  Th3  1  0.999865  0.500001  0.333297  1
  Th  Th4  1  0.500003  0.000000  0.500643  1
  Th  Th5  1  0.000130  0.500001  0.667502  1
  Cd  Cd6  1  0.999986  0.000000  0.999544  1
  Cd  Cd7  1  0.499824  0.500001  0.166890  1
  Cd  Cd8  1  0.999850  0.000000  0.333352  1
  Cd  Cd9  1  0.499994  0.500001  0.499892  1
  Cd  Cd10  1  0.000161  0.000000  0.667101  1
  Cd  Cd11  1  0.500154  0.500001  0.833216  1
  Hg  Hg12  1  0.499997  0.245134  0.997624  1
  Hg  Hg13  1  0.499997  0.754866  0.997624  1
  Hg  Hg14  1  0.999837  0.254633  0.166371  1
  Hg  Hg15  1  0.999837  0.745367  0.166371  1
  Hg  Hg16  1  0.499846  0.245972  0.333396  1
  Hg  Hg17  1  0.499846  0.754027  0.333396  1
  Hg  Hg18  1  0.000000  0.254512  0.500361  1
  Hg  Hg19  1  0.000000  0.745487  0.500361  1
  Hg  Hg20  1  0.500159  0.245102  0.668992  1
  Hg  Hg21  1  0.500159  0.754897  0.668992  1
  Hg  Hg22  1  0.000163  0.247983  0.833271  1
  Hg  Hg23  1  0.000163  0.752017  0.833271  1
