# generated using pymatgen
data_Sr5Th(Sn4Sb)2
_symmetry_space_group_name_H-M   'P 1'
_cell_length_a   8.96527069
_cell_length_b   8.96526070
_cell_length_c   8.96526308
_cell_angle_alpha   120.30139078
_cell_angle_beta   120.30148187
_cell_angle_gamma   89.47877788
_symmetry_Int_Tables_number   1
_chemical_formula_structural   Sr5Th(Sn4Sb)2
_chemical_formula_sum   'Sr5 Th1 Sn8 Sb2'
_cell_volume   507.19069810
_cell_formula_units_Z   1
loop_
 _symmetry_equiv_pos_site_id
 _symmetry_equiv_pos_as_xyz
  1  'x, y, z'
loop_
 _atom_site_type_symbol
 _atom_site_label
 _atom_site_symmetry_multiplicity
 _atom_site_fract_x
 _atom_site_fract_y
 _atom_site_fract_z
 _atom_site_occupancy
  Sr  Sr0  1  0.749998  0.750001  0.000000  1
  Sr  Sr1  1  0.163220  0.663221  0.826440  1
  Sr  Sr2  1  0.836780  0.336780  0.173560  1
  Sr  Sr3  1  0.663218  0.836779  0.499999  1
  Sr  Sr4  1  0.336781  0.163219  0.500000  1
  Th  Th5  1  0.250001  0.249999  0.999999  1
  Sn  Sn6  1  0.832335  0.328818  0.787126  1
  Sn  Sn7  1  0.171181  0.667665  0.212874  1
  Sn  Sn8  1  0.541693  0.045209  0.212874  1
  Sn  Sn9  1  0.328818  0.541692  0.496483  1
  Sn  Sn10  1  0.958308  0.171182  0.503517  1
  Sn  Sn11  1  0.454790  0.958308  0.787126  1
  Sn  Sn12  1  0.667666  0.454791  0.496484  1
  Sn  Sn13  1  0.045210  0.832335  0.503517  1
  Sb  Sb14  1  0.005963  0.005964  0.000001  1
  Sb  Sb15  1  0.494037  0.494037  0.000001  1
