# generated using pymatgen
data_TbSmDy6(WO6)4
_symmetry_space_group_name_H-M   'P 1'
_cell_length_a   5.41857100
_cell_length_b   7.73355990
_cell_length_c   11.51361816
_cell_angle_alpha   75.50528844
_cell_angle_beta   90.00000000
_cell_angle_gamma   90.00000000
_symmetry_Int_Tables_number   1
_chemical_formula_structural   TbSmDy6(WO6)4
_chemical_formula_sum   'Tb1 Sm1 Dy6 W4 O24'
_cell_volume   467.11950362
_cell_formula_units_Z   1
loop_
 _symmetry_equiv_pos_site_id
 _symmetry_equiv_pos_as_xyz
  1  'x, y, z'
loop_
 _atom_site_type_symbol
 _atom_site_label
 _atom_site_symmetry_multiplicity
 _atom_site_fract_x
 _atom_site_fract_y
 _atom_site_fract_z
 _atom_site_occupancy
  Tb  Tb0  1  0.316296  0.500000  0.250000  1
  Sm  Sm1  1  0.684246  0.500000  0.750000  1
  Dy  Dy2  1  0.740174  0.000000  0.750000  1
  Dy  Dy3  1  0.261234  0.000000  0.250000  1
  Dy  Dy4  1  0.186788  0.796801  0.576760  1
  Dy  Dy5  1  0.813905  0.795492  0.077946  1
  Dy  Dy6  1  0.186788  0.203199  0.923240  1
  Dy  Dy7  1  0.813905  0.204508  0.422054  1
  W  W8  1  0.254079  0.725127  0.885784  1
  W  W9  1  0.745807  0.724153  0.384478  1
  W  W10  1  0.254079  0.274873  0.614216  1
  W  W11  1  0.745807  0.275847  0.115522  1
  O  O12  1  0.041495  0.939353  0.896428  1
  O  O13  1  0.530976  0.848199  0.930784  1
  O  O14  1  0.957882  0.940172  0.394539  1
  O  O15  1  0.457407  0.791569  0.728095  1
  O  O16  1  0.470348  0.848576  0.430308  1
  O  O17  1  0.984866  0.714573  0.770793  1
  O  O18  1  0.541101  0.789930  0.227672  1
  O  O19  1  0.852640  0.636674  0.546124  1
  O  O20  1  0.355460  0.491116  0.887812  1
  O  O21  1  0.017638  0.710570  0.271426  1
  O  O22  1  0.355460  0.508884  0.612188  1
  O  O23  1  0.852640  0.363326  0.953876  1
  O  O24  1  0.149533  0.637420  0.048332  1
  O  O25  1  0.639099  0.491118  0.386174  1
  O  O26  1  0.984866  0.285427  0.729207  1
  O  O27  1  0.639099  0.508882  0.113826  1
  O  O28  1  0.149533  0.362580  0.451668  1
  O  O29  1  0.457407  0.208431  0.771905  1
  O  O30  1  0.017638  0.289430  0.228574  1
  O  O31  1  0.530976  0.151801  0.569216  1
  O  O32  1  0.541101  0.210070  0.272328  1
  O  O33  1  0.041495  0.060647  0.603572  1
  O  O34  1  0.470348  0.151424  0.069692  1
  O  O35  1  0.957882  0.059828  0.105461  1
