# generated using pymatgen
data_TbPr5EuFeI12
_symmetry_space_group_name_H-M   'P 1'
_cell_length_a   10.06532886
_cell_length_b   9.99202468
_cell_length_c   9.98267351
_cell_angle_alpha   106.74279781
_cell_angle_beta   106.40949696
_cell_angle_gamma   106.90797226
_symmetry_Int_Tables_number   1
_chemical_formula_structural   TbPr5EuFeI12
_chemical_formula_sum   'Tb1 Pr5 Eu1 Fe1 I12'
_cell_volume   843.16027545
_cell_formula_units_Z   1
loop_
 _symmetry_equiv_pos_site_id
 _symmetry_equiv_pos_as_xyz
  1  'x, y, z'
loop_
 _atom_site_type_symbol
 _atom_site_label
 _atom_site_symmetry_multiplicity
 _atom_site_fract_x
 _atom_site_fract_y
 _atom_site_fract_z
 _atom_site_occupancy
  Tb  Tb0  1  0.798032  0.524685  0.597371  1
  Pr  Pr1  1  0.523129  0.594918  0.791787  1
  Pr  Pr2  1  0.191025  0.475480  0.400187  1
  Pr  Pr3  1  0.476127  0.405244  0.208331  1
  Pr  Pr4  1  0.596788  0.792845  0.524311  1
  Pr  Pr5  1  0.406700  0.207734  0.476451  1
  Eu  Eu6  1  0.000449  0.999225  0.999651  1
  Fe  Fe7  1  0.500548  0.500878  0.500794  1
  I  I8  1  0.731972  0.191926  0.576487  1
  I  I9  1  0.956560  0.868690  0.646246  1
  I  I10  1  0.575737  0.727817  0.181976  1
  I  I11  1  0.123278  0.352091  0.041156  1
  I  I12  1  0.651258  0.959719  0.879184  1
  I  I13  1  0.876176  0.642253  0.948091  1
  I  I14  1  0.043452  0.120369  0.352537  1
  I  I15  1  0.818440  0.427930  0.282429  1
  I  I16  1  0.350146  0.040765  0.120868  1
  I  I17  1  0.276608  0.820596  0.426641  1
  I  I18  1  0.178177  0.574289  0.727237  1
  I  I19  1  0.425398  0.272545  0.818265  1
