# generated using pymatgen
data_Tb9Tm(Pb3Br)2
_symmetry_space_group_name_H-M   'P 1'
_cell_length_a   9.31246200
_cell_length_b   9.31246266
_cell_length_c   6.69714000
_cell_angle_alpha   90.00000000
_cell_angle_beta   90.00000000
_cell_angle_gamma   119.99999056
_symmetry_Int_Tables_number   1
_chemical_formula_structural   Tb9Tm(Pb3Br)2
_chemical_formula_sum   'Tb9 Tm1 Pb6 Br2'
_cell_volume   502.97813772
_cell_formula_units_Z   1
loop_
 _symmetry_equiv_pos_site_id
 _symmetry_equiv_pos_as_xyz
  1  'x, y, z'
loop_
 _atom_site_type_symbol
 _atom_site_label
 _atom_site_symmetry_multiplicity
 _atom_site_fract_x
 _atom_site_fract_y
 _atom_site_fract_z
 _atom_site_occupancy
  Tb  Tb0  1  0.267398  0.999861  0.249846  1
  Tb  Tb1  1  0.732463  0.999861  0.750154  1
  Tb  Tb2  1  0.000139  0.267537  0.249846  1
  Tb  Tb3  1  0.000139  0.732602  0.750154  1
  Tb  Tb4  1  0.732463  0.732602  0.249846  1
  Tb  Tb5  1  0.267398  0.267537  0.750154  1
  Tb  Tb6  1  0.666667  0.333333  0.000000  1
  Tb  Tb7  1  0.666667  0.333333  0.500000  1
  Tb  Tb8  1  0.333333  0.666667  0.500000  1
  Tm  Tm9  1  0.333333  0.666667  0.000000  1
  Pb  Pb10  1  0.612070  0.999431  0.249633  1
  Pb  Pb11  1  0.387360  0.999431  0.750367  1
  Pb  Pb12  1  0.000569  0.612640  0.249633  1
  Pb  Pb13  1  0.000569  0.387930  0.750367  1
  Pb  Pb14  1  0.387360  0.387930  0.249633  1
  Pb  Pb15  1  0.612070  0.612640  0.750367  1
  Br  Br16  1  0.000000  0.000000  0.000000  1
  Br  Br17  1  0.000000  0.000000  0.500000  1
