# generated using pymatgen
data_Ba7Tc2Sb2O19
_symmetry_space_group_name_H-M   'P 1'
_cell_length_a   7.82971642
_cell_length_b   7.82972377
_cell_length_c   11.09441844
_cell_angle_alpha   81.45933445
_cell_angle_beta   81.45932800
_cell_angle_gamma   44.34876468
_symmetry_Int_Tables_number   1
_chemical_formula_structural   Ba7Tc2Sb2O19
_chemical_formula_sum   'Ba7 Tc2 Sb2 O19'
_cell_volume   469.27912283
_cell_formula_units_Z   1
loop_
 _symmetry_equiv_pos_site_id
 _symmetry_equiv_pos_as_xyz
  1  'x, y, z'
loop_
 _atom_site_type_symbol
 _atom_site_label
 _atom_site_symmetry_multiplicity
 _atom_site_fract_x
 _atom_site_fract_y
 _atom_site_fract_z
 _atom_site_occupancy
  Ba  Ba0  1  0.201995  0.201995  0.415401  1
  Ba  Ba1  1  0.798005  0.798005  0.584599  1
  Ba  Ba2  1  0.422266  0.422266  0.177653  1
  Ba  Ba3  1  0.577734  0.577734  0.822347  1
  Ba  Ba4  1  0.500000  0.500000  0.500000  1
  Ba  Ba5  1  0.868982  0.868982  0.949685  1
  Ba  Ba6  1  0.131018  0.131018  0.050315  1
  Tc  Tc7  1  0.673173  0.673173  0.212366  1
  Tc  Tc8  1  0.326827  0.326827  0.787634  1
  Sb  Sb9  1  0.965120  0.965121  0.323186  1
  Sb  Sb10  1  0.034880  0.034879  0.676814  1
  O  O11  1  0.000000  0.000000  0.500000  1
  O  O12  1  0.688433  0.688433  0.369494  1
  O  O13  1  0.311567  0.311567  0.630506  1
  O  O14  1  0.049197  0.049197  0.853967  1
  O  O15  1  0.950803  0.950803  0.146033  1
  O  O16  1  0.392356  0.392356  0.922203  1
  O  O17  1  0.607644  0.607644  0.077797  1
  O  O18  1  0.828457  0.310981  0.279513  1
  O  O19  1  0.689019  0.171543  0.720488  1
  O  O20  1  0.171543  0.689019  0.720487  1
  O  O21  1  0.310981  0.828457  0.279512  1
  O  O22  1  0.629712  0.120968  0.377831  1
  O  O23  1  0.879032  0.370287  0.622169  1
  O  O24  1  0.370288  0.879032  0.622169  1
  O  O25  1  0.120968  0.629713  0.377831  1
  O  O26  1  0.978842  0.523969  0.157182  1
  O  O27  1  0.476031  0.021159  0.842818  1
  O  O28  1  0.021158  0.476031  0.842818  1
  O  O29  1  0.523969  0.978841  0.157182  1
