# generated using pymatgen
data_MgMn3(ZnPd5)2
_symmetry_space_group_name_H-M   'P 1'
_cell_length_a   4.12915700
_cell_length_b   5.44041971
_cell_length_c   10.73383493
_cell_angle_alpha   89.75265782
_cell_angle_beta   90.00000000
_cell_angle_gamma   90.00000000
_symmetry_Int_Tables_number   1
_chemical_formula_structural   MgMn3(ZnPd5)2
_chemical_formula_sum   'Mg1 Mn3 Zn2 Pd10'
_cell_volume   241.12634711
_cell_formula_units_Z   1
loop_
 _symmetry_equiv_pos_site_id
 _symmetry_equiv_pos_as_xyz
  1  'x, y, z'
loop_
 _atom_site_type_symbol
 _atom_site_label
 _atom_site_symmetry_multiplicity
 _atom_site_fract_x
 _atom_site_fract_y
 _atom_site_fract_z
 _atom_site_occupancy
  Mg  Mg0  1  0.500000  0.675802  0.363823  1
  Mn  Mn1  1  0.500000  0.180913  0.135856  1
  Mn  Mn2  1  0.500000  0.820122  0.864344  1
  Mn  Mn3  1  0.500000  0.320328  0.635893  1
  Zn  Zn4  1  0.000000  0.001154  0.500835  1
  Zn  Zn5  1  0.000000  0.500112  0.999682  1
  Pd  Pd6  1  0.500000  0.184080  0.388167  1
  Pd  Pd7  1  0.500000  0.815074  0.614385  1
  Pd  Pd8  1  0.500000  0.312485  0.887748  1
  Pd  Pd9  1  0.500000  0.689529  0.109273  1
  Pd  Pd10  1  0.000000  0.415944  0.240776  1
  Pd  Pd11  1  0.000000  0.583032  0.758213  1
  Pd  Pd12  1  0.000000  0.084078  0.742545  1
  Pd  Pd13  1  0.000000  0.919200  0.256312  1
  Pd  Pd14  1  0.000000  0.000742  0.999668  1
  Pd  Pd15  1  0.000000  0.497405  0.502479  1
