# generated using pymatgen
data_TbDy7(Sc3Pt4)4
_symmetry_space_group_name_H-M   'P 1'
_cell_length_a   7.38119300
_cell_length_b   7.36526600
_cell_length_c   13.83065400
_cell_angle_alpha   90.00108724
_cell_angle_beta   89.99968732
_cell_angle_gamma   90.00205925
_symmetry_Int_Tables_number   1
_chemical_formula_structural   TbDy7(Sc3Pt4)4
_chemical_formula_sum   'Tb1 Dy7 Sc12 Pt16'
_cell_volume   751.89589535
_cell_formula_units_Z   1
loop_
 _symmetry_equiv_pos_site_id
 _symmetry_equiv_pos_as_xyz
  1  'x, y, z'
loop_
 _atom_site_type_symbol
 _atom_site_label
 _atom_site_symmetry_multiplicity
 _atom_site_fract_x
 _atom_site_fract_y
 _atom_site_fract_z
 _atom_site_occupancy
  Tb  Tb0  1  0.008470  0.175741  0.095357  1
  Dy  Dy1  1  0.991393  0.824046  0.904477  1
  Dy  Dy2  1  0.491419  0.675841  0.904529  1
  Dy  Dy3  1  0.991369  0.824143  0.595463  1
  Dy  Dy4  1  0.508586  0.324202  0.095486  1
  Dy  Dy5  1  0.008631  0.175857  0.404540  1
  Dy  Dy6  1  0.508604  0.324161  0.404545  1
  Dy  Dy7  1  0.491394  0.675857  0.595465  1
  Sc  Sc8  1  0.164369  0.499744  0.749981  1
  Sc  Sc9  1  0.835613  0.500332  0.250044  1
  Sc  Sc10  1  0.335780  0.999673  0.250047  1
  Sc  Sc11  1  0.664362  0.000234  0.749978  1
  Sc  Sc12  1  0.332592  0.165596  0.623839  1
  Sc  Sc13  1  0.667388  0.834399  0.376172  1
  Sc  Sc14  1  0.167417  0.665553  0.376165  1
  Sc  Sc15  1  0.667289  0.834328  0.123878  1
  Sc  Sc16  1  0.832583  0.334410  0.623833  1
  Sc  Sc17  1  0.332655  0.165603  0.876120  1
  Sc  Sc18  1  0.832507  0.334460  0.876061  1
  Sc  Sc19  1  0.167452  0.665559  0.123868  1
  Pt  Pt20  1  0.030335  0.125635  0.750011  1
  Pt  Pt21  1  0.969609  0.874207  0.250103  1
  Pt  Pt22  1  0.469678  0.625677  0.250006  1
  Pt  Pt23  1  0.530328  0.374356  0.749999  1
  Pt  Pt24  1  0.294363  0.856750  0.750012  1
  Pt  Pt25  1  0.705468  0.143233  0.250103  1
  Pt  Pt26  1  0.205838  0.356922  0.250160  1
  Pt  Pt27  1  0.794351  0.643260  0.750003  1
  Pt  Pt28  1  0.172871  0.458385  0.543211  1
  Pt  Pt29  1  0.827111  0.541653  0.456789  1
  Pt  Pt30  1  0.327125  0.958374  0.456782  1
  Pt  Pt31  1  0.827039  0.541890  0.043159  1
  Pt  Pt32  1  0.672863  0.041625  0.543211  1
  Pt  Pt33  1  0.172953  0.458565  0.956718  1
  Pt  Pt34  1  0.672783  0.041576  0.956726  1
  Pt  Pt35  1  0.327410  0.958153  0.043157  1
