# generated using pymatgen
data_Ho6Al24Ru5Pt2Au
_symmetry_space_group_name_H-M   'P 1'
_cell_length_a   8.86307784
_cell_length_b   8.86307883
_cell_length_c   9.51662899
_cell_angle_alpha   89.69308126
_cell_angle_beta   90.30691538
_cell_angle_gamma   120.01090158
_symmetry_Int_Tables_number   1
_chemical_formula_structural   Ho6Al24Ru5Pt2Au
_chemical_formula_sum   'Ho6 Al24 Ru5 Pt2 Au1'
_cell_volume   647.33176749
_cell_formula_units_Z   1
loop_
 _symmetry_equiv_pos_site_id
 _symmetry_equiv_pos_as_xyz
  1  'x, y, z'
loop_
 _atom_site_type_symbol
 _atom_site_label
 _atom_site_symmetry_multiplicity
 _atom_site_fract_x
 _atom_site_fract_y
 _atom_site_fract_z
 _atom_site_occupancy
  Ho  Ho0  1  0.192239  0.384055  0.248259  1
  Ho  Ho1  1  0.807761  0.615945  0.751741  1
  Ho  Ho2  1  0.615945  0.807761  0.248259  1
  Ho  Ho3  1  0.384055  0.192239  0.751741  1
  Ho  Ho4  1  0.191906  0.808094  0.253458  1
  Ho  Ho5  1  0.808094  0.191906  0.746542  1
  Al  Al6  1  0.327569  0.672431  0.028412  1
  Al  Al7  1  0.672431  0.327569  0.971588  1
  Al  Al8  1  0.663813  0.336187  0.529155  1
  Al  Al9  1  0.336187  0.663813  0.470845  1
  Al  Al10  1  0.167132  0.324615  0.576592  1
  Al  Al11  1  0.832868  0.675385  0.423408  1
  Al  Al12  1  0.675385  0.832868  0.576592  1
  Al  Al13  1  0.848905  0.676868  0.078421  1
  Al  Al14  1  0.324615  0.167132  0.423408  1
  Al  Al15  1  0.151095  0.323132  0.921579  1
  Al  Al16  1  0.161733  0.838267  0.579233  1
  Al  Al17  1  0.323132  0.151095  0.078421  1
  Al  Al18  1  0.838267  0.161733  0.420767  1
  Al  Al19  1  0.676868  0.848905  0.921579  1
  Al  Al20  1  0.837080  0.162920  0.076843  1
  Al  Al21  1  0.162920  0.837080  0.923157  1
  Al  Al22  1  0.562436  0.123831  0.246588  1
  Al  Al23  1  0.437564  0.876169  0.753412  1
  Al  Al24  1  0.876169  0.437564  0.246588  1
  Al  Al25  1  0.123831  0.562436  0.753412  1
  Al  Al26  1  0.564135  0.435865  0.258379  1
  Al  Al27  1  0.435865  0.564135  0.741621  1
  Al  Al28  1  0.999671  0.000329  0.250009  1
  Al  Al29  1  0.000329  0.999671  0.749991  1
  Ru  Ru30  1  0.500000  0.000000  0.000000  1
  Ru  Ru31  1  0.000000  0.500000  0.000000  1
  Ru  Ru32  1  0.500000  0.500000  0.500000  1
  Ru  Ru33  1  0.000000  0.000000  0.000000  1
  Ru  Ru34  1  0.000000  0.000000  0.500000  1
  Pt  Pt35  1  0.500000  0.000000  0.500000  1
  Pt  Pt36  1  0.000000  0.500000  0.500000  1
  Au  Au37  1  0.500000  0.500000  0.000000  1
