# generated using pymatgen
data_LiDy4Co17(P6Ru)2
_symmetry_space_group_name_H-M   'P 1'
_cell_length_a   3.67577100
_cell_length_b   10.30912699
_cell_length_c   11.77104491
_cell_angle_alpha   89.87615056
_cell_angle_beta   90.00000000
_cell_angle_gamma   90.00000000
_symmetry_Int_Tables_number   1
_chemical_formula_structural   LiDy4Co17(P6Ru)2
_chemical_formula_sum   'Li1 Dy4 Co17 P12 Ru2'
_cell_volume   446.05081635
_cell_formula_units_Z   1
loop_
 _symmetry_equiv_pos_site_id
 _symmetry_equiv_pos_as_xyz
  1  'x, y, z'
loop_
 _atom_site_type_symbol
 _atom_site_label
 _atom_site_symmetry_multiplicity
 _atom_site_fract_x
 _atom_site_fract_y
 _atom_site_fract_z
 _atom_site_occupancy
  Li  Li0  1  0.750000  0.295963  0.009402  1
  Dy  Dy1  1  0.250000  0.582497  0.701788  1
  Dy  Dy2  1  0.250000  0.919248  0.202602  1
  Dy  Dy3  1  0.750000  0.414308  0.296372  1
  Dy  Dy4  1  0.750000  0.084477  0.794994  1
  Co  Co5  1  0.750000  0.215867  0.508068  1
  Co  Co6  1  0.250000  0.406141  0.486409  1
  Co  Co7  1  0.250000  0.092150  0.987245  1
  Co  Co8  1  0.750000  0.591302  0.510286  1
  Co  Co9  1  0.750000  0.906165  0.010823  1
  Co  Co10  1  0.250000  0.218917  0.179045  1
  Co  Co11  1  0.250000  0.280594  0.673028  1
  Co  Co12  1  0.750000  0.777375  0.823534  1
  Co  Co13  1  0.750000  0.721337  0.323517  1
  Co  Co14  1  0.250000  0.886079  0.702437  1
  Co  Co15  1  0.250000  0.615167  0.201843  1
  Co  Co16  1  0.750000  0.115205  0.302357  1
  Co  Co17  1  0.750000  0.382406  0.799706  1
  Co  Co18  1  0.250000  0.463804  0.933195  1
  Co  Co19  1  0.250000  0.034482  0.433255  1
  Co  Co20  1  0.750000  0.534669  0.069174  1
  Co  Co21  1  0.750000  0.967099  0.569450  1
  P  P22  1  0.250000  0.418586  0.115286  1
  P  P23  1  0.250000  0.082838  0.612003  1
  P  P24  1  0.750000  0.576691  0.886564  1
  P  P25  1  0.750000  0.920825  0.387697  1
  P  P26  1  0.250000  0.270313  0.863115  1
  P  P27  1  0.250000  0.228632  0.369048  1
  P  P28  1  0.750000  0.730467  0.133537  1
  P  P29  1  0.750000  0.771167  0.633578  1
  P  P30  1  0.250000  0.595350  0.390341  1
  P  P31  1  0.250000  0.904085  0.891553  1
  P  P32  1  0.750000  0.397573  0.606835  1
  P  P33  1  0.750000  0.102491  0.108744  1
  Ru  Ru34  1  0.250000  0.711161  0.990984  1
  Ru  Ru35  1  0.250000  0.784569  0.492185  1
