# generated using pymatgen
data_HoUInIr2
_symmetry_space_group_name_H-M   'P 1'
_cell_length_a   7.69483262
_cell_length_b   7.69483262
_cell_length_c   3.57244300
_cell_angle_alpha   90.00000000
_cell_angle_beta   90.00000000
_cell_angle_gamma   85.52694111
_symmetry_Int_Tables_number   1
_chemical_formula_structural   HoUInIr2
_chemical_formula_sum   'Ho2 U2 In2 Ir4'
_cell_volume   210.88167095
_cell_formula_units_Z   2
loop_
 _symmetry_equiv_pos_site_id
 _symmetry_equiv_pos_as_xyz
  1  'x, y, z'
loop_
 _atom_site_type_symbol
 _atom_site_label
 _atom_site_symmetry_multiplicity
 _atom_site_fract_x
 _atom_site_fract_y
 _atom_site_fract_z
 _atom_site_occupancy
  Ho  Ho0  1  0.669947  0.169947  0.500000  1
  Ho  Ho1  1  0.330053  0.830053  0.500000  1
  U  U2  1  0.167472  0.332528  0.500000  1
  U  U3  1  0.832528  0.667472  0.500000  1
  In  In4  1  0.500000  0.500000  0.000000  1
  In  In5  1  0.000000  0.000000  0.000000  1
  Ir  Ir6  1  0.124270  0.624270  0.000000  1
  Ir  Ir7  1  0.875730  0.375730  0.000000  1
  Ir  Ir8  1  0.646258  0.853742  0.000000  1
  Ir  Ir9  1  0.353742  0.146258  0.000000  1
