# generated using pymatgen
data_Dy8ReSi16W11
_symmetry_space_group_name_H-M   'P 1'
_cell_length_a   6.88252451
_cell_length_b   6.88252404
_cell_length_c   12.78703112
_cell_angle_alpha   89.98060098
_cell_angle_beta   90.01940092
_cell_angle_gamma   89.80907018
_symmetry_Int_Tables_number   1
_chemical_formula_structural   Dy8ReSi16W11
_chemical_formula_sum   'Dy8 Re1 Si16 W11'
_cell_volume   605.70723946
_cell_formula_units_Z   1
loop_
 _symmetry_equiv_pos_site_id
 _symmetry_equiv_pos_as_xyz
  1  'x, y, z'
loop_
 _atom_site_type_symbol
 _atom_site_label
 _atom_site_symmetry_multiplicity
 _atom_site_fract_x
 _atom_site_fract_y
 _atom_site_fract_z
 _atom_site_occupancy
  Dy  Dy0  1  0.002823  0.661674  0.031022  1
  Dy  Dy1  1  0.997957  0.337421  0.530988  1
  Dy  Dy2  1  0.661674  0.002823  0.968978  1
  Dy  Dy3  1  0.163227  0.497426  0.781501  1
  Dy  Dy4  1  0.837055  0.501584  0.280413  1
  Dy  Dy5  1  0.497426  0.163227  0.218499  1
  Dy  Dy6  1  0.501584  0.837055  0.719587  1
  Dy  Dy7  1  0.337421  0.997957  0.469012  1
  Re  Re8  1  0.332678  0.332678  0.000000  1
  Si  Si9  1  0.035891  0.711893  0.436035  1
  Si  Si10  1  0.967411  0.285314  0.937844  1
  Si  Si11  1  0.711893  0.035891  0.563965  1
  Si  Si12  1  0.211956  0.462089  0.184236  1
  Si  Si13  1  0.789641  0.536534  0.685626  1
  Si  Si14  1  0.462089  0.211956  0.815764  1
  Si  Si15  1  0.536534  0.789641  0.314374  1
  Si  Si16  1  0.285314  0.967411  0.062156  1
  Si  Si17  1  0.797605  0.874584  0.183803  1
  Si  Si18  1  0.298391  0.625565  0.566191  1
  Si  Si19  1  0.697485  0.376479  0.065152  1
  Si  Si20  1  0.625565  0.298391  0.433809  1
  Si  Si21  1  0.376479  0.697485  0.934848  1
  Si  Si22  1  0.125827  0.202746  0.315842  1
  Si  Si23  1  0.202746  0.125827  0.684158  1
  Si  Si24  1  0.874584  0.797605  0.816197  1
  W  W25  1  0.334849  0.500379  0.375027  1
  W  W26  1  0.836309  0.001063  0.373393  1
  W  W27  1  0.995067  0.164844  0.127784  1
  W  W28  1  0.001063  0.836309  0.626607  1
  W  W29  1  0.500379  0.334849  0.624973  1
  W  W30  1  0.164844  0.995067  0.872216  1
  W  W31  1  0.666724  0.666724  0.500000  1
  W  W32  1  0.833535  0.167206  0.750896  1
  W  W33  1  0.167206  0.833535  0.249104  1
  W  W34  1  0.499832  0.668934  0.125198  1
  W  W35  1  0.668934  0.499832  0.874802  1
