# generated using pymatgen
data_Ca2B8Os3Ru4
_symmetry_space_group_name_H-M   'P 1'
_cell_length_a   6.45548200
_cell_length_b   6.45548200
_cell_length_c   10.11525800
_cell_angle_alpha   90.00000000
_cell_angle_beta   90.00000000
_cell_angle_gamma   90.00000000
_symmetry_Int_Tables_number   1
_chemical_formula_structural   Ca2B8Os3Ru4
_chemical_formula_sum   'Ca4 B16 Os6 Ru8'
_cell_volume   421.53565372
_cell_formula_units_Z   2
loop_
 _symmetry_equiv_pos_site_id
 _symmetry_equiv_pos_as_xyz
  1  'x, y, z'
loop_
 _atom_site_type_symbol
 _atom_site_label
 _atom_site_symmetry_multiplicity
 _atom_site_fract_x
 _atom_site_fract_y
 _atom_site_fract_z
 _atom_site_occupancy
  Ca  Ca0  1  0.732325  0.890037  0.000000  1
  Ca  Ca1  1  0.109963  0.732325  0.500000  1
  Ca  Ca2  1  0.890037  0.267675  0.500000  1
  Ca  Ca3  1  0.267675  0.109963  0.000000  1
  B  B4  1  0.500000  0.000000  0.589030  1
  B  B5  1  0.500000  0.000000  0.410970  1
  B  B6  1  0.898692  0.268724  0.162366  1
  B  B7  1  0.101308  0.731276  0.837634  1
  B  B8  1  0.500000  0.500000  0.339797  1
  B  B9  1  0.500000  0.500000  0.839797  1
  B  B10  1  0.268724  0.101308  0.662366  1
  B  B11  1  0.101308  0.731276  0.162366  1
  B  B12  1  0.268724  0.101308  0.337634  1
  B  B13  1  0.898692  0.268724  0.837634  1
  B  B14  1  0.500000  0.500000  0.660203  1
  B  B15  1  0.500000  0.500000  0.160203  1
  B  B16  1  0.000000  0.500000  0.910970  1
  B  B17  1  0.731276  0.898692  0.662366  1
  B  B18  1  0.731276  0.898692  0.337634  1
  B  B19  1  0.000000  0.500000  0.089030  1
  Os  Os20  1  0.407632  0.289140  0.500000  1
  Os  Os21  1  0.592368  0.710860  0.500000  1
  Os  Os22  1  0.289140  0.592368  0.000000  1
  Os  Os23  1  0.710860  0.407632  0.000000  1
  Os  Os24  1  0.000000  0.000000  0.250000  1
  Os  Os25  1  0.000000  0.000000  0.750000  1
  Ru  Ru26  1  0.204608  0.392140  0.755222  1
  Ru  Ru27  1  0.392140  0.795392  0.255222  1
  Ru  Ru28  1  0.204608  0.392140  0.244778  1
  Ru  Ru29  1  0.607860  0.204608  0.744778  1
  Ru  Ru30  1  0.795392  0.607860  0.244778  1
  Ru  Ru31  1  0.795392  0.607860  0.755222  1
  Ru  Ru32  1  0.392140  0.795392  0.744778  1
  Ru  Ru33  1  0.607860  0.204608  0.255222  1
