# generated using pymatgen
data_Nb6Si6Tc5W
_symmetry_space_group_name_H-M   'P 1'
_cell_length_a   7.61466908
_cell_length_b   7.60115563
_cell_length_c   7.61356230
_cell_angle_alpha   126.94511174
_cell_angle_beta   126.57285662
_cell_angle_gamma   78.70826964
_symmetry_Int_Tables_number   1
_chemical_formula_structural   Nb6Si6Tc5W
_chemical_formula_sum   'Nb6 Si6 Tc5 W1'
_cell_volume   273.65077172
_cell_formula_units_Z   1
loop_
 _symmetry_equiv_pos_site_id
 _symmetry_equiv_pos_as_xyz
  1  'x, y, z'
loop_
 _atom_site_type_symbol
 _atom_site_label
 _atom_site_symmetry_multiplicity
 _atom_site_fract_x
 _atom_site_fract_y
 _atom_site_fract_z
 _atom_site_occupancy
  Nb  Nb0  1  0.549241  0.104503  0.055664  1
  Nb  Nb1  1  0.450971  0.488772  0.534904  1
  Nb  Nb2  1  0.957704  0.504729  0.049134  1
  Nb  Nb3  1  0.044081  0.084838  0.541973  1
  Nb  Nb4  1  0.747587  0.896857  0.645440  1
  Nb  Nb5  1  0.249004  0.900538  0.154792  1
  Si  Si6  1  0.765060  0.525882  0.263520  1
  Si  Si7  1  0.244670  0.466457  0.718189  1
  Si  Si8  1  0.336394  0.835048  0.507903  1
  Si  Si9  1  0.667936  0.163040  0.500364  1
  Si  Si10  1  0.827716  0.831602  0.995074  1
  Si  Si11  1  0.160650  0.158714  0.993561  1
  Tc  Tc12  1  0.523234  0.242278  0.764892  1
  Tc  Tc13  1  0.975893  0.241512  0.220543  1
  Tc  Tc14  1  0.151937  0.750312  0.650261  1
  Tc  Tc15  1  0.874833  0.497800  0.624333  1
  Tc  Tc16  1  0.600923  0.751736  0.098395  1
  W  W17  1  0.372167  0.497581  0.123255  1
