# generated using pymatgen
data_Yb2Ce4MnCu5Sb8
_symmetry_space_group_name_H-M   'P 1'
_cell_length_a   8.38813748
_cell_length_b   8.38813729
_cell_length_c   8.38813746
_cell_angle_alpha   109.93700878
_cell_angle_beta   108.54361108
_cell_angle_gamma   109.93700079
_symmetry_Int_Tables_number   1
_chemical_formula_structural   Yb2Ce4MnCu5Sb8
_chemical_formula_sum   'Yb2 Ce4 Mn1 Cu5 Sb8'
_cell_volume   454.24434157
_cell_formula_units_Z   1
loop_
 _symmetry_equiv_pos_site_id
 _symmetry_equiv_pos_as_xyz
  1  'x, y, z'
loop_
 _atom_site_type_symbol
 _atom_site_label
 _atom_site_symmetry_multiplicity
 _atom_site_fract_x
 _atom_site_fract_y
 _atom_site_fract_z
 _atom_site_occupancy
  Yb  Yb0  1  0.875000  0.250000  0.125000  1
  Yb  Yb1  1  0.625000  0.750000  0.375000  1
  Ce  Ce2  1  0.250633  0.130590  0.873213  1
  Ce  Ce3  1  0.742622  0.369410  0.620043  1
  Ce  Ce4  1  0.126787  0.877420  0.257378  1
  Ce  Ce5  1  0.379957  0.622580  0.749367  1
  Mn  Mn6  1  0.375000  0.250000  0.625000  1
  Cu  Cu7  1  0.125000  0.750000  0.875000  1
  Cu  Cu8  1  0.249531  0.618192  0.367973  1
  Cu  Cu9  1  0.749782  0.881808  0.131340  1
  Cu  Cu10  1  0.632027  0.381558  0.250218  1
  Cu  Cu11  1  0.868660  0.118442  0.750469  1
  Sb  Sb12  1  0.661324  0.503890  0.001899  1
  Sb  Sb13  1  0.498009  0.996110  0.657433  1
  Sb  Sb14  1  0.003196  0.657316  0.501525  1
  Sb  Sb15  1  0.844209  0.842684  0.845880  1
  Sb  Sb16  1  0.498475  0.001671  0.155791  1
  Sb  Sb17  1  0.154120  0.498329  0.996804  1
  Sb  Sb18  1  0.998101  0.159425  0.501991  1
  Sb  Sb19  1  0.342567  0.340575  0.338676  1
