# generated using pymatgen
data_ErLu5Hf2(Co4P3)4
_symmetry_space_group_name_H-M   'P 1'
_cell_length_a   3.69097200
_cell_length_b   10.62179100
_cell_length_c   12.30207800
_cell_angle_alpha   90.00000000
_cell_angle_beta   90.00000000
_cell_angle_gamma   90.00000000
_symmetry_Int_Tables_number   1
_chemical_formula_structural   ErLu5Hf2(Co4P3)4
_chemical_formula_sum   'Er1 Lu5 Hf2 Co16 P12'
_cell_volume   482.29968544
_cell_formula_units_Z   1
loop_
 _symmetry_equiv_pos_site_id
 _symmetry_equiv_pos_as_xyz
  1  'x, y, z'
loop_
 _atom_site_type_symbol
 _atom_site_label
 _atom_site_symmetry_multiplicity
 _atom_site_fract_x
 _atom_site_fract_y
 _atom_site_fract_z
 _atom_site_occupancy
  Er  Er0  1  0.250000  0.750000  0.529515  1
  Lu  Lu1  1  0.750000  0.250000  0.470690  1
  Lu  Lu2  1  0.250000  0.927499  0.795546  1
  Lu  Lu3  1  0.250000  0.572501  0.795546  1
  Lu  Lu4  1  0.750000  0.072665  0.204549  1
  Lu  Lu5  1  0.750000  0.427335  0.204549  1
  Hf  Hf6  1  0.250000  0.250000  0.841576  1
  Hf  Hf7  1  0.750000  0.750000  0.157993  1
  Co  Co8  1  0.250000  0.250000  0.297102  1
  Co  Co9  1  0.750000  0.750000  0.703718  1
  Co  Co10  1  0.750000  0.250000  0.013465  1
  Co  Co11  1  0.250000  0.750000  0.986543  1
  Co  Co12  1  0.250000  0.418040  0.006761  1
  Co  Co13  1  0.250000  0.081960  0.006761  1
  Co  Co14  1  0.750000  0.581908  0.993252  1
  Co  Co15  1  0.750000  0.918092  0.993252  1
  Co  Co16  1  0.250000  0.454409  0.566777  1
  Co  Co17  1  0.250000  0.045591  0.566777  1
  Co  Co18  1  0.750000  0.544740  0.433153  1
  Co  Co19  1  0.750000  0.955260  0.433153  1
  Co  Co20  1  0.250000  0.873426  0.296928  1
  Co  Co21  1  0.250000  0.626574  0.296928  1
  Co  Co22  1  0.750000  0.126846  0.702805  1
  Co  Co23  1  0.750000  0.373154  0.702805  1
  P  P24  1  0.250000  0.250000  0.117733  1
  P  P25  1  0.750000  0.750000  0.882444  1
  P  P26  1  0.250000  0.250000  0.635961  1
  P  P27  1  0.750000  0.750000  0.363183  1
  P  P28  1  0.250000  0.438031  0.383557  1
  P  P29  1  0.250000  0.061969  0.383557  1
  P  P30  1  0.750000  0.561289  0.616748  1
  P  P31  1  0.750000  0.938711  0.616748  1
  P  P32  1  0.250000  0.912736  0.108396  1
  P  P33  1  0.250000  0.587264  0.108396  1
  P  P34  1  0.750000  0.087417  0.891567  1
  P  P35  1  0.750000  0.412583  0.891567  1
