# generated using pymatgen
data_CsBaCoO3
_symmetry_space_group_name_H-M   'P 1'
_cell_length_a   5.92042827
_cell_length_b   6.75167591
_cell_length_c   13.20353478
_cell_angle_alpha   89.91380041
_cell_angle_beta   89.79079178
_cell_angle_gamma   63.89567766
_symmetry_Int_Tables_number   1
_chemical_formula_structural   CsBaCoO3
_chemical_formula_sum   'Cs4 Ba4 Co4 O12'
_cell_volume   473.94249223
_cell_formula_units_Z   4
loop_
 _symmetry_equiv_pos_site_id
 _symmetry_equiv_pos_as_xyz
  1  'x, y, z'
loop_
 _atom_site_type_symbol
 _atom_site_label
 _atom_site_symmetry_multiplicity
 _atom_site_fract_x
 _atom_site_fract_y
 _atom_site_fract_z
 _atom_site_occupancy
  Cs  Cs0  1  0.964454  0.070733  0.146254  1
  Cs  Cs1  1  0.464550  0.070672  0.353670  1
  Cs  Cs2  1  0.535623  0.929549  0.646491  1
  Cs  Cs3  1  0.035510  0.929492  0.853604  1
  Ba  Ba4  1  0.652995  0.693425  0.077859  1
  Ba  Ba5  1  0.154125  0.693346  0.422105  1
  Ba  Ba6  1  0.846388  0.306464  0.577974  1
  Ba  Ba7  1  0.346911  0.306425  0.922044  1
  Co  Co8  1  0.273724  0.450907  0.168036  1
  Co  Co9  1  0.776125  0.450887  0.332031  1
  Co  Co10  1  0.224226  0.549290  0.668187  1
  Co  Co11  1  0.725086  0.549256  0.831751  1
  O  O12  1  0.182274  0.630140  0.050539  1
  O  O13  1  0.417848  0.168595  0.117525  1
  O  O14  1  0.973979  0.551658  0.250103  1
  O  O15  1  0.479312  0.541136  0.249991  1
  O  O16  1  0.912607  0.168558  0.382401  1
  O  O17  1  0.687531  0.630213  0.449492  1
  O  O18  1  0.313371  0.369741  0.550560  1
  O  O19  1  0.086733  0.831598  0.617694  1
  O  O20  1  0.522424  0.455763  0.749978  1
  O  O21  1  0.024938  0.450828  0.749956  1
  O  O22  1  0.584095  0.831499  0.882363  1
  O  O23  1  0.815179  0.369841  0.949391  1
