# generated using pymatgen
data_Ba10Si5Te
_symmetry_space_group_name_H-M   'P 1'
_cell_length_a   8.62102300
_cell_length_b   8.62102300
_cell_length_c   16.66638100
_cell_angle_alpha   90.00000000
_cell_angle_beta   90.00000000
_cell_angle_gamma   90.00000000
_symmetry_Int_Tables_number   1
_chemical_formula_structural   Ba10Si5Te
_chemical_formula_sum   'Ba20 Si10 Te2'
_cell_volume   1238.67939478
_cell_formula_units_Z   2
loop_
 _symmetry_equiv_pos_site_id
 _symmetry_equiv_pos_as_xyz
  1  'x, y, z'
loop_
 _atom_site_type_symbol
 _atom_site_label
 _atom_site_symmetry_multiplicity
 _atom_site_fract_x
 _atom_site_fract_y
 _atom_site_fract_z
 _atom_site_occupancy
  Ba  Ba0  1  0.314067  0.665844  0.113552  1
  Ba  Ba1  1  0.165844  0.185933  0.113552  1
  Ba  Ba2  1  0.500000  0.000000  0.713375  1
  Ba  Ba3  1  0.333132  0.686753  0.394617  1
  Ba  Ba4  1  0.665844  0.685933  0.886448  1
  Ba  Ba5  1  0.186753  0.166868  0.394617  1
  Ba  Ba6  1  0.666868  0.313247  0.394617  1
  Ba  Ba7  1  0.166868  0.813247  0.605383  1
  Ba  Ba8  1  0.334156  0.314067  0.886448  1
  Ba  Ba9  1  0.185933  0.834156  0.886448  1
  Ba  Ba10  1  0.500000  0.000000  0.245057  1
  Ba  Ba11  1  0.833132  0.186753  0.605383  1
  Ba  Ba12  1  0.313247  0.333132  0.605383  1
  Ba  Ba13  1  0.813247  0.833132  0.394617  1
  Ba  Ba14  1  0.814067  0.165844  0.886448  1
  Ba  Ba15  1  0.834156  0.814067  0.113552  1
  Ba  Ba16  1  0.000000  0.500000  0.286625  1
  Ba  Ba17  1  0.000000  0.500000  0.754943  1
  Ba  Ba18  1  0.685933  0.334156  0.113552  1
  Ba  Ba19  1  0.686753  0.666868  0.605383  1
  Si  Si20  1  0.101736  0.103865  0.751071  1
  Si  Si21  1  0.396135  0.601736  0.751071  1
  Si  Si22  1  0.601736  0.603865  0.248929  1
  Si  Si23  1  0.103865  0.898264  0.248929  1
  Si  Si24  1  0.603865  0.398264  0.751071  1
  Si  Si25  1  0.898264  0.896135  0.751071  1
  Si  Si26  1  0.398264  0.396135  0.248929  1
  Si  Si27  1  0.896135  0.101736  0.248929  1
  Si  Si28  1  0.500000  0.000000  0.507150  1
  Si  Si29  1  0.000000  0.500000  0.492850  1
  Te  Te30  1  0.000000  0.500000  0.984547  1
  Te  Te31  1  0.500000  0.000000  0.015453  1
