# generated using pymatgen
data_HoTlBi2(Rh2O7)2
_symmetry_space_group_name_H-M   'P 1'
_cell_length_a   7.20068215
_cell_length_b   7.25524722
_cell_length_c   7.25524770
_cell_angle_alpha   60.97355931
_cell_angle_beta   60.79897083
_cell_angle_gamma   60.79897247
_symmetry_Int_Tables_number   1
_chemical_formula_structural   HoTlBi2(Rh2O7)2
_chemical_formula_sum   'Ho1 Tl1 Bi2 Rh4 O14'
_cell_volume   273.19557089
_cell_formula_units_Z   1
loop_
 _symmetry_equiv_pos_site_id
 _symmetry_equiv_pos_as_xyz
  1  'x, y, z'
loop_
 _atom_site_type_symbol
 _atom_site_label
 _atom_site_symmetry_multiplicity
 _atom_site_fract_x
 _atom_site_fract_y
 _atom_site_fract_z
 _atom_site_occupancy
  Ho  Ho0  1  0.625000  0.125000  0.125000  1
  Tl  Tl1  1  0.125000  0.125000  0.125000  1
  Bi  Bi2  1  0.125000  0.625000  0.125000  1
  Bi  Bi3  1  0.125000  0.125000  0.625000  1
  Rh  Rh4  1  0.625000  0.625000  0.625000  1
  Rh  Rh5  1  0.625000  0.625000  0.125000  1
  Rh  Rh6  1  0.125000  0.625000  0.625000  1
  Rh  Rh7  1  0.625000  0.125000  0.625000  1
  O  O8  1  0.255916  0.250217  0.250217  1
  O  O9  1  0.291563  0.707914  0.292591  1
  O  O10  1  0.958437  0.957409  0.542086  1
  O  O11  1  0.542396  0.960630  0.533765  1
  O  O12  1  0.707604  0.716235  0.289370  1
  O  O13  1  0.956699  0.542085  0.542085  1
  O  O14  1  0.707604  0.289370  0.716235  1
  O  O15  1  0.291563  0.292591  0.707914  1
  O  O16  1  0.704988  0.291945  0.291945  1
  O  O17  1  0.293301  0.707915  0.707915  1
  O  O18  1  0.958437  0.542086  0.957409  1
  O  O19  1  0.542396  0.533765  0.960630  1
  O  O20  1  0.994084  0.999783  0.999783  1
  O  O21  1  0.545012  0.958055  0.958055  1
