# generated using pymatgen
data_Zr12Ti4CoIr7(CN)2
_symmetry_space_group_name_H-M   'P 1'
_cell_length_a   8.63499101
_cell_length_b   8.63499268
_cell_length_c   8.63499300
_cell_angle_alpha   59.92821633
_cell_angle_beta   59.92820992
_cell_angle_gamma   59.92821601
_symmetry_Int_Tables_number   1
_chemical_formula_structural   Zr12Ti4CoIr7(CN)2
_chemical_formula_sum   'Zr12 Ti4 Co1 Ir7 C2 N2'
_cell_volume   454.53059081
_cell_formula_units_Z   1
loop_
 _symmetry_equiv_pos_site_id
 _symmetry_equiv_pos_as_xyz
  1  'x, y, z'
loop_
 _atom_site_type_symbol
 _atom_site_label
 _atom_site_symmetry_multiplicity
 _atom_site_fract_x
 _atom_site_fract_y
 _atom_site_fract_z
 _atom_site_occupancy
  Zr  Zr0  1  0.810411  0.810411  0.188107  1
  Zr  Zr1  1  0.188710  0.188710  0.811419  1
  Zr  Zr2  1  0.811612  0.186911  0.811259  1
  Zr  Zr3  1  0.189157  0.810853  0.189398  1
  Zr  Zr4  1  0.186911  0.811612  0.811259  1
  Zr  Zr5  1  0.810853  0.189157  0.189398  1
  Zr  Zr6  1  0.440256  0.440256  0.060788  1
  Zr  Zr7  1  0.062500  0.062500  0.437349  1
  Zr  Zr8  1  0.439239  0.061724  0.439442  1
  Zr  Zr9  1  0.061999  0.437772  0.061893  1
  Zr  Zr10  1  0.061724  0.439239  0.439442  1
  Zr  Zr11  1  0.437772  0.061999  0.061893  1
  Ti  Ti12  1  0.119081  0.629121  0.628944  1
  Ti  Ti13  1  0.629121  0.119081  0.628944  1
  Ti  Ti14  1  0.628844  0.628844  0.119067  1
  Ti  Ti15  1  0.624136  0.624136  0.624506  1
  Co  Co16  1  0.830842  0.830842  0.829472  1
  Ir  Ir17  1  0.747931  0.415947  0.417246  1
  Ir  Ir18  1  0.415947  0.747931  0.417246  1
  Ir  Ir19  1  0.415889  0.415889  0.748948  1
  Ir  Ir20  1  0.417419  0.417419  0.418630  1
  Ir  Ir21  1  0.503580  0.833288  0.831821  1
  Ir  Ir22  1  0.833288  0.503580  0.831821  1
  Ir  Ir23  1  0.833229  0.833229  0.502459  1
  C  C24  1  0.625197  0.124730  0.124710  1
  C  C25  1  0.124730  0.625197  0.124710  1
  N  N26  1  0.124868  0.124868  0.625076  1
  N  N27  1  0.124754  0.124754  0.124751  1
