# generated using pymatgen
data_Nd3Er(Si5Pt3)2
_symmetry_space_group_name_H-M   'P 1'
_cell_length_a   8.23523411
_cell_length_b   8.23070711
_cell_length_c   8.23070689
_cell_angle_alpha   136.46607620
_cell_angle_beta   105.10043806
_cell_angle_gamma   90.82337805
_symmetry_Int_Tables_number   1
_chemical_formula_structural   Nd3Er(Si5Pt3)2
_chemical_formula_sum   'Nd3 Er1 Si10 Pt6'
_cell_volume   353.24855350
_cell_formula_units_Z   1
loop_
 _symmetry_equiv_pos_site_id
 _symmetry_equiv_pos_as_xyz
  1  'x, y, z'
loop_
 _atom_site_type_symbol
 _atom_site_label
 _atom_site_symmetry_multiplicity
 _atom_site_fract_x
 _atom_site_fract_y
 _atom_site_fract_z
 _atom_site_occupancy
  Nd  Nd0  1  0.897693  0.129136  0.768557  1
  Nd  Nd1  1  0.638849  0.370837  0.268012  1
  Nd  Nd2  1  0.361825  0.629439  0.732386  1
  Er  Er3  1  0.100220  0.870647  0.229574  1
  Si  Si4  1  0.000155  0.747761  0.748161  1
  Si  Si5  1  0.000155  0.251994  0.252394  1
  Si  Si6  1  0.271401  0.021083  0.750210  1
  Si  Si7  1  0.730335  0.479135  0.750317  1
  Si  Si8  1  0.730335  0.980018  0.251199  1
  Si  Si9  1  0.271401  0.521191  0.250318  1
  Si  Si10  1  0.763342  0.614471  0.148870  1
  Si  Si11  1  0.237552  0.386834  0.850720  1
  Si  Si12  1  0.459356  0.110245  0.349112  1
  Si  Si13  1  0.537763  0.887055  0.650706  1
  Pt  Pt14  1  0.498307  0.750484  0.250113  1
  Pt  Pt15  1  0.498307  0.248193  0.747823  1
  Pt  Pt16  1  0.027007  0.639537  0.387471  1
  Pt  Pt17  1  0.976332  0.363705  0.612627  1
  Pt  Pt18  1  0.244921  0.134167  0.110754  1
  Pt  Pt19  1  0.754745  0.864068  0.890677  1
