# generated using pymatgen
data_Tb3Ho5In2PtRh
_symmetry_space_group_name_H-M   'P 1'
_cell_length_a   9.67634554
_cell_length_b   9.68069533
_cell_length_c   9.67344789
_cell_angle_alpha   59.98787619
_cell_angle_beta   60.09996504
_cell_angle_gamma   59.98497476
_symmetry_Int_Tables_number   1
_chemical_formula_structural   Tb3Ho5In2PtRh
_chemical_formula_sum   'Tb6 Ho10 In4 Pt2 Rh2'
_cell_volume   641.09438764
_cell_formula_units_Z   2
loop_
 _symmetry_equiv_pos_site_id
 _symmetry_equiv_pos_as_xyz
  1  'x, y, z'
loop_
 _atom_site_type_symbol
 _atom_site_label
 _atom_site_symmetry_multiplicity
 _atom_site_fract_x
 _atom_site_fract_y
 _atom_site_fract_z
 _atom_site_occupancy
  Tb  Tb0  1  0.437054  0.062319  0.060902  1
  Tb  Tb1  1  0.435551  0.065524  0.435264  1
  Tb  Tb2  1  0.060714  0.438718  0.060694  1
  Tb  Tb3  1  0.644140  0.649161  0.055693  1
  Tb  Tb4  1  0.188293  0.811214  0.188807  1
  Tb  Tb5  1  0.064108  0.436427  0.435608  1
  Ho  Ho6  1  0.810012  0.810955  0.192593  1
  Ho  Ho7  1  0.810020  0.189954  0.810375  1
  Ho  Ho8  1  0.192995  0.187102  0.809329  1
  Ho  Ho9  1  0.647395  0.050992  0.648132  1
  Ho  Ho10  1  0.058448  0.059825  0.439507  1
  Ho  Ho11  1  0.437636  0.438318  0.061668  1
  Ho  Ho12  1  0.651589  0.654277  0.650347  1
  Ho  Ho13  1  0.809285  0.187042  0.193159  1
  Ho  Ho14  1  0.193334  0.810306  0.809285  1
  Ho  Ho15  1  0.055211  0.648194  0.644809  1
  In  In16  1  0.416532  0.416115  0.416816  1
  In  In17  1  0.417827  0.417620  0.748673  1
  In  In18  1  0.417213  0.748734  0.418223  1
  In  In19  1  0.747927  0.416964  0.418864  1
  Pt  Pt20  1  0.859244  0.427357  0.858991  1
  Pt  Pt21  1  0.858520  0.856147  0.856006  1
  Rh  Rh22  1  0.859395  0.858596  0.427965  1
  Rh  Rh23  1  0.427553  0.858137  0.858290  1
