# generated using pymatgen
data_La16Cd3Co2HgOs2
_symmetry_space_group_name_H-M   'P 1'
_cell_length_a   10.02024566
_cell_length_b   9.94196502
_cell_length_c   10.00997699
_cell_angle_alpha   60.22450003
_cell_angle_beta   60.56150869
_cell_angle_gamma   60.25809286
_symmetry_Int_Tables_number   1
_chemical_formula_structural   La16Cd3Co2HgOs2
_chemical_formula_sum   'La16 Cd3 Co2 Hg1 Os2'
_cell_volume   710.66606526
_cell_formula_units_Z   1
loop_
 _symmetry_equiv_pos_site_id
 _symmetry_equiv_pos_as_xyz
  1  'x, y, z'
loop_
 _atom_site_type_symbol
 _atom_site_label
 _atom_site_symmetry_multiplicity
 _atom_site_fract_x
 _atom_site_fract_y
 _atom_site_fract_z
 _atom_site_occupancy
  La  La0  1  0.937564  0.945809  0.556876  1
  La  La1  1  0.558888  0.940170  0.560772  1
  La  La2  1  0.555465  0.946288  0.937870  1
  La  La3  1  0.685320  0.693471  0.309076  1
  La  La4  1  0.158456  0.150903  0.539735  1
  La  La5  1  0.308177  0.694136  0.686196  1
  La  La6  1  0.156892  0.149866  0.156771  1
  La  La7  1  0.538273  0.151394  0.158938  1
  La  La8  1  0.308232  0.691711  0.308345  1
  La  La9  1  0.308177  0.311492  0.686196  1
  La  La10  1  0.688356  0.311646  0.688352  1
  La  La11  1  0.937564  0.559750  0.556876  1
  La  La12  1  0.555465  0.560377  0.937870  1
  La  La13  1  0.156892  0.536471  0.156771  1
  La  La14  1  0.685320  0.312132  0.309076  1
  La  La15  1  0.942100  0.557840  0.942220  1
  Cd  Cd16  1  0.920826  0.922071  0.921627  1
  Cd  Cd17  1  0.919250  0.921550  0.237649  1
  Cd  Cd18  1  0.920826  0.235475  0.921627  1
  Co  Co19  1  0.364398  0.915270  0.364059  1
  Co  Co20  1  0.364398  0.356271  0.364059  1
  Hg  Hg21  1  0.246847  0.918265  0.916624  1
  Os  Os22  1  0.917512  0.358928  0.364631  1
  Os  Os23  1  0.364802  0.358708  0.917781  1
