# generated using pymatgen
data_Pr2Si2Tc2C
_symmetry_space_group_name_H-M   'P 1'
_cell_length_a   6.02812371
_cell_length_b   6.02812295
_cell_length_c   7.24462889
_cell_angle_alpha   126.10185128
_cell_angle_beta   126.10184613
_cell_angle_gamma   40.18429390
_symmetry_Int_Tables_number   1
_chemical_formula_structural   Pr2Si2Tc2C
_chemical_formula_sum   'Pr2 Si2 Tc2 C1'
_cell_volume   132.27366333
_cell_formula_units_Z   1
loop_
 _symmetry_equiv_pos_site_id
 _symmetry_equiv_pos_as_xyz
  1  'x, y, z'
loop_
 _atom_site_type_symbol
 _atom_site_label
 _atom_site_symmetry_multiplicity
 _atom_site_fract_x
 _atom_site_fract_y
 _atom_site_fract_z
 _atom_site_occupancy
  Pr  Pr0  1  0.566251  0.566251  0.301143  1
  Pr  Pr1  1  0.433749  0.433749  0.698855  1
  Si  Si2  1  0.839983  0.839983  0.284391  1
  Si  Si3  1  0.160017  0.160017  0.715609  1
  Tc  Tc4  1  0.201582  0.201582  0.091440  1
  Tc  Tc5  1  0.798419  0.798419  0.908560  1
  C  C6  1  0.000000  0.000000  0.000000  1
