# generated using pymatgen
data_LuSc7(AgRh)2
_symmetry_space_group_name_H-M   'P 1'
_cell_length_a   8.96503880
_cell_length_b   8.96503910
_cell_length_c   8.98597700
_cell_angle_alpha   59.92271565
_cell_angle_beta   59.92271456
_cell_angle_gamma   60.15457919
_symmetry_Int_Tables_number   1
_chemical_formula_structural   LuSc7(AgRh)2
_chemical_formula_sum   'Lu2 Sc14 Ag4 Rh4'
_cell_volume   510.68129161
_cell_formula_units_Z   2
loop_
 _symmetry_equiv_pos_site_id
 _symmetry_equiv_pos_as_xyz
  1  'x, y, z'
loop_
 _atom_site_type_symbol
 _atom_site_label
 _atom_site_symmetry_multiplicity
 _atom_site_fract_x
 _atom_site_fract_y
 _atom_site_fract_z
 _atom_site_occupancy
  Lu  Lu0  1  0.812810  0.812810  0.187190  1
  Lu  Lu1  1  0.187190  0.187190  0.812810  1
  Sc  Sc2  1  0.605205  0.605205  0.612521  1
  Sc  Sc3  1  0.605205  0.605205  0.177071  1
  Sc  Sc4  1  0.612521  0.177071  0.605205  1
  Sc  Sc5  1  0.177071  0.612521  0.605205  1
  Sc  Sc6  1  0.064675  0.435325  0.435325  1
  Sc  Sc7  1  0.435325  0.064675  0.064675  1
  Sc  Sc8  1  0.435325  0.064675  0.435325  1
  Sc  Sc9  1  0.064675  0.435325  0.064675  1
  Sc  Sc10  1  0.435332  0.435332  0.064668  1
  Sc  Sc11  1  0.064668  0.064668  0.435332  1
  Sc  Sc12  1  0.186166  0.813834  0.813834  1
  Sc  Sc13  1  0.813834  0.186166  0.186166  1
  Sc  Sc14  1  0.813834  0.186166  0.813834  1
  Sc  Sc15  1  0.186166  0.813834  0.186166  1
  Ag  Ag16  1  0.834317  0.834317  0.830787  1
  Ag  Ag17  1  0.834317  0.834317  0.500578  1
  Ag  Ag18  1  0.830787  0.500578  0.834317  1
  Ag  Ag19  1  0.500578  0.830787  0.834317  1
  Rh  Rh20  1  0.394793  0.394793  0.399995  1
  Rh  Rh21  1  0.394793  0.394793  0.810417  1
  Rh  Rh22  1  0.399995  0.810417  0.394793  1
  Rh  Rh23  1  0.810417  0.399995  0.394793  1
