# generated using pymatgen
data_ScGa(B2Rh7)3
_symmetry_space_group_name_H-M   'P 1'
_cell_length_a   8.07321811
_cell_length_b   8.07321911
_cell_length_c   8.07321900
_cell_angle_alpha   60.00000454
_cell_angle_beta   60.00000043
_cell_angle_gamma   59.99999966
_symmetry_Int_Tables_number   1
_chemical_formula_structural   ScGa(B2Rh7)3
_chemical_formula_sum   'Sc1 Ga1 B6 Rh21'
_cell_volume   372.07044688
_cell_formula_units_Z   1
loop_
 _symmetry_equiv_pos_site_id
 _symmetry_equiv_pos_as_xyz
  1  'x, y, z'
loop_
 _atom_site_type_symbol
 _atom_site_label
 _atom_site_symmetry_multiplicity
 _atom_site_fract_x
 _atom_site_fract_y
 _atom_site_fract_z
 _atom_site_occupancy
  Sc  Sc0  1  0.250000  0.250000  0.250000  1
  Ga  Ga1  1  0.750000  0.750000  0.750000  1
  B  B2  1  0.720964  0.720964  0.279036  1
  B  B3  1  0.279036  0.720964  0.279036  1
  B  B4  1  0.720964  0.279036  0.279036  1
  B  B5  1  0.279036  0.279036  0.720964  1
  B  B6  1  0.720964  0.279036  0.720964  1
  B  B7  1  0.279036  0.720964  0.720964  1
  Rh  Rh8  1  0.000000  0.000000  0.000000  1
  Rh  Rh9  1  0.621847  0.621847  0.134459  1
  Rh  Rh10  1  0.621847  0.134459  0.621847  1
  Rh  Rh11  1  0.134459  0.621847  0.621847  1
  Rh  Rh12  1  0.621847  0.621847  0.621847  1
  Rh  Rh13  1  0.384950  0.384950  0.845149  1
  Rh  Rh14  1  0.384950  0.845149  0.384950  1
  Rh  Rh15  1  0.845149  0.384950  0.384950  1
  Rh  Rh16  1  0.384950  0.384950  0.384950  1
  Rh  Rh17  1  0.000441  0.000441  0.334128  1
  Rh  Rh18  1  0.664990  0.000441  0.334128  1
  Rh  Rh19  1  0.000441  0.664990  0.334128  1
  Rh  Rh20  1  0.664990  0.334128  0.000441  1
  Rh  Rh21  1  0.000441  0.334128  0.000441  1
  Rh  Rh22  1  0.000441  0.334128  0.664990  1
  Rh  Rh23  1  0.334128  0.664990  0.000441  1
  Rh  Rh24  1  0.334128  0.000441  0.664990  1
  Rh  Rh25  1  0.334128  0.000441  0.000441  1
  Rh  Rh26  1  0.000441  0.000441  0.664990  1
  Rh  Rh27  1  0.000441  0.664990  0.000441  1
  Rh  Rh28  1  0.664990  0.000441  0.000441  1
