# generated using pymatgen
data_AcTb(ZnGa)2
_symmetry_space_group_name_H-M   'P 1'
_cell_length_a   4.51176200
_cell_length_b   4.51176156
_cell_length_c   7.86819600
_cell_angle_alpha   90.00000000
_cell_angle_beta   90.00000000
_cell_angle_gamma   120.00000322
_symmetry_Int_Tables_number   1
_chemical_formula_structural   AcTb(ZnGa)2
_chemical_formula_sum   'Ac1 Tb1 Zn2 Ga2'
_cell_volume   138.70691394
_cell_formula_units_Z   1
loop_
 _symmetry_equiv_pos_site_id
 _symmetry_equiv_pos_as_xyz
  1  'x, y, z'
loop_
 _atom_site_type_symbol
 _atom_site_label
 _atom_site_symmetry_multiplicity
 _atom_site_fract_x
 _atom_site_fract_y
 _atom_site_fract_z
 _atom_site_occupancy
  Ac  Ac0  1  0.000000  0.000000  0.500000  1
  Tb  Tb1  1  0.000000  0.000000  0.000000  1
  Zn  Zn2  1  0.333333  0.666667  0.796142  1
  Zn  Zn3  1  0.666667  0.333333  0.203858  1
  Ga  Ga4  1  0.333333  0.666667  0.209580  1
  Ga  Ga5  1  0.666667  0.333333  0.790420  1
