# generated using pymatgen
data_AcI19
_symmetry_space_group_name_H-M   'P 1'
_cell_length_a   10.99322105
_cell_length_b   10.99322328
_cell_length_c   10.99322500
_cell_angle_alpha   100.37136953
_cell_angle_beta   100.37136636
_cell_angle_gamma   100.37138082
_symmetry_Int_Tables_number   1
_chemical_formula_structural   AcI19
_chemical_formula_sum   'Ac1 I19'
_cell_volume   1254.11835339
_cell_formula_units_Z   1
loop_
 _symmetry_equiv_pos_site_id
 _symmetry_equiv_pos_as_xyz
  1  'x, y, z'
loop_
 _atom_site_type_symbol
 _atom_site_label
 _atom_site_symmetry_multiplicity
 _atom_site_fract_x
 _atom_site_fract_y
 _atom_site_fract_z
 _atom_site_occupancy
  Ac  Ac0  1  0.000000  0.000000  0.000000  1
  I  I1  1  0.500000  0.500000  0.500000  1
  I  I2  1  0.722192  0.122478  0.595716  1
  I  I3  1  0.942871  0.013468  0.699249  1
  I  I4  1  0.595716  0.722192  0.122478  1
  I  I5  1  0.986532  0.300751  0.057129  1
  I  I6  1  0.699249  0.942871  0.013468  1
  I  I7  1  0.013468  0.699249  0.942871  1
  I  I8  1  0.057129  0.986532  0.300751  1
  I  I9  1  0.877522  0.404284  0.277808  1
  I  I10  1  0.300751  0.057129  0.986532  1
  I  I11  1  0.277808  0.877522  0.404284  1
  I  I12  1  0.122478  0.595716  0.722192  1
  I  I13  1  0.404284  0.277808  0.877522  1
  I  I14  1  0.799246  0.530395  0.487943  1
  I  I15  1  0.530395  0.487943  0.799246  1
  I  I16  1  0.200754  0.469605  0.512057  1
  I  I17  1  0.469605  0.512057  0.200754  1
  I  I18  1  0.487943  0.799246  0.530395  1
  I  I19  1  0.512057  0.200754  0.469605  1
