# generated using pymatgen
data_Tm8Re3B24Os
_symmetry_space_group_name_H-M   'P 1'
_cell_length_a   3.63688000
_cell_length_b   9.09716300
_cell_length_c   11.46422752
_cell_angle_alpha   90.07595376
_cell_angle_beta   90.00000000
_cell_angle_gamma   90.00000000
_symmetry_Int_Tables_number   1
_chemical_formula_structural   Tm8Re3B24Os
_chemical_formula_sum   'Tm8 Re3 B24 Os1'
_cell_volume   379.29696069
_cell_formula_units_Z   1
loop_
 _symmetry_equiv_pos_site_id
 _symmetry_equiv_pos_as_xyz
  1  'x, y, z'
loop_
 _atom_site_type_symbol
 _atom_site_label
 _atom_site_symmetry_multiplicity
 _atom_site_fract_x
 _atom_site_fract_y
 _atom_site_fract_z
 _atom_site_occupancy
  Tm  Tm0  1  0.000000  0.321049  0.414103  1
  Tm  Tm1  1  0.000000  0.677895  0.587668  1
  Tm  Tm2  1  0.000000  0.824001  0.084349  1
  Tm  Tm3  1  0.000000  0.177410  0.913583  1
  Tm  Tm4  1  0.000000  0.942415  0.370266  1
  Tm  Tm5  1  0.000000  0.056653  0.629115  1
  Tm  Tm6  1  0.000000  0.442652  0.129579  1
  Tm  Tm7  1  0.000000  0.557135  0.871092  1
  Re  Re8  1  0.000000  0.362536  0.678207  1
  Re  Re9  1  0.000000  0.138006  0.179842  1
  Re  Re10  1  0.000000  0.861825  0.820701  1
  B  B11  1  0.500000  0.553364  0.433265  1
  B  B12  1  0.500000  0.447474  0.566284  1
  B  B13  1  0.500000  0.052783  0.066412  1
  B  B14  1  0.500000  0.947451  0.933338  1
  B  B15  1  0.500000  0.749065  0.419026  1
  B  B16  1  0.500000  0.250084  0.580589  1
  B  B17  1  0.500000  0.249705  0.080735  1
  B  B18  1  0.500000  0.750825  0.919385  1
  B  B19  1  0.500000  0.791294  0.265129  1
  B  B20  1  0.500000  0.207749  0.734697  1
  B  B21  1  0.500000  0.292170  0.235286  1
  B  B22  1  0.500000  0.707635  0.765401  1
  B  B23  1  0.500000  0.630749  0.185169  1
  B  B24  1  0.500000  0.369946  0.814775  1
  B  B25  1  0.500000  0.130462  0.315570  1
  B  B26  1  0.500000  0.869362  0.684866  1
  B  B27  1  0.500000  0.981042  0.211958  1
  B  B28  1  0.500000  0.019012  0.787691  1
  B  B29  1  0.500000  0.482080  0.288110  1
  B  B30  1  0.500000  0.519337  0.712052  1
  B  B31  1  0.500000  0.601242  0.028724  1
  B  B32  1  0.500000  0.399115  0.972099  1
  B  B33  1  0.500000  0.100004  0.471744  1
  B  B34  1  0.500000  0.898341  0.527959  1
  Os  Os35  1  0.000000  0.638133  0.321228  1
