# generated using pymatgen
data_Hf5Ti4SnIr6
_symmetry_space_group_name_H-M   'P 1'
_cell_length_a   7.83918800
_cell_length_b   7.90512770
_cell_length_c   5.23772800
_cell_angle_alpha   90.00000000
_cell_angle_beta   90.00000000
_cell_angle_gamma   119.72445075
_symmetry_Int_Tables_number   1
_chemical_formula_structural   Hf5Ti4SnIr6
_chemical_formula_sum   'Hf5 Ti4 Sn1 Ir6'
_cell_volume   281.87251351
_cell_formula_units_Z   1
loop_
 _symmetry_equiv_pos_site_id
 _symmetry_equiv_pos_as_xyz
  1  'x, y, z'
loop_
 _atom_site_type_symbol
 _atom_site_label
 _atom_site_symmetry_multiplicity
 _atom_site_fract_x
 _atom_site_fract_y
 _atom_site_fract_z
 _atom_site_occupancy
  Hf  Hf0  1  0.752816  0.000000  0.750000  1
  Hf  Hf1  1  0.998347  0.243822  0.250000  1
  Hf  Hf2  1  0.999655  0.756074  0.750000  1
  Hf  Hf3  1  0.754526  0.756178  0.250000  1
  Hf  Hf4  1  0.243581  0.243926  0.750000  1
  Ti  Ti5  1  0.335162  0.666666  0.999913  1
  Ti  Ti6  1  0.668497  0.333334  0.999913  1
  Ti  Ti7  1  0.668497  0.333334  0.500087  1
  Ti  Ti8  1  0.335162  0.666666  0.500087  1
  Sn  Sn9  1  0.235946  0.000000  0.250000  1
  Ir  Ir10  1  0.598704  0.000000  0.250000  1
  Ir  Ir11  1  0.407472  0.000000  0.750000  1
  Ir  Ir12  1  0.992586  0.586824  0.250000  1
  Ir  Ir13  1  0.004407  0.405529  0.750000  1
  Ir  Ir14  1  0.405762  0.413176  0.250000  1
  Ir  Ir15  1  0.598878  0.594471  0.750000  1
