# generated using pymatgen
data_Sm2Ga5Ir3
_symmetry_space_group_name_H-M   'P 1'
_cell_length_a   8.61769105
_cell_length_b   8.61769127
_cell_length_c   8.61769160
_cell_angle_alpha   140.86839871
_cell_angle_beta   108.48059488
_cell_angle_gamma   84.68208817
_symmetry_Int_Tables_number   1
_chemical_formula_structural   Sm2Ga5Ir3
_chemical_formula_sum   'Sm4 Ga10 Ir6'
_cell_volume   370.31083753
_cell_formula_units_Z   2
loop_
 _symmetry_equiv_pos_site_id
 _symmetry_equiv_pos_as_xyz
  1  'x, y, z'
loop_
 _atom_site_type_symbol
 _atom_site_label
 _atom_site_symmetry_multiplicity
 _atom_site_fract_x
 _atom_site_fract_y
 _atom_site_fract_z
 _atom_site_occupancy
  Sm  Sm0  1  0.866548  0.636434  0.230114  1
  Sm  Sm1  1  0.133452  0.363566  0.769886  1
  Sm  Sm2  1  0.593681  0.863566  0.730114  1
  Sm  Sm3  1  0.406319  0.136434  0.269886  1
  Ga  Ga4  1  0.500000  0.750000  0.250000  1
  Ga  Ga5  1  0.500000  0.250000  0.750000  1
  Ga  Ga6  1  0.206895  0.956895  0.750000  1
  Ga  Ga7  1  0.793105  0.543105  0.750000  1
  Ga  Ga8  1  0.793105  0.043105  0.250000  1
  Ga  Ga9  1  0.206895  0.456895  0.250000  1
  Ga  Ga10  1  0.080507  0.908765  0.171743  1
  Ga  Ga11  1  0.919493  0.091235  0.828257  1
  Ga  Ga12  1  0.262979  0.591235  0.671743  1
  Ga  Ga13  1  0.737021  0.408765  0.328257  1
  Ir  Ir14  1  0.553177  0.648123  0.905054  1
  Ir  Ir15  1  0.446823  0.351877  0.094946  1
  Ir  Ir16  1  0.000000  0.750000  0.750000  1
  Ir  Ir17  1  0.000000  0.250000  0.250000  1
  Ir  Ir18  1  0.256930  0.851877  0.405054  1
  Ir  Ir19  1  0.743070  0.148123  0.594946  1
