# generated using pymatgen
data_Tm7Lu3(Tl2Bi)2
_symmetry_space_group_name_H-M   'P 1'
_cell_length_a   6.51859606
_cell_length_b   8.90809522
_cell_length_c   8.87629600
_cell_angle_alpha   119.76481871
_cell_angle_beta   90.00773484
_cell_angle_gamma   89.98504582
_symmetry_Int_Tables_number   1
_chemical_formula_structural   Tm7Lu3(Tl2Bi)2
_chemical_formula_sum   'Tm7 Lu3 Tl4 Bi2'
_cell_volume   447.43056941
_cell_formula_units_Z   1
loop_
 _symmetry_equiv_pos_site_id
 _symmetry_equiv_pos_as_xyz
  1  'x, y, z'
loop_
 _atom_site_type_symbol
 _atom_site_label
 _atom_site_symmetry_multiplicity
 _atom_site_fract_x
 _atom_site_fract_y
 _atom_site_fract_z
 _atom_site_occupancy
  Tm  Tm0  1  0.007174  0.328671  0.667254  1
  Tm  Tm1  1  0.749679  0.227188  0.990209  1
  Tm  Tm2  1  0.749836  0.772078  0.761567  1
  Tm  Tm3  1  0.749800  0.999683  0.236758  1
  Tm  Tm4  1  0.250112  0.765464  0.001102  1
  Tm  Tm5  1  0.250171  0.234293  0.234841  1
  Tm  Tm6  1  0.250279  0.999943  0.764175  1
  Lu  Lu7  1  0.492336  0.328296  0.667191  1
  Lu  Lu8  1  0.492743  0.671711  0.338871  1
  Lu  Lu9  1  0.007610  0.671884  0.339035  1
  Tl  Tl10  1  0.749457  0.999814  0.595535  1
  Tl  Tl11  1  0.250602  0.397956  0.004366  1
  Tl  Tl12  1  0.250591  0.602187  0.605380  1
  Tl  Tl13  1  0.250650  0.999809  0.397235  1
  Bi  Bi14  1  0.749491  0.604326  0.000413  1
  Bi  Bi15  1  0.749469  0.396696  0.396072  1
