# generated using pymatgen
data_NaYbHf2F11
_symmetry_space_group_name_H-M   'P 1'
_cell_length_a   5.85350934
_cell_length_b   5.85350951
_cell_length_c   7.88784628
_cell_angle_alpha   69.70884875
_cell_angle_beta   69.70884467
_cell_angle_gamma   73.32972123
_symmetry_Int_Tables_number   1
_chemical_formula_structural   NaYbHf2F11
_chemical_formula_sum   'Na1 Yb1 Hf2 F11'
_cell_volume   233.46024267
_cell_formula_units_Z   1
loop_
 _symmetry_equiv_pos_site_id
 _symmetry_equiv_pos_as_xyz
  1  'x, y, z'
loop_
 _atom_site_type_symbol
 _atom_site_label
 _atom_site_symmetry_multiplicity
 _atom_site_fract_x
 _atom_site_fract_y
 _atom_site_fract_z
 _atom_site_occupancy
  Na  Na0  1  0.000000  0.000000  0.000000  1
  Yb  Yb1  1  0.000000  0.000000  0.500000  1
  Hf  Hf2  1  0.499258  0.499258  0.230935  1
  Hf  Hf3  1  0.500742  0.500742  0.769065  1
  F  F4  1  0.205051  0.770527  0.301799  1
  F  F5  1  0.229473  0.794949  0.698201  1
  F  F6  1  0.794949  0.229473  0.698201  1
  F  F7  1  0.770527  0.205051  0.301799  1
  F  F8  1  0.500000  0.500000  0.500000  1
  F  F9  1  0.664677  0.335323  0.000000  1
  F  F10  1  0.335323  0.664677  0.000000  1
  F  F11  1  0.738112  0.738112  0.653323  1
  F  F12  1  0.261888  0.261888  0.346677  1
  F  F13  1  0.731035  0.731035  0.111890  1
  F  F14  1  0.268965  0.268965  0.888110  1
