# generated using pymatgen
data_Tb2MnCoRu2
_symmetry_space_group_name_H-M   'P 1'
_cell_length_a   5.20603638
_cell_length_b   5.30849295
_cell_length_c   5.30849439
_cell_angle_alpha   60.12904078
_cell_angle_beta   59.79318511
_cell_angle_gamma   59.79316386
_symmetry_Int_Tables_number   1
_chemical_formula_structural   Tb2MnCoRu2
_chemical_formula_sum   'Tb2 Mn1 Co1 Ru2'
_cell_volume   103.51161952
_cell_formula_units_Z   1
loop_
 _symmetry_equiv_pos_site_id
 _symmetry_equiv_pos_as_xyz
  1  'x, y, z'
loop_
 _atom_site_type_symbol
 _atom_site_label
 _atom_site_symmetry_multiplicity
 _atom_site_fract_x
 _atom_site_fract_y
 _atom_site_fract_z
 _atom_site_occupancy
  Tb  Tb0  1  0.628084  0.624077  0.624077  1
  Tb  Tb1  1  0.371916  0.375923  0.375923  1
  Mn  Mn2  1  0.500000  0.000000  0.000000  1
  Co  Co3  1  0.000000  0.000000  0.000000  1
  Ru  Ru4  1  0.000000  0.500000  0.000000  1
  Ru  Ru5  1  0.000000  0.000000  0.500000  1
