# generated using pymatgen
data_Tb7HoTi3Si16Mo9
_symmetry_space_group_name_H-M   'P 1'
_cell_length_a   6.92957949
_cell_length_b   6.92912557
_cell_length_c   12.85017904
_cell_angle_alpha   89.99021237
_cell_angle_beta   90.01701940
_cell_angle_gamma   89.79556465
_symmetry_Int_Tables_number   1
_chemical_formula_structural   Tb7HoTi3Si16Mo9
_chemical_formula_sum   'Tb7 Ho1 Ti3 Si16 Mo9'
_cell_volume   617.00928749
_cell_formula_units_Z   1
loop_
 _symmetry_equiv_pos_site_id
 _symmetry_equiv_pos_as_xyz
  1  'x, y, z'
loop_
 _atom_site_type_symbol
 _atom_site_label
 _atom_site_symmetry_multiplicity
 _atom_site_fract_x
 _atom_site_fract_y
 _atom_site_fract_z
 _atom_site_occupancy
  Tb  Tb0  1  0.339378  0.002540  0.468422  1
  Tb  Tb1  1  0.495980  0.838664  0.719102  1
  Tb  Tb2  1  0.499981  0.161697  0.216852  1
  Tb  Tb3  1  0.838622  0.495975  0.280887  1
  Tb  Tb4  1  0.161541  0.499929  0.782990  1
  Tb  Tb5  1  0.660063  0.998485  0.968744  1
  Tb  Tb6  1  0.002471  0.339346  0.531514  1
  Ho  Ho7  1  0.999494  0.659322  0.031292  1
  Ti  Ti8  1  0.171181  0.831175  0.248076  1
  Ti  Ti9  1  0.831475  0.171385  0.752052  1
  Ti  Ti10  1  0.669022  0.669094  0.499951  1
  Si  Si11  1  0.199547  0.128080  0.684707  1
  Si  Si12  1  0.374102  0.696128  0.935411  1
  Si  Si13  1  0.627509  0.299861  0.434581  1
  Si  Si14  1  0.696871  0.375594  0.064884  1
  Si  Si15  1  0.299786  0.627526  0.565331  1
  Si  Si16  1  0.797822  0.871914  0.184453  1
  Si  Si17  1  0.128116  0.199699  0.315251  1
  Si  Si18  1  0.872880  0.797041  0.815410  1
  Si  Si19  1  0.286521  0.963626  0.061158  1
  Si  Si20  1  0.540541  0.790155  0.313508  1
  Si  Si21  1  0.458391  0.211810  0.814935  1
  Si  Si22  1  0.790115  0.540407  0.686379  1
  Si  Si23  1  0.211021  0.458724  0.184841  1
  Si  Si24  1  0.711484  0.041393  0.563808  1
  Si  Si25  1  0.964406  0.287927  0.939081  1
  Si  Si26  1  0.041439  0.711384  0.436187  1
  Mo  Mo27  1  0.331508  0.332054  0.000044  1
  Mo  Mo28  1  0.155931  0.002343  0.873343  1
  Mo  Mo29  1  0.493995  0.666596  0.125670  1
  Mo  Mo30  1  0.506972  0.340228  0.625162  1
  Mo  Mo31  1  0.667096  0.494491  0.874590  1
  Mo  Mo32  1  0.340079  0.507009  0.374610  1
  Mo  Mo33  1  0.839803  0.992456  0.374279  1
  Mo  Mo34  1  0.002196  0.156180  0.126921  1
  Mo  Mo35  1  0.992663  0.839765  0.625573  1
