# generated using pymatgen
data_Dy3Ta17O47
_symmetry_space_group_name_H-M   'P 1'
_cell_length_a   3.91321700
_cell_length_b   12.80890108
_cell_length_c   19.39584800
_cell_angle_alpha   76.92194806
_cell_angle_beta   90.00000000
_cell_angle_gamma   90.00000000
_symmetry_Int_Tables_number   1
_chemical_formula_structural   Dy3Ta17O47
_chemical_formula_sum   'Dy3 Ta17 O47'
_cell_volume   946.98150346
_cell_formula_units_Z   1
loop_
 _symmetry_equiv_pos_site_id
 _symmetry_equiv_pos_as_xyz
  1  'x, y, z'
loop_
 _atom_site_type_symbol
 _atom_site_label
 _atom_site_symmetry_multiplicity
 _atom_site_fract_x
 _atom_site_fract_y
 _atom_site_fract_z
 _atom_site_occupancy
  Dy  Dy0  1  0.500000  0.000000  0.000000  1
  Dy  Dy1  1  0.500000  0.626618  0.668669  1
  Dy  Dy2  1  0.500000  0.373382  0.331331  1
  Ta  Ta3  1  0.000000  0.975834  0.854143  1
  Ta  Ta4  1  0.000000  0.810113  0.716579  1
  Ta  Ta5  1  0.000000  0.892060  0.352370  1
  Ta  Ta6  1  0.000000  0.719767  0.529916  1
  Ta  Ta7  1  0.000000  0.763411  0.216519  1
  Ta  Ta8  1  0.000000  0.773179  0.042365  1
  Ta  Ta9  1  0.000000  0.492007  0.807615  1
  Ta  Ta10  1  0.000000  0.586197  0.374715  1
  Ta  Ta11  1  0.000000  0.413803  0.625285  1
  Ta  Ta12  1  0.000000  0.507993  0.192385  1
  Ta  Ta13  1  0.000000  0.226821  0.957635  1
  Ta  Ta14  1  0.000000  0.236589  0.783481  1
  Ta  Ta15  1  0.000000  0.500000  0.000000  1
  Ta  Ta16  1  0.000000  0.280233  0.470084  1
  Ta  Ta17  1  0.000000  0.107940  0.647630  1
  Ta  Ta18  1  0.000000  0.189887  0.283421  1
  Ta  Ta19  1  0.000000  0.024166  0.145857  1
  O  O20  1  0.500000  0.973700  0.874344  1
  O  O21  1  0.000000  0.916253  0.965115  1
  O  O22  1  0.000000  0.952700  0.665597  1
  O  O23  1  0.000000  0.858868  0.806955  1
  O  O24  1  0.500000  0.779562  0.719948  1
  O  O25  1  0.000000  0.919658  0.237060  1
  O  O26  1  0.000000  0.844396  0.455664  1
  O  O27  1  0.500000  0.890575  0.351653  1
  O  O28  1  0.000000  0.660286  0.997222  1
  O  O29  1  0.000000  0.768491  0.621595  1
  O  O30  1  0.000000  0.874687  0.117578  1
  O  O31  1  0.000000  0.634805  0.742709  1
  O  O32  1  0.500000  0.706138  0.546296  1
  O  O33  1  0.000000  0.746962  0.327517  1
  O  O34  1  0.500000  0.765134  0.215333  1
  O  O35  1  0.000000  0.527457  0.895193  1
  O  O36  1  0.500000  0.806106  0.037398  1
  O  O37  1  0.000000  0.623899  0.464331  1
  O  O38  1  0.000000  0.572711  0.613405  1
  O  O39  1  0.500000  0.501683  0.787239  1
  O  O40  1  0.000000  0.672145  0.137005  1
  O  O41  1  0.000000  0.602497  0.266024  1
  O  O42  1  0.500000  0.565525  0.370839  1
  O  O43  1  0.500000  0.434475  0.629161  1
  O  O44  1  0.000000  0.397503  0.733976  1
  O  O45  1  0.000000  0.327855  0.862995  1
  O  O46  1  0.500000  0.498317  0.212761  1
  O  O47  1  0.000000  0.427289  0.386595  1
  O  O48  1  0.000000  0.376101  0.535669  1
  O  O49  1  0.500000  0.193894  0.962602  1
  O  O50  1  0.000000  0.472543  0.104807  1
  O  O51  1  0.500000  0.500000  0.000000  1
  O  O52  1  0.500000  0.234866  0.784667  1
  O  O53  1  0.000000  0.253038  0.672483  1
  O  O54  1  0.500000  0.293862  0.453704  1
  O  O55  1  0.000000  0.365195  0.257291  1
  O  O56  1  0.000000  0.125313  0.882422  1
  O  O57  1  0.000000  0.231509  0.378405  1
  O  O58  1  0.000000  0.339714  0.002778  1
  O  O59  1  0.500000  0.109425  0.648347  1
  O  O60  1  0.000000  0.155604  0.544336  1
  O  O61  1  0.000000  0.080342  0.762940  1
  O  O62  1  0.500000  0.220438  0.280052  1
  O  O63  1  0.000000  0.141132  0.193045  1
  O  O64  1  0.000000  0.047300  0.334403  1
  O  O65  1  0.000000  0.083747  0.034885  1
  O  O66  1  0.500000  0.026300  0.125656  1
