# generated using pymatgen
data_PrNdCd2Si2Ir3Ru
_symmetry_space_group_name_H-M   'P 1'
_cell_length_a   4.19704600
_cell_length_b   4.19721300
_cell_length_c   10.95978600
_cell_angle_alpha   90.00000000
_cell_angle_beta   90.00000000
_cell_angle_gamma   90.00000000
_symmetry_Int_Tables_number   1
_chemical_formula_structural   PrNdCd2Si2Ir3Ru
_chemical_formula_sum   'Pr1 Nd1 Cd2 Si2 Ir3 Ru1'
_cell_volume   193.06645072
_cell_formula_units_Z   1
loop_
 _symmetry_equiv_pos_site_id
 _symmetry_equiv_pos_as_xyz
  1  'x, y, z'
loop_
 _atom_site_type_symbol
 _atom_site_label
 _atom_site_symmetry_multiplicity
 _atom_site_fract_x
 _atom_site_fract_y
 _atom_site_fract_z
 _atom_site_occupancy
  Pr  Pr0  1  0.000000  0.500000  0.235008  1
  Nd  Nd1  1  0.500000  0.000000  0.765080  1
  Cd  Cd2  1  0.000000  0.000000  0.500190  1
  Cd  Cd3  1  0.500000  0.500000  0.500195  1
  Si  Si4  1  0.000000  0.500000  0.892495  1
  Si  Si5  1  0.500000  0.000000  0.107244  1
  Ir  Ir6  1  0.500000  0.500000  0.999790  1
  Ir  Ir7  1  0.000000  0.500000  0.678416  1
  Ir  Ir8  1  0.500000  0.000000  0.321788  1
  Ru  Ru9  1  0.000000  0.000000  0.999795  1
