# generated using pymatgen
data_Np3Sc(Al8Pt3)3
_symmetry_space_group_name_H-M   'P 1'
_cell_length_a   7.53395127
_cell_length_b   7.54435687
_cell_length_c   13.14848730
_cell_angle_alpha   84.53324652
_cell_angle_beta   79.05669476
_cell_angle_gamma   59.88162044
_symmetry_Int_Tables_number   1
_chemical_formula_structural   Np3Sc(Al8Pt3)3
_chemical_formula_sum   'Np3 Sc1 Al24 Pt9'
_cell_volume   634.69057314
_cell_formula_units_Z   1
loop_
 _symmetry_equiv_pos_site_id
 _symmetry_equiv_pos_as_xyz
  1  'x, y, z'
loop_
 _atom_site_type_symbol
 _atom_site_label
 _atom_site_symmetry_multiplicity
 _atom_site_fract_x
 _atom_site_fract_y
 _atom_site_fract_z
 _atom_site_occupancy
  Np  Np0  1  0.605592  0.832004  0.193658  1
  Np  Np1  1  0.733896  0.498705  0.805732  1
  Np  Np2  1  0.266222  0.501594  0.193832  1
  Sc  Sc3  1  0.393810  0.168580  0.807566  1
  Al  Al4  1  0.680995  0.835471  0.943487  1
  Al  Al5  1  0.318322  0.166117  0.053681  1
  Al  Al6  1  0.145761  0.833334  0.561875  1
  Al  Al7  1  0.853122  0.166665  0.439879  1
  Al  Al8  1  0.480354  0.166800  0.559808  1
  Al  Al9  1  0.519160  0.833996  0.442074  1
  Al  Al10  1  0.216116  0.165374  0.329234  1
  Al  Al11  1  0.779296  0.837628  0.673370  1
  Al  Al12  1  0.435433  0.503842  0.673682  1
  Al  Al13  1  0.563931  0.492479  0.329319  1
  Al  Al14  1  0.111997  0.159078  0.672624  1
  Al  Al15  1  0.890191  0.841528  0.330542  1
  Al  Al16  1  0.354815  0.495862  0.943374  1
  Al  Al17  1  0.646222  0.502285  0.053618  1
  Al  Al18  1  0.017831  0.169457  0.949946  1
  Al  Al19  1  0.984513  0.830828  0.046416  1
  Al  Al20  1  0.186945  0.499273  0.442188  1
  Al  Al21  1  0.813520  0.499840  0.559155  1
  Al  Al22  1  0.735304  0.163661  0.181665  1
  Al  Al23  1  0.266450  0.837671  0.817054  1
  Al  Al24  1  0.062733  0.628394  0.816108  1
  Al  Al25  1  0.939241  0.368447  0.182955  1
  Al  Al26  1  0.852740  0.041953  0.816800  1
  Al  Al27  1  0.144909  0.959187  0.182065  1
  Pt  Pt28  1  0.121238  0.491598  0.638803  1
  Pt  Pt29  1  0.879335  0.507134  0.362151  1
  Pt  Pt30  1  0.659528  0.170268  0.998582  1
  Pt  Pt31  1  0.340474  0.830954  0.998589  1
  Pt  Pt32  1  0.538611  0.167020  0.361804  1
  Pt  Pt33  1  0.461566  0.834201  0.638717  1
  Pt  Pt34  1  0.778729  0.173970  0.637925  1
  Pt  Pt35  1  0.219792  0.826110  0.363095  1
  Pt  Pt36  1  0.001306  0.498695  0.998626  1
