# generated using pymatgen
data_Cs2HNO6
_symmetry_space_group_name_H-M   'P 1'
_cell_length_a   5.70115563
_cell_length_b   5.86411900
_cell_length_c   6.14370230
_cell_angle_alpha   90.00000000
_cell_angle_beta   89.91941651
_cell_angle_gamma   90.00000000
_symmetry_Int_Tables_number   1
_chemical_formula_structural   Cs2HNO6
_chemical_formula_sum   'Cs2 H1 N1 O6'
_cell_volume   205.39761908
_cell_formula_units_Z   1
loop_
 _symmetry_equiv_pos_site_id
 _symmetry_equiv_pos_as_xyz
  1  'x, y, z'
loop_
 _atom_site_type_symbol
 _atom_site_label
 _atom_site_symmetry_multiplicity
 _atom_site_fract_x
 _atom_site_fract_y
 _atom_site_fract_z
 _atom_site_occupancy
  Cs  Cs0  1  0.538714  0.500000  0.000250  1
  Cs  Cs1  1  0.354528  0.000000  0.500864  1
  H  H2  1  0.205728  0.000000  0.001768  1
  N  N3  1  0.964935  0.500000  0.499944  1
  O  O4  1  0.074722  0.500000  0.679566  1
  O  O5  1  0.834457  0.000000  0.896004  1
  O  O6  1  0.741104  0.500000  0.499937  1
  O  O7  1  0.376485  0.000000  0.001125  1
  O  O8  1  0.075350  0.500000  0.320321  1
  O  O9  1  0.833977  0.000000  0.100220  1
