# generated using pymatgen
data_Dy3Y5Lu8(ScSi4)4
_symmetry_space_group_name_H-M   'P 1'
_cell_length_a   7.20954602
_cell_length_b   7.55413500
_cell_length_c   14.30546506
_cell_angle_alpha   90.00341275
_cell_angle_beta   89.99052535
_cell_angle_gamma   89.99991490
_symmetry_Int_Tables_number   1
_chemical_formula_structural   Dy3Y5Lu8(ScSi4)4
_chemical_formula_sum   'Dy3 Y5 Lu8 Sc4 Si16'
_cell_volume   779.10256613
_cell_formula_units_Z   1
loop_
 _symmetry_equiv_pos_site_id
 _symmetry_equiv_pos_as_xyz
  1  'x, y, z'
loop_
 _atom_site_type_symbol
 _atom_site_label
 _atom_site_symmetry_multiplicity
 _atom_site_fract_x
 _atom_site_fract_y
 _atom_site_fract_z
 _atom_site_occupancy
  Dy  Dy0  1  0.014134  0.179003  0.401973  1
  Dy  Dy1  1  0.514123  0.321032  0.401982  1
  Dy  Dy2  1  0.485861  0.678974  0.598037  1
  Y  Y3  1  0.014050  0.178950  0.097997  1
  Y  Y4  1  0.985948  0.821053  0.901995  1
  Y  Y5  1  0.485934  0.678958  0.901997  1
  Y  Y6  1  0.985923  0.821052  0.597981  1
  Y  Y7  1  0.514053  0.321047  0.097999  1
  Lu  Lu8  1  0.328193  0.177423  0.625131  1
  Lu  Lu9  1  0.671892  0.822608  0.374883  1
  Lu  Lu10  1  0.171877  0.677353  0.374845  1
  Lu  Lu11  1  0.671855  0.822608  0.125157  1
  Lu  Lu12  1  0.828168  0.322640  0.625122  1
  Lu  Lu13  1  0.328170  0.177401  0.874828  1
  Lu  Lu14  1  0.828156  0.322599  0.874830  1
  Lu  Lu15  1  0.171845  0.677368  0.125161  1
  Sc  Sc16  1  0.160614  0.509118  0.749975  1
  Sc  Sc17  1  0.839383  0.490818  0.250045  1
  Sc  Sc18  1  0.339387  0.009186  0.250037  1
  Sc  Sc19  1  0.660540  0.990843  0.749969  1
  Si  Si20  1  0.028201  0.104671  0.749999  1
  Si  Si21  1  0.971811  0.895378  0.250043  1
  Si  Si22  1  0.471799  0.604622  0.250037  1
  Si  Si23  1  0.528176  0.395368  0.749965  1
  Si  Si24  1  0.284739  0.867284  0.749937  1
  Si  Si25  1  0.715318  0.132743  0.250084  1
  Si  Si26  1  0.215313  0.367286  0.250078  1
  Si  Si27  1  0.784625  0.632650  0.749974  1
  Si  Si28  1  0.156411  0.468053  0.539562  1
  Si  Si29  1  0.843630  0.531807  0.460396  1
  Si  Si30  1  0.343638  0.968162  0.460429  1
  Si  Si31  1  0.843697  0.531986  0.039583  1
  Si  Si32  1  0.656239  0.031940  0.539561  1
  Si  Si33  1  0.156307  0.468013  0.960411  1
  Si  Si34  1  0.656287  0.031984  0.960418  1
  Si  Si35  1  0.343703  0.968019  0.039578  1
