# generated using pymatgen
data_TiB3Ru3W2
_symmetry_space_group_name_H-M   'P 1'
_cell_length_a   3.03283600
_cell_length_b   8.99437700
_cell_length_c   15.80123600
_cell_angle_alpha   90.00000000
_cell_angle_beta   90.00000000
_cell_angle_gamma   90.00000000
_symmetry_Int_Tables_number   1
_chemical_formula_structural   TiB3Ru3W2
_chemical_formula_sum   'Ti4 B12 Ru12 W8'
_cell_volume   431.03354793
_cell_formula_units_Z   4
loop_
 _symmetry_equiv_pos_site_id
 _symmetry_equiv_pos_as_xyz
  1  'x, y, z'
loop_
 _atom_site_type_symbol
 _atom_site_label
 _atom_site_symmetry_multiplicity
 _atom_site_fract_x
 _atom_site_fract_y
 _atom_site_fract_z
 _atom_site_occupancy
  Ti  Ti0  1  0.000000  0.690867  0.202102  1
  Ti  Ti1  1  0.000000  0.309133  0.797898  1
  Ti  Ti2  1  0.000000  0.190867  0.297898  1
  Ti  Ti3  1  0.000000  0.809133  0.702102  1
  B  B4  1  0.500000  0.606335  0.496232  1
  B  B5  1  0.500000  0.393665  0.503768  1
  B  B6  1  0.500000  0.106335  0.003768  1
  B  B7  1  0.500000  0.893665  0.996232  1
  B  B8  1  0.000000  0.605894  0.829957  1
  B  B9  1  0.000000  0.394106  0.170043  1
  B  B10  1  0.000000  0.105894  0.670043  1
  B  B11  1  0.000000  0.894106  0.329957  1
  B  B12  1  0.500000  0.713973  0.596851  1
  B  B13  1  0.500000  0.286027  0.403149  1
  B  B14  1  0.500000  0.213973  0.903149  1
  B  B15  1  0.500000  0.786027  0.096851  1
  Ru  Ru16  1  0.500000  0.721990  0.352759  1
  Ru  Ru17  1  0.500000  0.278010  0.647241  1
  Ru  Ru18  1  0.500000  0.221990  0.147241  1
  Ru  Ru19  1  0.500000  0.778010  0.852759  1
  Ru  Ru20  1  0.500000  0.518557  0.092752  1
  Ru  Ru21  1  0.500000  0.481443  0.907248  1
  Ru  Ru22  1  0.500000  0.018557  0.407248  1
  Ru  Ru23  1  0.500000  0.981443  0.592752  1
  Ru  Ru24  1  0.500000  0.558827  0.732218  1
  Ru  Ru25  1  0.500000  0.441173  0.267782  1
  Ru  Ru26  1  0.500000  0.058827  0.767782  1
  Ru  Ru27  1  0.500000  0.941173  0.232218  1
  W  W28  1  0.000000  0.793978  0.494729  1
  W  W29  1  0.000000  0.206022  0.505271  1
  W  W30  1  0.000000  0.293978  0.005271  1
  W  W31  1  0.000000  0.706022  0.994729  1
  W  W32  1  0.000000  0.515391  0.590286  1
  W  W33  1  0.000000  0.484609  0.409714  1
  W  W34  1  0.000000  0.015391  0.909714  1
  W  W35  1  0.000000  0.984609  0.090286  1
