# generated using pymatgen
data_Ta4NbRe24
_symmetry_space_group_name_H-M   'P 1'
_cell_length_a   8.41019713
_cell_length_b   8.41019784
_cell_length_c   8.41019549
_cell_angle_alpha   109.45309150
_cell_angle_beta   109.45309734
_cell_angle_gamma   109.45308313
_symmetry_Int_Tables_number   1
_chemical_formula_structural   Ta4NbRe24
_chemical_formula_sum   'Ta4 Nb1 Re24'
_cell_volume   458.23447876
_cell_formula_units_Z   1
loop_
 _symmetry_equiv_pos_site_id
 _symmetry_equiv_pos_as_xyz
  1  'x, y, z'
loop_
 _atom_site_type_symbol
 _atom_site_label
 _atom_site_symmetry_multiplicity
 _atom_site_fract_x
 _atom_site_fract_y
 _atom_site_fract_z
 _atom_site_occupancy
  Ta  Ta0  1  0.001117  0.001117  0.001117  1
  Ta  Ta1  1  0.000032  0.000032  0.636239  1
  Ta  Ta2  1  0.636239  0.000032  0.000032  1
  Ta  Ta3  1  0.000032  0.636239  0.000032  1
  Nb  Nb4  1  0.363726  0.363726  0.363726  1
  Re  Re5  1  0.316988  0.316988  0.715518  1
  Re  Re6  1  0.399667  0.682656  0.999792  1
  Re  Re7  1  0.682656  0.399667  0.999792  1
  Re  Re8  1  0.599953  0.283845  0.599953  1
  Re  Re9  1  0.399667  0.999792  0.682656  1
  Re  Re10  1  0.999792  0.399667  0.682656  1
  Re  Re11  1  0.283845  0.599953  0.599953  1
  Re  Re12  1  0.715518  0.316988  0.316988  1
  Re  Re13  1  0.316988  0.715518  0.316988  1
  Re  Re14  1  0.682656  0.999792  0.399667  1
  Re  Re15  1  0.999792  0.682656  0.399667  1
  Re  Re16  1  0.599953  0.599953  0.283845  1
  Re  Re17  1  0.806034  0.806034  0.183665  1
  Re  Re18  1  0.376933  0.193899  0.999428  1
  Re  Re19  1  0.193899  0.376933  0.999428  1
  Re  Re20  1  0.623740  0.817645  0.623740  1
  Re  Re21  1  0.376933  0.999428  0.193899  1
  Re  Re22  1  0.999428  0.376933  0.193899  1
  Re  Re23  1  0.817645  0.623740  0.623740  1
  Re  Re24  1  0.183665  0.806034  0.806034  1
  Re  Re25  1  0.806034  0.183665  0.806034  1
  Re  Re26  1  0.193899  0.999428  0.376933  1
  Re  Re27  1  0.999428  0.193899  0.376933  1
  Re  Re28  1  0.623740  0.623740  0.817645  1
