# generated using pymatgen
data_Er3Sc(B4Ir)4
_symmetry_space_group_name_H-M   'P 1'
_cell_length_a   5.93498084
_cell_length_b   11.50561151
_cell_length_c   3.53905400
_cell_angle_alpha   90.00000000
_cell_angle_beta   90.00000000
_cell_angle_gamma   89.88790129
_symmetry_Int_Tables_number   1
_chemical_formula_structural   Er3Sc(B4Ir)4
_chemical_formula_sum   'Er3 Sc1 B16 Ir4'
_cell_volume   241.66590608
_cell_formula_units_Z   1
loop_
 _symmetry_equiv_pos_site_id
 _symmetry_equiv_pos_as_xyz
  1  'x, y, z'
loop_
 _atom_site_type_symbol
 _atom_site_label
 _atom_site_symmetry_multiplicity
 _atom_site_fract_x
 _atom_site_fract_y
 _atom_site_fract_z
 _atom_site_occupancy
  Er  Er0  1  0.632841  0.147471  0.000000  1
  Er  Er1  1  0.132588  0.351378  0.000000  1
  Er  Er2  1  0.866572  0.649495  0.000000  1
  Sc  Sc3  1  0.368381  0.852175  0.000000  1
  B  B4  1  0.365919  0.027959  0.500000  1
  B  B5  1  0.888635  0.045426  0.500000  1
  B  B6  1  0.292962  0.187375  0.500000  1
  B  B7  1  0.977503  0.192129  0.500000  1
  B  B8  1  0.477980  0.306369  0.500000  1
  B  B9  1  0.792619  0.311627  0.500000  1
  B  B10  1  0.387773  0.453338  0.500000  1
  B  B11  1  0.864181  0.470820  0.500000  1
  B  B12  1  0.136201  0.529927  0.500000  1
  B  B13  1  0.611754  0.547987  0.500000  1
  B  B14  1  0.206911  0.689833  0.500000  1
  B  B15  1  0.521086  0.695511  0.500000  1
  B  B16  1  0.024797  0.807134  0.500000  1
  B  B17  1  0.702130  0.813006  0.500000  1
  B  B18  1  0.116381  0.951003  0.500000  1
  B  B19  1  0.634335  0.968946  0.500000  1
  Ir  Ir20  1  0.146196  0.094952  0.000000  1
  Ir  Ir21  1  0.643661  0.403853  0.000000  1
  Ir  Ir22  1  0.354798  0.600001  0.000000  1
  Ir  Ir23  1  0.853796  0.902284  0.000000  1
