# generated using pymatgen
data_La2NdY(AsPt)4
_symmetry_space_group_name_H-M   'P 1'
_cell_length_a   4.35736000
_cell_length_b   4.35735961
_cell_length_c   16.09436400
_cell_angle_alpha   90.00000000
_cell_angle_beta   90.00000000
_cell_angle_gamma   120.00000298
_symmetry_Int_Tables_number   1
_chemical_formula_structural   La2NdY(AsPt)4
_chemical_formula_sum   'La2 Nd1 Y1 As4 Pt4'
_cell_volume   264.63743807
_cell_formula_units_Z   1
loop_
 _symmetry_equiv_pos_site_id
 _symmetry_equiv_pos_as_xyz
  1  'x, y, z'
loop_
 _atom_site_type_symbol
 _atom_site_label
 _atom_site_symmetry_multiplicity
 _atom_site_fract_x
 _atom_site_fract_y
 _atom_site_fract_z
 _atom_site_occupancy
  La  La0  1  0.000000  0.000000  0.996377  1
  La  La1  1  0.000000  0.000000  0.503623  1
  Nd  Nd2  1  0.000000  0.000000  0.250000  1
  Y  Y3  1  0.000000  0.000000  0.750000  1
  As  As4  1  0.333333  0.666667  0.877379  1
  As  As5  1  0.666667  0.333333  0.380328  1
  As  As6  1  0.666667  0.333333  0.119672  1
  As  As7  1  0.333333  0.666667  0.622621  1
  Pt  Pt8  1  0.333333  0.666667  0.370418  1
  Pt  Pt9  1  0.666667  0.333333  0.856896  1
  Pt  Pt10  1  0.666667  0.333333  0.643104  1
  Pt  Pt11  1  0.333333  0.666667  0.129582  1
