# generated using pymatgen
data_Y5ErAl6(SiAu)3
_symmetry_space_group_name_H-M   'P 1'
_cell_length_a   6.96213513
_cell_length_b   6.95054197
_cell_length_c   8.54088200
_cell_angle_alpha   89.95471925
_cell_angle_beta   90.05434024
_cell_angle_gamma   119.71562556
_symmetry_Int_Tables_number   1
_chemical_formula_structural   Y5ErAl6(SiAu)3
_chemical_formula_sum   'Y5 Er1 Al6 Si3 Au3'
_cell_volume   358.94806684
_cell_formula_units_Z   1
loop_
 _symmetry_equiv_pos_site_id
 _symmetry_equiv_pos_as_xyz
  1  'x, y, z'
loop_
 _atom_site_type_symbol
 _atom_site_label
 _atom_site_symmetry_multiplicity
 _atom_site_fract_x
 _atom_site_fract_y
 _atom_site_fract_z
 _atom_site_occupancy
  Y  Y0  1  0.579584  0.000024  0.744018  1
  Y  Y1  1  0.998342  0.578738  0.744032  1
  Y  Y2  1  0.420205  0.419120  0.744169  1
  Y  Y3  1  0.998149  0.579658  0.255993  1
  Y  Y4  1  0.580520  0.000308  0.255971  1
  Er  Er5  1  0.419736  0.419561  0.255519  1
  Al  Al6  1  0.748184  0.755094  0.001848  1
  Al  Al7  1  0.245485  0.992618  0.000043  1
  Al  Al8  1  0.007447  0.252471  0.000004  1
  Al  Al9  1  0.759494  0.759222  0.498535  1
  Al  Al10  1  0.241059  0.999756  0.499592  1
  Al  Al11  1  0.998775  0.240431  0.499750  1
  Si  Si12  1  0.666036  0.333249  0.000915  1
  Si  Si13  1  0.665208  0.333451  0.499022  1
  Si  Si14  1  0.333121  0.665588  0.499194  1
  Au  Au15  1  0.999889  0.000074  0.754254  1
  Au  Au16  1  0.005171  0.005497  0.245806  1
  Au  Au17  1  0.333593  0.665139  0.001334  1
