# generated using pymatgen
data_CeEr3(ScIr)4
_symmetry_space_group_name_H-M   'P 1'
_cell_length_a   7.11037277
_cell_length_b   4.27254400
_cell_length_c   8.65778401
_cell_angle_alpha   90.00000000
_cell_angle_beta   91.55245783
_cell_angle_gamma   90.00000000
_symmetry_Int_Tables_number   1
_chemical_formula_structural   CeEr3(ScIr)4
_chemical_formula_sum   'Ce1 Er3 Sc4 Ir4'
_cell_volume   262.92157126
_cell_formula_units_Z   1
loop_
 _symmetry_equiv_pos_site_id
 _symmetry_equiv_pos_as_xyz
  1  'x, y, z'
loop_
 _atom_site_type_symbol
 _atom_site_label
 _atom_site_symmetry_multiplicity
 _atom_site_fract_x
 _atom_site_fract_y
 _atom_site_fract_z
 _atom_site_occupancy
  Ce  Ce0  1  0.518666  0.750000  0.681830  1
  Er  Er1  1  0.979484  0.250000  0.170669  1
  Er  Er2  1  0.482421  0.250000  0.323612  1
  Er  Er3  1  0.014565  0.750000  0.828048  1
  Sc  Sc4  1  0.869879  0.250000  0.563547  1
  Sc  Sc5  1  0.351335  0.250000  0.939211  1
  Sc  Sc6  1  0.142242  0.750000  0.430354  1
  Sc  Sc7  1  0.641330  0.750000  0.070373  1
  Ir  Ir8  1  0.734908  0.250000  0.888295  1
  Ir  Ir9  1  0.252558  0.250000  0.601366  1
  Ir  Ir10  1  0.254498  0.750000  0.106443  1
  Ir  Ir11  1  0.758114  0.750000  0.396252  1
