# generated using pymatgen
data_Tm3LuZn12
_symmetry_space_group_name_H-M   'P 1'
_cell_length_a   4.35242100
_cell_length_b   6.62939305
_cell_length_c   10.00826507
_cell_angle_alpha   90.01401071
_cell_angle_beta   90.00000000
_cell_angle_gamma   90.00000000
_symmetry_Int_Tables_number   1
_chemical_formula_structural   Tm3LuZn12
_chemical_formula_sum   'Tm3 Lu1 Zn12'
_cell_volume   288.77756635
_cell_formula_units_Z   1
loop_
 _symmetry_equiv_pos_site_id
 _symmetry_equiv_pos_as_xyz
  1  'x, y, z'
loop_
 _atom_site_type_symbol
 _atom_site_label
 _atom_site_symmetry_multiplicity
 _atom_site_fract_x
 _atom_site_fract_y
 _atom_site_fract_z
 _atom_site_occupancy
  Tm  Tm0  1  0.250000  0.279674  0.664313  1
  Tm  Tm1  1  0.250000  0.779662  0.835626  1
  Tm  Tm2  1  0.750000  0.720365  0.335644  1
  Lu  Lu3  1  0.750000  0.220293  0.164337  1
  Zn  Zn4  1  0.250000  0.535957  0.103284  1
  Zn  Zn5  1  0.250000  0.036037  0.396760  1
  Zn  Zn6  1  0.750000  0.463864  0.896840  1
  Zn  Zn7  1  0.750000  0.963912  0.603218  1
  Zn  Zn8  1  0.250000  0.919479  0.148889  1
  Zn  Zn9  1  0.250000  0.419261  0.351090  1
  Zn  Zn10  1  0.750000  0.080686  0.851216  1
  Zn  Zn11  1  0.750000  0.580686  0.648788  1
  Zn  Zn12  1  0.250000  0.216671  0.957190  1
  Zn  Zn13  1  0.250000  0.716688  0.542900  1
  Zn  Zn14  1  0.750000  0.783489  0.042914  1
  Zn  Zn15  1  0.750000  0.283278  0.456993  1
