# generated using pymatgen
data_CdHg2MoO6
_symmetry_space_group_name_H-M   'P 1'
_cell_length_a   7.14567923
_cell_length_b   7.34539367
_cell_length_c   7.85499514
_cell_angle_alpha   75.61063212
_cell_angle_beta   69.71388194
_cell_angle_gamma   65.35547947
_symmetry_Int_Tables_number   1
_chemical_formula_structural   CdHg2MoO6
_chemical_formula_sum   'Cd2 Hg4 Mo2 O12'
_cell_volume   348.87117145
_cell_formula_units_Z   2
loop_
 _symmetry_equiv_pos_site_id
 _symmetry_equiv_pos_as_xyz
  1  'x, y, z'
loop_
 _atom_site_type_symbol
 _atom_site_label
 _atom_site_symmetry_multiplicity
 _atom_site_fract_x
 _atom_site_fract_y
 _atom_site_fract_z
 _atom_site_occupancy
  Cd  Cd0  1  0.333676  0.149005  0.195589  1
  Cd  Cd1  1  0.666324  0.850995  0.804411  1
  Hg  Hg2  1  0.842934  0.650407  0.204655  1
  Hg  Hg3  1  0.157066  0.349593  0.795345  1
  Hg  Hg4  1  0.658963  0.350208  0.799618  1
  Hg  Hg5  1  0.341037  0.649792  0.200382  1
  Mo  Mo6  1  0.793918  0.136295  0.324343  1
  Mo  Mo7  1  0.206082  0.863705  0.675657  1
  O  O8  1  0.618313  0.216609  0.177811  1
  O  O9  1  0.446553  0.197607  0.860441  1
  O  O10  1  0.931105  0.932886  0.819459  1
  O  O11  1  0.759003  0.926112  0.488405  1
  O  O12  1  0.265192  0.657837  0.562248  1
  O  O13  1  0.148223  0.492833  0.226520  1
  O  O14  1  0.240997  0.073888  0.511595  1
  O  O15  1  0.553447  0.802393  0.139559  1
  O  O16  1  0.381687  0.783391  0.822189  1
  O  O17  1  0.851777  0.507167  0.773480  1
  O  O18  1  0.734808  0.342163  0.437752  1
  O  O19  1  0.068895  0.067114  0.180541  1
