# generated using pymatgen
data_Tm8Cd3BiAu8
_symmetry_space_group_name_H-M   'P 1'
_cell_length_a   8.00185900
_cell_length_b   8.00185900
_cell_length_c   7.27352400
_cell_angle_alpha   90.00000000
_cell_angle_beta   90.00000000
_cell_angle_gamma   90.00000000
_symmetry_Int_Tables_number   1
_chemical_formula_structural   Tm8Cd3BiAu8
_chemical_formula_sum   'Tm8 Cd3 Bi1 Au8'
_cell_volume   465.72190483
_cell_formula_units_Z   1
loop_
 _symmetry_equiv_pos_site_id
 _symmetry_equiv_pos_as_xyz
  1  'x, y, z'
loop_
 _atom_site_type_symbol
 _atom_site_label
 _atom_site_symmetry_multiplicity
 _atom_site_fract_x
 _atom_site_fract_y
 _atom_site_fract_z
 _atom_site_occupancy
  Tm  Tm0  1  0.841531  0.156554  0.502163  1
  Tm  Tm1  1  0.158469  0.843446  0.502163  1
  Tm  Tm2  1  0.343446  0.341531  0.997837  1
  Tm  Tm3  1  0.656554  0.658469  0.997837  1
  Tm  Tm4  1  0.679479  0.681889  0.501953  1
  Tm  Tm5  1  0.320521  0.318111  0.501953  1
  Tm  Tm6  1  0.181889  0.820521  0.998047  1
  Tm  Tm7  1  0.818111  0.179479  0.998047  1
  Cd  Cd8  1  0.500000  0.000000  0.250000  1
  Cd  Cd9  1  0.000000  0.500000  0.750000  1
  Cd  Cd10  1  0.500000  0.000000  0.750000  1
  Bi  Bi11  1  0.000000  0.500000  0.250000  1
  Au  Au12  1  0.621625  0.365824  0.273586  1
  Au  Au13  1  0.378375  0.634176  0.273586  1
  Au  Au14  1  0.129134  0.129685  0.772366  1
  Au  Au15  1  0.870866  0.870315  0.772366  1
  Au  Au16  1  0.370315  0.629134  0.727634  1
  Au  Au17  1  0.629685  0.370866  0.727634  1
  Au  Au18  1  0.865824  0.878375  0.226414  1
  Au  Au19  1  0.134176  0.121625  0.226414  1
