# generated using pymatgen
data_Nd3ZnPt3Au2
_symmetry_space_group_name_H-M   'P 1'
_cell_length_a   7.64972100
_cell_length_b   7.43402903
_cell_length_c   3.96961900
_cell_angle_alpha   90.00000000
_cell_angle_beta   90.00000000
_cell_angle_gamma   119.07158966
_symmetry_Int_Tables_number   1
_chemical_formula_structural   Nd3ZnPt3Au2
_chemical_formula_sum   'Nd3 Zn1 Pt3 Au2'
_cell_volume   197.30436769
_cell_formula_units_Z   1
loop_
 _symmetry_equiv_pos_site_id
 _symmetry_equiv_pos_as_xyz
  1  'x, y, z'
loop_
 _atom_site_type_symbol
 _atom_site_label
 _atom_site_symmetry_multiplicity
 _atom_site_fract_x
 _atom_site_fract_y
 _atom_site_fract_z
 _atom_site_occupancy
  Nd  Nd0  1  0.406071  0.395438  0.500000  1
  Nd  Nd1  1  0.593929  0.989369  0.500000  1
  Nd  Nd2  1  0.000000  0.616008  0.500000  1
  Zn  Zn3  1  0.000000  0.253678  0.000000  1
  Pt  Pt4  1  0.684906  0.327829  0.000000  1
  Pt  Pt5  1  0.315094  0.642924  0.000000  1
  Pt  Pt6  1  0.000000  0.029901  0.500000  1
  Au  Au7  1  0.739250  0.742051  0.000000  1
  Au  Au8  1  0.260750  0.002802  0.000000  1
