# generated using pymatgen
data_Lu2Al20Ru3Rh
_symmetry_space_group_name_H-M   'P 1'
_cell_length_a   6.84342494
_cell_length_b   6.83364246
_cell_length_c   9.13080567
_cell_angle_alpha   90.14475378
_cell_angle_beta   90.07301786
_cell_angle_gamma   96.74219997
_symmetry_Int_Tables_number   1
_chemical_formula_structural   Lu2Al20Ru3Rh
_chemical_formula_sum   'Lu2 Al20 Ru3 Rh1'
_cell_volume   424.05199639
_cell_formula_units_Z   1
loop_
 _symmetry_equiv_pos_site_id
 _symmetry_equiv_pos_as_xyz
  1  'x, y, z'
loop_
 _atom_site_type_symbol
 _atom_site_label
 _atom_site_symmetry_multiplicity
 _atom_site_fract_x
 _atom_site_fract_y
 _atom_site_fract_z
 _atom_site_occupancy
  Lu  Lu0  1  0.871406  0.131031  0.748787  1
  Lu  Lu1  1  0.128594  0.868969  0.251213  1
  Al  Al2  1  0.519166  0.780478  0.747590  1
  Al  Al3  1  0.782200  0.519051  0.249725  1
  Al  Al4  1  0.480834  0.219522  0.252410  1
  Al  Al5  1  0.217800  0.480949  0.750275  1
  Al  Al6  1  0.624661  0.378680  0.952477  1
  Al  Al7  1  0.375339  0.621320  0.047523  1
  Al  Al8  1  0.623762  0.376938  0.545979  1
  Al  Al9  1  0.376238  0.623062  0.454021  1
  Al  Al10  1  0.416427  0.147724  0.749003  1
  Al  Al11  1  0.146496  0.415714  0.250546  1
  Al  Al12  1  0.583573  0.852276  0.250997  1
  Al  Al13  1  0.853504  0.584286  0.749454  1
  Al  Al14  1  0.845864  0.153404  0.399790  1
  Al  Al15  1  0.154136  0.846596  0.600210  1
  Al  Al16  1  0.847341  0.155148  0.101520  1
  Al  Al17  1  0.152659  0.844852  0.898480  1
  Al  Al18  1  0.776192  0.774531  0.000645  1
  Al  Al19  1  0.776424  0.775839  0.499723  1
  Al  Al20  1  0.223808  0.225469  0.999355  1
  Al  Al21  1  0.223576  0.224161  0.500277  1
  Ru  Ru22  1  0.000000  0.500000  0.000000  1
  Ru  Ru23  1  0.500000  0.000000  0.500000  1
  Ru  Ru24  1  0.000000  0.500000  0.500000  1
  Rh  Rh25  1  0.500000  0.000000  0.000000  1
