# generated using pymatgen
data_Sr4Ce3(ThSe4)5
_symmetry_space_group_name_H-M   'P 1'
_cell_length_a   7.94073109
_cell_length_b   8.72065915
_cell_length_c   12.63736732
_cell_angle_alpha   90.08611586
_cell_angle_beta   89.96745665
_cell_angle_gamma   90.05057595
_symmetry_Int_Tables_number   1
_chemical_formula_structural   Sr4Ce3(ThSe4)5
_chemical_formula_sum   'Sr4 Ce3 Th5 Se20'
_cell_volume   875.11611418
_cell_formula_units_Z   1
loop_
 _symmetry_equiv_pos_site_id
 _symmetry_equiv_pos_as_xyz
  1  'x, y, z'
loop_
 _atom_site_type_symbol
 _atom_site_label
 _atom_site_symmetry_multiplicity
 _atom_site_fract_x
 _atom_site_fract_y
 _atom_site_fract_z
 _atom_site_occupancy
  Sr  Sr0  1  0.965635  0.504928  0.825841  1
  Sr  Sr1  1  0.466572  0.494184  0.674943  1
  Sr  Sr2  1  0.033944  0.494457  0.173955  1
  Sr  Sr3  1  0.534236  0.504633  0.325239  1
  Ce  Ce4  1  0.571579  0.251347  0.008174  1
  Ce  Ce5  1  0.927305  0.251349  0.508243  1
  Ce  Ce6  1  0.428521  0.748671  0.991733  1
  Th  Th7  1  0.074746  0.748757  0.490871  1
  Th  Th8  1  0.518486  0.002452  0.319804  1
  Th  Th9  1  0.018379  0.998867  0.179130  1
  Th  Th10  1  0.481981  0.999227  0.680319  1
  Th  Th11  1  0.981167  0.001998  0.820747  1
  Se  Se12  1  0.839093  0.958472  0.601032  1
  Se  Se13  1  0.825740  0.774841  0.314468  1
  Se  Se14  1  0.672303  0.775331  0.816036  1
  Se  Se15  1  0.172839  0.224690  0.684395  1
  Se  Se16  1  0.543657  0.222420  0.501663  1
  Se  Se17  1  0.043601  0.777619  0.998230  1
  Se  Se18  1  0.457965  0.777282  0.498128  1
  Se  Se19  1  0.956329  0.222798  0.001911  1
  Se  Se20  1  0.197868  0.763550  0.716679  1
  Se  Se21  1  0.697203  0.236134  0.785260  1
  Se  Se22  1  0.802381  0.235896  0.284509  1
  Se  Se23  1  0.659019  0.956693  0.099465  1
  Se  Se24  1  0.829849  0.539123  0.588468  1
  Se  Se25  1  0.331736  0.458632  0.912926  1
  Se  Se26  1  0.169697  0.454951  0.411461  1
  Se  Se27  1  0.668120  0.541313  0.086997  1
  Se  Se28  1  0.302091  0.763993  0.216065  1
  Se  Se29  1  0.340661  0.043681  0.900307  1
  Se  Se30  1  0.159681  0.047095  0.399232  1
  Se  Se31  1  0.327618  0.224615  0.183767  1
