# generated using pymatgen
data_CsNa3F12
_symmetry_space_group_name_H-M   'P 1'
_cell_length_a   6.50525116
_cell_length_b   5.09274711
_cell_length_c   7.92729113
_cell_angle_alpha   88.95945441
_cell_angle_beta   89.65822828
_cell_angle_gamma   88.80120385
_symmetry_Int_Tables_number   1
_chemical_formula_structural   CsNa3F12
_chemical_formula_sum   'Cs1 Na3 F12'
_cell_volume   262.52309681
_cell_formula_units_Z   1
loop_
 _symmetry_equiv_pos_site_id
 _symmetry_equiv_pos_as_xyz
  1  'x, y, z'
loop_
 _atom_site_type_symbol
 _atom_site_label
 _atom_site_symmetry_multiplicity
 _atom_site_fract_x
 _atom_site_fract_y
 _atom_site_fract_z
 _atom_site_occupancy
  Cs  Cs0  1  0.754495  0.726065  0.125298  1
  Na  Na1  1  0.250081  0.247782  0.394415  1
  Na  Na2  1  0.250394  0.247563  0.856059  1
  Na  Na3  1  0.750424  0.760183  0.625158  1
  F  F4  1  0.117025  0.069701  0.129371  1
  F  F5  1  0.422877  0.478384  0.622187  1
  F  F6  1  0.564394  0.006755  0.831725  1
  F  F7  1  0.937848  0.487960  0.431487  1
  F  F8  1  0.566731  0.011196  0.414106  1
  F  F9  1  0.936085  0.484470  0.822469  1
  F  F10  1  0.086547  0.013756  0.627845  1
  F  F11  1  0.361150  0.459093  0.120178  1
  F  F12  1  0.240982  0.766157  0.124590  1
  F  F13  1  0.255068  0.745505  0.625010  1
  F  F14  1  0.750358  0.245114  0.831701  1
  F  F15  1  0.753117  0.250316  0.418402  1
