# generated using pymatgen
data_Tb3Y(Er2Os)4
_symmetry_space_group_name_H-M   'P 1'
_cell_length_a   6.29835681
_cell_length_b   7.38861309
_cell_length_c   8.99735000
_cell_angle_alpha   90.00000000
_cell_angle_beta   90.00000000
_cell_angle_gamma   90.04528790
_symmetry_Int_Tables_number   1
_chemical_formula_structural   Tb3Y(Er2Os)4
_chemical_formula_sum   'Tb3 Y1 Er8 Os4'
_cell_volume   418.70164261
_cell_formula_units_Z   1
loop_
 _symmetry_equiv_pos_site_id
 _symmetry_equiv_pos_as_xyz
  1  'x, y, z'
loop_
 _atom_site_type_symbol
 _atom_site_label
 _atom_site_symmetry_multiplicity
 _atom_site_fract_x
 _atom_site_fract_y
 _atom_site_fract_z
 _atom_site_occupancy
  Tb  Tb0  1  0.870366  0.538615  0.250000  1
  Tb  Tb1  1  0.629688  0.038690  0.250000  1
  Tb  Tb2  1  0.130019  0.461213  0.750000  1
  Y  Y3  1  0.370404  0.961675  0.750000  1
  Er  Er4  1  0.333242  0.675402  0.063158  1
  Er  Er5  1  0.167159  0.174648  0.436964  1
  Er  Er6  1  0.666637  0.324745  0.563205  1
  Er  Er7  1  0.832528  0.825079  0.936555  1
  Er  Er8  1  0.666637  0.324745  0.936795  1
  Er  Er9  1  0.832528  0.825079  0.563445  1
  Er  Er10  1  0.333242  0.675402  0.436842  1
  Er  Er11  1  0.167159  0.174648  0.063036  1
  Os  Os12  1  0.043063  0.882682  0.250000  1
  Os  Os13  1  0.456940  0.382617  0.250000  1
  Os  Os14  1  0.957302  0.117594  0.750000  1
  Os  Os15  1  0.543083  0.617168  0.750000  1
