# generated using pymatgen
data_DyTmGaNi7B2
_symmetry_space_group_name_H-M   'P 1'
_cell_length_a   5.06102400
_cell_length_b   5.06102319
_cell_length_c   6.83276200
_cell_angle_alpha   90.00000000
_cell_angle_beta   90.00000000
_cell_angle_gamma   119.99999219
_symmetry_Int_Tables_number   1
_chemical_formula_structural   DyTmGaNi7B2
_chemical_formula_sum   'Dy1 Tm1 Ga1 Ni7 B2'
_cell_volume   151.56666121
_cell_formula_units_Z   1
loop_
 _symmetry_equiv_pos_site_id
 _symmetry_equiv_pos_as_xyz
  1  'x, y, z'
loop_
 _atom_site_type_symbol
 _atom_site_label
 _atom_site_symmetry_multiplicity
 _atom_site_fract_x
 _atom_site_fract_y
 _atom_site_fract_z
 _atom_site_occupancy
  Dy  Dy0  1  0.000000  0.000000  0.000000  1
  Tm  Tm1  1  0.000000  0.000000  0.500000  1
  Ga  Ga2  1  0.666667  0.333333  0.000000  1
  Ni  Ni3  1  0.001075  0.500538  0.295976  1
  Ni  Ni4  1  0.499462  0.500538  0.295976  1
  Ni  Ni5  1  0.499462  0.500538  0.704024  1
  Ni  Ni6  1  0.499462  0.998925  0.704024  1
  Ni  Ni7  1  0.001075  0.500538  0.704024  1
  Ni  Ni8  1  0.333333  0.666667  0.000000  1
  Ni  Ni9  1  0.499462  0.998925  0.295976  1
  B  B10  1  0.666667  0.333333  0.500000  1
  B  B11  1  0.333333  0.666667  0.500000  1
