# generated using pymatgen
data_UP2AuO8
_symmetry_space_group_name_H-M   'P 1'
_cell_length_a   5.59254767
_cell_length_b   5.60037730
_cell_length_c   9.25081000
_cell_angle_alpha   105.27877045
_cell_angle_beta   106.53265245
_cell_angle_gamma   59.93574661
_symmetry_Int_Tables_number   1
_chemical_formula_structural   UP2AuO8
_chemical_formula_sum   'U1 P2 Au1 O8'
_cell_volume   237.82325639
_cell_formula_units_Z   1
loop_
 _symmetry_equiv_pos_site_id
 _symmetry_equiv_pos_as_xyz
  1  'x, y, z'
loop_
 _atom_site_type_symbol
 _atom_site_label
 _atom_site_symmetry_multiplicity
 _atom_site_fract_x
 _atom_site_fract_y
 _atom_site_fract_z
 _atom_site_occupancy
  U  U0  1  0.000002  0.000004  0.999999  1
  P  P1  1  0.732009  0.720149  0.202726  1
  P  P2  1  0.267992  0.279854  0.797270  1
  Au  Au3  1  0.999990  0.999987  0.500003  1
  O  O4  1  0.850941  0.845549  0.125686  1
  O  O5  1  0.407097  0.854827  0.146259  1
  O  O6  1  0.851448  0.402226  0.140293  1
  O  O7  1  0.805876  0.766853  0.375137  1
  O  O8  1  0.194113  0.233107  0.624866  1
  O  O9  1  0.148547  0.597785  0.859688  1
  O  O10  1  0.592907  0.145190  0.853733  1
  O  O11  1  0.149081  0.154472  0.874340  1
