# generated using pymatgen
data_Tb4Ga20(OsRu)3
_symmetry_space_group_name_H-M   'P 1'
_cell_length_a   8.92962033
_cell_length_b   8.92962017
_cell_length_c   6.48799700
_cell_angle_alpha   90.00000000
_cell_angle_beta   90.00000000
_cell_angle_gamma   89.97310898
_symmetry_Int_Tables_number   1
_chemical_formula_structural   Tb4Ga20(OsRu)3
_chemical_formula_sum   'Tb4 Ga20 Os3 Ru3'
_cell_volume   517.34061239
_cell_formula_units_Z   1
loop_
 _symmetry_equiv_pos_site_id
 _symmetry_equiv_pos_as_xyz
  1  'x, y, z'
loop_
 _atom_site_type_symbol
 _atom_site_label
 _atom_site_symmetry_multiplicity
 _atom_site_fract_x
 _atom_site_fract_y
 _atom_site_fract_z
 _atom_site_occupancy
  Tb  Tb0  1  0.182719  0.317324  0.000000  1
  Tb  Tb1  1  0.682747  0.182747  0.000000  1
  Tb  Tb2  1  0.817324  0.682719  0.000000  1
  Tb  Tb3  1  0.317212  0.817212  0.000000  1
  Ga  Ga4  1  0.499428  0.999428  0.290627  1
  Ga  Ga5  1  0.499428  0.999428  0.709373  1
  Ga  Ga6  1  0.293487  0.561301  0.705048  1
  Ga  Ga7  1  0.000048  0.500048  0.290929  1
  Ga  Ga8  1  0.000048  0.500048  0.709071  1
  Ga  Ga9  1  0.061301  0.793487  0.705048  1
  Ga  Ga10  1  0.206447  0.061024  0.294743  1
  Ga  Ga11  1  0.061301  0.793487  0.294952  1
  Ga  Ga12  1  0.706066  0.439556  0.705577  1
  Ga  Ga13  1  0.206447  0.061024  0.705257  1
  Ga  Ga14  1  0.939556  0.206066  0.705577  1
  Ga  Ga15  1  0.706066  0.439556  0.294423  1
  Ga  Ga16  1  0.561024  0.706447  0.294743  1
  Ga  Ga17  1  0.939556  0.206066  0.294423  1
  Ga  Ga18  1  0.561024  0.706447  0.705257  1
  Ga  Ga19  1  0.794143  0.938488  0.294557  1
  Ga  Ga20  1  0.438488  0.294143  0.705443  1
  Ga  Ga21  1  0.794143  0.938488  0.705443  1
  Ga  Ga22  1  0.438488  0.294143  0.294557  1
  Ga  Ga23  1  0.293487  0.561301  0.294952  1
  Os  Os24  1  0.000013  0.999966  0.000000  1
  Os  Os25  1  0.678704  0.178704  0.500000  1
  Os  Os26  1  0.499966  0.500013  0.000000  1
  Ru  Ru27  1  0.178506  0.321331  0.500000  1
  Ru  Ru28  1  0.321500  0.821500  0.500000  1
  Ru  Ru29  1  0.821331  0.678506  0.500000  1
