# generated using pymatgen
data_Be4CuNiIr2
_symmetry_space_group_name_H-M   'P 1'
_cell_length_a   5.35319300
_cell_length_b   5.35349900
_cell_length_c   5.60701400
_cell_angle_alpha   90.00000000
_cell_angle_beta   90.00010606
_cell_angle_gamma   90.00000000
_symmetry_Int_Tables_number   1
_chemical_formula_structural   Be4CuNiIr2
_chemical_formula_sum   'Be8 Cu2 Ni2 Ir4'
_cell_volume   160.68756429
_cell_formula_units_Z   2
loop_
 _symmetry_equiv_pos_site_id
 _symmetry_equiv_pos_as_xyz
  1  'x, y, z'
loop_
 _atom_site_type_symbol
 _atom_site_label
 _atom_site_symmetry_multiplicity
 _atom_site_fract_x
 _atom_site_fract_y
 _atom_site_fract_z
 _atom_site_occupancy
  Be  Be0  1  0.000015  0.000124  0.246240  1
  Be  Be1  1  0.000015  0.499876  0.246240  1
  Be  Be2  1  0.499969  0.500132  0.253756  1
  Be  Be3  1  0.499969  0.999868  0.253756  1
  Be  Be4  1  0.500055  0.000158  0.746243  1
  Be  Be5  1  0.500055  0.499844  0.746243  1
  Be  Be6  1  0.000019  0.500159  0.753760  1
  Be  Be7  1  0.000019  0.999841  0.753760  1
  Cu  Cu8  1  0.749700  0.250000  0.000250  1
  Cu  Cu9  1  0.249700  0.749999  0.499758  1
  Ni  Ni10  1  0.750270  0.250000  0.500244  1
  Ni  Ni11  1  0.250267  0.749999  0.999750  1
  Ir  Ir12  1  0.747184  0.749999  0.000231  1
  Ir  Ir13  1  0.247185  0.250000  0.499778  1
  Ir  Ir14  1  0.752791  0.749999  0.500220  1
  Ir  Ir15  1  0.252790  0.250000  0.999769  1
