# generated using pymatgen
data_Dy2Ga9Co2Ru
_symmetry_space_group_name_H-M   'P 1'
_cell_length_a   7.42320418
_cell_length_b   7.42320335
_cell_length_c   9.53342200
_cell_angle_alpha   90.00000000
_cell_angle_beta   90.00000000
_cell_angle_gamma   119.88353051
_symmetry_Int_Tables_number   1
_chemical_formula_structural   Dy2Ga9Co2Ru
_chemical_formula_sum   'Dy4 Ga18 Co4 Ru2'
_cell_volume   455.48147283
_cell_formula_units_Z   2
loop_
 _symmetry_equiv_pos_site_id
 _symmetry_equiv_pos_as_xyz
  1  'x, y, z'
loop_
 _atom_site_type_symbol
 _atom_site_label
 _atom_site_symmetry_multiplicity
 _atom_site_fract_x
 _atom_site_fract_y
 _atom_site_fract_z
 _atom_site_occupancy
  Dy  Dy0  1  0.334281  0.003601  0.749175  1
  Dy  Dy1  1  0.665719  0.996399  0.249175  1
  Dy  Dy2  1  0.003601  0.334281  0.750825  1
  Dy  Dy3  1  0.996399  0.665719  0.250825  1
  Ga  Ga4  1  0.881142  0.881142  0.750000  1
  Ga  Ga5  1  0.118858  0.118858  0.250000  1
  Ga  Ga6  1  0.669096  0.667934  0.440894  1
  Ga  Ga7  1  0.330904  0.332066  0.940894  1
  Ga  Ga8  1  0.667934  0.669096  0.059106  1
  Ga  Ga9  1  0.332066  0.330904  0.559106  1
  Ga  Ga10  1  0.453330  0.663911  0.753227  1
  Ga  Ga11  1  0.546670  0.336089  0.253227  1
  Ga  Ga12  1  0.663911  0.453330  0.746773  1
  Ga  Ga13  1  0.336089  0.546670  0.246773  1
  Ga  Ga14  1  0.007842  0.333189  0.074035  1
  Ga  Ga15  1  0.992158  0.666811  0.574035  1
  Ga  Ga16  1  0.333189  0.007842  0.425965  1
  Ga  Ga17  1  0.666811  0.992158  0.925965  1
  Ga  Ga18  1  0.005841  0.671502  0.926831  1
  Ga  Ga19  1  0.994159  0.328498  0.426831  1
  Ga  Ga20  1  0.671502  0.005841  0.573169  1
  Ga  Ga21  1  0.328498  0.994159  0.073169  1
  Co  Co22  1  0.999805  0.000195  0.500000  1
  Co  Co23  1  0.000195  0.999805  0.000000  1
  Co  Co24  1  0.670338  0.329662  0.500000  1
  Co  Co25  1  0.329662  0.670338  0.000000  1
  Ru  Ru26  1  0.326325  0.673675  0.500000  1
  Ru  Ru27  1  0.673675  0.326325  0.000000  1
