# generated using pymatgen
data_Dy5Lu4Sc(Si5Ir2)4
_symmetry_space_group_name_H-M   'P 1'
_cell_length_a   12.58856600
_cell_length_b   12.58856600
_cell_length_c   4.21285600
_cell_angle_alpha   90.00000000
_cell_angle_beta   90.00000000
_cell_angle_gamma   90.00000000
_symmetry_Int_Tables_number   1
_chemical_formula_structural   Dy5Lu4Sc(Si5Ir2)4
_chemical_formula_sum   'Dy5 Lu4 Sc1 Si20 Ir8'
_cell_volume   667.61969049
_cell_formula_units_Z   1
loop_
 _symmetry_equiv_pos_site_id
 _symmetry_equiv_pos_as_xyz
  1  'x, y, z'
loop_
 _atom_site_type_symbol
 _atom_site_label
 _atom_site_symmetry_multiplicity
 _atom_site_fract_x
 _atom_site_fract_y
 _atom_site_fract_z
 _atom_site_occupancy
  Dy  Dy0  1  0.000000  0.000000  0.000000  1
  Dy  Dy1  1  0.883315  0.384432  0.500000  1
  Dy  Dy2  1  0.116685  0.615568  0.500000  1
  Dy  Dy3  1  0.384432  0.116685  0.500000  1
  Dy  Dy4  1  0.615568  0.883315  0.500000  1
  Lu  Lu5  1  0.674689  0.176561  0.500000  1
  Lu  Lu6  1  0.325311  0.823439  0.500000  1
  Lu  Lu7  1  0.176561  0.325311  0.500000  1
  Lu  Lu8  1  0.823439  0.674689  0.500000  1
  Sc  Sc9  1  0.500000  0.500000  0.000000  1
  Si  Si10  1  0.565240  0.066736  0.000000  1
  Si  Si11  1  0.434760  0.933264  0.000000  1
  Si  Si12  1  0.066736  0.434760  0.000000  1
  Si  Si13  1  0.933264  0.565240  0.000000  1
  Si  Si14  1  0.663505  0.700473  0.000000  1
  Si  Si15  1  0.336495  0.299527  0.000000  1
  Si  Si16  1  0.163874  0.799095  0.000000  1
  Si  Si17  1  0.836126  0.200905  0.000000  1
  Si  Si18  1  0.299527  0.663505  0.000000  1
  Si  Si19  1  0.700473  0.336495  0.000000  1
  Si  Si20  1  0.200905  0.163874  0.000000  1
  Si  Si21  1  0.799095  0.836126  0.000000  1
  Si  Si22  1  0.650209  0.505231  0.500000  1
  Si  Si23  1  0.349791  0.494769  0.500000  1
  Si  Si24  1  0.156836  0.995430  0.500000  1
  Si  Si25  1  0.843164  0.004570  0.500000  1
  Si  Si26  1  0.494769  0.650209  0.500000  1
  Si  Si27  1  0.505231  0.349791  0.500000  1
  Si  Si28  1  0.004570  0.156836  0.500000  1
  Si  Si29  1  0.995430  0.843164  0.500000  1
  Ir  Ir30  1  0.743121  0.521153  0.000000  1
  Ir  Ir31  1  0.256879  0.478847  0.000000  1
  Ir  Ir32  1  0.246768  0.978598  0.000000  1
  Ir  Ir33  1  0.753232  0.021402  0.000000  1
  Ir  Ir34  1  0.478847  0.743121  0.000000  1
  Ir  Ir35  1  0.521153  0.256879  0.000000  1
  Ir  Ir36  1  0.021402  0.246768  0.000000  1
  Ir  Ir37  1  0.978598  0.753232  0.000000  1
