# generated using pymatgen
data_Dy2YIn4CoAg
_symmetry_space_group_name_H-M   'P 1'
_cell_length_a   8.03001937
_cell_length_b   8.04065771
_cell_length_c   3.74657500
_cell_angle_alpha   90.00000000
_cell_angle_beta   90.00000000
_cell_angle_gamma   120.14055421
_symmetry_Int_Tables_number   1
_chemical_formula_structural   Dy2YIn4CoAg
_chemical_formula_sum   'Dy2 Y1 In4 Co1 Ag1'
_cell_volume   209.19745053
_cell_formula_units_Z   1
loop_
 _symmetry_equiv_pos_site_id
 _symmetry_equiv_pos_as_xyz
  1  'x, y, z'
loop_
 _atom_site_type_symbol
 _atom_site_label
 _atom_site_symmetry_multiplicity
 _atom_site_fract_x
 _atom_site_fract_y
 _atom_site_fract_z
 _atom_site_occupancy
  Dy  Dy0  1  0.712343  0.759234  0.500000  1
  Dy  Dy1  1  0.240887  0.953047  0.500000  1
  Y  Y2  1  0.047322  0.289305  0.500000  1
  In  In3  1  0.669727  0.063678  0.000000  1
  In  In4  1  0.936466  0.606623  0.000000  1
  In  In5  1  0.393417  0.329825  0.000000  1
  In  In6  1  0.333719  0.666704  0.000000  1
  Co  Co7  1  0.999889  0.998188  0.000000  1
  Ag  Ag8  1  0.666230  0.333396  0.500000  1
