# generated using pymatgen
data_La8AgIr6
_symmetry_space_group_name_H-M   'P 1'
_cell_length_a   7.74811853
_cell_length_b   7.74811833
_cell_length_c   7.74811905
_cell_angle_alpha   70.02536506
_cell_angle_beta   70.02536752
_cell_angle_gamma   70.02536041
_symmetry_Int_Tables_number   1
_chemical_formula_structural   La8AgIr6
_chemical_formula_sum   'La8 Ag1 Ir6'
_cell_volume   397.32401528
_cell_formula_units_Z   1
loop_
 _symmetry_equiv_pos_site_id
 _symmetry_equiv_pos_as_xyz
  1  'x, y, z'
loop_
 _atom_site_type_symbol
 _atom_site_label
 _atom_site_symmetry_multiplicity
 _atom_site_fract_x
 _atom_site_fract_y
 _atom_site_fract_z
 _atom_site_occupancy
  La  La0  1  0.812214  0.812214  0.812214  1
  La  La1  1  0.187786  0.187786  0.187786  1
  La  La2  1  0.136804  0.381616  0.688076  1
  La  La3  1  0.688076  0.136804  0.381616  1
  La  La4  1  0.381616  0.688076  0.136804  1
  La  La5  1  0.863196  0.618384  0.311924  1
  La  La6  1  0.311924  0.863196  0.618384  1
  La  La7  1  0.618384  0.311924  0.863196  1
  Ag  Ag8  1  0.000000  0.000000  0.000000  1
  Ir  Ir9  1  0.948550  0.190639  0.566190  1
  Ir  Ir10  1  0.566190  0.948550  0.190639  1
  Ir  Ir11  1  0.190639  0.566190  0.948550  1
  Ir  Ir12  1  0.051450  0.809361  0.433810  1
  Ir  Ir13  1  0.433810  0.051450  0.809361  1
  Ir  Ir14  1  0.809361  0.433810  0.051450  1
