# generated using pymatgen
data_Yb2SmY3(Si3Ru)8
_symmetry_space_group_name_H-M   'P 1'
_cell_length_a   10.15715804
_cell_length_b   10.15715981
_cell_length_c   8.16767269
_cell_angle_alpha   90.03506898
_cell_angle_beta   89.96493176
_cell_angle_gamma   132.59073921
_symmetry_Int_Tables_number   1
_chemical_formula_structural   Yb2SmY3(Si3Ru)8
_chemical_formula_sum   'Yb2 Sm1 Y3 Si24 Ru8'
_cell_volume   620.35796228
_cell_formula_units_Z   1
loop_
 _symmetry_equiv_pos_site_id
 _symmetry_equiv_pos_as_xyz
  1  'x, y, z'
loop_
 _atom_site_type_symbol
 _atom_site_label
 _atom_site_symmetry_multiplicity
 _atom_site_fract_x
 _atom_site_fract_y
 _atom_site_fract_z
 _atom_site_occupancy
  Yb  Yb0  1  0.498345  0.998345  0.750000  1
  Yb  Yb1  1  0.997526  0.497526  0.750000  1
  Sm  Sm2  1  0.001773  0.501773  0.250000  1
  Y  Y3  1  0.999384  0.999357  0.999368  1
  Y  Y4  1  0.499357  0.499384  0.500632  1
  Y  Y5  1  0.501620  0.001620  0.250000  1
  Si  Si6  1  0.294587  0.706527  0.996567  1
  Si  Si7  1  0.792803  0.204821  0.502650  1
  Si  Si8  1  0.704821  0.292803  0.997350  1
  Si  Si9  1  0.206527  0.794587  0.503433  1
  Si  Si10  1  0.831584  0.833378  0.333313  1
  Si  Si11  1  0.164818  0.167464  0.667143  1
  Si  Si12  1  0.667464  0.664818  0.832857  1
  Si  Si13  1  0.333378  0.331584  0.166687  1
  Si  Si14  1  0.621987  0.388998  0.227096  1
  Si  Si15  1  0.611845  0.377084  0.772182  1
  Si  Si16  1  0.112125  0.877534  0.727779  1
  Si  Si17  1  0.123523  0.890368  0.272711  1
  Si  Si18  1  0.377534  0.612125  0.772221  1
  Si  Si19  1  0.390368  0.623523  0.227289  1
  Si  Si20  1  0.888998  0.121987  0.272904  1
  Si  Si21  1  0.877084  0.111845  0.727818  1
  Si  Si22  1  0.844856  0.610779  0.003768  1
  Si  Si23  1  0.389455  0.156518  0.995774  1
  Si  Si24  1  0.888987  0.655598  0.505103  1
  Si  Si25  1  0.344072  0.110519  0.495377  1
  Si  Si26  1  0.155598  0.388987  0.994897  1
  Si  Si27  1  0.610519  0.844072  0.004623  1
  Si  Si28  1  0.110779  0.344856  0.496232  1
  Si  Si29  1  0.656518  0.889455  0.504226  1
  Ru  Ru30  1  0.170558  0.832602  0.001249  1
  Ru  Ru31  1  0.668467  0.330867  0.498528  1
  Ru  Ru32  1  0.830867  0.168467  0.001472  1
  Ru  Ru33  1  0.332602  0.670558  0.498751  1
  Ru  Ru34  1  0.625895  0.626182  0.125818  1
  Ru  Ru35  1  0.373165  0.374030  0.873533  1
  Ru  Ru36  1  0.874030  0.873165  0.626467  1
  Ru  Ru37  1  0.126182  0.125895  0.374182  1
