# generated using pymatgen
data_La2BeAs5Pd21
_symmetry_space_group_name_H-M   'P 1'
_cell_length_a   8.88287101
_cell_length_b   8.85088611
_cell_length_c   8.85088700
_cell_angle_alpha   60.23922343
_cell_angle_beta   59.88039892
_cell_angle_gamma   59.88038909
_symmetry_Int_Tables_number   1
_chemical_formula_structural   La2BeAs5Pd21
_chemical_formula_sum   'La2 Be1 As5 Pd21'
_cell_volume   492.04017025
_cell_formula_units_Z   1
loop_
 _symmetry_equiv_pos_site_id
 _symmetry_equiv_pos_as_xyz
  1  'x, y, z'
loop_
 _atom_site_type_symbol
 _atom_site_label
 _atom_site_symmetry_multiplicity
 _atom_site_fract_x
 _atom_site_fract_y
 _atom_site_fract_z
 _atom_site_occupancy
  La  La0  1  0.751499  0.748501  0.748501  1
  La  La1  1  0.251499  0.248501  0.248501  1
  Be  Be2  1  0.263830  0.736170  0.736170  1
  As  As3  1  0.738349  0.736714  0.261651  1
  As  As4  1  0.263286  0.736714  0.261651  1
  As  As5  1  0.739891  0.260109  0.260109  1
  As  As6  1  0.263286  0.261651  0.736714  1
  As  As7  1  0.738349  0.261651  0.736714  1
  Pd  Pd8  1  0.000195  0.999805  0.999805  1
  Pd  Pd9  1  0.614712  0.616168  0.154410  1
  Pd  Pd10  1  0.614712  0.154410  0.616168  1
  Pd  Pd11  1  0.154220  0.620273  0.620273  1
  Pd  Pd12  1  0.605235  0.620273  0.620273  1
  Pd  Pd13  1  0.379727  0.394765  0.845780  1
  Pd  Pd14  1  0.379727  0.845780  0.394765  1
  Pd  Pd15  1  0.845590  0.385288  0.385288  1
  Pd  Pd16  1  0.383832  0.385288  0.385288  1
  Pd  Pd17  1  0.000531  0.999469  0.350741  1
  Pd  Pd18  1  0.649259  0.999469  0.350741  1
  Pd  Pd19  1  0.002492  0.651372  0.343644  1
  Pd  Pd20  1  0.649259  0.350741  0.999469  1
  Pd  Pd21  1  0.000531  0.350741  0.999469  1
  Pd  Pd22  1  0.002492  0.343644  0.651372  1
  Pd  Pd23  1  0.341058  0.658942  0.989801  1
  Pd  Pd24  1  0.341058  0.989801  0.658942  1
  Pd  Pd25  1  0.348628  0.997508  0.997508  1
  Pd  Pd26  1  0.010199  0.989801  0.658942  1
  Pd  Pd27  1  0.010199  0.658942  0.989801  1
  Pd  Pd28  1  0.656356  0.997508  0.997508  1
