# generated using pymatgen
data_Dy3Tm3FeSb2
_symmetry_space_group_name_H-M   'P 1'
_cell_length_a   8.11457301
_cell_length_b   8.10755015
_cell_length_c   4.13812500
_cell_angle_alpha   90.00000000
_cell_angle_beta   90.00000000
_cell_angle_gamma   120.02451198
_symmetry_Int_Tables_number   1
_chemical_formula_structural   Dy3Tm3FeSb2
_chemical_formula_sum   'Dy3 Tm3 Fe1 Sb2'
_cell_volume   235.71229116
_cell_formula_units_Z   1
loop_
 _symmetry_equiv_pos_site_id
 _symmetry_equiv_pos_as_xyz
  1  'x, y, z'
loop_
 _atom_site_type_symbol
 _atom_site_label
 _atom_site_symmetry_multiplicity
 _atom_site_fract_x
 _atom_site_fract_y
 _atom_site_fract_z
 _atom_site_occupancy
  Dy  Dy0  1  0.999880  0.604857  0.500000  1
  Dy  Dy1  1  0.395055  0.395178  0.500000  1
  Dy  Dy2  1  0.604608  0.000006  0.500000  1
  Tm  Tm3  1  0.233265  0.999959  0.000000  1
  Tm  Tm4  1  0.766914  0.766951  0.000000  1
  Tm  Tm5  1  0.999918  0.233057  0.000000  1
  Fe  Fe6  1  0.000351  0.999982  0.500000  1
  Sb  Sb7  1  0.333409  0.666779  0.000000  1
  Sb  Sb8  1  0.666600  0.333231  0.000000  1
