# generated using pymatgen
data_TbY3AlCo
_symmetry_space_group_name_H-M   'P 1'
_cell_length_a   9.48607258
_cell_length_b   9.48607197
_cell_length_c   9.48607300
_cell_angle_alpha   59.99999989
_cell_angle_beta   60.00000201
_cell_angle_gamma   59.99999519
_symmetry_Int_Tables_number   1
_chemical_formula_structural   TbY3AlCo
_chemical_formula_sum   'Tb4 Y12 Al4 Co4'
_cell_volume   603.59316500
_cell_formula_units_Z   4
loop_
 _symmetry_equiv_pos_site_id
 _symmetry_equiv_pos_as_xyz
  1  'x, y, z'
loop_
 _atom_site_type_symbol
 _atom_site_label
 _atom_site_symmetry_multiplicity
 _atom_site_fract_x
 _atom_site_fract_y
 _atom_site_fract_z
 _atom_site_occupancy
  Tb  Tb0  1  0.349171  0.349171  0.349171  1
  Tb  Tb1  1  0.349171  0.349171  0.952486  1
  Tb  Tb2  1  0.349171  0.952486  0.349171  1
  Tb  Tb3  1  0.952486  0.349171  0.349171  1
  Y  Y4  1  0.808417  0.191583  0.191583  1
  Y  Y5  1  0.191583  0.808417  0.808417  1
  Y  Y6  1  0.191583  0.808417  0.191583  1
  Y  Y7  1  0.808417  0.191583  0.808417  1
  Y  Y8  1  0.191583  0.191583  0.808417  1
  Y  Y9  1  0.808417  0.808417  0.191583  1
  Y  Y10  1  0.938291  0.561708  0.561709  1
  Y  Y11  1  0.561708  0.938291  0.938292  1
  Y  Y12  1  0.561709  0.938291  0.561709  1
  Y  Y13  1  0.938291  0.561708  0.938292  1
  Y  Y14  1  0.561709  0.561708  0.938292  1
  Y  Y15  1  0.938291  0.938291  0.561709  1
  Al  Al16  1  0.577257  0.577257  0.577257  1
  Al  Al17  1  0.577257  0.577257  0.268229  1
  Al  Al18  1  0.577257  0.268229  0.577257  1
  Al  Al19  1  0.268229  0.577257  0.577257  1
  Co  Co20  1  0.141537  0.141537  0.141537  1
  Co  Co21  1  0.141537  0.141537  0.575390  1
  Co  Co22  1  0.141537  0.575390  0.141537  1
  Co  Co23  1  0.575390  0.141537  0.141537  1
