# generated using pymatgen
data_Yb3YMnRu7
_symmetry_space_group_name_H-M   'P 1'
_cell_length_a   5.27824202
_cell_length_b   5.27824358
_cell_length_c   8.69968700
_cell_angle_alpha   90.00013402
_cell_angle_beta   89.99987867
_cell_angle_gamma   119.99640749
_symmetry_Int_Tables_number   1
_chemical_formula_structural   Yb3YMnRu7
_chemical_formula_sum   'Yb3 Y1 Mn1 Ru7'
_cell_volume   209.90786339
_cell_formula_units_Z   1
loop_
 _symmetry_equiv_pos_site_id
 _symmetry_equiv_pos_as_xyz
  1  'x, y, z'
loop_
 _atom_site_type_symbol
 _atom_site_label
 _atom_site_symmetry_multiplicity
 _atom_site_fract_x
 _atom_site_fract_y
 _atom_site_fract_z
 _atom_site_occupancy
  Yb  Yb0  1  0.333327  0.666673  0.428013  1
  Yb  Yb1  1  0.333347  0.666653  0.064905  1
  Yb  Yb2  1  0.666680  0.333320  0.939491  1
  Y  Y3  1  0.666651  0.333349  0.571367  1
  Mn  Mn4  1  0.000031  0.999969  0.499827  1
  Ru  Ru5  1  0.000034  0.999966  0.996968  1
  Ru  Ru6  1  0.170536  0.341113  0.746188  1
  Ru  Ru7  1  0.170558  0.829442  0.746191  1
  Ru  Ru8  1  0.658887  0.829464  0.746188  1
  Ru  Ru9  1  0.829820  0.659640  0.253613  1
  Ru  Ru10  1  0.829769  0.170231  0.253635  1
  Ru  Ru11  1  0.340360  0.170180  0.253613  1
