# generated using pymatgen
data_Tb6Dy6OsRu3
_symmetry_space_group_name_H-M   'P 1'
_cell_length_a   6.32479765
_cell_length_b   7.32634649
_cell_length_c   9.19059494
_cell_angle_alpha   90.00030634
_cell_angle_beta   89.94830746
_cell_angle_gamma   90.05307224
_symmetry_Int_Tables_number   1
_chemical_formula_structural   Tb6Dy6OsRu3
_chemical_formula_sum   'Tb6 Dy6 Os1 Ru3'
_cell_volume   425.87029869
_cell_formula_units_Z   1
loop_
 _symmetry_equiv_pos_site_id
 _symmetry_equiv_pos_as_xyz
  1  'x, y, z'
loop_
 _atom_site_type_symbol
 _atom_site_label
 _atom_site_symmetry_multiplicity
 _atom_site_fract_x
 _atom_site_fract_y
 _atom_site_fract_z
 _atom_site_occupancy
  Tb  Tb0  1  0.331589  0.676123  0.436656  1
  Tb  Tb1  1  0.169279  0.176384  0.064666  1
  Tb  Tb2  1  0.866408  0.539813  0.249961  1
  Tb  Tb3  1  0.633728  0.039628  0.250037  1
  Tb  Tb4  1  0.132390  0.460590  0.750024  1
  Tb  Tb5  1  0.366289  0.961449  0.749983  1
  Dy  Dy6  1  0.331703  0.675974  0.063296  1
  Dy  Dy7  1  0.169202  0.176254  0.435344  1
  Dy  Dy8  1  0.669751  0.323838  0.564581  1
  Dy  Dy9  1  0.829569  0.823134  0.934769  1
  Dy  Dy10  1  0.669689  0.323975  0.935401  1
  Dy  Dy11  1  0.829629  0.823264  0.565233  1
  Os  Os12  1  0.542163  0.615352  0.750185  1
  Ru  Ru13  1  0.040553  0.884693  0.249995  1
  Ru  Ru14  1  0.459118  0.384233  0.250015  1
  Ru  Ru15  1  0.958942  0.115297  0.749853  1
