# generated using pymatgen
data_ErLu(MgIr4)2
_symmetry_space_group_name_H-M   'P 1'
_cell_length_a   5.26943100
_cell_length_b   5.26943029
_cell_length_c   8.56955100
_cell_angle_alpha   90.00000000
_cell_angle_beta   90.00000000
_cell_angle_gamma   120.00001074
_symmetry_Int_Tables_number   1
_chemical_formula_structural   ErLu(MgIr4)2
_chemical_formula_sum   'Er1 Lu1 Mg2 Ir8'
_cell_volume   206.07060113
_cell_formula_units_Z   1
loop_
 _symmetry_equiv_pos_site_id
 _symmetry_equiv_pos_as_xyz
  1  'x, y, z'
loop_
 _atom_site_type_symbol
 _atom_site_label
 _atom_site_symmetry_multiplicity
 _atom_site_fract_x
 _atom_site_fract_y
 _atom_site_fract_z
 _atom_site_occupancy
  Er  Er0  1  0.333333  0.666667  0.069189  1
  Lu  Lu1  1  0.666667  0.333333  0.569330  1
  Mg  Mg2  1  0.666667  0.333333  0.935369  1
  Mg  Mg3  1  0.333333  0.666667  0.436028  1
  Ir  Ir4  1  0.000000  0.000000  0.996047  1
  Ir  Ir5  1  0.000000  0.000000  0.496238  1
  Ir  Ir6  1  0.828917  0.657833  0.250300  1
  Ir  Ir7  1  0.170925  0.829075  0.748965  1
  Ir  Ir8  1  0.658150  0.829075  0.748965  1
  Ir  Ir9  1  0.342167  0.171083  0.250300  1
  Ir  Ir10  1  0.828917  0.171083  0.250300  1
  Ir  Ir11  1  0.170925  0.341850  0.748965  1
