# generated using pymatgen
data_TaNb11Al8(OsN)4
_symmetry_space_group_name_H-M   'P 1'
_cell_length_a   8.30539820
_cell_length_b   8.30539877
_cell_length_c   8.31126800
_cell_angle_alpha   59.97662853
_cell_angle_beta   59.97662626
_cell_angle_gamma   59.96904225
_symmetry_Int_Tables_number   1
_chemical_formula_structural   TaNb11Al8(OsN)4
_chemical_formula_sum   'Ta1 Nb11 Al8 Os4 N4'
_cell_volume   405.15208705
_cell_formula_units_Z   1
loop_
 _symmetry_equiv_pos_site_id
 _symmetry_equiv_pos_as_xyz
  1  'x, y, z'
loop_
 _atom_site_type_symbol
 _atom_site_label
 _atom_site_symmetry_multiplicity
 _atom_site_fract_x
 _atom_site_fract_y
 _atom_site_fract_z
 _atom_site_occupancy
  Ta  Ta0  1  0.808358  0.808358  0.191642  1
  Nb  Nb1  1  0.191075  0.191075  0.808925  1
  Nb  Nb2  1  0.809337  0.190834  0.809244  1
  Nb  Nb3  1  0.190834  0.809337  0.190585  1
  Nb  Nb4  1  0.190834  0.809337  0.809244  1
  Nb  Nb5  1  0.809337  0.190834  0.190585  1
  Nb  Nb6  1  0.439705  0.439705  0.060295  1
  Nb  Nb7  1  0.058922  0.058922  0.441078  1
  Nb  Nb8  1  0.440507  0.059195  0.441639  1
  Nb  Nb9  1  0.059195  0.440507  0.058659  1
  Nb  Nb10  1  0.059195  0.440507  0.441639  1
  Nb  Nb11  1  0.440507  0.059195  0.058659  1
  Al  Al12  1  0.751870  0.415385  0.416374  1
  Al  Al13  1  0.415385  0.751870  0.416374  1
  Al  Al14  1  0.416809  0.416809  0.751089  1
  Al  Al15  1  0.416809  0.416809  0.415295  1
  Al  Al16  1  0.498770  0.833054  0.834087  1
  Al  Al17  1  0.833054  0.498770  0.834087  1
  Al  Al18  1  0.834342  0.834342  0.498527  1
  Al  Al19  1  0.834342  0.834342  0.832786  1
  Os  Os20  1  0.125118  0.624532  0.625175  1
  Os  Os21  1  0.624532  0.125118  0.625175  1
  Os  Os22  1  0.626707  0.626707  0.125287  1
  Os  Os23  1  0.626707  0.626707  0.621301  1
  N  N24  1  0.626772  0.121333  0.125948  1
  N  N25  1  0.121333  0.626772  0.125948  1
  N  N26  1  0.124823  0.124823  0.625255  1
  N  N27  1  0.124823  0.124823  0.125098  1
