# generated using pymatgen
data_Eu12As3PBr12
_symmetry_space_group_name_H-M   'P 1'
_cell_length_a   10.74670628
_cell_length_b   10.73124997
_cell_length_c   10.73125039
_cell_angle_alpha   109.44202281
_cell_angle_beta   109.50039669
_cell_angle_gamma   109.50040545
_symmetry_Int_Tables_number   1
_chemical_formula_structural   Eu12As3PBr12
_chemical_formula_sum   'Eu12 As3 P1 Br12'
_cell_volume   952.35224469
_cell_formula_units_Z   1
loop_
 _symmetry_equiv_pos_site_id
 _symmetry_equiv_pos_as_xyz
  1  'x, y, z'
loop_
 _atom_site_type_symbol
 _atom_site_label
 _atom_site_symmetry_multiplicity
 _atom_site_fract_x
 _atom_site_fract_y
 _atom_site_fract_z
 _atom_site_occupancy
  Eu  Eu0  1  0.482229  0.493278  0.238954  1
  Eu  Eu1  1  0.750000  0.243189  0.256811  1
  Eu  Eu2  1  0.750000  0.006731  0.493269  1
  Eu  Eu3  1  0.243269  0.486537  0.493269  1
  Eu  Eu4  1  0.256724  0.745677  0.238954  1
  Eu  Eu5  1  0.017771  0.261046  0.006722  1
  Eu  Eu6  1  0.006811  0.013624  0.256811  1
  Eu  Eu7  1  0.488952  0.745677  0.006722  1
  Eu  Eu8  1  0.493189  0.243189  0.486376  1
  Eu  Eu9  1  0.011048  0.493278  0.754323  1
  Eu  Eu10  1  0.256731  0.006731  0.013463  1
  Eu  Eu11  1  0.243276  0.261046  0.754323  1
  As  As12  1  0.250000  0.250171  0.249829  1
  As  As13  1  0.499829  0.999658  0.249829  1
  As  As14  1  0.000171  0.250171  0.500342  1
  P  P15  1  0.250000  0.500000  0.000000  1
  Br  Br16  1  0.250000  0.748880  0.751120  1
  Br  Br17  1  0.497924  0.499085  0.749198  1
  Br  Br18  1  0.002076  0.750802  0.000915  1
  Br  Br19  1  0.751274  0.250113  0.749198  1
  Br  Br20  1  0.001120  0.002240  0.751120  1
  Br  Br21  1  0.250000  0.001033  0.498967  1
  Br  Br22  1  0.748967  0.497933  0.498967  1
  Br  Br23  1  0.498839  0.250113  0.000915  1
  Br  Br24  1  0.748726  0.750802  0.249887  1
  Br  Br25  1  0.751033  0.001033  0.002067  1
  Br  Br26  1  0.001161  0.499085  0.249887  1
  Br  Br27  1  0.498880  0.748880  0.497760  1
