# generated using pymatgen
data_Mn3As2Rh
_symmetry_space_group_name_H-M   'P 1'
_cell_length_a   3.53732100
_cell_length_b   6.43550301
_cell_length_c   11.19969689
_cell_angle_alpha   90.30916152
_cell_angle_beta   90.00000000
_cell_angle_gamma   90.00000000
_symmetry_Int_Tables_number   1
_chemical_formula_structural   Mn3As2Rh
_chemical_formula_sum   'Mn9 As6 Rh3'
_cell_volume   254.95111553
_cell_formula_units_Z   3
loop_
 _symmetry_equiv_pos_site_id
 _symmetry_equiv_pos_as_xyz
  1  'x, y, z'
loop_
 _atom_site_type_symbol
 _atom_site_label
 _atom_site_symmetry_multiplicity
 _atom_site_fract_x
 _atom_site_fract_y
 _atom_site_fract_z
 _atom_site_occupancy
  Mn  Mn0  1  0.500000  0.587444  0.002108  1
  Mn  Mn1  1  0.500000  0.093489  0.494936  1
  Mn  Mn2  1  0.500000  0.211654  0.206673  1
  Mn  Mn3  1  0.500000  0.705380  0.695886  1
  Mn  Mn4  1  0.500000  0.701624  0.300990  1
  Mn  Mn5  1  0.500000  0.204295  0.799119  1
  Mn  Mn6  1  0.000000  0.260475  0.001270  1
  Mn  Mn7  1  0.000000  0.754691  0.498093  1
  Mn  Mn8  1  0.000000  0.369014  0.371535  1
  As  As9  1  0.000000  0.001101  0.337479  1
  As  As10  1  0.000000  0.495085  0.836430  1
  As  As11  1  0.000000  0.493135  0.170469  1
  As  As12  1  0.000000  0.993840  0.660719  1
  As  As13  1  0.500000  0.013730  0.002708  1
  As  As14  1  0.500000  0.502930  0.493214  1
  Rh  Rh15  1  0.000000  0.871877  0.868955  1
  Rh  Rh16  1  0.000000  0.869665  0.130494  1
  Rh  Rh17  1  0.000000  0.370370  0.628921  1
