# generated using pymatgen
data_DyHfZr2(Al3Rh)6
_symmetry_space_group_name_H-M   'P 1'
_cell_length_a   7.48694508
_cell_length_b   7.48082216
_cell_length_c   9.30257500
_cell_angle_alpha   90.00000000
_cell_angle_beta   90.00000000
_cell_angle_gamma   119.70253620
_symmetry_Int_Tables_number   1
_chemical_formula_structural   DyHfZr2(Al3Rh)6
_chemical_formula_sum   'Dy1 Hf1 Zr2 Al18 Rh6'
_cell_volume   452.56584413
_cell_formula_units_Z   1
loop_
 _symmetry_equiv_pos_site_id
 _symmetry_equiv_pos_as_xyz
  1  'x, y, z'
loop_
 _atom_site_type_symbol
 _atom_site_label
 _atom_site_symmetry_multiplicity
 _atom_site_fract_x
 _atom_site_fract_y
 _atom_site_fract_z
 _atom_site_occupancy
  Dy  Dy0  1  0.329044  0.006386  0.250000  1
  Hf  Hf1  1  0.671629  0.994080  0.750000  1
  Zr  Zr2  1  0.993899  0.671694  0.750000  1
  Zr  Zr3  1  0.005816  0.328985  0.250000  1
  Al  Al4  1  0.121402  0.122745  0.750000  1
  Al  Al5  1  0.871981  0.875569  0.250000  1
  Al  Al6  1  0.996572  0.334600  0.578413  1
  Al  Al7  1  0.000162  0.662703  0.426998  1
  Al  Al8  1  0.000162  0.662703  0.073002  1
  Al  Al9  1  0.335203  0.997335  0.918218  1
  Al  Al10  1  0.996572  0.334600  0.921587  1
  Al  Al11  1  0.667977  0.002287  0.073187  1
  Al  Al12  1  0.667977  0.002287  0.426813  1
  Al  Al13  1  0.335203  0.997335  0.581782  1
  Al  Al14  1  0.331458  0.333971  0.053481  1
  Al  Al15  1  0.668969  0.668936  0.938892  1
  Al  Al16  1  0.668969  0.668936  0.561108  1
  Al  Al17  1  0.331458  0.333971  0.446519  1
  Al  Al18  1  0.338045  0.553827  0.750000  1
  Al  Al19  1  0.666326  0.451636  0.250000  1
  Al  Al20  1  0.555735  0.339128  0.750000  1
  Al  Al21  1  0.445753  0.656415  0.250000  1
  Rh  Rh22  1  0.672891  0.327385  0.501245  1
  Rh  Rh23  1  0.328359  0.673590  0.501822  1
  Rh  Rh24  1  0.328359  0.673590  0.998178  1
  Rh  Rh25  1  0.672891  0.327385  0.998755  1
  Rh  Rh26  1  0.998595  0.998961  0.501529  1
  Rh  Rh27  1  0.998595  0.998961  0.998471  1
