# generated using pymatgen
data_MnAg2RhF12
_symmetry_space_group_name_H-M   'P 1'
_cell_length_a   5.23576254
_cell_length_b   5.22257011
_cell_length_c   10.08204034
_cell_angle_alpha   75.40578356
_cell_angle_beta   75.83906600
_cell_angle_gamma   60.29621598
_symmetry_Int_Tables_number   1
_chemical_formula_structural   MnAg2RhF12
_chemical_formula_sum   'Mn1 Ag2 Rh1 F12'
_cell_volume   229.36791335
_cell_formula_units_Z   1
loop_
 _symmetry_equiv_pos_site_id
 _symmetry_equiv_pos_as_xyz
  1  'x, y, z'
loop_
 _atom_site_type_symbol
 _atom_site_label
 _atom_site_symmetry_multiplicity
 _atom_site_fract_x
 _atom_site_fract_y
 _atom_site_fract_z
 _atom_site_occupancy
  Mn  Mn0  1  0.731900  0.761428  0.750250  1
  Ag  Ag1  1  0.492077  0.499661  0.510312  1
  Ag  Ag2  1  0.000910  0.006748  0.989925  1
  Rh  Rh3  1  0.270720  0.236064  0.249668  1
  F  F4  1  0.478255  0.800874  0.637684  1
  F  F5  1  0.532709  0.202244  0.366034  1
  F  F6  1  0.768159  0.090332  0.639496  1
  F  F7  1  0.230803  0.893691  0.363046  1
  F  F8  1  0.694312  0.440632  0.861201  1
  F  F9  1  0.305193  0.574149  0.134158  1
  F  F10  1  0.984568  0.726526  0.862248  1
  F  F11  1  0.004914  0.274706  0.133363  1
  F  F12  1  0.610198  0.969886  0.137009  1
  F  F13  1  0.408407  0.015806  0.860698  1
  F  F14  1  0.936093  0.492618  0.364779  1
  F  F15  1  0.050783  0.514633  0.640129  1
