# generated using pymatgen
data_Ho4HgPd
_symmetry_space_group_name_H-M   'P 1'
_cell_length_a   9.61505250
_cell_length_b   9.61504447
_cell_length_c   9.60467800
_cell_angle_alpha   60.03603055
_cell_angle_beta   60.03596084
_cell_angle_gamma   60.06888104
_symmetry_Int_Tables_number   1
_chemical_formula_structural   Ho4HgPd
_chemical_formula_sum   'Ho16 Hg4 Pd4'
_cell_volume   628.53962120
_cell_formula_units_Z   4
loop_
 _symmetry_equiv_pos_site_id
 _symmetry_equiv_pos_as_xyz
  1  'x, y, z'
loop_
 _atom_site_type_symbol
 _atom_site_label
 _atom_site_symmetry_multiplicity
 _atom_site_fract_x
 _atom_site_fract_y
 _atom_site_fract_z
 _atom_site_occupancy
  Ho  Ho0  1  0.356507  0.356509  0.353365  1
  Ho  Ho1  1  0.356503  0.356509  0.933623  1
  Ho  Ho2  1  0.360330  0.925831  0.356920  1
  Ho  Ho3  1  0.925837  0.360326  0.356918  1
  Ho  Ho4  1  0.811638  0.188873  0.189307  1
  Ho  Ho5  1  0.188875  0.811642  0.810178  1
  Ho  Ho6  1  0.188873  0.811640  0.189307  1
  Ho  Ho7  1  0.811643  0.188875  0.810176  1
  Ho  Ho8  1  0.190153  0.190152  0.809846  1
  Ho  Ho9  1  0.811925  0.811929  0.188073  1
  Ho  Ho10  1  0.935599  0.564609  0.565107  1
  Ho  Ho11  1  0.564612  0.935600  0.934681  1
  Ho  Ho12  1  0.564609  0.935604  0.565107  1
  Ho  Ho13  1  0.935596  0.564614  0.934679  1
  Ho  Ho14  1  0.566028  0.566030  0.933972  1
  Ho  Ho15  1  0.936113  0.936107  0.563890  1
  Hg  Hg16  1  0.586097  0.586094  0.588711  1
  Hg  Hg17  1  0.586097  0.586094  0.239097  1
  Hg  Hg18  1  0.585391  0.238602  0.588006  1
  Hg  Hg19  1  0.238601  0.585389  0.588008  1
  Pd  Pd20  1  0.145436  0.145432  0.148146  1
  Pd  Pd21  1  0.145439  0.145433  0.560986  1
  Pd  Pd22  1  0.143409  0.564693  0.145951  1
  Pd  Pd23  1  0.564690  0.143414  0.145945  1
