# generated using pymatgen
data_Hf6Fe9Co7Si6Ge
_symmetry_space_group_name_H-M   'P 1'
_cell_length_a   8.06780744
_cell_length_b   8.04147022
_cell_length_c   8.05599307
_cell_angle_alpha   60.06841945
_cell_angle_beta   60.07971496
_cell_angle_gamma   60.11648690
_symmetry_Int_Tables_number   1
_chemical_formula_structural   Hf6Fe9Co7Si6Ge
_chemical_formula_sum   'Hf6 Fe9 Co7 Si6 Ge1'
_cell_volume   370.30714007
_cell_formula_units_Z   1
loop_
 _symmetry_equiv_pos_site_id
 _symmetry_equiv_pos_as_xyz
  1  'x, y, z'
loop_
 _atom_site_type_symbol
 _atom_site_label
 _atom_site_symmetry_multiplicity
 _atom_site_fract_x
 _atom_site_fract_y
 _atom_site_fract_z
 _atom_site_occupancy
  Hf  Hf0  1  0.206069  0.794834  0.795399  1
  Hf  Hf1  1  0.795150  0.794672  0.206741  1
  Hf  Hf2  1  0.795145  0.203444  0.206733  1
  Hf  Hf3  1  0.206063  0.203701  0.795395  1
  Hf  Hf4  1  0.794409  0.205881  0.793835  1
  Hf  Hf5  1  0.204478  0.795208  0.205094  1
  Fe  Fe6  1  0.621742  0.622417  0.133427  1
  Fe  Fe7  1  0.175465  0.473964  0.174359  1
  Fe  Fe8  1  0.864652  0.379193  0.376956  1
  Fe  Fe9  1  0.530763  0.822653  0.823913  1
  Fe  Fe10  1  0.472970  0.176005  0.175033  1
  Fe  Fe11  1  0.824315  0.823537  0.528595  1
  Fe  Fe12  1  0.175449  0.175654  0.473258  1
  Fe  Fe13  1  0.133447  0.622849  0.620854  1
  Fe  Fe14  1  0.175452  0.176213  0.174349  1
  Co  Co15  1  0.379508  0.379006  0.862481  1
  Co  Co16  1  0.620293  0.623100  0.620789  1
  Co  Co17  1  0.378625  0.863938  0.378616  1
  Co  Co18  1  0.378632  0.378832  0.378625  1
  Co  Co19  1  0.826604  0.829619  0.826774  1
  Co  Co20  1  0.620300  0.135801  0.620797  1
  Co  Co21  1  0.826591  0.517035  0.826756  1
  Si  Si22  1  0.498732  0.000738  0.499793  1
  Si  Si23  1  0.498715  0.500358  0.002185  1
  Si  Si24  1  0.000687  0.999581  0.499273  1
  Si  Si25  1  0.997030  0.502092  0.998796  1
  Si  Si26  1  0.000692  0.500459  0.499261  1
  Si  Si27  1  0.498728  0.998734  0.002180  1
  Ge  Ge28  1  0.499292  0.500484  0.499735  1
