# generated using pymatgen
data_Sm8Hf11Si16Mo
_symmetry_space_group_name_H-M   'P 1'
_cell_length_a   7.32454494
_cell_length_b   7.32454489
_cell_length_c   13.45546198
_cell_angle_alpha   89.89912421
_cell_angle_beta   90.10087415
_cell_angle_gamma   90.05931659
_symmetry_Int_Tables_number   1
_chemical_formula_structural   Sm8Hf11Si16Mo
_chemical_formula_sum   'Sm8 Hf11 Si16 Mo1'
_cell_volume   721.86889581
_cell_formula_units_Z   1
loop_
 _symmetry_equiv_pos_site_id
 _symmetry_equiv_pos_as_xyz
  1  'x, y, z'
loop_
 _atom_site_type_symbol
 _atom_site_label
 _atom_site_symmetry_multiplicity
 _atom_site_fract_x
 _atom_site_fract_y
 _atom_site_fract_z
 _atom_site_occupancy
  Sm  Sm0  1  0.998166  0.342626  0.212375  1
  Sm  Sm1  1  0.004988  0.657096  0.716527  1
  Sm  Sm2  1  0.157554  0.494466  0.465523  1
  Sm  Sm3  1  0.502090  0.844964  0.034092  1
  Sm  Sm4  1  0.844964  0.502090  0.965908  1
  Sm  Sm5  1  0.494466  0.157554  0.534477  1
  Sm  Sm6  1  0.342626  0.998166  0.787625  1
  Sm  Sm7  1  0.657096  0.004988  0.283473  1
  Hf  Hf8  1  0.825772  0.825772  0.500000  1
  Hf  Hf9  1  0.323936  0.674694  0.248921  1
  Hf  Hf10  1  0.674694  0.323936  0.751079  1
  Hf  Hf11  1  0.148640  0.996038  0.373232  1
  Hf  Hf12  1  0.852953  0.005568  0.877310  1
  Hf  Hf13  1  0.505053  0.649369  0.624550  1
  Hf  Hf14  1  0.348071  0.491693  0.877922  1
  Hf  Hf15  1  0.491693  0.348071  0.122078  1
  Hf  Hf16  1  0.649369  0.505053  0.375450  1
  Hf  Hf17  1  0.996038  0.148640  0.626768  1
  Hf  Hf18  1  0.005568  0.852953  0.122690  1
  Si  Si19  1  0.364190  0.296203  0.314788  1
  Si  Si20  1  0.635293  0.704174  0.816521  1
  Si  Si21  1  0.204377  0.864247  0.565899  1
  Si  Si22  1  0.135848  0.796662  0.934304  1
  Si  Si23  1  0.796662  0.135848  0.065696  1
  Si  Si24  1  0.864247  0.204377  0.434101  1
  Si  Si25  1  0.296203  0.364190  0.685212  1
  Si  Si26  1  0.704174  0.635293  0.183479  1
  Si  Si27  1  0.292154  0.051710  0.182867  1
  Si  Si28  1  0.705922  0.951213  0.686374  1
  Si  Si29  1  0.450070  0.793472  0.435102  1
  Si  Si30  1  0.206127  0.548535  0.064046  1
  Si  Si31  1  0.548535  0.206127  0.935954  1
  Si  Si32  1  0.793472  0.450070  0.564898  1
  Si  Si33  1  0.051710  0.292154  0.817133  1
  Si  Si34  1  0.951213  0.705922  0.313626  1
  Mo  Mo35  1  0.176068  0.176068  0.000000  1
