# generated using pymatgen
data_PrTh2AlGa2Pt3
_symmetry_space_group_name_H-M   'P 1'
_cell_length_a   7.38159116
_cell_length_b   7.38159005
_cell_length_c   4.13274900
_cell_angle_alpha   90.00000000
_cell_angle_beta   90.00000000
_cell_angle_gamma   120.34138501
_symmetry_Int_Tables_number   1
_chemical_formula_structural   PrTh2AlGa2Pt3
_chemical_formula_sum   'Pr1 Th2 Al1 Ga2 Pt3'
_cell_volume   194.34138161
_cell_formula_units_Z   1
loop_
 _symmetry_equiv_pos_site_id
 _symmetry_equiv_pos_as_xyz
  1  'x, y, z'
loop_
 _atom_site_type_symbol
 _atom_site_label
 _atom_site_symmetry_multiplicity
 _atom_site_fract_x
 _atom_site_fract_y
 _atom_site_fract_z
 _atom_site_occupancy
  Pr  Pr0  1  0.410678  0.410678  0.500000  1
  Th  Th1  1  0.582899  0.002931  0.500000  1
  Th  Th2  1  0.002931  0.582899  0.500000  1
  Al  Al3  1  0.761053  0.761053  0.000000  1
  Ga  Ga4  1  0.238313  0.002756  0.000000  1
  Ga  Ga5  1  0.002756  0.238313  0.000000  1
  Pt  Pt6  1  0.680790  0.341530  0.000000  1
  Pt  Pt7  1  0.341530  0.680790  0.000000  1
  Pt  Pt8  1  0.979049  0.979049  0.500000  1
