# generated using pymatgen
data_Cs2W3O10
_symmetry_space_group_name_H-M   'P 1'
_cell_length_a   8.72038187
_cell_length_b   8.72038126
_cell_length_c   9.64873104
_cell_angle_alpha   83.59245880
_cell_angle_beta   83.59246226
_cell_angle_gamma   60.41709221
_symmetry_Int_Tables_number   1
_chemical_formula_structural   Cs2W3O10
_chemical_formula_sum   'Cs4 W6 O20'
_cell_volume   632.74696825
_cell_formula_units_Z   2
loop_
 _symmetry_equiv_pos_site_id
 _symmetry_equiv_pos_as_xyz
  1  'x, y, z'
loop_
 _atom_site_type_symbol
 _atom_site_label
 _atom_site_symmetry_multiplicity
 _atom_site_fract_x
 _atom_site_fract_y
 _atom_site_fract_z
 _atom_site_occupancy
  Cs  Cs0  1  0.243286  0.406289  0.659116  1
  Cs  Cs1  1  0.593711  0.756714  0.840884  1
  Cs  Cs2  1  0.756714  0.593711  0.340884  1
  Cs  Cs3  1  0.406289  0.243286  0.159116  1
  W  W4  1  0.735233  0.264767  0.750000  1
  W  W5  1  0.264767  0.735233  0.250000  1
  W  W6  1  0.033949  0.172174  0.975991  1
  W  W7  1  0.827826  0.966051  0.524009  1
  W  W8  1  0.966051  0.827826  0.024009  1
  W  W9  1  0.172174  0.033949  0.475991  1
  O  O10  1  0.655944  0.440198  0.618795  1
  O  O11  1  0.559802  0.344056  0.881205  1
  O  O12  1  0.344056  0.559802  0.381205  1
  O  O13  1  0.440198  0.655944  0.118795  1
  O  O14  1  0.905021  0.324730  0.818148  1
  O  O15  1  0.675270  0.094979  0.681852  1
  O  O16  1  0.094979  0.675270  0.181852  1
  O  O17  1  0.324730  0.905021  0.318148  1
  O  O18  1  0.908126  0.046658  0.902831  1
  O  O19  1  0.953342  0.091874  0.597169  1
  O  O20  1  0.091874  0.953342  0.097169  1
  O  O21  1  0.046658  0.908126  0.402831  1
  O  O22  1  0.950012  0.325653  0.106662  1
  O  O23  1  0.674347  0.049988  0.393338  1
  O  O24  1  0.049988  0.674347  0.893338  1
  O  O25  1  0.325653  0.950012  0.606662  1
  O  O26  1  0.251326  0.132451  0.922455  1
  O  O27  1  0.867549  0.748674  0.577545  1
  O  O28  1  0.748674  0.867549  0.077545  1
  O  O29  1  0.132451  0.251326  0.422455  1
