# generated using pymatgen
data_YHoTm2(GaCo)4
_symmetry_space_group_name_H-M   'P 1'
_cell_length_a   4.39561800
_cell_length_b   6.88470066
_cell_length_c   6.97602292
_cell_angle_alpha   89.80417615
_cell_angle_beta   90.00000000
_cell_angle_gamma   90.00000000
_symmetry_Int_Tables_number   1
_chemical_formula_structural   YHoTm2(GaCo)4
_chemical_formula_sum   'Y1 Ho1 Tm2 Ga4 Co4'
_cell_volume   211.11075918
_cell_formula_units_Z   1
loop_
 _symmetry_equiv_pos_site_id
 _symmetry_equiv_pos_as_xyz
  1  'x, y, z'
loop_
 _atom_site_type_symbol
 _atom_site_label
 _atom_site_symmetry_multiplicity
 _atom_site_fract_x
 _atom_site_fract_y
 _atom_site_fract_z
 _atom_site_occupancy
  Y  Y0  1  0.250000  0.306895  0.520398  1
  Ho  Ho1  1  0.250000  0.194589  0.021250  1
  Tm  Tm2  1  0.750000  0.698792  0.477292  1
  Tm  Tm3  1  0.750000  0.802314  0.977582  1
  Ga  Ga4  1  0.250000  0.893316  0.695732  1
  Ga  Ga5  1  0.250000  0.607193  0.195251  1
  Ga  Ga6  1  0.750000  0.103394  0.303824  1
  Ga  Ga7  1  0.750000  0.395703  0.805025  1
  Co  Co8  1  0.250000  0.934604  0.343473  1
  Co  Co9  1  0.250000  0.564741  0.845343  1
  Co  Co10  1  0.750000  0.059674  0.657729  1
  Co  Co11  1  0.750000  0.438787  0.157102  1
