# generated using pymatgen
data_Y9Lu(IrOs)2
_symmetry_space_group_name_H-M   'P 1'
_cell_length_a   8.47259852
_cell_length_b   8.47259823
_cell_length_c   7.30044921
_cell_angle_alpha   83.47582025
_cell_angle_beta   83.47581972
_cell_angle_gamma   44.90808034
_symmetry_Int_Tables_number   1
_chemical_formula_structural   Y9Lu(IrOs)2
_chemical_formula_sum   'Y9 Lu1 Ir2 Os2'
_cell_volume   367.16621929
_cell_formula_units_Z   1
loop_
 _symmetry_equiv_pos_site_id
 _symmetry_equiv_pos_as_xyz
  1  'x, y, z'
loop_
 _atom_site_type_symbol
 _atom_site_label
 _atom_site_symmetry_multiplicity
 _atom_site_fract_x
 _atom_site_fract_y
 _atom_site_fract_z
 _atom_site_occupancy
  Y  Y0  1  0.424176  0.575824  0.750000  1
  Y  Y1  1  0.348174  0.212643  0.316783  1
  Y  Y2  1  0.210345  0.969120  0.084595  1
  Y  Y3  1  0.789049  0.028787  0.919952  1
  Y  Y4  1  0.971213  0.210951  0.580048  1
  Y  Y5  1  0.652109  0.787131  0.680729  1
  Y  Y6  1  0.212869  0.347891  0.819271  1
  Y  Y7  1  0.787357  0.651826  0.183217  1
  Y  Y8  1  0.030880  0.789655  0.415405  1
  Lu  Lu9  1  0.569483  0.430517  0.250000  1
  Ir  Ir10  1  0.824758  0.391957  0.927217  1
  Ir  Ir11  1  0.608043  0.175242  0.572783  1
  Os  Os12  1  0.394358  0.822815  0.425293  1
  Os  Os13  1  0.177185  0.605642  0.074707  1
