# generated using pymatgen
data_La4Mg5Sn6
_symmetry_space_group_name_H-M   'P 1'
_cell_length_a   4.78256300
_cell_length_b   10.92301273
_cell_length_c   17.04697500
_cell_angle_alpha   90.00000000
_cell_angle_beta   90.00000000
_cell_angle_gamma   77.35431713
_symmetry_Int_Tables_number   1
_chemical_formula_structural   La4Mg5Sn6
_chemical_formula_sum   'La8 Mg10 Sn12'
_cell_volume   868.93180891
_cell_formula_units_Z   2
loop_
 _symmetry_equiv_pos_site_id
 _symmetry_equiv_pos_as_xyz
  1  'x, y, z'
loop_
 _atom_site_type_symbol
 _atom_site_label
 _atom_site_symmetry_multiplicity
 _atom_site_fract_x
 _atom_site_fract_y
 _atom_site_fract_z
 _atom_site_occupancy
  La  La0  1  0.165146  0.669709  0.037310  1
  La  La1  1  0.825121  0.349760  0.178805  1
  La  La2  1  0.015736  0.968530  0.235193  1
  La  La3  1  0.033591  0.932817  0.497860  1
  La  La4  1  0.834856  0.330292  0.537310  1
  La  La5  1  0.174881  0.650240  0.678805  1
  La  La6  1  0.984266  0.031471  0.735194  1
  La  La7  1  0.966410  0.067183  0.997860  1
  Mg  Mg8  1  0.341655  0.316689  0.002340  1
  Mg  Mg9  1  0.649591  0.700820  0.215706  1
  Mg  Mg10  1  0.302262  0.395476  0.356551  1
  Mg  Mg11  1  0.154159  0.691682  0.359572  1
  Mg  Mg12  1  0.440804  0.118391  0.406723  1
  Mg  Mg13  1  0.658346  0.683311  0.502340  1
  Mg  Mg14  1  0.350410  0.299180  0.715706  1
  Mg  Mg15  1  0.697739  0.604524  0.856551  1
  Mg  Mg16  1  0.845842  0.308319  0.859572  1
  Mg  Mg17  1  0.559197  0.881608  0.906723  1
  Sn  Sn18  1  0.768455  0.463090  0.001562  1
  Sn  Sn19  1  0.559213  0.881573  0.085305  1
  Sn  Sn20  1  0.429684  0.140633  0.138945  1
  Sn  Sn21  1  0.225118  0.549767  0.214556  1
  Sn  Sn22  1  0.886395  0.227213  0.353070  1
  Sn  Sn23  1  0.571430  0.857143  0.362180  1
  Sn  Sn24  1  0.231546  0.536909  0.501562  1
  Sn  Sn25  1  0.440788  0.118427  0.585305  1
  Sn  Sn26  1  0.570318  0.859366  0.638945  1
  Sn  Sn27  1  0.774884  0.450233  0.714556  1
  Sn  Sn28  1  0.113606  0.772787  0.853071  1
  Sn  Sn29  1  0.428571  0.142857  0.862180  1
