# generated using pymatgen
data_Lu16MgIn3Ir4
_symmetry_space_group_name_H-M   'P 1'
_cell_length_a   9.49146651
_cell_length_b   9.49148756
_cell_length_c   9.49152198
_cell_angle_alpha   59.80300931
_cell_angle_beta   59.80311922
_cell_angle_gamma   59.80260485
_symmetry_Int_Tables_number   1
_chemical_formula_structural   Lu16MgIn3Ir4
_chemical_formula_sum   'Lu16 Mg1 In3 Ir4'
_cell_volume   601.92317834
_cell_formula_units_Z   1
loop_
 _symmetry_equiv_pos_site_id
 _symmetry_equiv_pos_as_xyz
  1  'x, y, z'
loop_
 _atom_site_type_symbol
 _atom_site_label
 _atom_site_symmetry_multiplicity
 _atom_site_fract_x
 _atom_site_fract_y
 _atom_site_fract_z
 _atom_site_occupancy
  Lu  Lu0  1  0.598820  0.598823  0.598808  1
  Lu  Lu1  1  0.599362  0.599355  0.203742  1
  Lu  Lu2  1  0.599375  0.203727  0.599363  1
  Lu  Lu3  1  0.203730  0.599376  0.599356  1
  Lu  Lu4  1  0.058138  0.441267  0.441259  1
  Lu  Lu5  1  0.439770  0.060206  0.060195  1
  Lu  Lu6  1  0.441262  0.058147  0.441256  1
  Lu  Lu7  1  0.060205  0.439765  0.060211  1
  Lu  Lu8  1  0.441269  0.441266  0.058129  1
  Lu  Lu9  1  0.060202  0.060204  0.439766  1
  Lu  Lu10  1  0.189215  0.811302  0.811296  1
  Lu  Lu11  1  0.809507  0.190111  0.190116  1
  Lu  Lu12  1  0.811309  0.189211  0.811303  1
  Lu  Lu13  1  0.190109  0.809516  0.190103  1
  Lu  Lu14  1  0.811293  0.811301  0.189218  1
  Lu  Lu15  1  0.190131  0.190124  0.809478  1
  Mg  Mg16  1  0.829014  0.828968  0.829060  1
  In  In17  1  0.833549  0.833560  0.500206  1
  In  In18  1  0.833543  0.500178  0.833560  1
  In  In19  1  0.500167  0.833548  0.833568  1
  Ir  Ir20  1  0.391192  0.391192  0.391192  1
  Ir  Ir21  1  0.391239  0.391248  0.826350  1
  Ir  Ir22  1  0.391246  0.826365  0.391224  1
  Ir  Ir23  1  0.826355  0.391241  0.391241  1
