# generated using pymatgen
data_Ca5DyMoRuO12
_symmetry_space_group_name_H-M   'P 1'
_cell_length_a   6.57458233
_cell_length_b   6.56159572
_cell_length_c   6.59402670
_cell_angle_alpha   92.04280856
_cell_angle_beta   92.35914682
_cell_angle_gamma   92.29636988
_symmetry_Int_Tables_number   1
_chemical_formula_structural   Ca5DyMoRuO12
_chemical_formula_sum   'Ca5 Dy1 Mo1 Ru1 O12'
_cell_volume   283.79708459
_cell_formula_units_Z   1
loop_
 _symmetry_equiv_pos_site_id
 _symmetry_equiv_pos_as_xyz
  1  'x, y, z'
loop_
 _atom_site_type_symbol
 _atom_site_label
 _atom_site_symmetry_multiplicity
 _atom_site_fract_x
 _atom_site_fract_y
 _atom_site_fract_z
 _atom_site_occupancy
  Ca  Ca0  1  0.740534  0.927566  0.435230  1
  Ca  Ca1  1  0.560127  0.256022  0.074543  1
  Ca  Ca2  1  0.437409  0.739611  0.927195  1
  Ca  Ca3  1  0.260730  0.069030  0.564953  1
  Ca  Ca4  1  0.073249  0.567030  0.258838  1
  Dy  Dy5  1  0.926147  0.431856  0.740388  1
  Mo  Mo6  1  0.999238  0.000696  0.000908  1
  Ru  Ru7  1  0.498545  0.499712  0.499999  1
  O  O8  1  0.942358  0.288878  0.060598  1
  O  O9  1  0.932997  0.073524  0.713027  1
  O  O10  1  0.793547  0.578149  0.461210  1
  O  O11  1  0.717403  0.934815  0.056134  1
  O  O12  1  0.590625  0.450636  0.790078  1
  O  O13  1  0.547684  0.213090  0.421583  1
  O  O14  1  0.453657  0.785140  0.581486  1
  O  O15  1  0.419483  0.548644  0.215767  1
  O  O16  1  0.281056  0.061789  0.939832  1
  O  O17  1  0.208487  0.420975  0.555959  1
  O  O18  1  0.067219  0.941932  0.278650  1
  O  O19  1  0.049504  0.710905  0.923624  1
