# generated using pymatgen
data_HoCdRh2O7
_symmetry_space_group_name_H-M   'P 1'
_cell_length_a   7.14880567
_cell_length_b   7.21703738
_cell_length_c   7.21793696
_cell_angle_alpha   60.97314285
_cell_angle_beta   60.30899007
_cell_angle_gamma   60.30790593
_symmetry_Int_Tables_number   1
_chemical_formula_structural   HoCdRh2O7
_chemical_formula_sum   'Ho2 Cd2 Rh4 O14'
_cell_volume   266.45395696
_cell_formula_units_Z   2
loop_
 _symmetry_equiv_pos_site_id
 _symmetry_equiv_pos_as_xyz
  1  'x, y, z'
loop_
 _atom_site_type_symbol
 _atom_site_label
 _atom_site_symmetry_multiplicity
 _atom_site_fract_x
 _atom_site_fract_y
 _atom_site_fract_z
 _atom_site_occupancy
  Ho  Ho0  1  0.999982  0.000006  0.999991  1
  Ho  Ho1  1  0.000016  0.499976  0.499990  1
  Cd  Cd2  1  0.999995  0.500015  0.999994  1
  Cd  Cd3  1  0.500004  0.500013  0.999993  1
  Rh  Rh4  1  0.499929  0.999874  0.000148  1
  Rh  Rh5  1  0.000039  0.999989  0.499900  1
  Rh  Rh6  1  0.500070  0.999870  0.500025  1
  Rh  Rh7  1  0.499957  0.500255  0.499944  1
  O  O8  1  0.125462  0.624473  0.124505  1
  O  O9  1  0.168121  0.070359  0.172180  1
  O  O10  1  0.576106  0.673743  0.174102  1
  O  O11  1  0.589515  0.070338  0.172271  1
  O  O12  1  0.838538  0.911473  0.411590  1
  O  O13  1  0.410720  0.327948  0.429766  1
  O  O14  1  0.831837  0.327532  0.429864  1
  O  O15  1  0.589293  0.672090  0.570220  1
  O  O16  1  0.168172  0.672538  0.570095  1
  O  O17  1  0.161516  0.088458  0.588374  1
  O  O18  1  0.423862  0.326300  0.825930  1
  O  O19  1  0.831869  0.929593  0.827831  1
  O  O20  1  0.410467  0.929599  0.827776  1
  O  O21  1  0.874520  0.375554  0.875513  1
