# generated using pymatgen
data_Sc2UAl3IrRu2
_symmetry_space_group_name_H-M   'P 1'
_cell_length_a   6.66015639
_cell_length_b   6.66015444
_cell_length_c   3.97127300
_cell_angle_alpha   90.00000000
_cell_angle_beta   90.00000000
_cell_angle_gamma   114.84706241
_symmetry_Int_Tables_number   1
_chemical_formula_structural   Sc2UAl3IrRu2
_chemical_formula_sum   'Sc2 U1 Al3 Ir1 Ru2'
_cell_volume   159.85008282
_cell_formula_units_Z   1
loop_
 _symmetry_equiv_pos_site_id
 _symmetry_equiv_pos_as_xyz
  1  'x, y, z'
loop_
 _atom_site_type_symbol
 _atom_site_label
 _atom_site_symmetry_multiplicity
 _atom_site_fract_x
 _atom_site_fract_y
 _atom_site_fract_z
 _atom_site_occupancy
  Sc  Sc0  1  0.411378  0.000119  0.500000  1
  Sc  Sc1  1  0.000119  0.411378  0.500000  1
  U  U2  1  0.586392  0.586392  0.500000  1
  Al  Al3  1  0.749892  0.020663  0.000000  1
  Al  Al4  1  0.020663  0.749892  0.000000  1
  Al  Al5  1  0.219126  0.219126  0.000000  1
  Ir  Ir6  1  0.988655  0.988655  0.500000  1
  Ru  Ru7  1  0.373215  0.650561  0.000000  1
  Ru  Ru8  1  0.650561  0.373215  0.000000  1
