# generated using pymatgen
data_Ho5Mg3(Ni4P3)4
_symmetry_space_group_name_H-M   'P 1'
_cell_length_a   12.18370000
_cell_length_b   12.18370075
_cell_length_c   3.76993900
_cell_angle_alpha   90.00000000
_cell_angle_beta   90.00000000
_cell_angle_gamma   120.00000340
_symmetry_Int_Tables_number   1
_chemical_formula_structural   Ho5Mg3(Ni4P3)4
_chemical_formula_sum   'Ho5 Mg3 Ni16 P12'
_cell_volume   484.64458007
_cell_formula_units_Z   1
loop_
 _symmetry_equiv_pos_site_id
 _symmetry_equiv_pos_as_xyz
  1  'x, y, z'
loop_
 _atom_site_type_symbol
 _atom_site_label
 _atom_site_symmetry_multiplicity
 _atom_site_fract_x
 _atom_site_fract_y
 _atom_site_fract_z
 _atom_site_occupancy
  Ho  Ho0  1  0.185592  0.185592  0.500000  1
  Ho  Ho1  1  0.814408  0.000000  0.500000  1
  Ho  Ho2  1  0.000000  0.814408  0.500000  1
  Ho  Ho3  1  0.333333  0.666667  0.000000  1
  Ho  Ho4  1  0.666667  0.333333  0.000000  1
  Mg  Mg5  1  0.563371  0.563371  0.000000  1
  Mg  Mg6  1  0.436629  0.000000  0.000000  1
  Mg  Mg7  1  0.000000  0.436629  0.000000  1
  Ni  Ni8  1  0.720104  0.720104  0.500000  1
  Ni  Ni9  1  0.279896  0.000000  0.500000  1
  Ni  Ni10  1  0.000000  0.279896  0.500000  1
  Ni  Ni11  1  0.184700  0.379304  0.000000  1
  Ni  Ni12  1  0.620696  0.805395  0.000000  1
  Ni  Ni13  1  0.194605  0.815300  0.000000  1
  Ni  Ni14  1  0.805395  0.620696  0.000000  1
  Ni  Ni15  1  0.815300  0.194605  0.000000  1
  Ni  Ni16  1  0.379304  0.184700  0.000000  1
  Ni  Ni17  1  0.364340  0.485614  0.500000  1
  Ni  Ni18  1  0.514386  0.878728  0.500000  1
  Ni  Ni19  1  0.121272  0.635660  0.500000  1
  Ni  Ni20  1  0.878728  0.514386  0.500000  1
  Ni  Ni21  1  0.635660  0.121272  0.500000  1
  Ni  Ni22  1  0.485614  0.364340  0.500000  1
  Ni  Ni23  1  0.000000  0.000000  0.000000  1
  P  P24  1  0.823032  0.823032  0.000000  1
  P  P25  1  0.176968  0.000000  0.000000  1
  P  P26  1  0.000000  0.176968  0.000000  1
  P  P27  1  0.172967  0.477246  0.500000  1
  P  P28  1  0.522754  0.695722  0.500000  1
  P  P29  1  0.304278  0.827033  0.500000  1
  P  P30  1  0.695722  0.522754  0.500000  1
  P  P31  1  0.827033  0.304278  0.500000  1
  P  P32  1  0.477246  0.172967  0.500000  1
  P  P33  1  0.357932  0.357932  0.000000  1
  P  P34  1  0.642068  0.000000  0.000000  1
  P  P35  1  0.000000  0.642068  0.000000  1
