# generated using pymatgen
data_Sr10Fe5Ir4WO30
_symmetry_space_group_name_H-M   'P 1'
_cell_length_a   5.64472198
_cell_length_b   7.92674681
_cell_length_c   14.89300088
_cell_angle_alpha   105.41427376
_cell_angle_beta   100.03525425
_cell_angle_gamma   89.95411399
_symmetry_Int_Tables_number   1
_chemical_formula_structural   Sr10Fe5Ir4WO30
_chemical_formula_sum   'Sr10 Fe5 Ir4 W1 O30'
_cell_volume   631.85064090
_cell_formula_units_Z   1
loop_
 _symmetry_equiv_pos_site_id
 _symmetry_equiv_pos_as_xyz
  1  'x, y, z'
loop_
 _atom_site_type_symbol
 _atom_site_label
 _atom_site_symmetry_multiplicity
 _atom_site_fract_x
 _atom_site_fract_y
 _atom_site_fract_z
 _atom_site_occupancy
  Sr  Sr0  1  0.099708  0.347029  0.204784  1
  Sr  Sr1  1  0.700097  0.951068  0.400472  1
  Sr  Sr2  1  0.301077  0.549627  0.598710  1
  Sr  Sr3  1  0.898390  0.142830  0.795433  1
  Sr  Sr4  1  0.499647  0.759899  0.000470  1
  Sr  Sr5  1  0.500353  0.240101  0.999530  1
  Sr  Sr6  1  0.101610  0.857170  0.204567  1
  Sr  Sr7  1  0.698923  0.450373  0.401290  1
  Sr  Sr8  1  0.299903  0.048932  0.599528  1
  Sr  Sr9  1  0.900292  0.652971  0.795216  1
  Fe  Fe10  1  0.000000  0.000000  0.000000  1
  Fe  Fe11  1  0.600913  0.601627  0.202413  1
  Fe  Fe12  1  0.200780  0.200702  0.401520  1
  Fe  Fe13  1  0.799220  0.799298  0.598480  1
  Fe  Fe14  1  0.399087  0.398373  0.797587  1
  Ir  Ir15  1  0.600289  0.100468  0.200293  1
  Ir  Ir16  1  0.199158  0.699856  0.399890  1
  Ir  Ir17  1  0.800842  0.300144  0.600110  1
  Ir  Ir18  1  0.399711  0.899532  0.799707  1
  W  W19  1  0.000000  0.500000  0.000000  1
  O  O20  1  0.301412  0.048408  0.100008  1
  O  O21  1  0.901972  0.651936  0.300345  1
  O  O22  1  0.502746  0.254632  0.501856  1
  O  O23  1  0.101876  0.851094  0.701338  1
  O  O24  1  0.708096  0.448707  0.903660  1
  O  O25  1  0.291904  0.551293  0.096340  1
  O  O26  1  0.898124  0.148906  0.298662  1
  O  O27  1  0.497254  0.745368  0.498144  1
  O  O28  1  0.098028  0.348064  0.699655  1
  O  O29  1  0.698588  0.951592  0.899992  1
  O  O30  1  0.568508  0.857949  0.214052  1
  O  O31  1  0.164408  0.458944  0.414371  1
  O  O32  1  0.766024  0.058531  0.614075  1
  O  O33  1  0.371133  0.659117  0.817723  1
  O  O34  1  0.974283  0.265035  0.016354  1
  O  O35  1  0.628867  0.340883  0.182277  1
  O  O36  1  0.233976  0.941469  0.385925  1
  O  O37  1  0.835592  0.541056  0.585629  1
  O  O38  1  0.431492  0.142051  0.785948  1
  O  O39  1  0.025717  0.734965  0.983646  1
  O  O40  1  0.195603  0.413832  0.903072  1
  O  O41  1  0.800085  0.011916  0.100057  1
  O  O42  1  0.395129  0.610600  0.299384  1
  O  O43  1  0.998283  0.210748  0.500838  1
  O  O44  1  0.597490  0.812948  0.700254  1
  O  O45  1  0.402510  0.187052  0.299746  1
  O  O46  1  0.001717  0.789252  0.499162  1
  O  O47  1  0.604871  0.389400  0.700616  1
  O  O48  1  0.199915  0.988084  0.899943  1
  O  O49  1  0.804397  0.586168  0.096928  1
