# generated using pymatgen
data_Ho5Er3(Sc3Ga4)4
_symmetry_space_group_name_H-M   'P 1'
_cell_length_a   7.25089601
_cell_length_b   7.55969601
_cell_length_c   14.43076902
_cell_angle_alpha   89.99542017
_cell_angle_beta   90.00452308
_cell_angle_gamma   90.00107554
_symmetry_Int_Tables_number   1
_chemical_formula_structural   Ho5Er3(Sc3Ga4)4
_chemical_formula_sum   'Ho5 Er3 Sc12 Ga16'
_cell_volume   791.01638754
_cell_formula_units_Z   1
loop_
 _symmetry_equiv_pos_site_id
 _symmetry_equiv_pos_as_xyz
  1  'x, y, z'
loop_
 _atom_site_type_symbol
 _atom_site_label
 _atom_site_symmetry_multiplicity
 _atom_site_fract_x
 _atom_site_fract_y
 _atom_site_fract_z
 _atom_site_occupancy
  Ho  Ho0  1  0.010545  0.180275  0.094314  1
  Ho  Ho1  1  0.989458  0.819720  0.905679  1
  Ho  Ho2  1  0.489452  0.680273  0.905692  1
  Ho  Ho3  1  0.989449  0.819733  0.594309  1
  Ho  Ho4  1  0.510547  0.319719  0.094314  1
  Er  Er5  1  0.010551  0.180374  0.405628  1
  Er  Er6  1  0.510525  0.319697  0.405658  1
  Er  Er7  1  0.489430  0.680275  0.594319  1
  Sc  Sc8  1  0.162331  0.503163  0.749983  1
  Sc  Sc9  1  0.837689  0.496786  0.250042  1
  Sc  Sc10  1  0.337700  0.003208  0.250037  1
  Sc  Sc11  1  0.662270  0.996825  0.749986  1
  Sc  Sc12  1  0.330036  0.173002  0.624679  1
  Sc  Sc13  1  0.670005  0.827025  0.375322  1
  Sc  Sc14  1  0.170040  0.672968  0.375305  1
  Sc  Sc15  1  0.669999  0.827024  0.124722  1
  Sc  Sc16  1  0.829973  0.327015  0.624677  1
  Sc  Sc17  1  0.330011  0.172974  0.875289  1
  Sc  Sc18  1  0.830004  0.327010  0.875300  1
  Sc  Sc19  1  0.169996  0.672987  0.124715  1
  Ga  Ga20  1  0.030614  0.115802  0.750004  1
  Ga  Ga21  1  0.969389  0.884237  0.250014  1
  Ga  Ga22  1  0.469387  0.615759  0.250018  1
  Ga  Ga23  1  0.530602  0.384233  0.749984  1
  Ga  Ga24  1  0.283303  0.870081  0.749972  1
  Ga  Ga25  1  0.716754  0.129935  0.250060  1
  Ga  Ga26  1  0.216750  0.370065  0.250065  1
  Ga  Ga27  1  0.783200  0.629888  0.749966  1
  Ga  Ga28  1  0.163001  0.465344  0.540400  1
  Ga  Ga29  1  0.837010  0.534529  0.459562  1
  Ga  Ga30  1  0.337078  0.965433  0.459574  1
  Ga  Ga31  1  0.837109  0.534652  0.040408  1
  Ga  Ga32  1  0.662884  0.034620  0.540398  1
  Ga  Ga33  1  0.162897  0.465353  0.959601  1
  Ga  Ga34  1  0.662898  0.034664  0.959594  1
  Ga  Ga35  1  0.337114  0.965352  0.040413  1
