# generated using pymatgen
data_NdTm19Pt16
_symmetry_space_group_name_H-M   'P 1'
_cell_length_a   7.38205280
_cell_length_b   7.46468292
_cell_length_c   14.70289537
_cell_angle_alpha   89.99433958
_cell_angle_beta   89.91879498
_cell_angle_gamma   89.91254035
_symmetry_Int_Tables_number   1
_chemical_formula_structural   NdTm19Pt16
_chemical_formula_sum   'Nd1 Tm19 Pt16'
_cell_volume   810.19663388
_cell_formula_units_Z   1
loop_
 _symmetry_equiv_pos_site_id
 _symmetry_equiv_pos_as_xyz
  1  'x, y, z'
loop_
 _atom_site_type_symbol
 _atom_site_label
 _atom_site_symmetry_multiplicity
 _atom_site_fract_x
 _atom_site_fract_y
 _atom_site_fract_z
 _atom_site_occupancy
  Nd  Nd0  1  0.983709  0.826214  0.592845  1
  Tm  Tm1  1  0.637440  0.168735  0.623197  1
  Tm  Tm2  1  0.138401  0.331767  0.879387  1
  Tm  Tm3  1  0.361594  0.832416  0.121756  1
  Tm  Tm4  1  0.858456  0.665947  0.377133  1
  Tm  Tm5  1  0.360779  0.830623  0.377847  1
  Tm  Tm6  1  0.861821  0.668408  0.121639  1
  Tm  Tm7  1  0.637350  0.168402  0.879266  1
  Tm  Tm8  1  0.139334  0.331716  0.621674  1
  Tm  Tm9  1  0.484933  0.674408  0.594224  1
  Tm  Tm10  1  0.983381  0.825004  0.905648  1
  Tm  Tm11  1  0.516134  0.324218  0.094342  1
  Tm  Tm12  1  0.015066  0.179106  0.404305  1
  Tm  Tm13  1  0.514818  0.323370  0.406127  1
  Tm  Tm14  1  0.016408  0.175716  0.094682  1
  Tm  Tm15  1  0.482434  0.675322  0.905798  1
  Tm  Tm16  1  0.800602  0.509810  0.751540  1
  Tm  Tm17  1  0.301340  0.989876  0.751584  1
  Tm  Tm18  1  0.199617  0.489951  0.249530  1
  Tm  Tm19  1  0.699507  0.010137  0.249738  1
  Pt  Pt20  1  0.692955  0.975951  0.454883  1
  Pt  Pt21  1  0.196380  0.528262  0.041988  1
  Pt  Pt22  1  0.303008  0.027624  0.958375  1
  Pt  Pt23  1  0.801471  0.463121  0.539048  1
  Pt  Pt24  1  0.313076  0.035684  0.539029  1
  Pt  Pt25  1  0.802641  0.471926  0.958344  1
  Pt  Pt26  1  0.696979  0.972151  0.042013  1
  Pt  Pt27  1  0.196252  0.526435  0.457533  1
  Pt  Pt28  1  0.435169  0.384097  0.750039  1
  Pt  Pt29  1  0.933354  0.117021  0.752058  1
  Pt  Pt30  1  0.566504  0.613263  0.249785  1
  Pt  Pt31  1  0.066502  0.886504  0.250153  1
  Pt  Pt32  1  0.658458  0.855814  0.751850  1
  Pt  Pt33  1  0.165431  0.640576  0.753653  1
  Pt  Pt34  1  0.339195  0.144127  0.249466  1
  Pt  Pt35  1  0.839503  0.356295  0.249519  1
