# generated using pymatgen
data_Tb6Ho9TmCd4Pt3Rh
_symmetry_space_group_name_H-M   'P 1'
_cell_length_a   9.67045484
_cell_length_b   9.67045496
_cell_length_c   9.62466600
_cell_angle_alpha   60.15650712
_cell_angle_beta   60.15650672
_cell_angle_gamma   60.17031763
_symmetry_Int_Tables_number   1
_chemical_formula_structural   Tb6Ho9TmCd4Pt3Rh
_chemical_formula_sum   'Tb6 Ho9 Tm1 Cd4 Pt3 Rh1'
_cell_volume   638.77268735
_cell_formula_units_Z   1
loop_
 _symmetry_equiv_pos_site_id
 _symmetry_equiv_pos_as_xyz
  1  'x, y, z'
loop_
 _atom_site_type_symbol
 _atom_site_label
 _atom_site_symmetry_multiplicity
 _atom_site_fract_x
 _atom_site_fract_y
 _atom_site_fract_z
 _atom_site_occupancy
  Tb  Tb0  1  0.936131  0.565133  0.563215  1
  Tb  Tb1  1  0.564209  0.936310  0.935767  1
  Tb  Tb2  1  0.565133  0.936131  0.563215  1
  Tb  Tb3  1  0.936310  0.564209  0.935767  1
  Tb  Tb4  1  0.566019  0.566019  0.934101  1
  Tb  Tb5  1  0.937750  0.937750  0.561595  1
  Ho  Ho6  1  0.351386  0.351386  0.349592  1
  Ho  Ho7  1  0.349988  0.349988  0.949789  1
  Ho  Ho8  1  0.354044  0.941752  0.351089  1
  Ho  Ho9  1  0.941752  0.354044  0.351089  1
  Ho  Ho10  1  0.815041  0.188124  0.187823  1
  Ho  Ho11  1  0.189017  0.811847  0.810942  1
  Ho  Ho12  1  0.188124  0.815041  0.187823  1
  Ho  Ho13  1  0.811847  0.189017  0.810942  1
  Ho  Ho14  1  0.189099  0.189099  0.813429  1
  Tm  Tm15  1  0.811655  0.811655  0.188483  1
  Cd  Cd16  1  0.580693  0.580693  0.582940  1
  Cd  Cd17  1  0.580494  0.580494  0.255786  1
  Cd  Cd18  1  0.579906  0.255108  0.582310  1
  Cd  Cd19  1  0.255108  0.579906  0.582310  1
  Pt  Pt20  1  0.142460  0.142460  0.568784  1
  Pt  Pt21  1  0.139206  0.572404  0.143907  1
  Pt  Pt22  1  0.572404  0.139206  0.143907  1
  Rh  Rh23  1  0.142225  0.142225  0.145397  1
