# generated using pymatgen
data_Nd5Zn7Ni12
_symmetry_space_group_name_H-M   'P 1'
_cell_length_a   5.23376573
_cell_length_b   5.23376637
_cell_length_c   16.28824240
_cell_angle_alpha   80.75473890
_cell_angle_beta   80.75473772
_cell_angle_gamma   60.00000755
_symmetry_Int_Tables_number   1
_chemical_formula_structural   Nd5Zn7Ni12
_chemical_formula_sum   'Nd5 Zn7 Ni12'
_cell_volume   379.68946589
_cell_formula_units_Z   1
loop_
 _symmetry_equiv_pos_site_id
 _symmetry_equiv_pos_as_xyz
  1  'x, y, z'
loop_
 _atom_site_type_symbol
 _atom_site_label
 _atom_site_symmetry_multiplicity
 _atom_site_fract_x
 _atom_site_fract_y
 _atom_site_fract_z
 _atom_site_occupancy
  Nd  Nd0  1  0.000000  0.000000  0.000000  1
  Nd  Nd1  1  0.074038  0.074038  0.777885  1
  Nd  Nd2  1  0.925962  0.925962  0.222115  1
  Nd  Nd3  1  0.149098  0.149098  0.552704  1
  Nd  Nd4  1  0.850902  0.850902  0.447296  1
  Zn  Zn5  1  0.500000  0.500000  0.500000  1
  Zn  Zn6  1  0.250095  0.250095  0.249714  1
  Zn  Zn7  1  0.749905  0.749905  0.750286  1
  Zn  Zn8  1  0.333225  0.333225  0.000323  1
  Zn  Zn9  1  0.666775  0.666775  0.999677  1
  Zn  Zn10  1  0.416563  0.416563  0.750312  1
  Zn  Zn11  1  0.583437  0.583437  0.249688  1
  Ni  Ni12  1  0.120825  0.625915  0.627345  1
  Ni  Ni13  1  0.625915  0.625915  0.627345  1
  Ni  Ni14  1  0.625915  0.120825  0.627345  1
  Ni  Ni15  1  0.879175  0.374085  0.372655  1
  Ni  Ni16  1  0.374085  0.374085  0.372655  1
  Ni  Ni17  1  0.374085  0.879175  0.372655  1
  Ni  Ni18  1  0.041504  0.541015  0.876466  1
  Ni  Ni19  1  0.541015  0.541015  0.876466  1
  Ni  Ni20  1  0.541015  0.041504  0.876466  1
  Ni  Ni21  1  0.958496  0.458985  0.123534  1
  Ni  Ni22  1  0.458985  0.458985  0.123534  1
  Ni  Ni23  1  0.458985  0.958496  0.123534  1
