# generated using pymatgen
data_Y6Al20FeSi4Ru7
_symmetry_space_group_name_H-M   'P 1'
_cell_length_a   8.64474700
_cell_length_b   8.64474767
_cell_length_c   9.55730000
_cell_angle_alpha   90.00000000
_cell_angle_beta   90.00000000
_cell_angle_gamma   120.00000125
_symmetry_Int_Tables_number   1
_chemical_formula_structural   Y6Al20FeSi4Ru7
_chemical_formula_sum   'Y6 Al20 Fe1 Si4 Ru7'
_cell_volume   618.54379388
_cell_formula_units_Z   1
loop_
 _symmetry_equiv_pos_site_id
 _symmetry_equiv_pos_as_xyz
  1  'x, y, z'
loop_
 _atom_site_type_symbol
 _atom_site_label
 _atom_site_symmetry_multiplicity
 _atom_site_fract_x
 _atom_site_fract_y
 _atom_site_fract_z
 _atom_site_occupancy
  Y  Y0  1  0.194930  0.389857  0.250003  1
  Y  Y1  1  0.805070  0.610143  0.749997  1
  Y  Y2  1  0.610143  0.805070  0.250003  1
  Y  Y3  1  0.389857  0.194930  0.749997  1
  Y  Y4  1  0.194930  0.805070  0.250003  1
  Y  Y5  1  0.805070  0.194930  0.749997  1
  Al  Al6  1  0.164691  0.329382  0.577308  1
  Al  Al7  1  0.835309  0.670618  0.422692  1
  Al  Al8  1  0.670618  0.835309  0.577308  1
  Al  Al9  1  0.837804  0.675607  0.076395  1
  Al  Al10  1  0.329382  0.164691  0.422692  1
  Al  Al11  1  0.162196  0.324393  0.923605  1
  Al  Al12  1  0.164691  0.835309  0.577308  1
  Al  Al13  1  0.324393  0.162196  0.076395  1
  Al  Al14  1  0.835309  0.164691  0.422692  1
  Al  Al15  1  0.675607  0.837804  0.923605  1
  Al  Al16  1  0.837804  0.162196  0.076395  1
  Al  Al17  1  0.162196  0.837804  0.923605  1
  Al  Al18  1  0.563718  0.127437  0.249367  1
  Al  Al19  1  0.436282  0.872563  0.750633  1
  Al  Al20  1  0.872563  0.436282  0.249367  1
  Al  Al21  1  0.127437  0.563718  0.750633  1
  Al  Al22  1  0.563718  0.436282  0.249367  1
  Al  Al23  1  0.436282  0.563718  0.750633  1
  Al  Al24  1  0.000000  0.000000  0.244260  1
  Al  Al25  1  0.000000  0.000000  0.755740  1
  Fe  Fe26  1  0.000000  0.000000  0.000000  1
  Si  Si27  1  0.333333  0.666667  0.035025  1
  Si  Si28  1  0.666667  0.333333  0.964975  1
  Si  Si29  1  0.666667  0.333333  0.536753  1
  Si  Si30  1  0.333333  0.666667  0.463247  1
  Ru  Ru31  1  0.500000  0.000000  0.000000  1
  Ru  Ru32  1  0.000000  0.500000  0.000000  1
  Ru  Ru33  1  0.500000  0.000000  0.500000  1
  Ru  Ru34  1  0.500000  0.500000  0.000000  1
  Ru  Ru35  1  0.000000  0.500000  0.500000  1
  Ru  Ru36  1  0.500000  0.500000  0.500000  1
  Ru  Ru37  1  0.000000  0.000000  0.500000  1
