# generated using pymatgen
data_NdHoCo2(PRu)4
_symmetry_space_group_name_H-M   'P 1'
_cell_length_a   3.90371700
_cell_length_b   10.84534221
_cell_length_c   12.64114885
_cell_angle_alpha   90.25695348
_cell_angle_beta   90.00000000
_cell_angle_gamma   90.00000000
_symmetry_Int_Tables_number   1
_chemical_formula_structural   NdHoCo2(PRu)4
_chemical_formula_sum   'Nd3 Ho3 Co6 P12 Ru12'
_cell_volume   535.18479187
_cell_formula_units_Z   3
loop_
 _symmetry_equiv_pos_site_id
 _symmetry_equiv_pos_as_xyz
  1  'x, y, z'
loop_
 _atom_site_type_symbol
 _atom_site_label
 _atom_site_symmetry_multiplicity
 _atom_site_fract_x
 _atom_site_fract_y
 _atom_site_fract_z
 _atom_site_occupancy
  Nd  Nd0  1  0.000000  0.499946  0.525860  1
  Nd  Nd1  1  0.500000  0.000528  0.471479  1
  Nd  Nd2  1  0.000000  0.680048  0.797137  1
  Ho  Ho3  1  0.500000  0.822209  0.202016  1
  Ho  Ho4  1  0.500000  0.178113  0.203456  1
  Ho  Ho5  1  0.000000  0.317458  0.798900  1
  Co  Co6  1  0.000000  0.498235  0.987057  1
  Co  Co7  1  0.500000  0.001033  0.016970  1
  Co  Co8  1  0.000000  0.161114  0.013817  1
  Co  Co9  1  0.000000  0.839632  0.013242  1
  Co  Co10  1  0.500000  0.497811  0.701973  1
  Co  Co11  1  0.000000  0.000561  0.296941  1
  P  P12  1  0.500000  0.310761  0.618897  1
  P  P13  1  0.500000  0.690840  0.615052  1
  P  P14  1  0.000000  0.190167  0.381507  1
  P  P15  1  0.000000  0.810615  0.379426  1
  P  P16  1  0.500000  0.496872  0.881957  1
  P  P17  1  0.000000  0.000557  0.120652  1
  P  P18  1  0.500000  0.854069  0.898360  1
  P  P19  1  0.500000  0.146944  0.897470  1
  P  P20  1  0.000000  0.656693  0.099581  1
  P  P21  1  0.000000  0.342952  0.100956  1
  P  P22  1  0.500000  0.500010  0.335880  1
  P  P23  1  0.000000  0.000287  0.663440  1
  Ru  Ru24  1  0.500000  0.297317  0.426951  1
  Ru  Ru25  1  0.500000  0.702488  0.425057  1
  Ru  Ru26  1  0.000000  0.202618  0.573351  1
  Ru  Ru27  1  0.000000  0.798725  0.570471  1
  Ru  Ru28  1  0.500000  0.878934  0.715254  1
  Ru  Ru29  1  0.500000  0.124415  0.717270  1
  Ru  Ru30  1  0.000000  0.625079  0.279625  1
  Ru  Ru31  1  0.000000  0.375150  0.281566  1
  Ru  Ru32  1  0.500000  0.326503  0.991710  1
  Ru  Ru33  1  0.500000  0.672075  0.992657  1
  Ru  Ru34  1  0.500000  0.498569  0.151640  1
  Ru  Ru35  1  0.000000  0.000674  0.852421  1
