# generated using pymatgen
data_Dy8Y4Co5Hg
_symmetry_space_group_name_H-M   'P 1'
_cell_length_a   8.28675431
_cell_length_b   8.28675404
_cell_length_c   8.28675380
_cell_angle_alpha   110.57130905
_cell_angle_beta   109.98531593
_cell_angle_gamma   107.86937186
_symmetry_Int_Tables_number   1
_chemical_formula_structural   Dy8Y4Co5Hg
_chemical_formula_sum   'Dy8 Y4 Co5 Hg1'
_cell_volume   437.79010643
_cell_formula_units_Z   1
loop_
 _symmetry_equiv_pos_site_id
 _symmetry_equiv_pos_as_xyz
  1  'x, y, z'
loop_
 _atom_site_type_symbol
 _atom_site_label
 _atom_site_symmetry_multiplicity
 _atom_site_fract_x
 _atom_site_fract_y
 _atom_site_fract_z
 _atom_site_occupancy
  Dy  Dy0  1  0.683116  0.378816  0.695700  1
  Dy  Dy1  1  0.316884  0.621184  0.304300  1
  Dy  Dy2  1  0.683116  0.987416  0.304300  1
  Dy  Dy3  1  0.316884  0.012584  0.695700  1
  Dy  Dy4  1  0.597368  0.789926  0.807442  1
  Dy  Dy5  1  0.402632  0.210074  0.192558  1
  Dy  Dy6  1  0.982483  0.789926  0.192558  1
  Dy  Dy7  1  0.017517  0.210074  0.807442  1
  Y  Y8  1  0.816093  0.709733  0.525826  1
  Y  Y9  1  0.183907  0.290267  0.474174  1
  Y  Y10  1  0.183907  0.709733  0.893638  1
  Y  Y11  1  0.816093  0.290267  0.106362  1
  Co  Co12  1  0.622173  0.000000  0.622173  1
  Co  Co13  1  0.377827  0.000000  0.377827  1
  Co  Co14  1  0.113582  0.613582  0.500000  1
  Co  Co15  1  0.886418  0.386418  0.500000  1
  Co  Co16  1  0.000000  0.000000  0.000000  1
  Hg  Hg17  1  0.500000  0.500000  0.000000  1
