# generated using pymatgen
data_Sr8Li4Tl3InPb8
_symmetry_space_group_name_H-M   'P 1'
_cell_length_a   5.11642500
_cell_length_b   7.79766134
_cell_length_c   18.72412664
_cell_angle_alpha   90.08883094
_cell_angle_beta   90.00000000
_cell_angle_gamma   90.00000000
_symmetry_Int_Tables_number   1
_chemical_formula_structural   Sr8Li4Tl3InPb8
_chemical_formula_sum   'Sr8 Li4 Tl3 In1 Pb8'
_cell_volume   747.01965612
_cell_formula_units_Z   1
loop_
 _symmetry_equiv_pos_site_id
 _symmetry_equiv_pos_as_xyz
  1  'x, y, z'
loop_
 _atom_site_type_symbol
 _atom_site_label
 _atom_site_symmetry_multiplicity
 _atom_site_fract_x
 _atom_site_fract_y
 _atom_site_fract_z
 _atom_site_occupancy
  Sr  Sr0  1  0.250000  0.338278  0.941785  1
  Sr  Sr1  1  0.250000  0.838023  0.558729  1
  Sr  Sr2  1  0.750000  0.162296  0.440424  1
  Sr  Sr3  1  0.750000  0.499322  0.271491  1
  Sr  Sr4  1  0.750000  0.997134  0.228716  1
  Sr  Sr5  1  0.750000  0.661559  0.058809  1
  Sr  Sr6  1  0.250000  0.501121  0.728936  1
  Sr  Sr7  1  0.250000  0.001375  0.771339  1
  Li  Li8  1  0.250000  0.992419  0.073618  1
  Li  Li9  1  0.750000  0.506732  0.573198  1
  Li  Li10  1  0.750000  0.007680  0.927518  1
  Li  Li11  1  0.250000  0.492051  0.426290  1
  Tl  Tl12  1  0.750000  0.174751  0.651495  1
  Tl  Tl13  1  0.250000  0.825524  0.347857  1
  Tl  Tl14  1  0.750000  0.674963  0.848278  1
  In  In15  1  0.250000  0.326000  0.152151  1
  Pb  Pb16  1  0.750000  0.202699  0.065973  1
  Pb  Pb17  1  0.750000  0.776948  0.681156  1
  Pb  Pb18  1  0.250000  0.224965  0.315959  1
  Pb  Pb19  1  0.250000  0.717082  0.180506  1
  Pb  Pb20  1  0.250000  0.301670  0.563715  1
  Pb  Pb21  1  0.750000  0.276850  0.818863  1
  Pb  Pb22  1  0.250000  0.801454  0.936779  1
  Pb  Pb23  1  0.750000  0.699105  0.436413  1
