# generated using pymatgen
data_Li4DyCoNi8As7
_symmetry_space_group_name_H-M   'P 1'
_cell_length_a   9.43032810
_cell_length_b   9.39647124
_cell_length_c   3.83357300
_cell_angle_alpha   90.00000000
_cell_angle_beta   90.00000000
_cell_angle_gamma   119.88822949
_symmetry_Int_Tables_number   1
_chemical_formula_structural   Li4DyCoNi8As7
_chemical_formula_sum   'Li4 Dy1 Co1 Ni8 As7'
_cell_volume   294.51945959
_cell_formula_units_Z   1
loop_
 _symmetry_equiv_pos_site_id
 _symmetry_equiv_pos_as_xyz
  1  'x, y, z'
loop_
 _atom_site_type_symbol
 _atom_site_label
 _atom_site_symmetry_multiplicity
 _atom_site_fract_x
 _atom_site_fract_y
 _atom_site_fract_z
 _atom_site_occupancy
  Li  Li0  1  0.775320  0.548450  0.500000  1
  Li  Li1  1  0.453925  0.227763  0.500000  1
  Li  Li2  1  0.772772  0.225770  0.500000  1
  Li  Li3  1  0.000647  0.001947  0.500000  1
  Dy  Dy4  1  0.332050  0.666788  0.000000  1
  Co  Co5  1  0.275381  0.374437  0.500000  1
  Ni  Ni6  1  0.622806  0.897853  0.500000  1
  Ni  Ni7  1  0.101431  0.725713  0.500000  1
  Ni  Ni8  1  0.497047  0.451616  0.000000  1
  Ni  Ni9  1  0.549720  0.046948  0.000000  1
  Ni  Ni10  1  0.956622  0.504499  0.000000  1
  Ni  Ni11  1  0.714676  0.759681  0.000000  1
  Ni  Ni12  1  0.238489  0.954769  0.000000  1
  Ni  Ni13  1  0.044131  0.283592  0.000000  1
  As  As14  1  0.963755  0.757124  0.000000  1
  As  As15  1  0.243356  0.209777  0.000000  1
  As  As16  1  0.791875  0.034751  0.000000  1
  As  As17  1  0.668723  0.334929  0.000000  1
  As  As18  1  0.540364  0.614844  0.500000  1
  As  As19  1  0.381686  0.926771  0.500000  1
  As  As20  1  0.075225  0.451977  0.500000  1
