# generated using pymatgen
data_Dy3Sc2(Tl2Pt)2
_symmetry_space_group_name_H-M   'P 1'
_cell_length_a   3.58137200
_cell_length_b   7.90644500
_cell_length_c   17.89888400
_cell_angle_alpha   90.00000000
_cell_angle_beta   90.00000000
_cell_angle_gamma   90.00000000
_symmetry_Int_Tables_number   1
_chemical_formula_structural   Dy3Sc2(Tl2Pt)2
_chemical_formula_sum   'Dy6 Sc4 Tl8 Pt4'
_cell_volume   506.82338072
_cell_formula_units_Z   2
loop_
 _symmetry_equiv_pos_site_id
 _symmetry_equiv_pos_as_xyz
  1  'x, y, z'
loop_
 _atom_site_type_symbol
 _atom_site_label
 _atom_site_symmetry_multiplicity
 _atom_site_fract_x
 _atom_site_fract_y
 _atom_site_fract_z
 _atom_site_occupancy
  Dy  Dy0  1  0.000000  0.244184  0.217343  1
  Dy  Dy1  1  0.000000  0.755816  0.782657  1
  Dy  Dy2  1  0.000000  0.255816  0.717343  1
  Dy  Dy3  1  0.000000  0.744184  0.282657  1
  Dy  Dy4  1  0.000000  0.000000  0.000000  1
  Dy  Dy5  1  0.000000  0.500000  0.500000  1
  Sc  Sc6  1  0.000000  0.117278  0.413133  1
  Sc  Sc7  1  0.000000  0.882722  0.586867  1
  Sc  Sc8  1  0.000000  0.382722  0.913133  1
  Sc  Sc9  1  0.000000  0.617278  0.086867  1
  Tl  Tl10  1  0.500000  0.416097  0.352918  1
  Tl  Tl11  1  0.500000  0.583903  0.647082  1
  Tl  Tl12  1  0.500000  0.083903  0.852918  1
  Tl  Tl13  1  0.500000  0.916097  0.147082  1
  Tl  Tl14  1  0.500000  0.305813  0.058587  1
  Tl  Tl15  1  0.500000  0.694187  0.941413  1
  Tl  Tl16  1  0.500000  0.194187  0.558587  1
  Tl  Tl17  1  0.500000  0.805813  0.441413  1
  Pt  Pt18  1  0.500000  0.032967  0.307614  1
  Pt  Pt19  1  0.500000  0.967033  0.692386  1
  Pt  Pt20  1  0.500000  0.467033  0.807614  1
  Pt  Pt21  1  0.500000  0.532967  0.192386  1
