# generated using pymatgen
data_Dy4LuScCoTe2
_symmetry_space_group_name_H-M   'P 1'
_cell_length_a   8.14780706
_cell_length_b   8.31067123
_cell_length_c   3.92901300
_cell_angle_alpha   90.00000000
_cell_angle_beta   90.00000000
_cell_angle_gamma   120.19082980
_symmetry_Int_Tables_number   1
_chemical_formula_structural   Dy4LuScCoTe2
_chemical_formula_sum   'Dy4 Lu1 Sc1 Co1 Te2'
_cell_volume   229.96016059
_cell_formula_units_Z   1
loop_
 _symmetry_equiv_pos_site_id
 _symmetry_equiv_pos_as_xyz
  1  'x, y, z'
loop_
 _atom_site_type_symbol
 _atom_site_label
 _atom_site_symmetry_multiplicity
 _atom_site_fract_x
 _atom_site_fract_y
 _atom_site_fract_z
 _atom_site_occupancy
  Dy  Dy0  1  0.000759  0.409739  0.500000  1
  Dy  Dy1  1  0.612332  0.610372  0.500000  1
  Dy  Dy2  1  0.384982  0.998045  0.500000  1
  Dy  Dy3  1  0.770089  0.005553  0.000000  1
  Lu  Lu4  1  0.225895  0.231925  0.000000  1
  Sc  Sc5  1  0.999979  0.767714  0.000000  1
  Co  Co6  1  0.006572  0.970093  0.500000  1
  Te  Te7  1  0.332039  0.667271  0.000000  1
  Te  Te8  1  0.667353  0.339289  0.000000  1
