# generated using pymatgen
data_Ba4ZnCo(IrO6)2
_symmetry_space_group_name_H-M   'P 1'
_cell_length_a   5.83069478
_cell_length_b   5.83069484
_cell_length_c   10.24914177
_cell_angle_alpha   89.75925660
_cell_angle_beta   106.78150222
_cell_angle_gamma   119.99151001
_symmetry_Int_Tables_number   1
_chemical_formula_structural   Ba4ZnCo(IrO6)2
_chemical_formula_sum   'Ba4 Zn1 Co1 Ir2 O12'
_cell_volume   284.77654830
_cell_formula_units_Z   1
loop_
 _symmetry_equiv_pos_site_id
 _symmetry_equiv_pos_as_xyz
  1  'x, y, z'
loop_
 _atom_site_type_symbol
 _atom_site_label
 _atom_site_symmetry_multiplicity
 _atom_site_fract_x
 _atom_site_fract_y
 _atom_site_fract_z
 _atom_site_occupancy
  Ba  Ba0  1  0.422241  0.709983  0.132222  1
  Ba  Ba1  1  0.256583  0.127577  0.384160  1
  Ba  Ba2  1  0.743418  0.872425  0.615841  1
  Ba  Ba3  1  0.577760  0.290018  0.867778  1
  Zn  Zn4  1  0.000000  0.000000  0.000000  1
  Co  Co5  1  0.000000  0.500000  0.499999  1
  Ir  Ir6  1  0.824468  0.410243  0.234710  1
  Ir  Ir7  1  0.175534  0.589758  0.765291  1
  O  O8  1  0.427070  0.210211  0.123689  1
  O  O9  1  0.913477  0.696618  0.123689  1
  O  O10  1  0.916552  0.211101  0.127650  1
  O  O11  1  0.765595  0.605480  0.371073  1
  O  O12  1  0.767339  0.159279  0.373751  1
  O  O13  1  0.214473  0.606413  0.373751  1
  O  O14  1  0.232662  0.840722  0.626249  1
  O  O15  1  0.785529  0.393589  0.626250  1
  O  O16  1  0.234406  0.394521  0.628927  1
  O  O17  1  0.083449  0.788901  0.872350  1
  O  O18  1  0.086525  0.303384  0.876311  1
  O  O19  1  0.572928  0.789787  0.876311  1
