# generated using pymatgen
data_Tb5VMoO12
_symmetry_space_group_name_H-M   'P 1'
_cell_length_a   6.84369365
_cell_length_b   6.84369325
_cell_length_c   7.36590473
_cell_angle_alpha   74.35415865
_cell_angle_beta   74.35416235
_cell_angle_gamma   51.72011684
_symmetry_Int_Tables_number   1
_chemical_formula_structural   Tb5VMoO12
_chemical_formula_sum   'Tb5 V1 Mo1 O12'
_cell_volume   258.36688638
_cell_formula_units_Z   1
loop_
 _symmetry_equiv_pos_site_id
 _symmetry_equiv_pos_as_xyz
  1  'x, y, z'
loop_
 _atom_site_type_symbol
 _atom_site_label
 _atom_site_symmetry_multiplicity
 _atom_site_fract_x
 _atom_site_fract_y
 _atom_site_fract_z
 _atom_site_occupancy
  Tb  Tb0  1  0.310601  0.297725  0.360979  1
  Tb  Tb1  1  0.702275  0.689399  0.639021  1
  Tb  Tb2  1  0.311001  0.307918  0.826988  1
  Tb  Tb3  1  0.692082  0.688999  0.173012  1
  Tb  Tb4  1  0.999508  0.000492  0.500000  1
  V  V5  1  0.749242  0.250758  0.000000  1
  Mo  Mo6  1  0.235443  0.764557  0.000000  1
  O  O7  1  0.897235  0.422879  0.919876  1
  O  O8  1  0.429303  0.897364  0.918635  1
  O  O9  1  0.102636  0.570697  0.081365  1
  O  O10  1  0.577121  0.102765  0.080124  1
  O  O11  1  0.098983  0.594151  0.575747  1
  O  O12  1  0.596870  0.093221  0.576684  1
  O  O13  1  0.906779  0.403130  0.423316  1
  O  O14  1  0.405849  0.901017  0.424253  1
  O  O15  1  0.994823  0.007385  0.815425  1
  O  O16  1  0.992615  0.005177  0.184575  1
  O  O17  1  0.498270  0.500636  0.812804  1
  O  O18  1  0.499364  0.501730  0.187196  1
