# generated using pymatgen
data_La3HoPaPd15
_symmetry_space_group_name_H-M   'P 1'
_cell_length_a   4.19406800
_cell_length_b   4.19406800
_cell_length_c   20.93949300
_cell_angle_alpha   90.00000000
_cell_angle_beta   90.00000000
_cell_angle_gamma   90.00000000
_symmetry_Int_Tables_number   1
_chemical_formula_structural   La3HoPaPd15
_chemical_formula_sum   'La3 Ho1 Pa1 Pd15'
_cell_volume   368.33000354
_cell_formula_units_Z   1
loop_
 _symmetry_equiv_pos_site_id
 _symmetry_equiv_pos_as_xyz
  1  'x, y, z'
loop_
 _atom_site_type_symbol
 _atom_site_label
 _atom_site_symmetry_multiplicity
 _atom_site_fract_x
 _atom_site_fract_y
 _atom_site_fract_z
 _atom_site_occupancy
  La  La0  1  0.000000  0.000000  0.397773  1
  La  La1  1  0.000000  0.000000  0.599234  1
  La  La2  1  0.000000  0.000000  0.799337  1
  Ho  Ho3  1  0.000000  0.000000  0.201065  1
  Pa  Pa4  1  0.000000  0.000000  0.002604  1
  Pd  Pd5  1  0.500000  0.500000  0.001483  1
  Pd  Pd6  1  0.500000  0.500000  0.195986  1
  Pd  Pd7  1  0.500000  0.500000  0.397999  1
  Pd  Pd8  1  0.500000  0.500000  0.600597  1
  Pd  Pd9  1  0.500000  0.500000  0.804705  1
  Pd  Pd10  1  0.500000  0.000000  0.097057  1
  Pd  Pd11  1  0.500000  0.000000  0.294120  1
  Pd  Pd12  1  0.500000  0.000000  0.499405  1
  Pd  Pd13  1  0.500000  0.000000  0.701836  1
  Pd  Pd14  1  0.500000  0.000000  0.907191  1
  Pd  Pd15  1  0.000000  0.500000  0.097057  1
  Pd  Pd16  1  0.000000  0.500000  0.294120  1
  Pd  Pd17  1  0.000000  0.500000  0.499405  1
  Pd  Pd18  1  0.000000  0.500000  0.701836  1
  Pd  Pd19  1  0.000000  0.500000  0.907191  1
