# generated using pymatgen
data_TmLuTcB6
_symmetry_space_group_name_H-M   'P 1'
_cell_length_a   3.62619800
_cell_length_b   9.06915600
_cell_length_c   11.43662300
_cell_angle_alpha   90.00000000
_cell_angle_beta   90.00000000
_cell_angle_gamma   90.00000000
_symmetry_Int_Tables_number   1
_chemical_formula_structural   TmLuTcB6
_chemical_formula_sum   'Tm4 Lu4 Tc4 B24'
_cell_volume   376.11113529
_cell_formula_units_Z   4
loop_
 _symmetry_equiv_pos_site_id
 _symmetry_equiv_pos_as_xyz
  1  'x, y, z'
loop_
 _atom_site_type_symbol
 _atom_site_label
 _atom_site_symmetry_multiplicity
 _atom_site_fract_x
 _atom_site_fract_y
 _atom_site_fract_z
 _atom_site_occupancy
  Tm  Tm0  1  0.000000  0.323406  0.414188  1
  Tm  Tm1  1  0.000000  0.676594  0.585812  1
  Tm  Tm2  1  0.000000  0.823406  0.085812  1
  Tm  Tm3  1  0.000000  0.176594  0.914188  1
  Lu  Lu4  1  0.000000  0.943122  0.370158  1
  Lu  Lu5  1  0.000000  0.056878  0.629842  1
  Lu  Lu6  1  0.000000  0.443122  0.129842  1
  Lu  Lu7  1  0.000000  0.556878  0.870158  1
  Tc  Tc8  1  0.000000  0.639164  0.320036  1
  Tc  Tc9  1  0.000000  0.360836  0.679964  1
  Tc  Tc10  1  0.000000  0.139164  0.179964  1
  Tc  Tc11  1  0.000000  0.860836  0.820036  1
  B  B12  1  0.500000  0.553204  0.433209  1
  B  B13  1  0.500000  0.446796  0.566791  1
  B  B14  1  0.500000  0.053204  0.066791  1
  B  B15  1  0.500000  0.946796  0.933209  1
  B  B16  1  0.500000  0.750138  0.419163  1
  B  B17  1  0.500000  0.249862  0.580837  1
  B  B18  1  0.500000  0.250138  0.080837  1
  B  B19  1  0.500000  0.749862  0.919163  1
  B  B20  1  0.500000  0.793090  0.265018  1
  B  B21  1  0.500000  0.206910  0.734982  1
  B  B22  1  0.500000  0.293090  0.234982  1
  B  B23  1  0.500000  0.706910  0.765018  1
  B  B24  1  0.500000  0.630448  0.184503  1
  B  B25  1  0.500000  0.369552  0.815497  1
  B  B26  1  0.500000  0.130448  0.315497  1
  B  B27  1  0.500000  0.869552  0.684503  1
  B  B28  1  0.500000  0.981032  0.212254  1
  B  B29  1  0.500000  0.018968  0.787746  1
  B  B30  1  0.500000  0.481032  0.287746  1
  B  B31  1  0.500000  0.518968  0.712254  1
  B  B32  1  0.500000  0.599405  0.027626  1
  B  B33  1  0.500000  0.400595  0.972374  1
  B  B34  1  0.500000  0.099405  0.472374  1
  B  B35  1  0.500000  0.900595  0.527626  1
