# generated using pymatgen
data_Ho2Rh6S
_symmetry_space_group_name_H-M   'P 1'
_cell_length_a   5.94810801
_cell_length_b   5.94810814
_cell_length_c   5.94803400
_cell_angle_alpha   60.00041231
_cell_angle_beta   60.00041157
_cell_angle_gamma   59.99918115
_symmetry_Int_Tables_number   1
_chemical_formula_structural   Ho2Rh6S
_chemical_formula_sum   'Ho2 Rh6 S1'
_cell_volume   148.80453333
_cell_formula_units_Z   1
loop_
 _symmetry_equiv_pos_site_id
 _symmetry_equiv_pos_as_xyz
  1  'x, y, z'
loop_
 _atom_site_type_symbol
 _atom_site_label
 _atom_site_symmetry_multiplicity
 _atom_site_fract_x
 _atom_site_fract_y
 _atom_site_fract_z
 _atom_site_occupancy
  Ho  Ho0  1  0.250000  0.250000  0.250000  1
  Ho  Ho1  1  0.750000  0.750000  0.750000  1
  Rh  Rh2  1  0.735527  0.264474  0.264474  1
  Rh  Rh3  1  0.264474  0.735527  0.264474  1
  Rh  Rh4  1  0.735531  0.735531  0.264470  1
  Rh  Rh5  1  0.264468  0.264468  0.735533  1
  Rh  Rh6  1  0.735525  0.264476  0.735525  1
  Rh  Rh7  1  0.264476  0.735525  0.735525  1
  S  S8  1  0.000000  0.000000  0.000000  1
