# generated using pymatgen
data_Sc8Si4Pt11Rh3
_symmetry_space_group_name_H-M   'P 1'
_cell_length_a   4.02855600
_cell_length_b   6.54990235
_cell_length_c   16.18164483
_cell_angle_alpha   90.17324628
_cell_angle_beta   90.00000000
_cell_angle_gamma   90.00000000
_symmetry_Int_Tables_number   1
_chemical_formula_structural   Sc8Si4Pt11Rh3
_chemical_formula_sum   'Sc8 Si4 Pt11 Rh3'
_cell_volume   426.97742098
_cell_formula_units_Z   1
loop_
 _symmetry_equiv_pos_site_id
 _symmetry_equiv_pos_as_xyz
  1  'x, y, z'
loop_
 _atom_site_type_symbol
 _atom_site_label
 _atom_site_symmetry_multiplicity
 _atom_site_fract_x
 _atom_site_fract_y
 _atom_site_fract_z
 _atom_site_occupancy
  Sc  Sc0  1  0.000000  0.282091  0.461386  1
  Sc  Sc1  1  0.000000  0.719002  0.537163  1
  Sc  Sc2  1  0.000000  0.780529  0.041373  1
  Sc  Sc3  1  0.000000  0.212558  0.963867  1
  Sc  Sc4  1  0.000000  0.535019  0.291418  1
  Sc  Sc5  1  0.000000  0.466148  0.705938  1
  Sc  Sc6  1  0.000000  0.035399  0.210538  1
  Sc  Sc7  1  0.000000  0.972286  0.789602  1
  Si  Si8  1  0.500000  0.846857  0.307530  1
  Si  Si9  1  0.500000  0.154346  0.691182  1
  Si  Si10  1  0.500000  0.346821  0.193505  1
  Si  Si11  1  0.500000  0.654751  0.805764  1
  Pt  Pt12  1  0.000000  0.589896  0.881473  1
  Pt  Pt13  1  0.500000  0.601372  0.421105  1
  Pt  Pt14  1  0.500000  0.399669  0.577795  1
  Pt  Pt15  1  0.500000  0.100095  0.079776  1
  Pt  Pt16  1  0.500000  0.900316  0.921151  1
  Pt  Pt17  1  0.500000  0.499189  0.001444  1
  Pt  Pt18  1  0.500000  0.000767  0.499488  1
  Pt  Pt19  1  0.500000  0.216528  0.334052  1
  Pt  Pt20  1  0.500000  0.783873  0.665898  1
  Pt  Pt21  1  0.500000  0.715784  0.166633  1
  Pt  Pt22  1  0.500000  0.280945  0.832539  1
  Rh  Rh23  1  0.000000  0.906516  0.380536  1
  Rh  Rh24  1  0.000000  0.093163  0.618906  1
  Rh  Rh25  1  0.000000  0.406080  0.119938  1
