# generated using pymatgen
data_U4Si6Tc6Ru
_symmetry_space_group_name_H-M   'P 1'
_cell_length_a   7.11103262
_cell_length_b   7.11103355
_cell_length_c   7.11103317
_cell_angle_alpha   109.91435986
_cell_angle_beta   109.25010078
_cell_angle_gamma   109.25010710
_symmetry_Int_Tables_number   1
_chemical_formula_structural   U4Si6Tc6Ru
_chemical_formula_sum   'U4 Si6 Tc6 Ru1'
_cell_volume   276.79404142
_cell_formula_units_Z   1
loop_
 _symmetry_equiv_pos_site_id
 _symmetry_equiv_pos_as_xyz
  1  'x, y, z'
loop_
 _atom_site_type_symbol
 _atom_site_label
 _atom_site_symmetry_multiplicity
 _atom_site_fract_x
 _atom_site_fract_y
 _atom_site_fract_z
 _atom_site_occupancy
  U  U0  1  0.500000  0.497370  0.502630  1
  U  U1  1  0.994739  0.497370  0.997370  1
  U  U2  1  0.500000  0.002630  0.997370  1
  U  U3  1  0.005261  0.002630  0.502630  1
  Si  Si4  1  0.689903  0.997614  0.687517  1
  Si  Si5  1  0.689903  0.692289  0.002386  1
  Si  Si6  1  0.310097  0.312483  0.002386  1
  Si  Si7  1  0.000000  0.690073  0.690073  1
  Si  Si8  1  0.000000  0.309927  0.309927  1
  Si  Si9  1  0.310097  0.997614  0.307711  1
  Tc  Tc10  1  0.750055  0.248710  0.498655  1
  Tc  Tc11  1  0.249945  0.748600  0.498655  1
  Tc  Tc12  1  0.249945  0.501345  0.751290  1
  Tc  Tc13  1  0.000000  0.000000  0.000000  1
  Tc  Tc14  1  0.500000  0.250000  0.750000  1
  Tc  Tc15  1  0.750055  0.501345  0.251400  1
  Ru  Ru16  1  0.500000  0.750000  0.250000  1
