# generated using pymatgen
data_Sr6TiCo3PtO15
_symmetry_space_group_name_H-M   'P 1'
_cell_length_a   7.00101512
_cell_length_b   7.00107114
_cell_length_c   7.00108907
_cell_angle_alpha   86.86760882
_cell_angle_beta   86.86798078
_cell_angle_gamma   86.86840149
_symmetry_Int_Tables_number   1
_chemical_formula_structural   Sr6TiCo3PtO15
_chemical_formula_sum   'Sr6 Ti1 Co3 Pt1 O15'
_cell_volume   341.67181733
_cell_formula_units_Z   1
loop_
 _symmetry_equiv_pos_site_id
 _symmetry_equiv_pos_as_xyz
  1  'x, y, z'
loop_
 _atom_site_type_symbol
 _atom_site_label
 _atom_site_symmetry_multiplicity
 _atom_site_fract_x
 _atom_site_fract_y
 _atom_site_fract_z
 _atom_site_occupancy
  Sr  Sr0  1  0.517806  0.869525  0.186111  1
  Sr  Sr1  1  0.186100  0.517800  0.869522  1
  Sr  Sr2  1  0.869518  0.186109  0.517806  1
  Sr  Sr3  1  0.053942  0.693252  0.328621  1
  Sr  Sr4  1  0.328624  0.053949  0.693252  1
  Sr  Sr5  1  0.693249  0.328622  0.053945  1
  Ti  Ti6  1  0.703964  0.703962  0.703961  1
  Co  Co7  1  0.280828  0.280825  0.280829  1
  Co  Co8  1  0.901202  0.901201  0.901200  1
  Co  Co9  1  0.092342  0.092342  0.092344  1
  Pt  Pt10  1  0.486979  0.486924  0.486959  1
  O  O11  1  0.386847  0.532562  0.214460  1
  O  O12  1  0.214458  0.386855  0.532555  1
  O  O13  1  0.532555  0.214463  0.386853  1
  O  O14  1  0.753980  0.580439  0.445561  1
  O  O15  1  0.445566  0.754008  0.580435  1
  O  O16  1  0.580431  0.445565  0.753979  1
  O  O17  1  0.188663  0.031356  0.338422  1
  O  O18  1  0.338422  0.188660  0.031361  1
  O  O19  1  0.031354  0.338420  0.188664  1
  O  O20  1  0.816959  0.644557  0.951103  1
  O  O21  1  0.951111  0.816951  0.644562  1
  O  O22  1  0.160509  0.849863  0.990168  1
  O  O23  1  0.849864  0.990169  0.160507  1
  O  O24  1  0.990167  0.160510  0.849865  1
  O  O25  1  0.644563  0.951112  0.816957  1
