# generated using pymatgen
data_Hf4Si2GeWN
_symmetry_space_group_name_H-M   'P 1'
_cell_length_a   7.75636396
_cell_length_b   7.74899159
_cell_length_c   5.46558840
_cell_angle_alpha   90.04089773
_cell_angle_beta   89.91827488
_cell_angle_gamma   120.03147695
_symmetry_Int_Tables_number   1
_chemical_formula_structural   Hf4Si2GeWN
_chemical_formula_sum   'Hf8 Si4 Ge2 W2 N2'
_cell_volume   284.40199851
_cell_formula_units_Z   2
loop_
 _symmetry_equiv_pos_site_id
 _symmetry_equiv_pos_as_xyz
  1  'x, y, z'
loop_
 _atom_site_type_symbol
 _atom_site_label
 _atom_site_symmetry_multiplicity
 _atom_site_fract_x
 _atom_site_fract_y
 _atom_site_fract_z
 _atom_site_occupancy
  Hf  Hf0  1  0.233031  0.000000  0.247492  1
  Hf  Hf1  1  0.766969  0.000000  0.752508  1
  Hf  Hf2  1  0.003091  0.237351  0.248302  1
  Hf  Hf3  1  0.996909  0.762649  0.751698  1
  Hf  Hf4  1  0.765739  0.762649  0.248302  1
  Hf  Hf5  1  0.234261  0.237351  0.751698  1
  Hf  Hf6  1  0.669837  0.339672  0.500000  1
  Hf  Hf7  1  0.330163  0.660328  0.500000  1
  Si  Si8  1  0.001248  0.591793  0.225867  1
  Si  Si9  1  0.998752  0.408207  0.774133  1
  Si  Si10  1  0.409456  0.408207  0.225867  1
  Si  Si11  1  0.590544  0.591793  0.774133  1
  Ge  Ge12  1  0.593070  0.000000  0.236631  1
  Ge  Ge13  1  0.406930  0.000000  0.763369  1
  W  W14  1  0.330059  0.660119  0.000000  1
  W  W15  1  0.669941  0.339881  0.000000  1
  N  N16  1  0.000000  0.000000  0.000000  1
  N  N17  1  0.000000  0.000000  0.500000  1
