# generated using pymatgen
data_Nd2AsRhCl2
_symmetry_space_group_name_H-M   'P 1'
_cell_length_a   4.27298900
_cell_length_b   4.27298923
_cell_length_c   10.94543900
_cell_angle_alpha   90.00000000
_cell_angle_beta   90.00000000
_cell_angle_gamma   120.00000597
_symmetry_Int_Tables_number   1
_chemical_formula_structural   Nd2AsRhCl2
_chemical_formula_sum   'Nd2 As1 Rh1 Cl2'
_cell_volume   173.07221961
_cell_formula_units_Z   1
loop_
 _symmetry_equiv_pos_site_id
 _symmetry_equiv_pos_as_xyz
  1  'x, y, z'
loop_
 _atom_site_type_symbol
 _atom_site_label
 _atom_site_symmetry_multiplicity
 _atom_site_fract_x
 _atom_site_fract_y
 _atom_site_fract_z
 _atom_site_occupancy
  Nd  Nd0  1  0.000000  0.000000  0.171606  1
  Nd  Nd1  1  0.000000  0.000000  0.831203  1
  As  As2  1  0.666667  0.333333  0.014299  1
  Rh  Rh3  1  0.333333  0.666667  0.988069  1
  Cl  Cl4  1  0.666667  0.333333  0.677109  1
  Cl  Cl5  1  0.333333  0.666667  0.317713  1
