# generated using pymatgen
data_Dy2Y3Hf3(Co4P3)4
_symmetry_space_group_name_H-M   'P 1'
_cell_length_a   12.28190307
_cell_length_b   12.28190259
_cell_length_c   3.70519700
_cell_angle_alpha   90.00000000
_cell_angle_beta   90.00000000
_cell_angle_gamma   119.98756844
_symmetry_Int_Tables_number   1
_chemical_formula_structural   Dy2Y3Hf3(Co4P3)4
_chemical_formula_sum   'Dy2 Y3 Hf3 Co16 P12'
_cell_volume   484.09170339
_cell_formula_units_Z   1
loop_
 _symmetry_equiv_pos_site_id
 _symmetry_equiv_pos_as_xyz
  1  'x, y, z'
loop_
 _atom_site_type_symbol
 _atom_site_label
 _atom_site_symmetry_multiplicity
 _atom_site_fract_x
 _atom_site_fract_y
 _atom_site_fract_z
 _atom_site_occupancy
  Dy  Dy0  1  0.817459  0.000001  0.500000  1
  Dy  Dy1  1  0.000001  0.817459  0.500000  1
  Y  Y2  1  0.666743  0.333353  0.000000  1
  Y  Y3  1  0.333353  0.666743  0.000000  1
  Y  Y4  1  0.182515  0.182515  0.500000  1
  Hf  Hf5  1  0.559086  0.559086  0.000000  1
  Hf  Hf6  1  0.441191  0.999910  0.000000  1
  Hf  Hf7  1  0.999910  0.441191  0.000000  1
  Co  Co8  1  0.822033  0.195502  0.000000  1
  Co  Co9  1  0.804507  0.626604  0.000000  1
  Co  Co10  1  0.373614  0.177875  0.000000  1
  Co  Co11  1  0.195502  0.822033  0.000000  1
  Co  Co12  1  0.626604  0.804507  0.000000  1
  Co  Co13  1  0.177875  0.373614  0.000000  1
  Co  Co14  1  0.644126  0.124065  0.500000  1
  Co  Co15  1  0.875955  0.520054  0.500000  1
  Co  Co16  1  0.480125  0.356005  0.500000  1
  Co  Co17  1  0.124065  0.644126  0.500000  1
  Co  Co18  1  0.520054  0.875955  0.500000  1
  Co  Co19  1  0.356005  0.480125  0.500000  1
  Co  Co20  1  0.721392  0.721392  0.500000  1
  Co  Co21  1  0.278674  0.999857  0.500000  1
  Co  Co22  1  0.999857  0.278674  0.500000  1
  Co  Co23  1  0.999649  0.999649  0.000000  1
  P  P24  1  0.352384  0.352384  0.000000  1
  P  P25  1  0.647929  0.000006  0.000000  1
  P  P26  1  0.000006  0.647929  0.000000  1
  P  P27  1  0.828804  0.307187  0.500000  1
  P  P28  1  0.692856  0.521714  0.500000  1
  P  P29  1  0.478418  0.171147  0.500000  1
  P  P30  1  0.307187  0.828804  0.500000  1
  P  P31  1  0.521714  0.692856  0.500000  1
  P  P32  1  0.171147  0.478418  0.500000  1
  P  P33  1  0.821734  0.821734  0.000000  1
  P  P34  1  0.177888  0.999633  0.000000  1
  P  P35  1  0.999633  0.177888  0.000000  1
