# generated using pymatgen
data_Eu3HoTc3B16Mo
_symmetry_space_group_name_H-M   'P 1'
_cell_length_a   3.62121200
_cell_length_b   6.05102086
_cell_length_c   11.70470436
_cell_angle_alpha   89.86768663
_cell_angle_beta   90.00000000
_cell_angle_gamma   90.00000000
_symmetry_Int_Tables_number   1
_chemical_formula_structural   Eu3HoTc3B16Mo
_chemical_formula_sum   'Eu3 Ho1 Tc3 B16 Mo1'
_cell_volume   256.47314171
_cell_formula_units_Z   1
loop_
 _symmetry_equiv_pos_site_id
 _symmetry_equiv_pos_as_xyz
  1  'x, y, z'
loop_
 _atom_site_type_symbol
 _atom_site_label
 _atom_site_symmetry_multiplicity
 _atom_site_fract_x
 _atom_site_fract_y
 _atom_site_fract_z
 _atom_site_occupancy
  Eu  Eu0  1  0.000000  0.626043  0.348686  1
  Eu  Eu1  1  0.000000  0.373263  0.651064  1
  Eu  Eu2  1  0.000000  0.127041  0.150247  1
  Ho  Ho3  1  0.000000  0.873019  0.850992  1
  Tc  Tc4  1  0.000000  0.631472  0.082778  1
  Tc  Tc5  1  0.000000  0.369371  0.915747  1
  Tc  Tc6  1  0.000000  0.127974  0.416062  1
  B  B7  1  0.500000  0.783124  0.183451  1
  B  B8  1  0.500000  0.215229  0.816700  1
  B  B9  1  0.500000  0.283540  0.315611  1
  B  B10  1  0.500000  0.713627  0.687632  1
  B  B11  1  0.500000  0.863105  0.030538  1
  B  B12  1  0.500000  0.136885  0.967612  1
  B  B13  1  0.500000  0.362944  0.467228  1
  B  B14  1  0.500000  0.634481  0.531664  1
  B  B15  1  0.500000  0.888279  0.452110  1
  B  B16  1  0.500000  0.114627  0.546331  1
  B  B17  1  0.500000  0.388582  0.046264  1
  B  B18  1  0.500000  0.613176  0.952328  1
  B  B19  1  0.500000  0.977751  0.307829  1
  B  B20  1  0.500000  0.023747  0.694665  1
  B  B21  1  0.500000  0.477497  0.190606  1
  B  B22  1  0.500000  0.524023  0.809086  1
  Mo  Mo23  1  0.000000  0.871201  0.584768  1
