# generated using pymatgen
data_Hf3Nb2Ga3N
_symmetry_space_group_name_H-M   'P 1'
_cell_length_a   7.88767600
_cell_length_b   7.88767481
_cell_length_c   5.51327000
_cell_angle_alpha   90.00000000
_cell_angle_beta   90.00000000
_cell_angle_gamma   119.99999659
_symmetry_Int_Tables_number   1
_chemical_formula_structural   Hf3Nb2Ga3N
_chemical_formula_sum   'Hf6 Nb4 Ga6 N2'
_cell_volume   297.05575370
_cell_formula_units_Z   2
loop_
 _symmetry_equiv_pos_site_id
 _symmetry_equiv_pos_as_xyz
  1  'x, y, z'
loop_
 _atom_site_type_symbol
 _atom_site_label
 _atom_site_symmetry_multiplicity
 _atom_site_fract_x
 _atom_site_fract_y
 _atom_site_fract_z
 _atom_site_occupancy
  Hf  Hf0  1  0.231682  0.000000  0.250000  1
  Hf  Hf1  1  0.768318  0.000000  0.750000  1
  Hf  Hf2  1  0.000000  0.231682  0.250000  1
  Hf  Hf3  1  0.000000  0.768318  0.750000  1
  Hf  Hf4  1  0.768318  0.768318  0.250000  1
  Hf  Hf5  1  0.231682  0.231682  0.750000  1
  Nb  Nb6  1  0.333333  0.666667  0.000000  1
  Nb  Nb7  1  0.666667  0.333333  0.000000  1
  Nb  Nb8  1  0.666667  0.333333  0.500000  1
  Nb  Nb9  1  0.333333  0.666667  0.500000  1
  Ga  Ga10  1  0.593680  0.000000  0.250000  1
  Ga  Ga11  1  0.406320  0.000000  0.750000  1
  Ga  Ga12  1  0.000000  0.593680  0.250000  1
  Ga  Ga13  1  0.000000  0.406320  0.750000  1
  Ga  Ga14  1  0.406320  0.406320  0.250000  1
  Ga  Ga15  1  0.593680  0.593680  0.750000  1
  N  N16  1  0.000000  0.000000  0.000000  1
  N  N17  1  0.000000  0.000000  0.500000  1
