# generated using pymatgen
data_NdPa4Ga15
_symmetry_space_group_name_H-M   'P 1'
_cell_length_a   12.66039782
_cell_length_b   12.66039702
_cell_length_c   12.66039672
_cell_angle_alpha   28.13377846
_cell_angle_beta   28.13378729
_cell_angle_gamma   28.13378284
_symmetry_Int_Tables_number   1
_chemical_formula_structural   NdPa4Ga15
_chemical_formula_sum   'Nd1 Pa4 Ga15'
_cell_volume   398.58844890
_cell_formula_units_Z   1
loop_
 _symmetry_equiv_pos_site_id
 _symmetry_equiv_pos_as_xyz
  1  'x, y, z'
loop_
 _atom_site_type_symbol
 _atom_site_label
 _atom_site_symmetry_multiplicity
 _atom_site_fract_x
 _atom_site_fract_y
 _atom_site_fract_z
 _atom_site_occupancy
  Nd  Nd0  1  0.000000  0.000000  0.000000  1
  Pa  Pa1  1  0.130302  0.130302  0.130302  1
  Pa  Pa2  1  0.869698  0.869698  0.869698  1
  Pa  Pa3  1  0.400878  0.400878  0.400878  1
  Pa  Pa4  1  0.599122  0.599122  0.599122  1
  Ga  Ga5  1  0.129585  0.636226  0.636226  1
  Ga  Ga6  1  0.636226  0.636226  0.129585  1
  Ga  Ga7  1  0.636226  0.129585  0.636226  1
  Ga  Ga8  1  0.363774  0.870415  0.363774  1
  Ga  Ga9  1  0.363774  0.363774  0.870415  1
  Ga  Ga10  1  0.870415  0.363774  0.363774  1
  Ga  Ga11  1  0.434843  0.882555  0.882555  1
  Ga  Ga12  1  0.882555  0.882555  0.434843  1
  Ga  Ga13  1  0.882555  0.434843  0.882555  1
  Ga  Ga14  1  0.117445  0.565157  0.117445  1
  Ga  Ga15  1  0.117445  0.117445  0.565157  1
  Ga  Ga16  1  0.565157  0.117445  0.117445  1
  Ga  Ga17  1  0.500000  0.500000  0.000000  1
  Ga  Ga18  1  0.500000  0.000000  0.500000  1
  Ga  Ga19  1  0.000000  0.500000  0.500000  1
