# generated using pymatgen
data_Mg3UGe6Ir7
_symmetry_space_group_name_H-M   'P 1'
_cell_length_a   7.03366661
_cell_length_b   7.14167214
_cell_length_c   7.14167200
_cell_angle_alpha   109.77554157
_cell_angle_beta   109.16515200
_cell_angle_gamma   109.16515271
_symmetry_Int_Tables_number   1
_chemical_formula_structural   Mg3UGe6Ir7
_chemical_formula_sum   'Mg3 U1 Ge6 Ir7'
_cell_volume   277.19555391
_cell_formula_units_Z   1
loop_
 _symmetry_equiv_pos_site_id
 _symmetry_equiv_pos_as_xyz
  1  'x, y, z'
loop_
 _atom_site_type_symbol
 _atom_site_label
 _atom_site_symmetry_multiplicity
 _atom_site_fract_x
 _atom_site_fract_y
 _atom_site_fract_z
 _atom_site_occupancy
  Mg  Mg0  1  0.500000  0.500000  0.500000  1
  Mg  Mg1  1  0.000000  0.000000  0.500000  1
  Mg  Mg2  1  0.000000  0.500000  0.000000  1
  U  U3  1  0.500000  0.000000  0.000000  1
  Ge  Ge4  1  0.012430  0.316651  0.316651  1
  Ge  Ge5  1  0.987570  0.683349  0.683349  1
  Ge  Ge6  1  0.304221  0.000000  0.316651  1
  Ge  Ge7  1  0.695779  0.000000  0.683349  1
  Ge  Ge8  1  0.304221  0.316651  0.000000  1
  Ge  Ge9  1  0.695779  0.683349  0.000000  1
  Ir  Ir10  1  0.500000  0.752563  0.247437  1
  Ir  Ir11  1  0.500000  0.247437  0.752563  1
  Ir  Ir12  1  0.252563  0.505125  0.752563  1
  Ir  Ir13  1  0.747437  0.494875  0.247437  1
  Ir  Ir14  1  0.747437  0.247437  0.494875  1
  Ir  Ir15  1  0.252563  0.752563  0.505125  1
  Ir  Ir16  1  0.000000  0.000000  0.000000  1
