# generated using pymatgen
data_Tb3DyScOs7
_symmetry_space_group_name_H-M   'P 1'
_cell_length_a   5.40934100
_cell_length_b   5.40934149
_cell_length_c   8.90268300
_cell_angle_alpha   90.00000000
_cell_angle_beta   90.00000000
_cell_angle_gamma   120.00000312
_symmetry_Int_Tables_number   1
_chemical_formula_structural   Tb3DyScOs7
_chemical_formula_sum   'Tb3 Dy1 Sc1 Os7'
_cell_volume   225.60061884
_cell_formula_units_Z   1
loop_
 _symmetry_equiv_pos_site_id
 _symmetry_equiv_pos_as_xyz
  1  'x, y, z'
loop_
 _atom_site_type_symbol
 _atom_site_label
 _atom_site_symmetry_multiplicity
 _atom_site_fract_x
 _atom_site_fract_y
 _atom_site_fract_z
 _atom_site_occupancy
  Tb  Tb0  1  0.333333  0.666667  0.422826  1
  Tb  Tb1  1  0.666667  0.333333  0.577150  1
  Tb  Tb2  1  0.666667  0.333333  0.939667  1
  Dy  Dy3  1  0.333333  0.666667  0.060351  1
  Sc  Sc4  1  0.000000  0.000000  0.499977  1
  Os  Os5  1  0.000000  0.000000  0.000005  1
  Os  Os6  1  0.827531  0.172469  0.245003  1
  Os  Os7  1  0.827531  0.655060  0.245003  1
  Os  Os8  1  0.344940  0.172469  0.245003  1
  Os  Os9  1  0.172483  0.827517  0.755004  1
  Os  Os10  1  0.172483  0.344968  0.755004  1
  Os  Os11  1  0.655032  0.827517  0.755004  1
