# generated using pymatgen
data_Ag2OsIF12
_symmetry_space_group_name_H-M   'P 1'
_cell_length_a   5.61144442
_cell_length_b   5.60420423
_cell_length_c   10.99645987
_cell_angle_alpha   75.40277925
_cell_angle_beta   75.46513569
_cell_angle_gamma   59.87468450
_symmetry_Int_Tables_number   1
_chemical_formula_structural   Ag2OsIF12
_chemical_formula_sum   'Ag2 Os1 I1 F12'
_cell_volume   286.23053158
_cell_formula_units_Z   1
loop_
 _symmetry_equiv_pos_site_id
 _symmetry_equiv_pos_as_xyz
  1  'x, y, z'
loop_
 _atom_site_type_symbol
 _atom_site_label
 _atom_site_symmetry_multiplicity
 _atom_site_fract_x
 _atom_site_fract_y
 _atom_site_fract_z
 _atom_site_occupancy
  Ag  Ag0  1  0.502765  0.504888  0.490241  1
  Ag  Ag1  1  0.993939  0.998839  0.009970  1
  Os  Os2  1  0.245061  0.257068  0.250009  1
  I  I3  1  0.756260  0.742432  0.749929  1
  F  F4  1  0.214174  0.498721  0.356442  1
  F  F5  1  0.771994  0.497756  0.638317  1
  F  F6  1  0.927938  0.227713  0.354793  1
  F  F7  1  0.093812  0.762509  0.637350  1
  F  F8  1  0.562069  0.286413  0.144926  1
  F  F9  1  0.419428  0.725894  0.861226  1
  F  F10  1  0.274379  0.014997  0.144218  1
  F  F11  1  0.734990  0.988018  0.862727  1
  F  F12  1  0.002806  0.401505  0.861922  1
  F  F13  1  0.002549  0.574907  0.143942  1
  F  F14  1  0.511244  0.079495  0.638328  1
  F  F15  1  0.486594  0.938843  0.355658  1
