# generated using pymatgen
data_La5As2ClO10
_symmetry_space_group_name_H-M   'P 1'
_cell_length_a   5.81334810
_cell_length_b   7.01093280
_cell_length_c   9.06992413
_cell_angle_alpha   95.20752076
_cell_angle_beta   108.69158685
_cell_angle_gamma   114.49360902
_symmetry_Int_Tables_number   1
_chemical_formula_structural   La5As2ClO10
_chemical_formula_sum   'La5 As2 Cl1 O10'
_cell_volume   307.74369958
_cell_formula_units_Z   1
loop_
 _symmetry_equiv_pos_site_id
 _symmetry_equiv_pos_as_xyz
  1  'x, y, z'
loop_
 _atom_site_type_symbol
 _atom_site_label
 _atom_site_symmetry_multiplicity
 _atom_site_fract_x
 _atom_site_fract_y
 _atom_site_fract_z
 _atom_site_occupancy
  La  La0  1  0.000000  0.000000  0.000000  1
  La  La1  1  0.383679  0.634838  0.132519  1
  La  La2  1  0.793913  0.295131  0.292696  1
  La  La3  1  0.206086  0.704869  0.707304  1
  La  La4  1  0.616322  0.365163  0.867482  1
  As  As5  1  0.176810  0.962581  0.391040  1
  As  As6  1  0.823190  0.037419  0.608959  1
  Cl  Cl7  1  0.500000  0.499999  0.500000  1
  O  O8  1  0.458779  0.325547  0.082727  1
  O  O9  1  0.949495  0.325547  0.082727  1
  O  O10  1  0.341121  0.966480  0.248550  1
  O  O11  1  0.873909  0.966480  0.248550  1
  O  O12  1  0.038600  0.681716  0.395485  1
  O  O13  1  0.961400  0.318284  0.604515  1
  O  O14  1  0.126091  0.033520  0.751449  1
  O  O15  1  0.658879  0.033520  0.751449  1
  O  O16  1  0.050505  0.674453  0.917272  1
  O  O17  1  0.541221  0.674453  0.917272  1
