# generated using pymatgen
data_NaHfCuSb2
_symmetry_space_group_name_H-M   'P 1'
_cell_length_a   8.34621647
_cell_length_b   8.34621655
_cell_length_c   8.34621525
_cell_angle_alpha   29.61531400
_cell_angle_beta   29.61531156
_cell_angle_gamma   29.61530995
_symmetry_Int_Tables_number   1
_chemical_formula_structural   NaHfCuSb2
_chemical_formula_sum   'Na1 Hf1 Cu1 Sb2'
_cell_volume   125.69259516
_cell_formula_units_Z   1
loop_
 _symmetry_equiv_pos_site_id
 _symmetry_equiv_pos_as_xyz
  1  'x, y, z'
loop_
 _atom_site_type_symbol
 _atom_site_label
 _atom_site_symmetry_multiplicity
 _atom_site_fract_x
 _atom_site_fract_y
 _atom_site_fract_z
 _atom_site_occupancy
  Na  Na0  1  0.506648  0.506648  0.506648  1
  Hf  Hf1  1  0.990879  0.990879  0.990879  1
  Cu  Cu2  1  0.373547  0.373547  0.373547  1
  Sb  Sb3  1  0.744805  0.744805  0.744805  1
  Sb  Sb4  1  0.259120  0.259120  0.259120  1
