# generated using pymatgen
data_Ta8V3TcOs4
_symmetry_space_group_name_H-M   'P 1'
_cell_length_a   6.37368100
_cell_length_b   4.48909800
_cell_length_c   8.95671700
_cell_angle_alpha   90.00000000
_cell_angle_beta   89.99985772
_cell_angle_gamma   90.00000000
_symmetry_Int_Tables_number   1
_chemical_formula_structural   Ta8V3TcOs4
_chemical_formula_sum   'Ta8 V3 Tc1 Os4'
_cell_volume   256.27029107
_cell_formula_units_Z   1
loop_
 _symmetry_equiv_pos_site_id
 _symmetry_equiv_pos_as_xyz
  1  'x, y, z'
loop_
 _atom_site_type_symbol
 _atom_site_label
 _atom_site_symmetry_multiplicity
 _atom_site_fract_x
 _atom_site_fract_y
 _atom_site_fract_z
 _atom_site_occupancy
  Ta  Ta0  1  0.002322  0.750001  0.124978  1
  Ta  Ta1  1  0.497654  0.750001  0.124978  1
  Ta  Ta2  1  0.001124  0.250000  0.376394  1
  Ta  Ta3  1  0.498887  0.250000  0.376393  1
  Ta  Ta4  1  0.500249  0.750001  0.625016  1
  Ta  Ta5  1  0.999743  0.750001  0.625017  1
  Ta  Ta6  1  0.498859  0.250000  0.873624  1
  Ta  Ta7  1  0.001168  0.250000  0.873624  1
  V  V8  1  0.249991  0.750001  0.374016  1
  V  V9  1  0.750006  0.250000  0.625014  1
  V  V10  1  0.250003  0.750001  0.875938  1
  Tc  Tc11  1  0.749996  0.250000  0.124999  1
  Os  Os12  1  0.249995  0.250000  0.124990  1
  Os  Os13  1  0.749994  0.750001  0.375383  1
  Os  Os14  1  0.250005  0.250000  0.624989  1
  Os  Os15  1  0.750004  0.750001  0.874650  1
