# generated using pymatgen
data_Er3ThGa12Ru
_symmetry_space_group_name_H-M   'P 1'
_cell_length_a   7.54237164
_cell_length_b   7.54237054
_cell_length_c   7.40241900
_cell_angle_alpha   109.09577438
_cell_angle_beta   109.09577148
_cell_angle_gamma   109.84404155
_symmetry_Int_Tables_number   1
_chemical_formula_structural   Er3ThGa12Ru
_chemical_formula_sum   'Er3 Th1 Ga12 Ru1'
_cell_volume   325.65590024
_cell_formula_units_Z   1
loop_
 _symmetry_equiv_pos_site_id
 _symmetry_equiv_pos_as_xyz
  1  'x, y, z'
loop_
 _atom_site_type_symbol
 _atom_site_label
 _atom_site_symmetry_multiplicity
 _atom_site_fract_x
 _atom_site_fract_y
 _atom_site_fract_z
 _atom_site_occupancy
  Er  Er0  1  0.000000  0.500000  0.000000  1
  Er  Er1  1  0.500000  0.000000  0.000000  1
  Er  Er2  1  0.500000  0.500000  0.500000  1
  Th  Th3  1  0.000000  0.000000  0.500000  1
  Ga  Ga4  1  0.747008  0.252992  0.500000  1
  Ga  Ga5  1  0.747008  0.494016  0.247008  1
  Ga  Ga6  1  0.505984  0.252992  0.752992  1
  Ga  Ga7  1  0.252992  0.505984  0.752992  1
  Ga  Ga8  1  0.252992  0.747008  0.500000  1
  Ga  Ga9  1  0.494016  0.747008  0.247008  1
  Ga  Ga10  1  0.707176  0.707176  0.994719  1
  Ga  Ga11  1  0.292824  0.000000  0.287544  1
  Ga  Ga12  1  0.000000  0.292824  0.287544  1
  Ga  Ga13  1  0.292824  0.292824  0.005281  1
  Ga  Ga14  1  0.707176  0.000000  0.712456  1
  Ga  Ga15  1  0.000000  0.707176  0.712456  1
  Ru  Ru16  1  0.000000  0.000000  0.000000  1
