# generated using pymatgen
data_Tb8Cd2NiIr
_symmetry_space_group_name_H-M   'P 1'
_cell_length_a   9.63866766
_cell_length_b   9.63866766
_cell_length_c   9.68524000
_cell_angle_alpha   59.84002855
_cell_angle_beta   59.84002855
_cell_angle_gamma   59.60082573
_symmetry_Int_Tables_number   1
_chemical_formula_structural   Tb8Cd2NiIr
_chemical_formula_sum   'Tb16 Cd4 Ni2 Ir2'
_cell_volume   632.78192274
_cell_formula_units_Z   2
loop_
 _symmetry_equiv_pos_site_id
 _symmetry_equiv_pos_as_xyz
  1  'x, y, z'
loop_
 _atom_site_type_symbol
 _atom_site_label
 _atom_site_symmetry_multiplicity
 _atom_site_fract_x
 _atom_site_fract_y
 _atom_site_fract_z
 _atom_site_occupancy
  Tb  Tb0  1  0.350082  0.350082  0.344852  1
  Tb  Tb1  1  0.350082  0.350082  0.954984  1
  Tb  Tb2  1  0.352722  0.952278  0.347500  1
  Tb  Tb3  1  0.952278  0.352722  0.347500  1
  Tb  Tb4  1  0.809142  0.187718  0.190664  1
  Tb  Tb5  1  0.187718  0.809142  0.812477  1
  Tb  Tb6  1  0.187718  0.809142  0.190664  1
  Tb  Tb7  1  0.809142  0.187718  0.812477  1
  Tb  Tb8  1  0.189486  0.189486  0.810514  1
  Tb  Tb9  1  0.811214  0.811214  0.188786  1
  Tb  Tb10  1  0.937480  0.561164  0.565751  1
  Tb  Tb11  1  0.561164  0.937480  0.935605  1
  Tb  Tb12  1  0.561164  0.937480  0.565751  1
  Tb  Tb13  1  0.937480  0.561164  0.935605  1
  Tb  Tb14  1  0.565743  0.565743  0.934257  1
  Tb  Tb15  1  0.938948  0.938948  0.561052  1
  Cd  Cd16  1  0.579988  0.579988  0.582599  1
  Cd  Cd17  1  0.579988  0.579988  0.257424  1
  Cd  Cd18  1  0.580226  0.255978  0.581897  1
  Cd  Cd19  1  0.255978  0.580226  0.581897  1
  Ni  Ni20  1  0.141497  0.574780  0.141861  1
  Ni  Ni21  1  0.574780  0.141497  0.141861  1
  Ir  Ir22  1  0.142989  0.142989  0.141172  1
  Ir  Ir23  1  0.142989  0.142989  0.572850  1
