# generated using pymatgen
data_LuZn7Ag5
_symmetry_space_group_name_H-M   'P 1'
_cell_length_a   7.02409465
_cell_length_b   7.02409462
_cell_length_c   7.02409463
_cell_angle_alpha   98.07355705
_cell_angle_beta   97.46992810
_cell_angle_gamma   136.84867287
_symmetry_Int_Tables_number   1
_chemical_formula_structural   LuZn7Ag5
_chemical_formula_sum   'Lu1 Zn7 Ag5'
_cell_volume   220.40671885
_cell_formula_units_Z   1
loop_
 _symmetry_equiv_pos_site_id
 _symmetry_equiv_pos_as_xyz
  1  'x, y, z'
loop_
 _atom_site_type_symbol
 _atom_site_label
 _atom_site_symmetry_multiplicity
 _atom_site_fract_x
 _atom_site_fract_y
 _atom_site_fract_z
 _atom_site_occupancy
  Lu  Lu0  1  0.000000  0.999695  0.999695  1
  Zn  Zn1  1  0.996682  0.998120  0.496428  1
  Zn  Zn2  1  0.498308  0.499746  0.496428  1
  Zn  Zn3  1  0.501692  0.998120  0.001438  1
  Zn  Zn4  1  0.003318  0.499746  0.001438  1
  Zn  Zn5  1  0.500000  0.710644  0.210644  1
  Zn  Zn6  1  0.714789  0.501487  0.216276  1
  Zn  Zn7  1  0.285211  0.501487  0.786697  1
  Ag  Ag8  1  0.000000  0.342133  0.342133  1
  Ag  Ag9  1  0.000000  0.651021  0.651021  1
  Ag  Ag10  1  0.656385  0.999660  0.656045  1
  Ag  Ag11  1  0.343615  0.999660  0.343274  1
  Ag  Ag12  1  0.500000  0.298483  0.798483  1
