# generated using pymatgen
data_Ca4In2NiPt3
_symmetry_space_group_name_H-M   'P 1'
_cell_length_a   5.74629755
_cell_length_b   5.79814905
_cell_length_c   8.14968241
_cell_angle_alpha   77.62830928
_cell_angle_beta   77.55912632
_cell_angle_gamma   59.36632176
_symmetry_Int_Tables_number   1
_chemical_formula_structural   Ca4In2NiPt3
_chemical_formula_sum   'Ca4 In2 Ni1 Pt3'
_cell_volume   226.37945801
_cell_formula_units_Z   1
loop_
 _symmetry_equiv_pos_site_id
 _symmetry_equiv_pos_as_xyz
  1  'x, y, z'
loop_
 _atom_site_type_symbol
 _atom_site_label
 _atom_site_symmetry_multiplicity
 _atom_site_fract_x
 _atom_site_fract_y
 _atom_site_fract_z
 _atom_site_occupancy
  Ca  Ca0  1  0.504869  0.794061  0.351994  1
  Ca  Ca1  1  0.202093  0.500326  0.149503  1
  Ca  Ca2  1  0.499768  0.204841  0.648769  1
  Ca  Ca3  1  0.797065  0.501453  0.850663  1
  In  In4  1  0.858880  0.149662  0.241058  1
  In  In5  1  0.156335  0.848768  0.757785  1
  Ni  Ni6  1  0.274847  0.996888  0.995372  1
  Pt  Pt7  1  0.004376  0.728755  0.503331  1
  Pt  Pt8  1  0.702262  0.002751  0.003638  1
  Pt  Pt9  1  0.999503  0.272496  0.497888  1
