# generated using pymatgen
data_Ho4Ta3Co8(P4Ru3)3
_symmetry_space_group_name_H-M   'P 1'
_cell_length_a   3.73444600
_cell_length_b   10.79614020
_cell_length_c   12.40846270
_cell_angle_alpha   90.18409162
_cell_angle_beta   90.00000000
_cell_angle_gamma   90.00000000
_symmetry_Int_Tables_number   1
_chemical_formula_structural   Ho4Ta3Co8(P4Ru3)3
_chemical_formula_sum   'Ho4 Ta3 Co8 P12 Ru9'
_cell_volume   500.27688582
_cell_formula_units_Z   1
loop_
 _symmetry_equiv_pos_site_id
 _symmetry_equiv_pos_as_xyz
  1  'x, y, z'
loop_
 _atom_site_type_symbol
 _atom_site_label
 _atom_site_symmetry_multiplicity
 _atom_site_fract_x
 _atom_site_fract_y
 _atom_site_fract_z
 _atom_site_occupancy
  Ho  Ho0  1  0.250000  0.580357  0.709380  1
  Ho  Ho1  1  0.250000  0.918477  0.209020  1
  Ho  Ho2  1  0.750000  0.419040  0.290860  1
  Ho  Ho3  1  0.750000  0.081776  0.790227  1
  Ta  Ta4  1  0.250000  0.699702  0.987947  1
  Ta  Ta5  1  0.250000  0.798581  0.489081  1
  Ta  Ta6  1  0.750000  0.300077  0.011564  1
  Co  Co7  1  0.250000  0.889538  0.692123  1
  Co  Co8  1  0.250000  0.612930  0.193565  1
  Co  Co9  1  0.750000  0.111893  0.308041  1
  Co  Co10  1  0.750000  0.383702  0.804961  1
  Co  Co11  1  0.250000  0.462798  0.935201  1
  Co  Co12  1  0.250000  0.038177  0.436571  1
  Co  Co13  1  0.750000  0.536298  0.062889  1
  Co  Co14  1  0.750000  0.965315  0.562736  1
  P  P15  1  0.250000  0.427268  0.115685  1
  P  P16  1  0.250000  0.075856  0.612200  1
  P  P17  1  0.750000  0.571580  0.882777  1
  P  P18  1  0.750000  0.927997  0.384653  1
  P  P19  1  0.250000  0.269696  0.864018  1
  P  P20  1  0.250000  0.229815  0.370921  1
  P  P21  1  0.750000  0.729570  0.135011  1
  P  P22  1  0.750000  0.771663  0.635599  1
  P  P23  1  0.250000  0.591683  0.382990  1
  P  P24  1  0.250000  0.908471  0.882891  1
  P  P25  1  0.750000  0.398146  0.611057  1
  P  P26  1  0.750000  0.095335  0.119917  1
  Ru  Ru27  1  0.750000  0.202825  0.512734  1
  Ru  Ru28  1  0.250000  0.402344  0.484676  1
  Ru  Ru29  1  0.250000  0.098061  0.986332  1
  Ru  Ru30  1  0.750000  0.596089  0.514720  1
  Ru  Ru31  1  0.750000  0.903427  0.016811  1
  Ru  Ru32  1  0.250000  0.222079  0.182420  1
  Ru  Ru33  1  0.250000  0.276256  0.676450  1
  Ru  Ru34  1  0.750000  0.779630  0.822070  1
  Ru  Ru35  1  0.750000  0.723549  0.321903  1
