# generated using pymatgen
data_Zr2Be3BRu5
_symmetry_space_group_name_H-M   'P 1'
_cell_length_a   3.16534900
_cell_length_b   8.68514850
_cell_length_c   10.17716602
_cell_angle_alpha   90.25800389
_cell_angle_beta   90.00000000
_cell_angle_gamma   90.00000000
_symmetry_Int_Tables_number   1
_chemical_formula_structural   Zr2Be3BRu5
_chemical_formula_sum   'Zr4 Be6 B2 Ru10'
_cell_volume   279.78298901
_cell_formula_units_Z   2
loop_
 _symmetry_equiv_pos_site_id
 _symmetry_equiv_pos_as_xyz
  1  'x, y, z'
loop_
 _atom_site_type_symbol
 _atom_site_label
 _atom_site_symmetry_multiplicity
 _atom_site_fract_x
 _atom_site_fract_y
 _atom_site_fract_z
 _atom_site_occupancy
  Zr  Zr0  1  0.500000  0.842029  0.182218  1
  Zr  Zr1  1  0.500000  0.157971  0.817782  1
  Zr  Zr2  1  0.500000  0.659707  0.678434  1
  Zr  Zr3  1  0.500000  0.340293  0.321566  1
  Be  Be4  1  0.500000  0.963399  0.593057  1
  Be  Be5  1  0.500000  0.036601  0.406943  1
  Be  Be6  1  0.500000  0.847476  0.901913  1
  Be  Be7  1  0.500000  0.152524  0.098087  1
  Be  Be8  1  0.500000  0.655238  0.403198  1
  Be  Be9  1  0.500000  0.344762  0.596802  1
  B  B10  1  0.500000  0.467102  0.910739  1
  B  B11  1  0.500000  0.532898  0.089261  1
  Ru  Ru12  1  0.000000  0.652165  0.956863  1
  Ru  Ru13  1  0.000000  0.347835  0.043137  1
  Ru  Ru14  1  0.000000  0.840005  0.449683  1
  Ru  Ru15  1  0.000000  0.159995  0.550317  1
  Ru  Ru16  1  0.000000  0.000000  0.000000  1
  Ru  Ru17  1  0.000000  0.409496  0.766869  1
  Ru  Ru18  1  0.000000  0.590504  0.233131  1
  Ru  Ru19  1  0.000000  0.500000  0.500000  1
  Ru  Ru20  1  0.000000  0.901973  0.741845  1
  Ru  Ru21  1  0.000000  0.098027  0.258155  1
