# generated using pymatgen
data_Zr10Co8Si19Sb
_symmetry_space_group_name_H-M   'P 1'
_cell_length_a   12.09686940
_cell_length_b   12.14116626
_cell_length_c   3.93607600
_cell_angle_alpha   90.00000000
_cell_angle_beta   90.00000000
_cell_angle_gamma   89.94631365
_symmetry_Int_Tables_number   1
_chemical_formula_structural   Zr10Co8Si19Sb
_chemical_formula_sum   'Zr10 Co8 Si19 Sb1'
_cell_volume   578.09163231
_cell_formula_units_Z   1
loop_
 _symmetry_equiv_pos_site_id
 _symmetry_equiv_pos_as_xyz
  1  'x, y, z'
loop_
 _atom_site_type_symbol
 _atom_site_label
 _atom_site_symmetry_multiplicity
 _atom_site_fract_x
 _atom_site_fract_y
 _atom_site_fract_z
 _atom_site_occupancy
  Zr  Zr0  1  0.996923  0.001027  0.000000  1
  Zr  Zr1  1  0.501536  0.503434  0.000000  1
  Zr  Zr2  1  0.680426  0.178185  0.500000  1
  Zr  Zr3  1  0.178278  0.330729  0.500000  1
  Zr  Zr4  1  0.819805  0.678939  0.500000  1
  Zr  Zr5  1  0.326324  0.814657  0.500000  1
  Zr  Zr6  1  0.885764  0.390573  0.500000  1
  Zr  Zr7  1  0.398520  0.108990  0.500000  1
  Zr  Zr8  1  0.614113  0.886672  0.500000  1
  Zr  Zr9  1  0.111339  0.613742  0.500000  1
  Co  Co10  1  0.529017  0.256236  0.000000  1
  Co  Co11  1  0.255381  0.476675  0.000000  1
  Co  Co12  1  0.743373  0.527153  0.000000  1
  Co  Co13  1  0.475317  0.743054  0.000000  1
  Co  Co14  1  0.971067  0.756577  0.000000  1
  Co  Co15  1  0.020501  0.249440  0.000000  1
  Co  Co16  1  0.756053  0.026390  0.000000  1
  Co  Co17  1  0.244630  0.961292  0.000000  1
  Si  Si18  1  0.569576  0.068061  0.000000  1
  Si  Si19  1  0.066551  0.435028  0.000000  1
  Si  Si20  1  0.929804  0.570335  0.000000  1
  Si  Si21  1  0.433254  0.929713  0.000000  1
  Si  Si22  1  0.152853  0.795145  0.000000  1
  Si  Si23  1  0.843312  0.200321  0.000000  1
  Si  Si24  1  0.799314  0.845987  0.000000  1
  Si  Si25  1  0.300903  0.654252  0.000000  1
  Si  Si26  1  0.699518  0.346738  0.000000  1
  Si  Si27  1  0.655046  0.700017  0.000000  1
  Si  Si28  1  0.354754  0.315385  0.000000  1
  Si  Si29  1  0.986459  0.171283  0.500000  1
  Si  Si30  1  0.158080  0.965100  0.500000  1
  Si  Si31  1  0.833897  0.998053  0.500000  1
  Si  Si32  1  0.991458  0.835791  0.500000  1
  Si  Si33  1  0.506644  0.665907  0.500000  1
  Si  Si34  1  0.506557  0.337185  0.500000  1
  Si  Si35  1  0.664519  0.501927  0.500000  1
  Si  Si36  1  0.335479  0.506146  0.500000  1
  Sb  Sb37  1  0.203652  0.153861  0.000000  1
