# generated using pymatgen
data_Pr3Nd2(Sn5Pd2)2
_symmetry_space_group_name_H-M   'P 1'
_cell_length_a   14.33146800
_cell_length_b   14.33146800
_cell_length_c   4.66674900
_cell_angle_alpha   90.00000000
_cell_angle_beta   90.00000000
_cell_angle_gamma   90.00000000
_symmetry_Int_Tables_number   1
_chemical_formula_structural   Pr3Nd2(Sn5Pd2)2
_chemical_formula_sum   'Pr6 Nd4 Sn20 Pd8'
_cell_volume   958.50812735
_cell_formula_units_Z   2
loop_
 _symmetry_equiv_pos_site_id
 _symmetry_equiv_pos_as_xyz
  1  'x, y, z'
loop_
 _atom_site_type_symbol
 _atom_site_label
 _atom_site_symmetry_multiplicity
 _atom_site_fract_x
 _atom_site_fract_y
 _atom_site_fract_z
 _atom_site_occupancy
  Pr  Pr0  1  0.500000  0.500000  0.000000  1
  Pr  Pr1  1  0.000000  0.000000  0.000000  1
  Pr  Pr2  1  0.891354  0.391354  0.500000  1
  Pr  Pr3  1  0.108646  0.608646  0.500000  1
  Pr  Pr4  1  0.391354  0.108646  0.500000  1
  Pr  Pr5  1  0.608646  0.891354  0.500000  1
  Nd  Nd6  1  0.679090  0.179090  0.500000  1
  Nd  Nd7  1  0.320910  0.820910  0.500000  1
  Nd  Nd8  1  0.179090  0.320910  0.500000  1
  Nd  Nd9  1  0.820910  0.679090  0.500000  1
  Sn  Sn10  1  0.569246  0.069246  0.000000  1
  Sn  Sn11  1  0.430754  0.930754  0.000000  1
  Sn  Sn12  1  0.069246  0.430754  0.000000  1
  Sn  Sn13  1  0.930754  0.569246  0.000000  1
  Sn  Sn14  1  0.654292  0.699732  0.000000  1
  Sn  Sn15  1  0.345708  0.300268  0.000000  1
  Sn  Sn16  1  0.154292  0.800268  0.000000  1
  Sn  Sn17  1  0.845708  0.199732  0.000000  1
  Sn  Sn18  1  0.300268  0.654292  0.000000  1
  Sn  Sn19  1  0.699732  0.345708  0.000000  1
  Sn  Sn20  1  0.199732  0.154292  0.000000  1
  Sn  Sn21  1  0.800268  0.845708  0.000000  1
  Sn  Sn22  1  0.662214  0.502143  0.500000  1
  Sn  Sn23  1  0.337786  0.497857  0.500000  1
  Sn  Sn24  1  0.162214  0.997857  0.500000  1
  Sn  Sn25  1  0.837786  0.002143  0.500000  1
  Sn  Sn26  1  0.497857  0.662214  0.500000  1
  Sn  Sn27  1  0.502143  0.337786  0.500000  1
  Sn  Sn28  1  0.002143  0.162214  0.500000  1
  Sn  Sn29  1  0.997857  0.837786  0.500000  1
  Pd  Pd30  1  0.745626  0.529535  0.000000  1
  Pd  Pd31  1  0.254374  0.470465  0.000000  1
  Pd  Pd32  1  0.245626  0.970465  0.000000  1
  Pd  Pd33  1  0.754374  0.029535  0.000000  1
  Pd  Pd34  1  0.470465  0.745626  0.000000  1
  Pd  Pd35  1  0.529535  0.254374  0.000000  1
  Pd  Pd36  1  0.029535  0.245626  0.000000  1
  Pd  Pd37  1  0.970465  0.754374  0.000000  1
