# generated using pymatgen
data_Tb20Si3Bi5Os4
_symmetry_space_group_name_H-M   'P 1'
_cell_length_a   7.88367125
_cell_length_b   8.96423363
_cell_length_c   12.25235649
_cell_angle_alpha   90.08201578
_cell_angle_beta   90.02199044
_cell_angle_gamma   90.11537775
_symmetry_Int_Tables_number   1
_chemical_formula_structural   Tb20Si3Bi5Os4
_chemical_formula_sum   'Tb20 Si3 Bi5 Os4'
_cell_volume   865.88444740
_cell_formula_units_Z   1
loop_
 _symmetry_equiv_pos_site_id
 _symmetry_equiv_pos_as_xyz
  1  'x, y, z'
loop_
 _atom_site_type_symbol
 _atom_site_label
 _atom_site_symmetry_multiplicity
 _atom_site_fract_x
 _atom_site_fract_y
 _atom_site_fract_z
 _atom_site_occupancy
  Tb  Tb0  1  0.836363  0.725337  0.787873  1
  Tb  Tb1  1  0.169334  0.262573  0.207767  1
  Tb  Tb2  1  0.337805  0.274306  0.717355  1
  Tb  Tb3  1  0.651033  0.739056  0.286374  1
  Tb  Tb4  1  0.369940  0.728062  0.698261  1
  Tb  Tb5  1  0.616713  0.261430  0.300430  1
  Tb  Tb6  1  0.868639  0.270976  0.800560  1
  Tb  Tb7  1  0.139370  0.739112  0.192194  1
  Tb  Tb8  1  0.951267  0.740403  0.509528  1
  Tb  Tb9  1  0.056625  0.260242  0.505110  1
  Tb  Tb10  1  0.453133  0.270521  0.996312  1
  Tb  Tb11  1  0.547675  0.729747  0.001760  1
  Tb  Tb12  1  0.675369  0.039672  0.567244  1
  Tb  Tb13  1  0.320711  0.961307  0.434988  1
  Tb  Tb14  1  0.178731  0.964122  0.932796  1
  Tb  Tb15  1  0.327963  0.539537  0.429164  1
  Tb  Tb16  1  0.823536  0.037298  0.065514  1
  Tb  Tb17  1  0.678647  0.459867  0.577347  1
  Tb  Tb18  1  0.818319  0.459434  0.063407  1
  Tb  Tb19  1  0.179078  0.540139  0.926987  1
  Si  Si20  1  0.564438  0.495637  0.830818  1
  Si  Si21  1  0.435535  0.504338  0.169722  1
  Si  Si22  1  0.064403  0.504944  0.669594  1
  Bi  Bi23  1  0.429936  0.993355  0.168149  1
  Bi  Bi24  1  0.929712  0.492379  0.327651  1
  Bi  Bi25  1  0.571566  0.005637  0.829063  1
  Bi  Bi26  1  0.929021  0.007169  0.328397  1
  Bi  Bi27  1  0.072367  0.992991  0.675983  1
  Os  Os28  1  0.576837  0.747468  0.511648  1
  Os  Os29  1  0.423894  0.252148  0.491572  1
  Os  Os30  1  0.075374  0.253156  0.986623  1
  Os  Os31  1  0.926667  0.747637  0.009806  1
