# generated using pymatgen
data_FeTc6MoO24
_symmetry_space_group_name_H-M   'P 1'
_cell_length_a   10.66754719
_cell_length_b   10.66754680
_cell_length_c   10.66754679
_cell_angle_alpha   49.08357208
_cell_angle_beta   49.08358359
_cell_angle_gamma   49.08357567
_symmetry_Int_Tables_number   1
_chemical_formula_structural   FeTc6MoO24
_chemical_formula_sum   'Fe1 Tc6 Mo1 O24'
_cell_volume   636.59664018
_cell_formula_units_Z   1
loop_
 _symmetry_equiv_pos_site_id
 _symmetry_equiv_pos_as_xyz
  1  'x, y, z'
loop_
 _atom_site_type_symbol
 _atom_site_label
 _atom_site_symmetry_multiplicity
 _atom_site_fract_x
 _atom_site_fract_y
 _atom_site_fract_z
 _atom_site_occupancy
  Fe  Fe0  1  0.500000  0.500000  0.500000  1
  Tc  Tc1  1  0.594862  0.899349  0.252938  1
  Tc  Tc2  1  0.252938  0.594862  0.899349  1
  Tc  Tc3  1  0.899349  0.252938  0.594862  1
  Tc  Tc4  1  0.747062  0.405138  0.100651  1
  Tc  Tc5  1  0.100651  0.747062  0.405138  1
  Tc  Tc6  1  0.405138  0.100651  0.747062  1
  Mo  Mo7  1  0.000000  0.000000  0.000000  1
  O  O8  1  0.810823  0.881690  0.175675  1
  O  O9  1  0.175675  0.810823  0.881690  1
  O  O10  1  0.881690  0.175675  0.810823  1
  O  O11  1  0.667558  0.392233  0.315112  1
  O  O12  1  0.315112  0.667558  0.392233  1
  O  O13  1  0.392233  0.315112  0.667558  1
  O  O14  1  0.189177  0.118310  0.824325  1
  O  O15  1  0.824325  0.189177  0.118310  1
  O  O16  1  0.118310  0.824325  0.189177  1
  O  O17  1  0.332442  0.607767  0.684888  1
  O  O18  1  0.684888  0.332442  0.607767  1
  O  O19  1  0.607767  0.684888  0.332442  1
  O  O20  1  0.443689  0.974224  0.423313  1
  O  O21  1  0.423313  0.443689  0.974224  1
  O  O22  1  0.974224  0.423313  0.443689  1
  O  O23  1  0.919815  0.476727  0.947569  1
  O  O24  1  0.947569  0.919815  0.476727  1
  O  O25  1  0.476727  0.947569  0.919815  1
  O  O26  1  0.556311  0.025776  0.576687  1
  O  O27  1  0.576687  0.556311  0.025776  1
  O  O28  1  0.025776  0.576687  0.556311  1
  O  O29  1  0.080185  0.523273  0.052431  1
  O  O30  1  0.052431  0.080185  0.523273  1
  O  O31  1  0.523273  0.052431  0.080185  1
