# generated using pymatgen
data_LiNd2Ag3O8
_symmetry_space_group_name_H-M   'P 1'
_cell_length_a   6.67559049
_cell_length_b   6.76157000
_cell_length_c   6.67919600
_cell_angle_alpha   126.57329579
_cell_angle_beta   126.25473109
_cell_angle_gamma   80.89213153
_symmetry_Int_Tables_number   1
_chemical_formula_structural   LiNd2Ag3O8
_chemical_formula_sum   'Li1 Nd2 Ag3 O8'
_cell_volume   186.26997184
_cell_formula_units_Z   1
loop_
 _symmetry_equiv_pos_site_id
 _symmetry_equiv_pos_as_xyz
  1  'x, y, z'
loop_
 _atom_site_type_symbol
 _atom_site_label
 _atom_site_symmetry_multiplicity
 _atom_site_fract_x
 _atom_site_fract_y
 _atom_site_fract_z
 _atom_site_occupancy
  Li  Li0  1  0.875000  0.125000  0.250000  1
  Nd  Nd1  1  0.509834  0.485586  0.997865  1
  Nd  Nd2  1  0.240166  0.764414  0.502135  1
  Ag  Ag3  1  0.375000  0.125000  0.250000  1
  Ag  Ag4  1  0.875000  0.125000  0.750000  1
  Ag  Ag5  1  0.875000  0.625000  0.750000  1
  O  O6  1  0.903328  0.362669  0.149602  1
  O  O7  1  0.206052  0.746499  0.849022  1
  O  O8  1  0.846672  0.887331  0.350398  1
  O  O9  1  0.543948  0.503501  0.650978  1
  O  O10  1  0.504668  0.161760  0.058835  1
  O  O11  1  0.097764  0.449857  0.933338  1
  O  O12  1  0.652236  0.800143  0.566662  1
  O  O13  1  0.245332  0.088240  0.441165  1
