# generated using pymatgen
data_Li8Dy4Y4Sn5Sb3
_symmetry_space_group_name_H-M   'P 1'
_cell_length_a   9.41224000
_cell_length_b   9.41597085
_cell_length_c   7.23444820
_cell_angle_alpha   90.02409484
_cell_angle_beta   90.00000000
_cell_angle_gamma   119.98688681
_symmetry_Int_Tables_number   1
_chemical_formula_structural   Li8Dy4Y4Sn5Sb3
_chemical_formula_sum   'Li8 Dy4 Y4 Sn5 Sb3'
_cell_volume   555.33041649
_cell_formula_units_Z   1
loop_
 _symmetry_equiv_pos_site_id
 _symmetry_equiv_pos_as_xyz
  1  'x, y, z'
loop_
 _atom_site_type_symbol
 _atom_site_label
 _atom_site_symmetry_multiplicity
 _atom_site_fract_x
 _atom_site_fract_y
 _atom_site_fract_z
 _atom_site_occupancy
  Li  Li0  1  0.166810  0.333619  0.282189  1
  Li  Li1  1  0.166625  0.833082  0.282492  1
  Li  Li2  1  0.666457  0.833082  0.282492  1
  Li  Li3  1  0.833216  0.666432  0.785714  1
  Li  Li4  1  0.833266  0.167062  0.785292  1
  Li  Li5  1  0.333798  0.167062  0.785292  1
  Li  Li6  1  0.333335  0.666671  0.678410  1
  Li  Li7  1  0.666633  0.333264  0.182188  1
  Dy  Dy8  1  0.490463  0.509826  0.996124  1
  Dy  Dy9  1  0.019363  0.509826  0.996124  1
  Dy  Dy10  1  0.999957  0.999913  0.496989  1
  Dy  Dy11  1  0.000149  0.000298  0.004734  1
  Y  Y12  1  0.511985  0.023968  0.490839  1
  Y  Y13  1  0.511557  0.487891  0.490891  1
  Y  Y14  1  0.976336  0.487891  0.490891  1
  Y  Y15  1  0.490057  0.980115  0.995776  1
  Sn  Sn16  1  0.833450  0.666902  0.231609  1
  Sn  Sn17  1  0.834057  0.166633  0.231915  1
  Sn  Sn18  1  0.332575  0.166633  0.231915  1
  Sn  Sn19  1  0.333134  0.666269  0.258320  1
  Sn  Sn20  1  0.666736  0.333470  0.759961  1
  Sb  Sb21  1  0.166641  0.333283  0.734147  1
  Sb  Sb22  1  0.166530  0.833402  0.733847  1
  Sb  Sb23  1  0.666872  0.833402  0.733847  1
