# generated using pymatgen
data_Mn8Se7O
_symmetry_space_group_name_H-M   'P 1'
_cell_length_a   7.75292993
_cell_length_b   7.74436378
_cell_length_c   6.72157692
_cell_angle_alpha   73.17828621
_cell_angle_beta   73.32455801
_cell_angle_gamma   60.00485953
_symmetry_Int_Tables_number   1
_chemical_formula_structural   Mn8Se7O
_chemical_formula_sum   'Mn8 Se7 O1'
_cell_volume   329.60219315
_cell_formula_units_Z   1
loop_
 _symmetry_equiv_pos_site_id
 _symmetry_equiv_pos_as_xyz
  1  'x, y, z'
loop_
 _atom_site_type_symbol
 _atom_site_label
 _atom_site_symmetry_multiplicity
 _atom_site_fract_x
 _atom_site_fract_y
 _atom_site_fract_z
 _atom_site_occupancy
  Mn  Mn0  1  0.501820  0.502286  0.495153  1
  Mn  Mn1  1  0.747869  0.241723  0.007506  1
  Mn  Mn2  1  0.756200  0.756297  0.010102  1
  Mn  Mn3  1  0.255471  0.255719  0.000027  1
  Mn  Mn4  1  0.016823  0.443143  0.533877  1
  Mn  Mn5  1  0.445302  0.016253  0.532390  1
  Mn  Mn6  1  0.240345  0.751888  0.004378  1
  Mn  Mn7  1  0.017292  0.016301  0.525033  1
  Se  Se8  1  0.373375  0.375524  0.255020  1
  Se  Se9  1  0.880642  0.374004  0.236536  1
  Se  Se10  1  0.374108  0.880722  0.235753  1
  Se  Se11  1  0.881898  0.882110  0.246702  1
  Se  Se12  1  0.624393  0.623428  0.747509  1
  Se  Se13  1  0.624004  0.125917  0.744711  1
  Se  Se14  1  0.125884  0.623769  0.744662  1
  O  O15  1  0.134573  0.130917  0.680643  1
