# generated using pymatgen
data_Nd7Se8
_symmetry_space_group_name_H-M   'P 1'
_cell_length_a   8.44009778
_cell_length_b   8.44004941
_cell_length_c   8.44005978
_cell_angle_alpha   120.00163353
_cell_angle_beta   90.00001347
_cell_angle_gamma   119.99828847
_symmetry_Int_Tables_number   1
_chemical_formula_structural   Nd7Se8
_chemical_formula_sum   'Nd7 Se8'
_cell_volume   425.13166388
_cell_formula_units_Z   1
loop_
 _symmetry_equiv_pos_site_id
 _symmetry_equiv_pos_as_xyz
  1  'x, y, z'
loop_
 _atom_site_type_symbol
 _atom_site_label
 _atom_site_symmetry_multiplicity
 _atom_site_fract_x
 _atom_site_fract_y
 _atom_site_fract_z
 _atom_site_occupancy
  Nd  Nd0  1  0.249974  0.000002  0.249974  1
  Nd  Nd1  1  0.249968  0.499944  0.249976  1
  Nd  Nd2  1  0.750032  0.000007  0.249976  1
  Nd  Nd3  1  0.249991  0.500000  0.749992  1
  Nd  Nd4  1  0.249970  0.999994  0.750025  1
  Nd  Nd5  1  0.750033  0.000000  0.750033  1
  Nd  Nd6  1  0.750031  0.500054  0.750024  1
  Se  Se7  1  0.999995  0.999999  0.999996  1
  Se  Se8  1  0.500004  0.999999  0.500004  1
  Se  Se9  1  0.998423  0.996835  0.498415  1
  Se  Se10  1  0.998388  0.500000  0.498390  1
  Se  Se11  1  0.501547  0.499995  0.498452  1
  Se  Se12  1  0.998457  0.500007  0.001553  1
  Se  Se13  1  0.501611  0.500002  0.001611  1
  Se  Se14  1  0.501579  0.003164  0.001589  1
