# generated using pymatgen
data_K2EuO3
_symmetry_space_group_name_H-M   'P 1'
_cell_length_a   6.33999354
_cell_length_b   6.33999434
_cell_length_c   6.66849021
_cell_angle_alpha   80.62750982
_cell_angle_beta   80.62750250
_cell_angle_gamma   119.89814760
_symmetry_Int_Tables_number   1
_chemical_formula_structural   K2EuO3
_chemical_formula_sum   'K4 Eu2 O6'
_cell_volume   219.73956096
_cell_formula_units_Z   2
loop_
 _symmetry_equiv_pos_site_id
 _symmetry_equiv_pos_as_xyz
  1  'x, y, z'
loop_
 _atom_site_type_symbol
 _atom_site_label
 _atom_site_symmetry_multiplicity
 _atom_site_fract_x
 _atom_site_fract_y
 _atom_site_fract_z
 _atom_site_occupancy
  K  K0  1  0.000000  0.000000  0.000000  1
  K  K1  1  0.500000  0.500000  0.500000  1
  K  K2  1  0.658488  0.341512  0.000000  1
  K  K3  1  0.341512  0.658488  0.000000  1
  Eu  Eu4  1  0.166843  0.833157  0.500000  1
  Eu  Eu5  1  0.833157  0.166843  0.500000  1
  O  O6  1  0.183873  0.183873  0.303995  1
  O  O7  1  0.951840  0.567419  0.304440  1
  O  O8  1  0.567419  0.951840  0.304440  1
  O  O9  1  0.432581  0.048160  0.695560  1
  O  O10  1  0.048160  0.432581  0.695560  1
  O  O11  1  0.816127  0.816127  0.696005  1
