# generated using pymatgen
data_Y6Sn6Rh5Au
_symmetry_space_group_name_H-M   'P 1'
_cell_length_a   7.61625100
_cell_length_b   7.61625088
_cell_length_c   7.76641200
_cell_angle_alpha   90.00000000
_cell_angle_beta   90.00000000
_cell_angle_gamma   119.99999617
_symmetry_Int_Tables_number   1
_chemical_formula_structural   Y6Sn6Rh5Au
_chemical_formula_sum   'Y6 Sn6 Rh5 Au1'
_cell_volume   390.15175402
_cell_formula_units_Z   1
loop_
 _symmetry_equiv_pos_site_id
 _symmetry_equiv_pos_as_xyz
  1  'x, y, z'
loop_
 _atom_site_type_symbol
 _atom_site_label
 _atom_site_symmetry_multiplicity
 _atom_site_fract_x
 _atom_site_fract_y
 _atom_site_fract_z
 _atom_site_occupancy
  Y  Y0  1  0.590427  0.990601  0.744199  1
  Y  Y1  1  0.400175  0.409573  0.744199  1
  Y  Y2  1  0.009399  0.599825  0.744199  1
  Y  Y3  1  0.591029  0.993802  0.255599  1
  Y  Y4  1  0.402773  0.408971  0.255599  1
  Y  Y5  1  0.006198  0.597227  0.255599  1
  Sn  Sn6  1  0.250711  0.990615  0.000394  1
  Sn  Sn7  1  0.741192  0.736454  0.500288  1
  Sn  Sn8  1  0.995263  0.258808  0.500288  1
  Sn  Sn9  1  0.009385  0.260096  0.000394  1
  Sn  Sn10  1  0.739904  0.749289  0.000394  1
  Sn  Sn11  1  0.263546  0.004737  0.500288  1
  Rh  Rh12  1  0.666667  0.333333  0.503314  1
  Rh  Rh13  1  0.333333  0.666667  0.002073  1
  Rh  Rh14  1  0.333333  0.666667  0.498075  1
  Rh  Rh15  1  0.000000  0.000000  0.748442  1
  Rh  Rh16  1  0.000000  0.000000  0.252191  1
  Au  Au17  1  0.666667  0.333333  0.994465  1
