# generated using pymatgen
data_Ta12Al9Zn13Au2
_symmetry_space_group_name_H-M   'P 1'
_cell_length_a   8.78961300
_cell_length_b   8.78961162
_cell_length_c   8.18037500
_cell_angle_alpha   90.00000000
_cell_angle_beta   90.00000000
_cell_angle_gamma   119.99998637
_symmetry_Int_Tables_number   1
_chemical_formula_structural   Ta12Al9Zn13Au2
_chemical_formula_sum   'Ta12 Al9 Zn13 Au2'
_cell_volume   547.32255261
_cell_formula_units_Z   1
loop_
 _symmetry_equiv_pos_site_id
 _symmetry_equiv_pos_as_xyz
  1  'x, y, z'
loop_
 _atom_site_type_symbol
 _atom_site_label
 _atom_site_symmetry_multiplicity
 _atom_site_fract_x
 _atom_site_fract_y
 _atom_site_fract_z
 _atom_site_occupancy
  Ta  Ta0  1  0.336539  0.999860  0.067496  1
  Ta  Ta1  1  0.663322  0.999860  0.932504  1
  Ta  Ta2  1  0.000140  0.336678  0.067496  1
  Ta  Ta3  1  0.664530  0.000902  0.568064  1
  Ta  Ta4  1  0.999098  0.335470  0.431936  1
  Ta  Ta5  1  0.000140  0.663461  0.932504  1
  Ta  Ta6  1  0.336372  0.000902  0.431936  1
  Ta  Ta7  1  0.999098  0.663628  0.568064  1
  Ta  Ta8  1  0.663322  0.663461  0.067496  1
  Ta  Ta9  1  0.336539  0.336678  0.932504  1
  Ta  Ta10  1  0.336372  0.335470  0.568064  1
  Ta  Ta11  1  0.664530  0.663628  0.431936  1
  Al  Al12  1  0.666667  0.333333  0.500000  1
  Al  Al13  1  0.666667  0.333333  0.000000  1
  Al  Al14  1  0.333333  0.666667  0.000000  1
  Al  Al15  1  0.178884  0.999847  0.750000  1
  Al  Al16  1  0.820964  0.999847  0.250000  1
  Al  Al17  1  0.000153  0.179036  0.750000  1
  Al  Al18  1  0.000153  0.821116  0.250000  1
  Al  Al19  1  0.820964  0.821116  0.750000  1
  Al  Al20  1  0.178884  0.179036  0.250000  1
  Zn  Zn21  1  0.162138  0.497759  0.747162  1
  Zn  Zn22  1  0.838004  0.502484  0.249937  1
  Zn  Zn23  1  0.502241  0.664379  0.747162  1
  Zn  Zn24  1  0.497516  0.161996  0.750063  1
  Zn  Zn25  1  0.497516  0.335520  0.249937  1
  Zn  Zn26  1  0.502241  0.837862  0.252838  1
  Zn  Zn27  1  0.335621  0.837862  0.747162  1
  Zn  Zn28  1  0.664480  0.502484  0.750063  1
  Zn  Zn29  1  0.664480  0.161996  0.249937  1
  Zn  Zn30  1  0.335621  0.497759  0.252838  1
  Zn  Zn31  1  0.838004  0.335520  0.750063  1
  Zn  Zn32  1  0.162138  0.664379  0.252838  1
  Zn  Zn33  1  0.333333  0.666667  0.500000  1
  Au  Au34  1  0.000000  0.000000  0.500000  1
  Au  Au35  1  0.000000  0.000000  0.000000  1
