# generated using pymatgen
data_Hf9GaRe4
_symmetry_space_group_name_H-M   'P 1'
_cell_length_a   8.58144100
_cell_length_b   8.58144133
_cell_length_c   8.70954600
_cell_angle_alpha   90.00000000
_cell_angle_beta   90.00000000
_cell_angle_gamma   120.00000258
_symmetry_Int_Tables_number   1
_chemical_formula_structural   Hf9GaRe4
_chemical_formula_sum   'Hf18 Ga2 Re8'
_cell_volume   555.45207849
_cell_formula_units_Z   2
loop_
 _symmetry_equiv_pos_site_id
 _symmetry_equiv_pos_as_xyz
  1  'x, y, z'
loop_
 _atom_site_type_symbol
 _atom_site_label
 _atom_site_symmetry_multiplicity
 _atom_site_fract_x
 _atom_site_fract_y
 _atom_site_fract_z
 _atom_site_occupancy
  Hf  Hf0  1  0.194521  0.805479  0.453323  1
  Hf  Hf1  1  0.194521  0.389042  0.453323  1
  Hf  Hf2  1  0.610958  0.805479  0.453323  1
  Hf  Hf3  1  0.805479  0.194521  0.546677  1
  Hf  Hf4  1  0.805479  0.610958  0.546677  1
  Hf  Hf5  1  0.389042  0.194521  0.546677  1
  Hf  Hf6  1  0.805479  0.194521  0.953323  1
  Hf  Hf7  1  0.805479  0.610958  0.953323  1
  Hf  Hf8  1  0.389042  0.194521  0.953323  1
  Hf  Hf9  1  0.194521  0.805479  0.046677  1
  Hf  Hf10  1  0.194521  0.389042  0.046677  1
  Hf  Hf11  1  0.610958  0.805479  0.046677  1
  Hf  Hf12  1  0.540429  0.459571  0.250000  1
  Hf  Hf13  1  0.540429  0.080857  0.250000  1
  Hf  Hf14  1  0.919143  0.459571  0.250000  1
  Hf  Hf15  1  0.459571  0.540429  0.750000  1
  Hf  Hf16  1  0.459571  0.919143  0.750000  1
  Hf  Hf17  1  0.080857  0.540429  0.750000  1
  Ga  Ga18  1  0.333333  0.666667  0.250000  1
  Ga  Ga19  1  0.666667  0.333333  0.750000  1
  Re  Re20  1  0.890750  0.109250  0.250000  1
  Re  Re21  1  0.890750  0.781500  0.250000  1
  Re  Re22  1  0.218500  0.109250  0.250000  1
  Re  Re23  1  0.109250  0.890750  0.750000  1
  Re  Re24  1  0.109250  0.218500  0.750000  1
  Re  Re25  1  0.781500  0.890750  0.750000  1
  Re  Re26  1  0.000000  0.000000  0.500000  1
  Re  Re27  1  0.000000  0.000000  0.000000  1
