# generated using pymatgen
data_Y3Al3Ga2Cu
_symmetry_space_group_name_H-M   'P 1'
_cell_length_a   6.96930400
_cell_length_b   6.96930373
_cell_length_c   4.27451000
_cell_angle_alpha   90.00000000
_cell_angle_beta   90.00000000
_cell_angle_gamma   120.00000128
_symmetry_Int_Tables_number   1
_chemical_formula_structural   Y3Al3Ga2Cu
_chemical_formula_sum   'Y3 Al3 Ga2 Cu1'
_cell_volume   179.80251591
_cell_formula_units_Z   1
loop_
 _symmetry_equiv_pos_site_id
 _symmetry_equiv_pos_as_xyz
  1  'x, y, z'
loop_
 _atom_site_type_symbol
 _atom_site_label
 _atom_site_symmetry_multiplicity
 _atom_site_fract_x
 _atom_site_fract_y
 _atom_site_fract_z
 _atom_site_occupancy
  Y  Y0  1  0.000000  0.410987  0.500000  1
  Y  Y1  1  0.589013  0.589013  0.500000  1
  Y  Y2  1  0.410987  0.000000  0.500000  1
  Al  Al3  1  0.000000  0.764614  0.000000  1
  Al  Al4  1  0.235386  0.235386  0.000000  1
  Al  Al5  1  0.764614  0.000000  0.000000  1
  Ga  Ga6  1  0.333333  0.666667  0.000000  1
  Ga  Ga7  1  0.666667  0.333333  0.000000  1
  Cu  Cu8  1  0.000000  0.000000  0.500000  1
