# generated using pymatgen
data_CeDy3ZrIr3
_symmetry_space_group_name_H-M   'P 1'
_cell_length_a   10.91872500
_cell_length_b   10.99175700
_cell_length_c   6.24972200
_cell_angle_alpha   90.00000000
_cell_angle_beta   90.00000000
_cell_angle_gamma   90.00000000
_symmetry_Int_Tables_number   1
_chemical_formula_structural   CeDy3ZrIr3
_chemical_formula_sum   'Ce4 Dy12 Zr4 Ir12'
_cell_volume   750.06646025
_cell_formula_units_Z   4
loop_
 _symmetry_equiv_pos_site_id
 _symmetry_equiv_pos_as_xyz
  1  'x, y, z'
loop_
 _atom_site_type_symbol
 _atom_site_label
 _atom_site_symmetry_multiplicity
 _atom_site_fract_x
 _atom_site_fract_y
 _atom_site_fract_z
 _atom_site_occupancy
  Ce  Ce0  1  0.291906  0.088586  0.375505  1
  Ce  Ce1  1  0.291906  0.911414  0.875505  1
  Ce  Ce2  1  0.708094  0.088586  0.875505  1
  Ce  Ce3  1  0.708094  0.911414  0.375505  1
  Dy  Dy4  1  0.586937  0.784505  0.874875  1
  Dy  Dy5  1  0.586937  0.215495  0.374875  1
  Dy  Dy6  1  0.413063  0.784505  0.374875  1
  Dy  Dy7  1  0.413063  0.215495  0.874875  1
  Dy  Dy8  1  0.208739  0.414161  0.625842  1
  Dy  Dy9  1  0.208739  0.585839  0.125842  1
  Dy  Dy10  1  0.791261  0.414161  0.125842  1
  Dy  Dy11  1  0.791261  0.585839  0.625842  1
  Dy  Dy12  1  0.913452  0.710797  0.123525  1
  Dy  Dy13  1  0.913452  0.289203  0.623525  1
  Dy  Dy14  1  0.086548  0.710797  0.623525  1
  Dy  Dy15  1  0.086548  0.289203  0.123525  1
  Zr  Zr16  1  0.000000  0.000000  0.496742  1
  Zr  Zr17  1  0.000000  0.000000  0.996742  1
  Zr  Zr18  1  0.500000  0.500000  0.006815  1
  Zr  Zr19  1  0.500000  0.500000  0.506815  1
  Ir  Ir20  1  0.852069  0.142763  0.243543  1
  Ir  Ir21  1  0.852069  0.857237  0.743543  1
  Ir  Ir22  1  0.147931  0.142763  0.743543  1
  Ir  Ir23  1  0.147931  0.857237  0.243543  1
  Ir  Ir24  1  0.644587  0.355262  0.755642  1
  Ir  Ir25  1  0.644587  0.644738  0.255642  1
  Ir  Ir26  1  0.355413  0.355262  0.255642  1
  Ir  Ir27  1  0.355413  0.644738  0.755642  1
  Ir  Ir28  1  0.500000  0.000000  0.116070  1
  Ir  Ir29  1  0.500000  0.000000  0.616070  1
  Ir  Ir30  1  0.000000  0.500000  0.882510  1
  Ir  Ir31  1  0.000000  0.500000  0.382510  1
