# generated using pymatgen
data_Tb4Tc2(OsRu)3
_symmetry_space_group_name_H-M   'P 1'
_cell_length_a   5.23508274
_cell_length_b   5.16917899
_cell_length_c   9.14330800
_cell_angle_alpha   90.00000000
_cell_angle_beta   90.00000000
_cell_angle_gamma   117.45800561
_symmetry_Int_Tables_number   1
_chemical_formula_structural   Tb4Tc2(OsRu)3
_chemical_formula_sum   'Tb4 Tc2 Os3 Ru3'
_cell_volume   219.55480637
_cell_formula_units_Z   1
loop_
 _symmetry_equiv_pos_site_id
 _symmetry_equiv_pos_as_xyz
  1  'x, y, z'
loop_
 _atom_site_type_symbol
 _atom_site_label
 _atom_site_symmetry_multiplicity
 _atom_site_fract_x
 _atom_site_fract_y
 _atom_site_fract_z
 _atom_site_occupancy
  Tb  Tb0  1  0.331806  0.667231  0.434476  1
  Tb  Tb1  1  0.669923  0.333577  0.565764  1
  Tb  Tb2  1  0.669923  0.333577  0.934236  1
  Tb  Tb3  1  0.331806  0.667231  0.065524  1
  Tc  Tc4  1  0.829238  0.168232  0.250000  1
  Tc  Tc5  1  0.163950  0.828753  0.750000  1
  Os  Os6  1  0.829470  0.659986  0.250000  1
  Os  Os7  1  0.340556  0.169972  0.250000  1
  Os  Os8  1  0.164297  0.336134  0.750000  1
  Ru  Ru9  1  0.009422  0.004823  0.500729  1
  Ru  Ru10  1  0.009422  0.004823  0.999271  1
  Ru  Ru11  1  0.650186  0.825663  0.750000  1
