# generated using pymatgen
data_LaNd11(PtBr3)4
_symmetry_space_group_name_H-M   'P 1'
_cell_length_a   10.56651833
_cell_length_b   10.56439684
_cell_length_c   10.59715329
_cell_angle_alpha   109.53323469
_cell_angle_beta   109.53037220
_cell_angle_gamma   109.40467159
_symmetry_Int_Tables_number   1
_chemical_formula_structural   LaNd11(PtBr3)4
_chemical_formula_sum   'La1 Nd11 Pt4 Br12'
_cell_volume   910.01872814
_cell_formula_units_Z   1
loop_
 _symmetry_equiv_pos_site_id
 _symmetry_equiv_pos_as_xyz
  1  'x, y, z'
loop_
 _atom_site_type_symbol
 _atom_site_label
 _atom_site_symmetry_multiplicity
 _atom_site_fract_x
 _atom_site_fract_y
 _atom_site_fract_z
 _atom_site_occupancy
  La  La0  1  0.028353  0.264176  0.014176  1
  Nd  Nd1  1  0.265971  0.751679  0.235153  1
  Nd  Nd2  1  0.483373  0.747543  0.014518  1
  Nd  Nd3  1  0.235536  0.470331  0.486161  1
  Nd  Nd4  1  0.014749  0.030949  0.266519  1
  Nd  Nd5  1  0.235536  0.265206  0.749375  1
  Nd  Nd6  1  0.014749  0.483800  0.748230  1
  Nd  Nd7  1  0.483373  0.235831  0.468856  1
  Nd  Nd8  1  0.265971  0.014292  0.030817  1
  Nd  Nd9  1  0.748700  0.234139  0.265381  1
  Nd  Nd10  1  0.748700  0.014561  0.483319  1
  Nd  Nd11  1  0.471830  0.485915  0.235915  1
  Pt  Pt12  1  0.500076  0.000039  0.250039  1
  Pt  Pt13  1  0.249831  0.499253  0.000182  1
  Pt  Pt14  1  0.999982  0.249991  0.499991  1
  Pt  Pt15  1  0.249831  0.250579  0.249650  1
  Br  Br16  1  0.249976  0.996917  0.503330  1
  Br  Br17  1  0.507774  0.503887  0.753887  1
  Br  Br18  1  0.249976  0.753059  0.746646  1
  Br  Br19  1  0.993139  0.746569  0.996569  1
  Br  Br20  1  0.000081  0.508450  0.255629  1
  Br  Br21  1  0.743568  0.993425  0.994297  1
  Br  Br22  1  0.753647  0.746380  0.250447  1
  Br  Br23  1  0.503988  0.753838  0.506661  1
  Br  Br24  1  0.503988  0.250150  0.997328  1
  Br  Br25  1  0.753647  0.507267  0.503201  1
  Br  Br26  1  0.743568  0.250144  0.749272  1
  Br  Br27  1  0.000081  0.991632  0.744453  1
