# generated using pymatgen
data_Nd8TmHfIr6
_symmetry_space_group_name_H-M   'P 1'
_cell_length_a   11.19826700
_cell_length_b   11.19826700
_cell_length_c   6.43053600
_cell_angle_alpha   90.00000000
_cell_angle_beta   90.00000000
_cell_angle_gamma   90.00000000
_symmetry_Int_Tables_number   1
_chemical_formula_structural   Nd8TmHfIr6
_chemical_formula_sum   'Nd16 Tm2 Hf2 Ir12'
_cell_volume   806.39682689
_cell_formula_units_Z   2
loop_
 _symmetry_equiv_pos_site_id
 _symmetry_equiv_pos_as_xyz
  1  'x, y, z'
loop_
 _atom_site_type_symbol
 _atom_site_label
 _atom_site_symmetry_multiplicity
 _atom_site_fract_x
 _atom_site_fract_y
 _atom_site_fract_z
 _atom_site_occupancy
  Nd  Nd0  1  0.286457  0.086673  0.378880  1
  Nd  Nd1  1  0.286457  0.913327  0.878880  1
  Nd  Nd2  1  0.713543  0.086673  0.878880  1
  Nd  Nd3  1  0.713543  0.913327  0.378880  1
  Nd  Nd4  1  0.585952  0.789182  0.880533  1
  Nd  Nd5  1  0.585952  0.210818  0.380533  1
  Nd  Nd6  1  0.414048  0.789182  0.380533  1
  Nd  Nd7  1  0.414048  0.210818  0.880533  1
  Nd  Nd8  1  0.210818  0.414048  0.619467  1
  Nd  Nd9  1  0.210818  0.585952  0.119467  1
  Nd  Nd10  1  0.789182  0.414048  0.119467  1
  Nd  Nd11  1  0.789182  0.585952  0.619467  1
  Nd  Nd12  1  0.913327  0.713543  0.121120  1
  Nd  Nd13  1  0.913327  0.286457  0.621120  1
  Nd  Nd14  1  0.086673  0.713543  0.621120  1
  Nd  Nd15  1  0.086673  0.286457  0.121120  1
  Tm  Tm16  1  0.500000  0.500000  0.000000  1
  Tm  Tm17  1  0.500000  0.500000  0.500000  1
  Hf  Hf18  1  0.000000  0.000000  0.500000  1
  Hf  Hf19  1  0.000000  0.000000  0.000000  1
  Ir  Ir20  1  0.864346  0.135654  0.250000  1
  Ir  Ir21  1  0.864346  0.864346  0.750000  1
  Ir  Ir22  1  0.135654  0.135654  0.750000  1
  Ir  Ir23  1  0.135654  0.864346  0.250000  1
  Ir  Ir24  1  0.648777  0.351223  0.750000  1
  Ir  Ir25  1  0.648777  0.648777  0.250000  1
  Ir  Ir26  1  0.351223  0.351223  0.250000  1
  Ir  Ir27  1  0.351223  0.648777  0.750000  1
  Ir  Ir28  1  0.500000  0.000000  0.119313  1
  Ir  Ir29  1  0.500000  0.000000  0.619313  1
  Ir  Ir30  1  0.000000  0.500000  0.880687  1
  Ir  Ir31  1  0.000000  0.500000  0.380687  1
