# generated using pymatgen
data_Dy3Ga5Cu6
_symmetry_space_group_name_H-M   'P 1'
_cell_length_a   7.94108194
_cell_length_b   7.94108350
_cell_length_c   7.94108250
_cell_angle_alpha   148.56181730
_cell_angle_beta   113.62256618
_cell_angle_gamma   75.29079895
_symmetry_Int_Tables_number   1
_chemical_formula_structural   Dy3Ga5Cu6
_chemical_formula_sum   'Dy3 Ga5 Cu6'
_cell_volume   235.21468966
_cell_formula_units_Z   1
loop_
 _symmetry_equiv_pos_site_id
 _symmetry_equiv_pos_as_xyz
  1  'x, y, z'
loop_
 _atom_site_type_symbol
 _atom_site_label
 _atom_site_symmetry_multiplicity
 _atom_site_fract_x
 _atom_site_fract_y
 _atom_site_fract_z
 _atom_site_occupancy
  Dy  Dy0  1  0.000000  0.000000  0.000000  1
  Dy  Dy1  1  0.697476  0.697476  0.000000  1
  Dy  Dy2  1  0.302524  0.302524  0.000000  1
  Ga  Ga3  1  0.309490  0.663066  0.646424  1
  Ga  Ga4  1  0.500000  0.000000  0.500000  1
  Ga  Ga5  1  0.690510  0.336934  0.353576  1
  Ga  Ga6  1  0.983358  0.336934  0.646424  1
  Ga  Ga7  1  0.016642  0.663066  0.353576  1
  Cu  Cu8  1  0.311366  0.500000  0.811366  1
  Cu  Cu9  1  0.688634  0.500000  0.188634  1
  Cu  Cu10  1  0.410001  0.130748  0.279252  1
  Cu  Cu11  1  0.851496  0.130748  0.720748  1
  Cu  Cu12  1  0.148504  0.869252  0.279252  1
  Cu  Cu13  1  0.589999  0.869252  0.720748  1
