# generated using pymatgen
data_Li3DyY4(P3Ir4)4
_symmetry_space_group_name_H-M   'P 1'
_cell_length_a   12.70558000
_cell_length_b   12.70494293
_cell_length_c   3.98197500
_cell_angle_alpha   90.00000000
_cell_angle_beta   90.00000000
_cell_angle_gamma   120.00165353
_symmetry_Int_Tables_number   1
_chemical_formula_structural   Li3DyY4(P3Ir4)4
_chemical_formula_sum   'Li3 Dy1 Y4 P12 Ir16'
_cell_volume   556.65887558
_cell_formula_units_Z   1
loop_
 _symmetry_equiv_pos_site_id
 _symmetry_equiv_pos_as_xyz
  1  'x, y, z'
loop_
 _atom_site_type_symbol
 _atom_site_label
 _atom_site_symmetry_multiplicity
 _atom_site_fract_x
 _atom_site_fract_y
 _atom_site_fract_z
 _atom_site_occupancy
  Li  Li0  1  0.000001  0.442126  0.500000  1
  Li  Li1  1  0.557876  0.557874  0.500000  1
  Li  Li2  1  0.442137  0.000000  0.500000  1
  Dy  Dy3  1  0.809198  0.000000  0.000000  1
  Y  Y4  1  0.333341  0.666675  0.500000  1
  Y  Y5  1  0.666666  0.333325  0.500000  1
  Y  Y6  1  0.000006  0.809147  0.000000  1
  Y  Y7  1  0.190860  0.190853  0.000000  1
  P  P8  1  0.999999  0.629902  0.500000  1
  P  P9  1  0.370097  0.370098  0.500000  1
  P  P10  1  0.630042  0.000000  0.500000  1
  P  P11  1  0.516480  0.687301  0.000000  1
  P  P12  1  0.312714  0.829192  0.000000  1
  P  P13  1  0.170824  0.483508  0.000000  1
  P  P14  1  0.483522  0.170808  0.000000  1
  P  P15  1  0.687315  0.516492  0.000000  1
  P  P16  1  0.829179  0.312699  0.000000  1
  P  P17  1  0.999846  0.179599  0.500000  1
  P  P18  1  0.820247  0.820401  0.500000  1
  P  P19  1  0.179660  0.000000  0.500000  1
  Ir  Ir20  1  0.509833  0.868508  0.000000  1
  Ir  Ir21  1  0.131495  0.641287  0.000000  1
  Ir  Ir22  1  0.358695  0.490195  0.000000  1
  Ir  Ir23  1  0.490209  0.358713  0.000000  1
  Ir  Ir24  1  0.868501  0.509805  0.000000  1
  Ir  Ir25  1  0.641327  0.131492  0.000000  1
  Ir  Ir26  1  0.999944  0.280429  0.000000  1
  Ir  Ir27  1  0.719515  0.719571  0.000000  1
  Ir  Ir28  1  0.280506  0.000000  0.000000  1
  Ir  Ir29  1  0.627050  0.807269  0.500000  1
  Ir  Ir30  1  0.192894  0.819777  0.500000  1
  Ir  Ir31  1  0.180186  0.373102  0.500000  1
  Ir  Ir32  1  0.373117  0.180223  0.500000  1
  Ir  Ir33  1  0.807085  0.626898  0.500000  1
  Ir  Ir34  1  0.819781  0.192731  0.500000  1
  Ir  Ir35  1  0.999853  0.000000  0.500000  1
