# generated using pymatgen
data_YbSmDy8(In2Pt)4
_symmetry_space_group_name_H-M   'P 1'
_cell_length_a   3.62835700
_cell_length_b   8.20546400
_cell_length_c   18.36765321
_cell_angle_alpha   90.00846315
_cell_angle_beta   90.00000000
_cell_angle_gamma   90.00000000
_symmetry_Int_Tables_number   1
_chemical_formula_structural   YbSmDy8(In2Pt)4
_chemical_formula_sum   'Yb1 Sm1 Dy8 In8 Pt4'
_cell_volume   546.84824446
_cell_formula_units_Z   1
loop_
 _symmetry_equiv_pos_site_id
 _symmetry_equiv_pos_as_xyz
  1  'x, y, z'
loop_
 _atom_site_type_symbol
 _atom_site_label
 _atom_site_symmetry_multiplicity
 _atom_site_fract_x
 _atom_site_fract_y
 _atom_site_fract_z
 _atom_site_occupancy
  Yb  Yb0  1  0.000000  0.000000  0.000000  1
  Sm  Sm1  1  0.000000  0.500000  0.500000  1
  Dy  Dy2  1  0.000000  0.119011  0.414243  1
  Dy  Dy3  1  0.000000  0.880989  0.585757  1
  Dy  Dy4  1  0.000000  0.380801  0.914260  1
  Dy  Dy5  1  0.000000  0.619199  0.085740  1
  Dy  Dy6  1  0.000000  0.242484  0.220049  1
  Dy  Dy7  1  0.000000  0.757516  0.779951  1
  Dy  Dy8  1  0.000000  0.257131  0.720571  1
  Dy  Dy9  1  0.000000  0.742869  0.279429  1
  In  In10  1  0.500000  0.423792  0.349830  1
  In  In11  1  0.500000  0.576208  0.650170  1
  In  In12  1  0.500000  0.074632  0.850956  1
  In  In13  1  0.500000  0.925368  0.149044  1
  In  In14  1  0.500000  0.294329  0.066984  1
  In  In15  1  0.500000  0.705671  0.933016  1
  In  In16  1  0.500000  0.204137  0.567179  1
  In  In17  1  0.500000  0.795863  0.432821  1
  Pt  Pt18  1  0.500000  0.024656  0.303156  1
  Pt  Pt19  1  0.500000  0.975344  0.696844  1
  Pt  Pt20  1  0.500000  0.477269  0.803684  1
  Pt  Pt21  1  0.500000  0.522731  0.196316  1
