# generated using pymatgen
data_Ce(YRu)2
_symmetry_space_group_name_H-M   'P 1'
_cell_length_a   5.88466102
_cell_length_b   5.88466115
_cell_length_c   5.88466147
_cell_angle_alpha   138.24983818
_cell_angle_beta   118.96688970
_cell_angle_gamma   76.68175346
_symmetry_Int_Tables_number   1
_chemical_formula_structural   Ce(YRu)2
_chemical_formula_sum   'Ce1 Y2 Ru2'
_cell_volume   115.68090500
_cell_formula_units_Z   1
loop_
 _symmetry_equiv_pos_site_id
 _symmetry_equiv_pos_as_xyz
  1  'x, y, z'
loop_
 _atom_site_type_symbol
 _atom_site_label
 _atom_site_symmetry_multiplicity
 _atom_site_fract_x
 _atom_site_fract_y
 _atom_site_fract_z
 _atom_site_occupancy
  Ce  Ce0  1  0.000000  0.000000  0.000000  1
  Y  Y1  1  0.690486  0.190486  0.500000  1
  Y  Y2  1  0.309514  0.809513  0.500000  1
  Ru  Ru3  1  0.744601  0.500000  0.244601  1
  Ru  Ru4  1  0.255399  0.500000  0.755398  1
