# generated using pymatgen
data_Tm8Lu12Si15Sb
_symmetry_space_group_name_H-M   'P 1'
_cell_length_a   7.34421088
_cell_length_b   7.55018078
_cell_length_c   14.34418810
_cell_angle_alpha   90.07501946
_cell_angle_beta   87.15338051
_cell_angle_gamma   90.11120650
_symmetry_Int_Tables_number   1
_chemical_formula_structural   Tm8Lu12Si15Sb
_chemical_formula_sum   'Tm8 Lu12 Si15 Sb1'
_cell_volume   794.40340684
_cell_formula_units_Z   1
loop_
 _symmetry_equiv_pos_site_id
 _symmetry_equiv_pos_as_xyz
  1  'x, y, z'
loop_
 _atom_site_type_symbol
 _atom_site_label
 _atom_site_symmetry_multiplicity
 _atom_site_fract_x
 _atom_site_fract_y
 _atom_site_fract_z
 _atom_site_occupancy
  Tm  Tm0  1  0.017350  0.180872  0.097411  1
  Tm  Tm1  1  0.982245  0.820014  0.902572  1
  Tm  Tm2  1  0.482999  0.679855  0.902715  1
  Tm  Tm3  1  0.998956  0.826927  0.599028  1
  Tm  Tm4  1  0.517461  0.319877  0.098339  1
  Tm  Tm5  1  0.996469  0.174949  0.400281  1
  Tm  Tm6  1  0.506467  0.315571  0.398655  1
  Tm  Tm7  1  0.514082  0.685550  0.601582  1
  Lu  Lu8  1  0.167715  0.505691  0.752682  1
  Lu  Lu9  1  0.830807  0.492659  0.252727  1
  Lu  Lu10  1  0.330739  0.009047  0.251939  1
  Lu  Lu11  1  0.671613  0.992226  0.749712  1
  Lu  Lu12  1  0.353894  0.156508  0.626291  1
  Lu  Lu13  1  0.650276  0.829454  0.376753  1
  Lu  Lu14  1  0.145990  0.681164  0.372008  1
  Lu  Lu15  1  0.669513  0.821740  0.122450  1
  Lu  Lu16  1  0.838340  0.327946  0.623338  1
  Lu  Lu17  1  0.328832  0.176958  0.877123  1
  Lu  Lu18  1  0.828983  0.322034  0.876958  1
  Lu  Lu19  1  0.169940  0.678612  0.123123  1
  Si  Si20  1  0.041247  0.110886  0.751425  1
  Si  Si21  1  0.956545  0.893561  0.246303  1
  Si  Si22  1  0.457508  0.608635  0.248110  1
  Si  Si23  1  0.539146  0.391588  0.752126  1
  Si  Si24  1  0.291073  0.864601  0.753764  1
  Si  Si25  1  0.711301  0.130458  0.246218  1
  Si  Si26  1  0.210308  0.370425  0.247791  1
  Si  Si27  1  0.791960  0.631920  0.752382  1
  Si  Si28  1  0.800092  0.535497  0.457681  1
  Si  Si29  1  0.306954  0.967026  0.457827  1
  Si  Si30  1  0.846628  0.530249  0.040143  1
  Si  Si31  1  0.694062  0.033456  0.541344  1
  Si  Si32  1  0.152190  0.469861  0.960400  1
  Si  Si33  1  0.652358  0.030076  0.959724  1
  Si  Si34  1  0.346694  0.971127  0.040931  1
  Sb  Sb35  1  0.199261  0.462976  0.538148  1
