# generated using pymatgen
data_Tm4Sc3AlRu4
_symmetry_space_group_name_H-M   'P 1'
_cell_length_a   4.05679400
_cell_length_b   7.17360953
_cell_length_c   8.48163274
_cell_angle_alpha   89.86250516
_cell_angle_beta   90.00000000
_cell_angle_gamma   90.00000000
_symmetry_Int_Tables_number   1
_chemical_formula_structural   Tm4Sc3AlRu4
_chemical_formula_sum   'Tm4 Sc3 Al1 Ru4'
_cell_volume   246.83054474
_cell_formula_units_Z   1
loop_
 _symmetry_equiv_pos_site_id
 _symmetry_equiv_pos_as_xyz
  1  'x, y, z'
loop_
 _atom_site_type_symbol
 _atom_site_label
 _atom_site_symmetry_multiplicity
 _atom_site_fract_x
 _atom_site_fract_y
 _atom_site_fract_z
 _atom_site_occupancy
  Tm  Tm0  1  0.250000  0.044402  0.667941  1
  Tm  Tm1  1  0.250000  0.518542  0.817601  1
  Tm  Tm2  1  0.750000  0.976295  0.332814  1
  Tm  Tm3  1  0.750000  0.471097  0.175712  1
  Sc  Sc4  1  0.250000  0.141533  0.059358  1
  Sc  Sc5  1  0.250000  0.636111  0.447053  1
  Sc  Sc6  1  0.750000  0.852368  0.937597  1
  Al  Al7  1  0.750000  0.361654  0.558813  1
  Ru  Ru8  1  0.250000  0.269849  0.378803  1
  Ru  Ru9  1  0.250000  0.761977  0.128975  1
  Ru  Ru10  1  0.750000  0.731363  0.627882  1
  Ru  Ru11  1  0.750000  0.234807  0.867454  1
