# generated using pymatgen
data_La4YbSi3
_symmetry_space_group_name_H-M   'P 1'
_cell_length_a   8.99056241
_cell_length_b   8.99056240
_cell_length_c   8.99056147
_cell_angle_alpha   127.80908356
_cell_angle_beta   127.80908501
_cell_angle_gamma   76.93450872
_symmetry_Int_Tables_number   1
_chemical_formula_structural   La4YbSi3
_chemical_formula_sum   'La8 Yb2 Si6'
_cell_volume   440.35902852
_cell_formula_units_Z   2
loop_
 _symmetry_equiv_pos_site_id
 _symmetry_equiv_pos_as_xyz
  1  'x, y, z'
loop_
 _atom_site_type_symbol
 _atom_site_label
 _atom_site_symmetry_multiplicity
 _atom_site_fract_x
 _atom_site_fract_y
 _atom_site_fract_z
 _atom_site_occupancy
  La  La0  1  0.032260  0.173662  0.500000  1
  La  La1  1  0.532260  0.032260  0.858598  1
  La  La2  1  0.173662  0.673662  0.141402  1
  La  La3  1  0.467740  0.967740  0.141402  1
  La  La4  1  0.673662  0.532260  0.500000  1
  La  La5  1  0.967740  0.826338  0.500000  1
  La  La6  1  0.326338  0.467740  0.500000  1
  La  La7  1  0.826338  0.326338  0.858598  1
  Yb  Yb8  1  0.500000  0.500000  0.000000  1
  Yb  Yb9  1  0.000000  0.000000  0.000000  1
  Si  Si10  1  0.112635  0.612635  0.725270  1
  Si  Si11  1  0.612635  0.887365  0.500000  1
  Si  Si12  1  0.387365  0.112635  0.500000  1
  Si  Si13  1  0.887365  0.387365  0.274730  1
  Si  Si14  1  0.750000  0.750000  0.000000  1
  Si  Si15  1  0.250000  0.250000  0.000000  1
