# generated using pymatgen
data_Tb3Tm7(LuOs2)2
_symmetry_space_group_name_H-M   'P 1'
_cell_length_a   7.37305568
_cell_length_b   8.89276222
_cell_length_c   6.24911237
_cell_angle_alpha   90.13533265
_cell_angle_beta   89.89694304
_cell_angle_gamma   89.98994950
_symmetry_Int_Tables_number   1
_chemical_formula_structural   Tb3Tm7(LuOs2)2
_chemical_formula_sum   'Tb3 Tm7 Lu2 Os4'
_cell_volume   409.73268240
_cell_formula_units_Z   1
loop_
 _symmetry_equiv_pos_site_id
 _symmetry_equiv_pos_as_xyz
  1  'x, y, z'
loop_
 _atom_site_type_symbol
 _atom_site_label
 _atom_site_symmetry_multiplicity
 _atom_site_fract_x
 _atom_site_fract_y
 _atom_site_fract_z
 _atom_site_occupancy
  Tb  Tb0  1  0.539220  0.250108  0.872998  1
  Tb  Tb1  1  0.039506  0.249926  0.627408  1
  Tb  Tb2  1  0.460638  0.750000  0.128371  1
  Tm  Tm3  1  0.675657  0.062588  0.335274  1
  Tm  Tm4  1  0.173507  0.437697  0.165751  1
  Tm  Tm5  1  0.324965  0.562834  0.663816  1
  Tm  Tm6  1  0.826005  0.936901  0.834058  1
  Tm  Tm7  1  0.324637  0.937199  0.664123  1
  Tm  Tm8  1  0.825636  0.563042  0.833745  1
  Tm  Tm9  1  0.960462  0.749981  0.371549  1
  Lu  Lu10  1  0.675345  0.437543  0.335395  1
  Lu  Lu11  1  0.173121  0.062194  0.165581  1
  Os  Os12  1  0.883149  0.250020  0.043735  1
  Os  Os13  1  0.382989  0.249947  0.456184  1
  Os  Os14  1  0.116278  0.750420  0.960723  1
  Os  Os15  1  0.618883  0.749600  0.541290  1
