# generated using pymatgen
data_LaSm7(SiBr6)2
_symmetry_space_group_name_H-M   'P 1'
_cell_length_a   4.17643900
_cell_length_b   13.62570540
_cell_length_c   14.40703138
_cell_angle_alpha   90.74320131
_cell_angle_beta   90.00000000
_cell_angle_gamma   90.00000000
_symmetry_Int_Tables_number   1
_chemical_formula_structural   LaSm7(SiBr6)2
_chemical_formula_sum   'La1 Sm7 Si2 Br12'
_cell_volume   819.79091741
_cell_formula_units_Z   1
loop_
 _symmetry_equiv_pos_site_id
 _symmetry_equiv_pos_as_xyz
  1  'x, y, z'
loop_
 _atom_site_type_symbol
 _atom_site_label
 _atom_site_symmetry_multiplicity
 _atom_site_fract_x
 _atom_site_fract_y
 _atom_site_fract_z
 _atom_site_occupancy
  La  La0  1  0.000000  0.377451  0.081366  1
  Sm  Sm1  1  0.500000  0.115254  0.344097  1
  Sm  Sm2  1  0.500000  0.881607  0.659337  1
  Sm  Sm3  1  0.500000  0.622106  0.157955  1
  Sm  Sm4  1  0.500000  0.383751  0.838108  1
  Sm  Sm5  1  0.000000  0.117458  0.579967  1
  Sm  Sm6  1  0.000000  0.881446  0.421771  1
  Sm  Sm7  1  0.000000  0.619265  0.920772  1
  Si  Si8  1  0.500000  0.998721  0.501889  1
  Si  Si9  1  0.500000  0.501157  0.999238  1
  Br  Br10  1  0.500000  0.236481  0.168646  1
  Br  Br11  1  0.500000  0.753843  0.833915  1
  Br  Br12  1  0.500000  0.748762  0.335171  1
  Br  Br13  1  0.500000  0.252443  0.663836  1
  Br  Br14  1  0.000000  0.251371  0.414251  1
  Br  Br15  1  0.000000  0.747166  0.586645  1
  Br  Br16  1  0.000000  0.755521  0.087433  1
  Br  Br17  1  0.000000  0.247021  0.902638  1
  Br  Br18  1  0.000000  0.999132  0.246709  1
  Br  Br19  1  0.000000  0.998916  0.755046  1
  Br  Br20  1  0.000000  0.512039  0.257836  1
  Br  Br21  1  0.000000  0.499088  0.743375  1
