# generated using pymatgen
data_GdRhF7
_symmetry_space_group_name_H-M   'P 1'
_cell_length_a   5.62352900
_cell_length_b   9.05267032
_cell_length_c   12.08859000
_cell_angle_alpha   63.20770553
_cell_angle_beta   90.00000000
_cell_angle_gamma   90.00000000
_symmetry_Int_Tables_number   1
_chemical_formula_structural   GdRhF7
_chemical_formula_sum   'Gd4 Rh4 F28'
_cell_volume   549.33943015
_cell_formula_units_Z   4
loop_
 _symmetry_equiv_pos_site_id
 _symmetry_equiv_pos_as_xyz
  1  'x, y, z'
loop_
 _atom_site_type_symbol
 _atom_site_label
 _atom_site_symmetry_multiplicity
 _atom_site_fract_x
 _atom_site_fract_y
 _atom_site_fract_z
 _atom_site_occupancy
  Gd  Gd0  1  0.759846  0.810721  0.267932  1
  Gd  Gd1  1  0.259846  0.189279  0.232068  1
  Gd  Gd2  1  0.240154  0.189279  0.732068  1
  Gd  Gd3  1  0.740154  0.810721  0.767932  1
  Rh  Rh4  1  0.244226  0.726599  0.544755  1
  Rh  Rh5  1  0.744226  0.273401  0.955245  1
  Rh  Rh6  1  0.755774  0.273401  0.455245  1
  Rh  Rh7  1  0.255774  0.726599  0.044755  1
  F  F8  1  0.956682  0.716476  0.455872  1
  F  F9  1  0.456682  0.283524  0.044128  1
  F  F10  1  0.043318  0.283524  0.544128  1
  F  F11  1  0.543318  0.716476  0.955872  1
  F  F12  1  0.054707  0.706477  0.920483  1
  F  F13  1  0.554707  0.293523  0.579517  1
  F  F14  1  0.945293  0.293523  0.079517  1
  F  F15  1  0.445293  0.706477  0.420483  1
  F  F16  1  0.735138  0.512098  0.860310  1
  F  F17  1  0.235138  0.487902  0.639690  1
  F  F18  1  0.264862  0.487902  0.139690  1
  F  F19  1  0.764862  0.512098  0.360310  1
  F  F20  1  0.742781  0.035579  0.047627  1
  F  F21  1  0.242781  0.964421  0.452373  1
  F  F22  1  0.257219  0.964421  0.952373  1
  F  F23  1  0.757219  0.035579  0.547627  1
  F  F24  1  0.045888  0.746542  0.670985  1
  F  F25  1  0.545888  0.253458  0.829015  1
  F  F26  1  0.954112  0.253458  0.329015  1
  F  F27  1  0.454112  0.746542  0.170985  1
  F  F28  1  0.026383  0.268379  0.862005  1
  F  F29  1  0.526383  0.731621  0.637995  1
  F  F30  1  0.973617  0.731621  0.137995  1
  F  F31  1  0.473617  0.268379  0.362005  1
  F  F32  1  0.081382  0.971625  0.231894  1
  F  F33  1  0.581382  0.028375  0.268106  1
  F  F34  1  0.918618  0.028375  0.768106  1
  F  F35  1  0.418618  0.971625  0.731894  1
