# generated using pymatgen
data_YbHo(ThPd6)2
_symmetry_space_group_name_H-M   'P 1'
_cell_length_a   5.88602900
_cell_length_b   5.88602683
_cell_length_c   9.63454300
_cell_angle_alpha   90.00000000
_cell_angle_beta   90.00000000
_cell_angle_gamma   119.99999534
_symmetry_Int_Tables_number   1
_chemical_formula_structural   YbHo(ThPd6)2
_chemical_formula_sum   'Yb1 Ho1 Th2 Pd12'
_cell_volume   289.07225228
_cell_formula_units_Z   1
loop_
 _symmetry_equiv_pos_site_id
 _symmetry_equiv_pos_as_xyz
  1  'x, y, z'
loop_
 _atom_site_type_symbol
 _atom_site_label
 _atom_site_symmetry_multiplicity
 _atom_site_fract_x
 _atom_site_fract_y
 _atom_site_fract_z
 _atom_site_occupancy
  Yb  Yb0  1  0.666667  0.333333  0.750000  1
  Ho  Ho1  1  0.333333  0.666667  0.250000  1
  Th  Th2  1  0.000000  0.000000  0.502592  1
  Th  Th3  1  0.000000  0.000000  0.997408  1
  Pd  Pd4  1  0.499826  0.500174  0.499739  1
  Pd  Pd5  1  0.499826  0.999652  0.499739  1
  Pd  Pd6  1  0.000348  0.500174  0.499739  1
  Pd  Pd7  1  0.499826  0.500174  0.000261  1
  Pd  Pd8  1  0.499826  0.999652  0.000261  1
  Pd  Pd9  1  0.000348  0.500174  0.000261  1
  Pd  Pd10  1  0.826222  0.652445  0.250000  1
  Pd  Pd11  1  0.347555  0.173778  0.250000  1
  Pd  Pd12  1  0.826222  0.173778  0.250000  1
  Pd  Pd13  1  0.173354  0.346708  0.750000  1
  Pd  Pd14  1  0.653292  0.826646  0.750000  1
  Pd  Pd15  1  0.173354  0.826646  0.750000  1
