# generated using pymatgen
data_HoTm2Fe4Co5P6
_symmetry_space_group_name_H-M   'P 1'
_cell_length_a   3.69452500
_cell_length_b   10.50187900
_cell_length_c   12.08334500
_cell_angle_alpha   90.00000000
_cell_angle_beta   90.00000000
_cell_angle_gamma   90.00000000
_symmetry_Int_Tables_number   1
_chemical_formula_structural   HoTm2Fe4Co5P6
_chemical_formula_sum   'Ho2 Tm4 Fe8 Co10 P12'
_cell_volume   468.82719469
_cell_formula_units_Z   2
loop_
 _symmetry_equiv_pos_site_id
 _symmetry_equiv_pos_as_xyz
  1  'x, y, z'
loop_
 _atom_site_type_symbol
 _atom_site_label
 _atom_site_symmetry_multiplicity
 _atom_site_fract_x
 _atom_site_fract_y
 _atom_site_fract_z
 _atom_site_occupancy
  Ho  Ho0  1  0.000000  0.500000  0.523228  1
  Ho  Ho1  1  0.500000  0.000000  0.476772  1
  Tm  Tm2  1  0.500000  0.819095  0.205228  1
  Tm  Tm3  1  0.500000  0.180905  0.205228  1
  Tm  Tm4  1  0.000000  0.680905  0.794772  1
  Tm  Tm5  1  0.000000  0.319095  0.794772  1
  Fe  Fe6  1  0.000000  0.500000  0.986922  1
  Fe  Fe7  1  0.500000  0.000000  0.013078  1
  Fe  Fe8  1  0.500000  0.298304  0.428709  1
  Fe  Fe9  1  0.500000  0.701696  0.428709  1
  Fe  Fe10  1  0.000000  0.201696  0.571291  1
  Fe  Fe11  1  0.000000  0.798304  0.571291  1
  Fe  Fe12  1  0.500000  0.500000  0.155648  1
  Fe  Fe13  1  0.000000  0.000000  0.844352  1
  Co  Co14  1  0.500000  0.880115  0.711782  1
  Co  Co15  1  0.500000  0.119885  0.711782  1
  Co  Co16  1  0.000000  0.619885  0.288218  1
  Co  Co17  1  0.000000  0.380115  0.288218  1
  Co  Co18  1  0.500000  0.331854  0.993883  1
  Co  Co19  1  0.500000  0.668146  0.993883  1
  Co  Co20  1  0.000000  0.168146  0.006117  1
  Co  Co21  1  0.000000  0.831854  0.006117  1
  Co  Co22  1  0.500000  0.500000  0.700183  1
  Co  Co23  1  0.000000  0.000000  0.299817  1
  P  P24  1  0.500000  0.308009  0.615078  1
  P  P25  1  0.500000  0.691991  0.615078  1
  P  P26  1  0.000000  0.191991  0.384922  1
  P  P27  1  0.000000  0.808009  0.384922  1
  P  P28  1  0.500000  0.500000  0.882499  1
  P  P29  1  0.000000  0.000000  0.117501  1
  P  P30  1  0.500000  0.847612  0.893521  1
  P  P31  1  0.500000  0.152388  0.893521  1
  P  P32  1  0.000000  0.652388  0.106479  1
  P  P33  1  0.000000  0.347612  0.106479  1
  P  P34  1  0.500000  0.500000  0.343053  1
  P  P35  1  0.000000  0.000000  0.656947  1
