# generated using pymatgen
data_Nd16Co3Hg4Ru
_symmetry_space_group_name_H-M   'P 1'
_cell_length_a   9.84868569
_cell_length_b   9.84868512
_cell_length_c   9.84868492
_cell_angle_alpha   59.54360406
_cell_angle_beta   59.54360279
_cell_angle_gamma   59.54360411
_symmetry_Int_Tables_number   1
_chemical_formula_structural   Nd16Co3Hg4Ru
_chemical_formula_sum   'Nd16 Co3 Hg4 Ru1'
_cell_volume   668.48180048
_cell_formula_units_Z   1
loop_
 _symmetry_equiv_pos_site_id
 _symmetry_equiv_pos_as_xyz
  1  'x, y, z'
loop_
 _atom_site_type_symbol
 _atom_site_label
 _atom_site_symmetry_multiplicity
 _atom_site_fract_x
 _atom_site_fract_y
 _atom_site_fract_z
 _atom_site_occupancy
  Nd  Nd0  1  0.596948  0.596948  0.596948  1
  Nd  Nd1  1  0.600092  0.600092  0.205871  1
  Nd  Nd2  1  0.600092  0.205871  0.600092  1
  Nd  Nd3  1  0.205871  0.600092  0.600092  1
  Nd  Nd4  1  0.056519  0.439672  0.439672  1
  Nd  Nd5  1  0.438673  0.059492  0.059492  1
  Nd  Nd6  1  0.439672  0.056519  0.439672  1
  Nd  Nd7  1  0.059492  0.438673  0.059492  1
  Nd  Nd8  1  0.439672  0.439672  0.056519  1
  Nd  Nd9  1  0.059492  0.059492  0.438673  1
  Nd  Nd10  1  0.189042  0.812171  0.812171  1
  Nd  Nd11  1  0.806626  0.190511  0.190511  1
  Nd  Nd12  1  0.812171  0.189042  0.812171  1
  Nd  Nd13  1  0.190511  0.806626  0.190511  1
  Nd  Nd14  1  0.812171  0.812171  0.189042  1
  Nd  Nd15  1  0.190511  0.190511  0.806626  1
  Co  Co16  1  0.392146  0.392146  0.828988  1
  Co  Co17  1  0.392146  0.828988  0.392146  1
  Co  Co18  1  0.828988  0.392146  0.392146  1
  Hg  Hg19  1  0.833117  0.833117  0.833117  1
  Hg  Hg20  1  0.832332  0.832332  0.501451  1
  Hg  Hg21  1  0.832332  0.501451  0.832332  1
  Hg  Hg22  1  0.501451  0.832332  0.832332  1
  Ru  Ru23  1  0.389934  0.389934  0.389934  1
