# generated using pymatgen
data_Y3Ho7(Sn3P)2
_symmetry_space_group_name_H-M   'P 1'
_cell_length_a   9.05130000
_cell_length_b   9.05130196
_cell_length_c   6.67045000
_cell_angle_alpha   90.00000000
_cell_angle_beta   90.00000000
_cell_angle_gamma   119.99999284
_symmetry_Int_Tables_number   1
_chemical_formula_structural   Y3Ho7(Sn3P)2
_chemical_formula_sum   'Y3 Ho7 Sn6 P2'
_cell_volume   473.26872871
_cell_formula_units_Z   1
loop_
 _symmetry_equiv_pos_site_id
 _symmetry_equiv_pos_as_xyz
  1  'x, y, z'
loop_
 _atom_site_type_symbol
 _atom_site_label
 _atom_site_symmetry_multiplicity
 _atom_site_fract_x
 _atom_site_fract_y
 _atom_site_fract_z
 _atom_site_occupancy
  Y  Y0  1  0.666667  0.333333  0.000000  1
  Y  Y1  1  0.333333  0.666667  0.000000  1
  Y  Y2  1  0.333333  0.666667  0.500000  1
  Ho  Ho3  1  0.666667  0.333333  0.500000  1
  Ho  Ho4  1  0.758723  0.758676  0.749933  1
  Ho  Ho5  1  0.241324  0.000048  0.749933  1
  Ho  Ho6  1  0.999952  0.241277  0.749933  1
  Ho  Ho7  1  0.241324  0.241277  0.250067  1
  Ho  Ho8  1  0.758723  0.000048  0.250067  1
  Ho  Ho9  1  0.999952  0.758676  0.250067  1
  Sn  Sn10  1  0.397637  0.397411  0.749761  1
  Sn  Sn11  1  0.602589  0.000226  0.749761  1
  Sn  Sn12  1  0.999774  0.602363  0.749761  1
  Sn  Sn13  1  0.602589  0.602363  0.250239  1
  Sn  Sn14  1  0.397637  0.000226  0.250239  1
  Sn  Sn15  1  0.999774  0.397411  0.250239  1
  P  P16  1  0.000000  0.000000  0.000000  1
  P  P17  1  0.000000  0.000000  0.500000  1
