# generated using pymatgen
data_CaSm3Dy2(Si3Ru)8
_symmetry_space_group_name_H-M   'P 1'
_cell_length_a   10.15505640
_cell_length_b   10.15369262
_cell_length_c   8.18685553
_cell_angle_alpha   90.03846107
_cell_angle_beta   89.93196404
_cell_angle_gamma   132.48134924
_symmetry_Int_Tables_number   1
_chemical_formula_structural   CaSm3Dy2(Si3Ru)8
_chemical_formula_sum   'Ca1 Sm3 Dy2 Si24 Ru8'
_cell_volume   622.56334841
_cell_formula_units_Z   1
loop_
 _symmetry_equiv_pos_site_id
 _symmetry_equiv_pos_as_xyz
  1  'x, y, z'
loop_
 _atom_site_type_symbol
 _atom_site_label
 _atom_site_symmetry_multiplicity
 _atom_site_fract_x
 _atom_site_fract_y
 _atom_site_fract_z
 _atom_site_occupancy
  Ca  Ca0  1  0.500013  0.499969  0.500042  1
  Sm  Sm1  1  0.502118  0.002631  0.749958  1
  Sm  Sm2  1  0.997222  0.497447  0.250050  1
  Sm  Sm3  1  0.497380  0.997089  0.250051  1
  Dy  Dy4  1  0.999932  0.999967  0.999945  1
  Dy  Dy5  1  0.002579  0.502059  0.749951  1
  Si  Si6  1  0.796330  0.205362  0.501148  1
  Si  Si7  1  0.293906  0.703852  0.998870  1
  Si  Si8  1  0.203385  0.794441  0.501092  1
  Si  Si9  1  0.705647  0.295637  0.999235  1
  Si  Si10  1  0.333841  0.333597  0.831701  1
  Si  Si11  1  0.666252  0.666295  0.168383  1
  Si  Si12  1  0.169266  0.169213  0.334253  1
  Si  Si13  1  0.830634  0.830962  0.665467  1
  Si  Si14  1  0.122001  0.889148  0.728152  1
  Si  Si15  1  0.111040  0.877763  0.271214  1
  Si  Si16  1  0.610518  0.377447  0.229996  1
  Si  Si17  1  0.622458  0.389995  0.770375  1
  Si  Si18  1  0.876628  0.110157  0.271278  1
  Si  Si19  1  0.890612  0.123763  0.728530  1
  Si  Si20  1  0.388543  0.620888  0.770683  1
  Si  Si21  1  0.378806  0.611457  0.230016  1
  Si  Si22  1  0.346520  0.114557  0.505234  1
  Si  Si23  1  0.886207  0.655138  0.495519  1
  Si  Si24  1  0.387529  0.154488  0.005430  1
  Si  Si25  1  0.843933  0.611537  0.993780  1
  Si  Si26  1  0.653319  0.885232  0.494048  1
  Si  Si27  1  0.114016  0.345429  0.506358  1
  Si  Si28  1  0.612159  0.845205  0.995088  1
  Si  Si29  1  0.156516  0.388623  0.004109  1
  Ru  Ru30  1  0.671573  0.331812  0.501354  1
  Ru  Ru31  1  0.166745  0.829649  0.998537  1
  Ru  Ru32  1  0.328653  0.668432  0.501519  1
  Ru  Ru33  1  0.833091  0.170174  0.998915  1
  Ru  Ru34  1  0.123945  0.123768  0.627827  1
  Ru  Ru35  1  0.876322  0.876589  0.371772  1
  Ru  Ru36  1  0.373557  0.373083  0.124354  1
  Ru  Ru37  1  0.626802  0.627146  0.875767  1
