# generated using pymatgen
data_HoTm3Ga12Tc
_symmetry_space_group_name_H-M   'P 1'
_cell_length_a   7.44608525
_cell_length_b   7.44608549
_cell_length_c   7.43899300
_cell_angle_alpha   109.45192392
_cell_angle_beta   109.45192455
_cell_angle_gamma   109.49050919
_symmetry_Int_Tables_number   1
_chemical_formula_structural   HoTm3Ga12Tc
_chemical_formula_sum   'Ho1 Tm3 Ga12 Tc1'
_cell_volume   317.57891128
_cell_formula_units_Z   1
loop_
 _symmetry_equiv_pos_site_id
 _symmetry_equiv_pos_as_xyz
  1  'x, y, z'
loop_
 _atom_site_type_symbol
 _atom_site_label
 _atom_site_symmetry_multiplicity
 _atom_site_fract_x
 _atom_site_fract_y
 _atom_site_fract_z
 _atom_site_occupancy
  Ho  Ho0  1  0.000000  0.000000  0.500000  1
  Tm  Tm1  1  0.000000  0.500000  0.000000  1
  Tm  Tm2  1  0.500000  0.000000  0.000000  1
  Tm  Tm3  1  0.500000  0.500000  0.500000  1
  Ga  Ga4  1  0.749902  0.250098  0.500000  1
  Ga  Ga5  1  0.749902  0.499804  0.249902  1
  Ga  Ga6  1  0.500196  0.250098  0.750098  1
  Ga  Ga7  1  0.250098  0.500196  0.750098  1
  Ga  Ga8  1  0.250098  0.749902  0.500000  1
  Ga  Ga9  1  0.499804  0.749902  0.249902  1
  Ga  Ga10  1  0.708779  0.708779  0.999850  1
  Ga  Ga11  1  0.291221  0.000000  0.291071  1
  Ga  Ga12  1  0.000000  0.291221  0.291071  1
  Ga  Ga13  1  0.291221  0.291221  0.000150  1
  Ga  Ga14  1  0.708779  0.000000  0.708929  1
  Ga  Ga15  1  0.000000  0.708779  0.708929  1
  Tc  Tc16  1  0.000000  0.000000  0.000000  1
