# generated using pymatgen
data_Nd20Ga3Si8P
_symmetry_space_group_name_H-M   'P 1'
_cell_length_a   7.82304200
_cell_length_b   7.82304200
_cell_length_c   14.51588700
_cell_angle_alpha   90.00000000
_cell_angle_beta   90.00000000
_cell_angle_gamma   90.00000000
_symmetry_Int_Tables_number   1
_chemical_formula_structural   Nd20Ga3Si8P
_chemical_formula_sum   'Nd20 Ga3 Si8 P1'
_cell_volume   888.37208312
_cell_formula_units_Z   1
loop_
 _symmetry_equiv_pos_site_id
 _symmetry_equiv_pos_as_xyz
  1  'x, y, z'
loop_
 _atom_site_type_symbol
 _atom_site_label
 _atom_site_symmetry_multiplicity
 _atom_site_fract_x
 _atom_site_fract_y
 _atom_site_fract_z
 _atom_site_occupancy
  Nd  Nd0  1  0.821081  0.822275  0.606245  1
  Nd  Nd1  1  0.186632  0.831168  0.111024  1
  Nd  Nd2  1  0.164344  0.807988  0.393055  1
  Nd  Nd3  1  0.000000  0.500000  0.738110  1
  Nd  Nd4  1  0.835656  0.192012  0.393055  1
  Nd  Nd5  1  0.692012  0.664344  0.393055  1
  Nd  Nd6  1  0.677725  0.321081  0.606245  1
  Nd  Nd7  1  0.322275  0.678919  0.606245  1
  Nd  Nd8  1  0.000000  0.500000  0.223068  1
  Nd  Nd9  1  0.668832  0.686632  0.111024  1
  Nd  Nd10  1  0.683694  0.328443  0.889121  1
  Nd  Nd11  1  0.828443  0.816306  0.889121  1
  Nd  Nd12  1  0.307988  0.335656  0.393055  1
  Nd  Nd13  1  0.178919  0.177725  0.606245  1
  Nd  Nd14  1  0.813368  0.168832  0.111024  1
  Nd  Nd15  1  0.316306  0.671557  0.889121  1
  Nd  Nd16  1  0.331168  0.313368  0.111024  1
  Nd  Nd17  1  0.500000  0.000000  0.273067  1
  Nd  Nd18  1  0.171557  0.183694  0.889121  1
  Nd  Nd19  1  0.500000  0.000000  0.765147  1
  Ga  Ga20  1  0.500000  0.000000  0.495118  1
  Ga  Ga21  1  0.500000  0.000000  0.993417  1
  Ga  Ga22  1  0.000000  0.500000  0.001853  1
  Si  Si23  1  0.614539  0.384850  0.252814  1
  Si  Si24  1  0.115826  0.886305  0.746091  1
  Si  Si25  1  0.386305  0.384174  0.746091  1
  Si  Si26  1  0.385461  0.615150  0.252814  1
  Si  Si27  1  0.884850  0.885461  0.252814  1
  Si  Si28  1  0.613695  0.615826  0.746091  1
  Si  Si29  1  0.884174  0.113695  0.746091  1
  Si  Si30  1  0.115150  0.114539  0.252814  1
  P  P31  1  0.000000  0.500000  0.516823  1
