# generated using pymatgen
data_Yb3Cr(As3Rh4)2
_symmetry_space_group_name_H-M   'P 1'
_cell_length_a   3.99609100
_cell_length_b   11.46824000
_cell_length_c   13.08211700
_cell_angle_alpha   90.00000000
_cell_angle_beta   90.00000000
_cell_angle_gamma   90.00000000
_symmetry_Int_Tables_number   1
_chemical_formula_structural   Yb3Cr(As3Rh4)2
_chemical_formula_sum   'Yb6 Cr2 As12 Rh16'
_cell_volume   599.52896705
_cell_formula_units_Z   2
loop_
 _symmetry_equiv_pos_site_id
 _symmetry_equiv_pos_as_xyz
  1  'x, y, z'
loop_
 _atom_site_type_symbol
 _atom_site_label
 _atom_site_symmetry_multiplicity
 _atom_site_fract_x
 _atom_site_fract_y
 _atom_site_fract_z
 _atom_site_occupancy
  Yb  Yb0  1  0.000000  0.500000  0.525128  1
  Yb  Yb1  1  0.500000  0.000000  0.474872  1
  Yb  Yb2  1  0.500000  0.821366  0.204284  1
  Yb  Yb3  1  0.500000  0.178634  0.204284  1
  Yb  Yb4  1  0.000000  0.678634  0.795716  1
  Yb  Yb5  1  0.000000  0.321366  0.795716  1
  Cr  Cr6  1  0.500000  0.500000  0.157836  1
  Cr  Cr7  1  0.000000  0.000000  0.842164  1
  As  As8  1  0.500000  0.311223  0.618904  1
  As  As9  1  0.500000  0.688777  0.618904  1
  As  As10  1  0.000000  0.188777  0.381096  1
  As  As11  1  0.000000  0.811223  0.381096  1
  As  As12  1  0.500000  0.500000  0.878025  1
  As  As13  1  0.000000  0.000000  0.121975  1
  As  As14  1  0.500000  0.845430  0.887987  1
  As  As15  1  0.500000  0.154570  0.887987  1
  As  As16  1  0.000000  0.654570  0.112013  1
  As  As17  1  0.000000  0.345430  0.112013  1
  As  As18  1  0.500000  0.500000  0.347927  1
  As  As19  1  0.000000  0.000000  0.652073  1
  Rh  Rh20  1  0.000000  0.500000  0.985458  1
  Rh  Rh21  1  0.500000  0.000000  0.014542  1
  Rh  Rh22  1  0.500000  0.296075  0.431676  1
  Rh  Rh23  1  0.500000  0.703925  0.431676  1
  Rh  Rh24  1  0.000000  0.203925  0.568324  1
  Rh  Rh25  1  0.000000  0.796075  0.568324  1
  Rh  Rh26  1  0.500000  0.877312  0.706742  1
  Rh  Rh27  1  0.500000  0.122688  0.706742  1
  Rh  Rh28  1  0.000000  0.622688  0.293258  1
  Rh  Rh29  1  0.000000  0.377312  0.293258  1
  Rh  Rh30  1  0.500000  0.332128  0.994191  1
  Rh  Rh31  1  0.500000  0.667872  0.994191  1
  Rh  Rh32  1  0.000000  0.167872  0.005809  1
  Rh  Rh33  1  0.000000  0.832128  0.005809  1
  Rh  Rh34  1  0.500000  0.500000  0.696369  1
  Rh  Rh35  1  0.000000  0.000000  0.303631  1
