# generated using pymatgen
data_AcEu3(AlIr2)2
_symmetry_space_group_name_H-M   'P 1'
_cell_length_a   5.86416634
_cell_length_b   5.89369949
_cell_length_c   7.73968262
_cell_angle_alpha   100.97395631
_cell_angle_beta   100.70878316
_cell_angle_gamma   59.90080449
_symmetry_Int_Tables_number   1
_chemical_formula_structural   AcEu3(AlIr2)2
_chemical_formula_sum   'Ac1 Eu3 Al2 Ir4'
_cell_volume   225.90544101
_cell_formula_units_Z   1
loop_
 _symmetry_equiv_pos_site_id
 _symmetry_equiv_pos_as_xyz
  1  'x, y, z'
loop_
 _atom_site_type_symbol
 _atom_site_label
 _atom_site_symmetry_multiplicity
 _atom_site_fract_x
 _atom_site_fract_y
 _atom_site_fract_z
 _atom_site_occupancy
  Ac  Ac0  1  0.780325  0.512341  0.142795  1
  Eu  Eu1  1  0.492522  0.215030  0.363130  1
  Eu  Eu2  1  0.509664  0.785350  0.645466  1
  Eu  Eu3  1  0.216056  0.489332  0.848244  1
  Al  Al4  1  0.093599  0.906228  0.251835  1
  Al  Al5  1  0.908960  0.087551  0.747380  1
  Ir  Ir6  1  0.273689  0.998872  0.009255  1
  Ir  Ir7  1  0.007690  0.720298  0.490616  1
  Ir  Ir8  1  0.994548  0.273986  0.508864  1
  Ir  Ir9  1  0.722949  0.011011  0.992413  1
