# generated using pymatgen
data_AcTh(AlCu)5
_symmetry_space_group_name_H-M   'P 1'
_cell_length_a   4.14421400
_cell_length_b   5.44402600
_cell_length_c   9.36635500
_cell_angle_alpha   90.00000000
_cell_angle_beta   90.00000000
_cell_angle_gamma   90.00000000
_symmetry_Int_Tables_number   1
_chemical_formula_structural   AcTh(AlCu)5
_chemical_formula_sum   'Ac1 Th1 Al5 Cu5'
_cell_volume   211.31629053
_cell_formula_units_Z   1
loop_
 _symmetry_equiv_pos_site_id
 _symmetry_equiv_pos_as_xyz
  1  'x, y, z'
loop_
 _atom_site_type_symbol
 _atom_site_label
 _atom_site_symmetry_multiplicity
 _atom_site_fract_x
 _atom_site_fract_y
 _atom_site_fract_z
 _atom_site_occupancy
  Ac  Ac0  1  0.000000  0.999128  0.000000  1
  Th  Th1  1  0.000000  0.501107  0.500000  1
  Al  Al2  1  0.500000  0.499587  0.000000  1
  Al  Al3  1  0.500000  0.746764  0.265232  1
  Al  Al4  1  0.500000  0.253261  0.734588  1
  Al  Al5  1  0.500000  0.253261  0.265412  1
  Al  Al6  1  0.500000  0.746764  0.734768  1
  Cu  Cu7  1  0.000000  0.001403  0.343177  1
  Cu  Cu8  1  0.000000  0.499039  0.826728  1
  Cu  Cu9  1  0.000000  0.499039  0.173272  1
  Cu  Cu10  1  0.000000  0.001403  0.656823  1
  Cu  Cu11  1  0.500000  0.999448  0.500000  1
