# generated using pymatgen
data_Cs6As(IrBr6)3
_symmetry_space_group_name_H-M   'P 1'
_cell_length_a   7.78044400
_cell_length_b   7.78044523
_cell_length_c   19.99664000
_cell_angle_alpha   90.00000000
_cell_angle_beta   90.00000000
_cell_angle_gamma   120.00000327
_symmetry_Int_Tables_number   1
_chemical_formula_structural   Cs6As(IrBr6)3
_chemical_formula_sum   'Cs6 As1 Ir3 Br18'
_cell_volume   1048.32628839
_cell_formula_units_Z   1
loop_
 _symmetry_equiv_pos_site_id
 _symmetry_equiv_pos_as_xyz
  1  'x, y, z'
loop_
 _atom_site_type_symbol
 _atom_site_label
 _atom_site_symmetry_multiplicity
 _atom_site_fract_x
 _atom_site_fract_y
 _atom_site_fract_z
 _atom_site_occupancy
  Cs  Cs0  1  0.000000  0.000000  0.251925  1
  Cs  Cs1  1  0.000000  0.000000  0.740540  1
  Cs  Cs2  1  0.333333  0.666667  0.069848  1
  Cs  Cs3  1  0.666667  0.333333  0.568713  1
  Cs  Cs4  1  0.666667  0.333333  0.936742  1
  Cs  Cs5  1  0.333333  0.666667  0.439429  1
  As  As6  1  0.333333  0.666667  0.842128  1
  Ir  Ir7  1  0.666667  0.333333  0.332385  1
  Ir  Ir8  1  0.666667  0.333333  0.166455  1
  Ir  Ir9  1  0.333333  0.666667  0.666550  1
  Br  Br10  1  0.522440  0.044879  0.249126  1
  Br  Br11  1  0.485740  0.514260  0.742171  1
  Br  Br12  1  0.028519  0.514260  0.742171  1
  Br  Br13  1  0.955121  0.477560  0.249126  1
  Br  Br14  1  0.522440  0.477560  0.249126  1
  Br  Br15  1  0.485740  0.971481  0.742171  1
  Br  Br16  1  0.819438  0.638876  0.095654  1
  Br  Br17  1  0.180436  0.819564  0.595143  1
  Br  Br18  1  0.639129  0.819564  0.595143  1
  Br  Br19  1  0.361124  0.180562  0.095654  1
  Br  Br20  1  0.819438  0.180562  0.095654  1
  Br  Br21  1  0.173732  0.347463  0.910073  1
  Br  Br22  1  0.173732  0.826268  0.910073  1
  Br  Br23  1  0.180436  0.360871  0.595143  1
  Br  Br24  1  0.652537  0.826268  0.910073  1
  Br  Br25  1  0.361912  0.180956  0.402927  1
  Br  Br26  1  0.819044  0.638088  0.402927  1
  Br  Br27  1  0.819044  0.180956  0.402927  1
