# generated using pymatgen
data_Ho3Lu3Tc2
_symmetry_space_group_name_H-M   'P 1'
_cell_length_a   6.16857265
_cell_length_b   7.40763700
_cell_length_c   8.96652025
_cell_angle_alpha   90.00000000
_cell_angle_beta   90.26124986
_cell_angle_gamma   90.00000000
_symmetry_Int_Tables_number   1
_chemical_formula_structural   Ho3Lu3Tc2
_chemical_formula_sum   'Ho6 Lu6 Tc4'
_cell_volume   409.71682220
_cell_formula_units_Z   2
loop_
 _symmetry_equiv_pos_site_id
 _symmetry_equiv_pos_as_xyz
  1  'x, y, z'
loop_
 _atom_site_type_symbol
 _atom_site_label
 _atom_site_symmetry_multiplicity
 _atom_site_fract_x
 _atom_site_fract_y
 _atom_site_fract_z
 _atom_site_occupancy
  Ho  Ho0  1  0.343297  0.676016  0.062295  1
  Ho  Ho1  1  0.156703  0.176016  0.437705  1
  Ho  Ho2  1  0.874784  0.539626  0.250484  1
  Ho  Ho3  1  0.625216  0.039626  0.249516  1
  Ho  Ho4  1  0.122664  0.460826  0.750013  1
  Ho  Ho5  1  0.377336  0.960826  0.749987  1
  Lu  Lu6  1  0.657340  0.325528  0.562627  1
  Lu  Lu7  1  0.842660  0.825528  0.937373  1
  Lu  Lu8  1  0.656161  0.324376  0.936883  1
  Lu  Lu9  1  0.843839  0.824376  0.563117  1
  Lu  Lu10  1  0.343999  0.674123  0.438533  1
  Lu  Lu11  1  0.156001  0.174123  0.061467  1
  Tc  Tc12  1  0.043309  0.883387  0.250611  1
  Tc  Tc13  1  0.456691  0.383387  0.249389  1
  Tc  Tc14  1  0.953500  0.116120  0.751756  1
  Tc  Tc15  1  0.546500  0.616120  0.748244  1
