# generated using pymatgen
data_TbDy6Ho13Pt16
_symmetry_space_group_name_H-M   'P 1'
_cell_length_a   7.47279704
_cell_length_b   7.55251714
_cell_length_c   14.73395200
_cell_angle_alpha   90.00503731
_cell_angle_beta   90.00571977
_cell_angle_gamma   90.00993757
_symmetry_Int_Tables_number   1
_chemical_formula_structural   TbDy6Ho13Pt16
_chemical_formula_sum   'Tb1 Dy6 Ho13 Pt16'
_cell_volume   831.56106524
_cell_formula_units_Z   1
loop_
 _symmetry_equiv_pos_site_id
 _symmetry_equiv_pos_as_xyz
  1  'x, y, z'
loop_
 _atom_site_type_symbol
 _atom_site_label
 _atom_site_symmetry_multiplicity
 _atom_site_fract_x
 _atom_site_fract_y
 _atom_site_fract_z
 _atom_site_occupancy
  Tb  Tb0  1  0.998163  0.820151  0.093015  1
  Dy  Dy1  1  0.497874  0.679966  0.093142  1
  Dy  Dy2  1  0.502185  0.320055  0.593063  1
  Dy  Dy3  1  0.002202  0.180072  0.906857  1
  Dy  Dy4  1  0.002094  0.179717  0.592987  1
  Dy  Dy5  1  0.502114  0.320050  0.906862  1
  Dy  Dy6  1  0.497838  0.680035  0.406945  1
  Ho  Ho7  1  0.681054  0.988366  0.250207  1
  Ho  Ho8  1  0.180992  0.511609  0.250202  1
  Ho  Ho9  1  0.818968  0.488354  0.749888  1
  Ho  Ho10  1  0.318998  0.011644  0.749941  1
  Ho  Ho11  1  0.656335  0.832446  0.622188  1
  Ho  Ho12  1  0.156418  0.667533  0.877615  1
  Ho  Ho13  1  0.843726  0.332356  0.377863  1
  Ho  Ho14  1  0.343724  0.167667  0.122360  1
  Ho  Ho15  1  0.343530  0.167480  0.377878  1
  Ho  Ho16  1  0.843716  0.332355  0.122329  1
  Ho  Ho17  1  0.156145  0.667779  0.622110  1
  Ho  Ho18  1  0.656339  0.832339  0.877672  1
  Ho  Ho19  1  0.997614  0.819891  0.406815  1
  Pt  Pt20  1  0.816426  0.642619  0.250588  1
  Pt  Pt21  1  0.316437  0.857400  0.250224  1
  Pt  Pt22  1  0.683518  0.142647  0.749932  1
  Pt  Pt23  1  0.183494  0.357356  0.749938  1
  Pt  Pt24  1  0.546684  0.386651  0.250058  1
  Pt  Pt25  1  0.046627  0.113428  0.250283  1
  Pt  Pt26  1  0.953384  0.886561  0.749971  1
  Pt  Pt27  1  0.453373  0.613420  0.749948  1
  Pt  Pt28  1  0.816821  0.532788  0.541869  1
  Pt  Pt29  1  0.316935  0.967533  0.957934  1
  Pt  Pt30  1  0.683891  0.032074  0.457879  1
  Pt  Pt31  1  0.183374  0.467079  0.041925  1
  Pt  Pt32  1  0.183082  0.467956  0.457840  1
  Pt  Pt33  1  0.682660  0.032977  0.041913  1
  Pt  Pt34  1  0.316650  0.967346  0.541858  1
  Pt  Pt35  1  0.816616  0.532302  0.957895  1
