# generated using pymatgen
data_Ce3In2Pd3Au
_symmetry_space_group_name_H-M   'P 1'
_cell_length_a   7.90844100
_cell_length_b   7.68740659
_cell_length_c   4.00952000
_cell_angle_alpha   90.00000000
_cell_angle_beta   90.00000000
_cell_angle_gamma   120.96317367
_symmetry_Int_Tables_number   1
_chemical_formula_structural   Ce3In2Pd3Au
_chemical_formula_sum   'Ce3 In2 Pd3 Au1'
_cell_volume   209.02407548
_cell_formula_units_Z   1
loop_
 _symmetry_equiv_pos_site_id
 _symmetry_equiv_pos_as_xyz
  1  'x, y, z'
loop_
 _atom_site_type_symbol
 _atom_site_label
 _atom_site_symmetry_multiplicity
 _atom_site_fract_x
 _atom_site_fract_y
 _atom_site_fract_z
 _atom_site_occupancy
  Ce  Ce0  1  0.420717  0.000030  0.500000  1
  Ce  Ce1  1  0.989783  0.389806  0.500000  1
  Ce  Ce2  1  0.599860  0.610225  0.500000  1
  In  In3  1  0.005055  0.747586  0.000000  1
  In  In4  1  0.257593  0.252415  0.000000  1
  Pd  Pd5  1  0.319673  0.656529  0.000000  1
  Pd  Pd6  1  0.662853  0.343578  0.000000  1
  Pd  Pd7  1  0.010761  0.999915  0.500000  1
  Au  Au8  1  0.733706  0.999918  0.000000  1
