# generated using pymatgen
data_Dy4HoSn3Ge
_symmetry_space_group_name_H-M   'P 1'
_cell_length_a   9.21889900
_cell_length_b   9.21889948
_cell_length_c   6.45967400
_cell_angle_alpha   90.00000000
_cell_angle_beta   90.00000000
_cell_angle_gamma   120.00000185
_symmetry_Int_Tables_number   1
_chemical_formula_structural   Dy4HoSn3Ge
_chemical_formula_sum   'Dy8 Ho2 Sn6 Ge2'
_cell_volume   475.44398945
_cell_formula_units_Z   2
loop_
 _symmetry_equiv_pos_site_id
 _symmetry_equiv_pos_as_xyz
  1  'x, y, z'
loop_
 _atom_site_type_symbol
 _atom_site_label
 _atom_site_symmetry_multiplicity
 _atom_site_fract_x
 _atom_site_fract_y
 _atom_site_fract_z
 _atom_site_occupancy
  Dy  Dy0  1  0.333333  0.666667  0.500000  1
  Dy  Dy1  1  0.666667  0.333333  0.500000  1
  Dy  Dy2  1  0.745393  0.745393  0.749735  1
  Dy  Dy3  1  0.254607  0.000000  0.749735  1
  Dy  Dy4  1  0.000000  0.254607  0.749735  1
  Dy  Dy5  1  0.254607  0.254607  0.250265  1
  Dy  Dy6  1  0.745393  0.000000  0.250265  1
  Dy  Dy7  1  0.000000  0.745393  0.250265  1
  Ho  Ho8  1  0.666667  0.333333  0.000000  1
  Ho  Ho9  1  0.333333  0.666667  0.000000  1
  Sn  Sn10  1  0.391713  0.391713  0.749972  1
  Sn  Sn11  1  0.608287  0.000000  0.749972  1
  Sn  Sn12  1  0.000000  0.608287  0.749972  1
  Sn  Sn13  1  0.608287  0.608287  0.250028  1
  Sn  Sn14  1  0.391713  0.000000  0.250028  1
  Sn  Sn15  1  0.000000  0.391713  0.250028  1
  Ge  Ge16  1  0.000000  0.000000  0.000000  1
  Ge  Ge17  1  0.000000  0.000000  0.500000  1
