# generated using pymatgen
data_Li4Sm3Lu(Si2Sn)2
_symmetry_space_group_name_H-M   'P 1'
_cell_length_a   9.65594803
_cell_length_b   9.65594719
_cell_length_c   6.72959100
_cell_angle_alpha   90.00000000
_cell_angle_beta   90.00000000
_cell_angle_gamma   153.27989191
_symmetry_Int_Tables_number   1
_chemical_formula_structural   Li4Sm3Lu(Si2Sn)2
_chemical_formula_sum   'Li4 Sm3 Lu1 Si4 Sn2'
_cell_volume   282.12148986
_cell_formula_units_Z   1
loop_
 _symmetry_equiv_pos_site_id
 _symmetry_equiv_pos_as_xyz
  1  'x, y, z'
loop_
 _atom_site_type_symbol
 _atom_site_label
 _atom_site_symmetry_multiplicity
 _atom_site_fract_x
 _atom_site_fract_y
 _atom_site_fract_z
 _atom_site_occupancy
  Li  Li0  1  0.815553  0.184447  0.554061  1
  Li  Li1  1  0.184028  0.815972  0.445202  1
  Li  Li2  1  0.184028  0.815972  0.054798  1
  Li  Li3  1  0.815553  0.184447  0.945939  1
  Sm  Sm4  1  0.452550  0.547450  0.750000  1
  Sm  Sm5  1  0.350760  0.649240  0.250000  1
  Sm  Sm6  1  0.649130  0.350870  0.750000  1
  Lu  Lu7  1  0.547494  0.452506  0.250000  1
  Si  Si8  1  0.943073  0.056927  0.073876  1
  Si  Si9  1  0.058264  0.941736  0.930151  1
  Si  Si10  1  0.058264  0.941736  0.569849  1
  Si  Si11  1  0.943073  0.056927  0.426124  1
  Sn  Sn12  1  0.717127  0.282873  0.250000  1
  Sn  Sn13  1  0.281106  0.718894  0.750000  1
