# generated using pymatgen
data_Cs4Mn3RuS8
_symmetry_space_group_name_H-M   'P 1'
_cell_length_a   5.39829853
_cell_length_b   7.32189357
_cell_length_c   12.43587400
_cell_angle_alpha   88.03984189
_cell_angle_beta   83.50811577
_cell_angle_gamma   79.60624883
_symmetry_Int_Tables_number   1
_chemical_formula_structural   Cs4Mn3RuS8
_chemical_formula_sum   'Cs4 Mn3 Ru1 S8'
_cell_volume   480.32387834
_cell_formula_units_Z   1
loop_
 _symmetry_equiv_pos_site_id
 _symmetry_equiv_pos_as_xyz
  1  'x, y, z'
loop_
 _atom_site_type_symbol
 _atom_site_label
 _atom_site_symmetry_multiplicity
 _atom_site_fract_x
 _atom_site_fract_y
 _atom_site_fract_z
 _atom_site_occupancy
  Cs  Cs0  1  0.071673  0.028237  0.675097  1
  Cs  Cs1  1  0.576226  0.527086  0.176285  1
  Cs  Cs2  1  0.428200  0.472169  0.823297  1
  Cs  Cs3  1  0.924501  0.971480  0.324874  1
  Mn  Mn4  1  0.250301  0.499166  0.499674  1
  Mn  Mn5  1  0.749391  0.501289  0.500265  1
  Mn  Mn6  1  0.249635  0.000825  0.000410  1
  Ru  Ru7  1  0.750505  0.999190  0.999809  1
  S  S8  1  0.952016  0.558115  0.635473  1
  S  S9  1  0.442294  0.062244  0.138328  1
  S  S10  1  0.958450  0.237956  0.961177  1
  S  S11  1  0.451254  0.732418  0.461671  1
  S  S12  1  0.541187  0.938406  0.861309  1
  S  S13  1  0.047826  0.442069  0.364460  1
  S  S14  1  0.548404  0.268069  0.538350  1
  S  S15  1  0.058133  0.761277  0.039521  1
