# generated using pymatgen
data_Tb4Dy5Tm7(CdNi)4
_symmetry_space_group_name_H-M   'P 1'
_cell_length_a   9.50347135
_cell_length_b   9.49301952
_cell_length_c   9.49301915
_cell_angle_alpha   59.99976985
_cell_angle_beta   59.96357481
_cell_angle_gamma   59.96357303
_symmetry_Int_Tables_number   1
_chemical_formula_structural   Tb4Dy5Tm7(CdNi)4
_chemical_formula_sum   'Tb4 Dy5 Tm7 Cd4 Ni4'
_cell_volume   605.25155649
_cell_formula_units_Z   1
loop_
 _symmetry_equiv_pos_site_id
 _symmetry_equiv_pos_as_xyz
  1  'x, y, z'
loop_
 _atom_site_type_symbol
 _atom_site_label
 _atom_site_symmetry_multiplicity
 _atom_site_fract_x
 _atom_site_fract_y
 _atom_site_fract_z
 _atom_site_occupancy
  Tb  Tb0  1  0.598380  0.599561  0.599561  1
  Tb  Tb1  1  0.599659  0.600775  0.199908  1
  Tb  Tb2  1  0.599659  0.199908  0.600775  1
  Tb  Tb3  1  0.202500  0.599561  0.599561  1
  Dy  Dy4  1  0.812582  0.187418  0.187418  1
  Dy  Dy5  1  0.814564  0.186065  0.813170  1
  Dy  Dy6  1  0.186202  0.813170  0.186065  1
  Dy  Dy7  1  0.814564  0.813170  0.186065  1
  Dy  Dy8  1  0.186202  0.186065  0.813170  1
  Tm  Tm9  1  0.062013  0.437987  0.437987  1
  Tm  Tm10  1  0.436115  0.063885  0.063885  1
  Tm  Tm11  1  0.436558  0.063155  0.437338  1
  Tm  Tm12  1  0.062949  0.437338  0.063155  1
  Tm  Tm13  1  0.436558  0.437338  0.063155  1
  Tm  Tm14  1  0.062949  0.063155  0.437338  1
  Tm  Tm15  1  0.186277  0.813723  0.813723  1
  Cd  Cd16  1  0.832336  0.830582  0.830582  1
  Cd  Cd17  1  0.831363  0.830947  0.506327  1
  Cd  Cd18  1  0.831363  0.506327  0.830947  1
  Cd  Cd19  1  0.506502  0.830582  0.830582  1
  Ni  Ni20  1  0.393053  0.391687  0.391687  1
  Ni  Ni21  1  0.392042  0.391653  0.824262  1
  Ni  Ni22  1  0.392042  0.824262  0.391653  1
  Ni  Ni23  1  0.823571  0.391687  0.391687  1
