# generated using pymatgen
data_Y11In9(CoAu)2
_symmetry_space_group_name_H-M   'P 1'
_cell_length_a   3.59999000
_cell_length_b   13.15071730
_cell_length_c   13.25466242
_cell_angle_alpha   110.89475017
_cell_angle_beta   90.00000000
_cell_angle_gamma   90.00000000
_symmetry_Int_Tables_number   1
_chemical_formula_structural   Y11In9(CoAu)2
_chemical_formula_sum   'Y11 In9 Co2 Au2'
_cell_volume   586.24147977
_cell_formula_units_Z   1
loop_
 _symmetry_equiv_pos_site_id
 _symmetry_equiv_pos_as_xyz
  1  'x, y, z'
loop_
 _atom_site_type_symbol
 _atom_site_label
 _atom_site_symmetry_multiplicity
 _atom_site_fract_x
 _atom_site_fract_y
 _atom_site_fract_z
 _atom_site_occupancy
  Y  Y0  1  0.000000  0.931654  0.581858  1
  Y  Y1  1  0.000000  0.068346  0.418142  1
  Y  Y2  1  0.000000  0.579982  0.923283  1
  Y  Y3  1  0.000000  0.420018  0.076717  1
  Y  Y4  1  0.000000  0.158713  0.843321  1
  Y  Y5  1  0.000000  0.841287  0.156679  1
  Y  Y6  1  0.000000  0.384703  0.643600  1
  Y  Y7  1  0.000000  0.615297  0.356400  1
  Y  Y8  1  0.000000  0.680448  0.699940  1
  Y  Y9  1  0.000000  0.319552  0.300060  1
  Y  Y10  1  0.000000  0.000000  0.000000  1
  In  In11  1  0.500000  0.157101  0.635318  1
  In  In12  1  0.500000  0.842899  0.364682  1
  In  In13  1  0.500000  0.632477  0.155847  1
  In  In14  1  0.500000  0.367523  0.844153  1
  In  In15  1  0.500000  0.927384  0.783410  1
  In  In16  1  0.500000  0.072616  0.216590  1
  In  In17  1  0.500000  0.778755  0.924122  1
  In  In18  1  0.500000  0.221245  0.075878  1
  In  In19  1  0.500000  0.500000  0.500000  1
  Co  Co20  1  0.500000  0.549454  0.758785  1
  Co  Co21  1  0.500000  0.450546  0.241215  1
  Au  Au22  1  0.500000  0.744506  0.546523  1
  Au  Au23  1  0.500000  0.255494  0.453477  1
