# generated using pymatgen
data_TmU9(Re3C8)2
_symmetry_space_group_name_H-M   'P 1'
_cell_length_a   11.36403089
_cell_length_b   11.36403089
_cell_length_c   3.25321600
_cell_angle_alpha   90.00000000
_cell_angle_beta   90.00000000
_cell_angle_gamma   89.84882502
_symmetry_Int_Tables_number   1
_chemical_formula_structural   TmU9(Re3C8)2
_chemical_formula_sum   'Tm1 U9 Re6 C16'
_cell_volume   420.12274936
_cell_formula_units_Z   1
loop_
 _symmetry_equiv_pos_site_id
 _symmetry_equiv_pos_as_xyz
  1  'x, y, z'
loop_
 _atom_site_type_symbol
 _atom_site_label
 _atom_site_symmetry_multiplicity
 _atom_site_fract_x
 _atom_site_fract_y
 _atom_site_fract_z
 _atom_site_occupancy
  Tm  Tm0  1  0.000000  0.500000  0.000000  1
  U  U1  1  0.270408  0.542026  0.500000  1
  U  U2  1  0.729592  0.457974  0.500000  1
  U  U3  1  0.542542  0.727762  0.500000  1
  U  U4  1  0.772238  0.957458  0.500000  1
  U  U5  1  0.227762  0.042542  0.500000  1
  U  U6  1  0.957974  0.229592  0.500000  1
  U  U7  1  0.457458  0.272238  0.500000  1
  U  U8  1  0.500000  0.000000  0.000000  1
  U  U9  1  0.042026  0.770408  0.500000  1
  Re  Re10  1  0.203599  0.296401  0.000000  1
  Re  Re11  1  0.702852  0.202852  0.000000  1
  Re  Re12  1  0.297148  0.797148  0.000000  1
  Re  Re13  1  0.500000  0.500000  0.000000  1
  Re  Re14  1  0.796401  0.703599  0.000000  1
  Re  Re15  1  0.000000  0.000000  0.000000  1
  C  C16  1  0.347028  0.403061  0.000000  1
  C  C17  1  0.616571  0.116571  0.500000  1
  C  C18  1  0.903061  0.847028  0.000000  1
  C  C19  1  0.653650  0.846350  0.000000  1
  C  C20  1  0.346350  0.153650  0.000000  1
  C  C21  1  0.117357  0.382643  0.500000  1
  C  C22  1  0.152089  0.902032  0.000000  1
  C  C23  1  0.845526  0.345526  0.000000  1
  C  C24  1  0.652972  0.596939  0.000000  1
  C  C25  1  0.597968  0.347911  0.000000  1
  C  C26  1  0.882643  0.617357  0.500000  1
  C  C27  1  0.847911  0.097968  0.000000  1
  C  C28  1  0.383429  0.883429  0.500000  1
  C  C29  1  0.154474  0.654474  0.000000  1
  C  C30  1  0.096939  0.152972  0.000000  1
  C  C31  1  0.402032  0.652089  0.000000  1
