# generated using pymatgen
data_Y10Os3Rh
_symmetry_space_group_name_H-M   'P 1'
_cell_length_a   6.42679818
_cell_length_b   7.39332018
_cell_length_c   8.48873535
_cell_angle_alpha   96.71473873
_cell_angle_beta   112.05522673
_cell_angle_gamma   89.93175730
_symmetry_Int_Tables_number   1
_chemical_formula_structural   Y10Os3Rh
_chemical_formula_sum   'Y10 Os3 Rh1'
_cell_volume   370.86536596
_cell_formula_units_Z   1
loop_
 _symmetry_equiv_pos_site_id
 _symmetry_equiv_pos_as_xyz
  1  'x, y, z'
loop_
 _atom_site_type_symbol
 _atom_site_label
 _atom_site_symmetry_multiplicity
 _atom_site_fract_x
 _atom_site_fract_y
 _atom_site_fract_z
 _atom_site_occupancy
  Y  Y0  1  0.975058  0.913872  0.181203  1
  Y  Y1  1  0.792951  0.584477  0.816458  1
  Y  Y2  1  0.018791  0.084275  0.811301  1
  Y  Y3  1  0.204353  0.416887  0.180717  1
  Y  Y4  1  0.647448  0.816813  0.437795  1
  Y  Y5  1  0.211147  0.681252  0.563638  1
  Y  Y6  1  0.352939  0.181625  0.566386  1
  Y  Y7  1  0.794838  0.321758  0.438050  1
  Y  Y8  1  0.422573  0.747879  0.998310  1
  Y  Y9  1  0.577927  0.250914  0.999819  1
  Os  Os10  1  0.823184  0.577548  0.218832  1
  Os  Os11  1  0.605242  0.923101  0.780956  1
  Os  Os12  1  0.175928  0.422239  0.783195  1
  Rh  Rh13  1  0.397621  0.077359  0.223342  1
