# generated using pymatgen
data_Tm8Hf11Si16W
_symmetry_space_group_name_H-M   'P 1'
_cell_length_a   7.20793915
_cell_length_b   7.20793946
_cell_length_c   13.22482502
_cell_angle_alpha   89.93387420
_cell_angle_beta   90.06612395
_cell_angle_gamma   90.09824130
_symmetry_Int_Tables_number   1
_chemical_formula_structural   Tm8Hf11Si16W
_chemical_formula_sum   'Tm8 Hf11 Si16 W1'
_cell_volume   687.08578017
_cell_formula_units_Z   1
loop_
 _symmetry_equiv_pos_site_id
 _symmetry_equiv_pos_as_xyz
  1  'x, y, z'
loop_
 _atom_site_type_symbol
 _atom_site_label
 _atom_site_symmetry_multiplicity
 _atom_site_fract_x
 _atom_site_fract_y
 _atom_site_fract_z
 _atom_site_occupancy
  Tm  Tm0  1  0.998452  0.343476  0.212612  1
  Tm  Tm1  1  0.004209  0.656627  0.716912  1
  Tm  Tm2  1  0.156360  0.495613  0.465352  1
  Tm  Tm3  1  0.501691  0.845579  0.034135  1
  Tm  Tm4  1  0.845579  0.501691  0.965865  1
  Tm  Tm5  1  0.495613  0.156360  0.534648  1
  Tm  Tm6  1  0.343476  0.998452  0.787388  1
  Tm  Tm7  1  0.656627  0.004209  0.283088  1
  Hf  Hf8  1  0.825686  0.825686  0.500000  1
  Hf  Hf9  1  0.324560  0.674646  0.248662  1
  Hf  Hf10  1  0.674646  0.324560  0.751338  1
  Hf  Hf11  1  0.147244  0.997868  0.373447  1
  Hf  Hf12  1  0.853570  0.004200  0.877565  1
  Hf  Hf13  1  0.503140  0.647941  0.624899  1
  Hf  Hf14  1  0.349633  0.494362  0.877046  1
  Hf  Hf15  1  0.494362  0.349633  0.122954  1
  Hf  Hf16  1  0.647941  0.503140  0.375101  1
  Hf  Hf17  1  0.997868  0.147244  0.626553  1
  Hf  Hf18  1  0.004200  0.853570  0.122435  1
  Si  Si19  1  0.360661  0.295309  0.316890  1
  Si  Si20  1  0.639106  0.704612  0.818575  1
  Si  Si21  1  0.204921  0.860939  0.567846  1
  Si  Si22  1  0.139982  0.797430  0.932473  1
  Si  Si23  1  0.797430  0.139982  0.067527  1
  Si  Si24  1  0.860939  0.204921  0.432154  1
  Si  Si25  1  0.295309  0.360661  0.683110  1
  Si  Si26  1  0.704612  0.639106  0.181425  1
  Si  Si27  1  0.295935  0.050546  0.182170  1
  Si  Si28  1  0.702165  0.952014  0.686274  1
  Si  Si29  1  0.451012  0.797609  0.434904  1
  Si  Si30  1  0.201726  0.545671  0.064061  1
  Si  Si31  1  0.545671  0.201726  0.935939  1
  Si  Si32  1  0.797609  0.451012  0.565096  1
  Si  Si33  1  0.050546  0.295935  0.817830  1
  Si  Si34  1  0.952014  0.702165  0.313726  1
  W  W35  1  0.175505  0.175505  0.000000  1
