# generated using pymatgen
data_Ho5ErAl17Si7Os8
_symmetry_space_group_name_H-M   'P 1'
_cell_length_a   8.68873600
_cell_length_b   8.67714988
_cell_length_c   9.47914100
_cell_angle_alpha   90.00000000
_cell_angle_beta   90.00000000
_cell_angle_gamma   120.12858806
_symmetry_Int_Tables_number   1
_chemical_formula_structural   Ho5ErAl17Si7Os8
_chemical_formula_sum   'Ho5 Er1 Al17 Si7 Os8'
_cell_volume   618.11477418
_cell_formula_units_Z   1
loop_
 _symmetry_equiv_pos_site_id
 _symmetry_equiv_pos_as_xyz
  1  'x, y, z'
loop_
 _atom_site_type_symbol
 _atom_site_label
 _atom_site_symmetry_multiplicity
 _atom_site_fract_x
 _atom_site_fract_y
 _atom_site_fract_z
 _atom_site_occupancy
  Ho  Ho0  1  0.192684  0.387860  0.250000  1
  Ho  Ho1  1  0.611374  0.807356  0.250000  1
  Ho  Ho2  1  0.387906  0.191277  0.750000  1
  Ho  Ho3  1  0.195455  0.805431  0.250000  1
  Ho  Ho4  1  0.802491  0.191659  0.750000  1
  Er  Er5  1  0.806649  0.613641  0.750000  1
  Al  Al6  1  0.164469  0.329996  0.578264  1
  Al  Al7  1  0.834148  0.670904  0.421576  1
  Al  Al8  1  0.671241  0.835064  0.577448  1
  Al  Al9  1  0.834148  0.670904  0.078424  1
  Al  Al10  1  0.329807  0.165755  0.422297  1
  Al  Al11  1  0.164469  0.329996  0.921736  1
  Al  Al12  1  0.163726  0.834383  0.576272  1
  Al  Al13  1  0.329807  0.165755  0.077703  1
  Al  Al14  1  0.835372  0.163926  0.421767  1
  Al  Al15  1  0.671241  0.835064  0.922552  1
  Al  Al16  1  0.835372  0.163926  0.078233  1
  Al  Al17  1  0.163726  0.834383  0.923728  1
  Al  Al18  1  0.125424  0.565901  0.750000  1
  Al  Al19  1  0.564676  0.435151  0.250000  1
  Al  Al20  1  0.439259  0.566683  0.750000  1
  Al  Al21  1  0.999633  0.999137  0.250000  1
  Al  Al22  1  0.999556  0.000547  0.750000  1
  Si  Si23  1  0.333499  0.664775  0.039720  1
  Si  Si24  1  0.666587  0.335867  0.959416  1
  Si  Si25  1  0.666587  0.335867  0.540584  1
  Si  Si26  1  0.333499  0.664775  0.460280  1
  Si  Si27  1  0.565018  0.124498  0.250000  1
  Si  Si28  1  0.436178  0.872914  0.750000  1
  Si  Si29  1  0.874554  0.434524  0.250000  1
  Os  Os30  1  0.501079  0.001301  0.000729  1
  Os  Os31  1  0.998128  0.499401  0.006232  1
  Os  Os32  1  0.501079  0.001301  0.499271  1
  Os  Os33  1  0.500979  0.500160  0.000053  1
  Os  Os34  1  0.998128  0.499401  0.493768  1
  Os  Os35  1  0.500979  0.500160  0.499947  1
  Os  Os36  1  0.000537  0.000177  0.999820  1
  Os  Os37  1  0.000537  0.000177  0.500180  1
