# generated using pymatgen
data_Dy3Y3Ho14(Cd3Ru)2
_symmetry_space_group_name_H-M   'P 1'
_cell_length_a   9.58099200
_cell_length_b   9.58099160
_cell_length_c   9.82972500
_cell_angle_alpha   90.00000000
_cell_angle_beta   90.00000000
_cell_angle_gamma   120.00000139
_symmetry_Int_Tables_number   1
_chemical_formula_structural   Dy3Y3Ho14(Cd3Ru)2
_chemical_formula_sum   'Dy3 Y3 Ho14 Cd6 Ru2'
_cell_volume   781.43512832
_cell_formula_units_Z   1
loop_
 _symmetry_equiv_pos_site_id
 _symmetry_equiv_pos_as_xyz
  1  'x, y, z'
loop_
 _atom_site_type_symbol
 _atom_site_label
 _atom_site_symmetry_multiplicity
 _atom_site_fract_x
 _atom_site_fract_y
 _atom_site_fract_z
 _atom_site_occupancy
  Dy  Dy0  1  0.541061  0.458939  0.250000  1
  Dy  Dy1  1  0.541061  0.082121  0.250000  1
  Dy  Dy2  1  0.917879  0.458939  0.250000  1
  Y  Y3  1  0.459013  0.540987  0.750000  1
  Y  Y4  1  0.459013  0.918027  0.750000  1
  Y  Y5  1  0.081973  0.540987  0.750000  1
  Ho  Ho6  1  0.000000  0.000000  0.500143  1
  Ho  Ho7  1  0.000000  0.000000  0.999857  1
  Ho  Ho8  1  0.209865  0.790135  0.439940  1
  Ho  Ho9  1  0.209865  0.419729  0.439940  1
  Ho  Ho10  1  0.580271  0.790135  0.439940  1
  Ho  Ho11  1  0.790071  0.209929  0.559858  1
  Ho  Ho12  1  0.790071  0.580143  0.559858  1
  Ho  Ho13  1  0.419857  0.209929  0.559858  1
  Ho  Ho14  1  0.790071  0.209929  0.940142  1
  Ho  Ho15  1  0.790071  0.580143  0.940142  1
  Ho  Ho16  1  0.419857  0.209929  0.940142  1
  Ho  Ho17  1  0.209865  0.790135  0.060060  1
  Ho  Ho18  1  0.209865  0.419729  0.060060  1
  Ho  Ho19  1  0.580271  0.790135  0.060060  1
  Cd  Cd20  1  0.885466  0.114534  0.250000  1
  Cd  Cd21  1  0.885466  0.770934  0.250000  1
  Cd  Cd22  1  0.229066  0.114534  0.250000  1
  Cd  Cd23  1  0.114477  0.885523  0.750000  1
  Cd  Cd24  1  0.114477  0.228954  0.750000  1
  Cd  Cd25  1  0.771046  0.885523  0.750000  1
  Ru  Ru26  1  0.333333  0.666667  0.250000  1
  Ru  Ru27  1  0.666667  0.333333  0.750000  1
