# generated using pymatgen
data_LiNi2MoAs2
_symmetry_space_group_name_H-M   'P 1'
_cell_length_a   5.99959200
_cell_length_b   3.79125800
_cell_length_c   7.15416600
_cell_angle_alpha   90.00000000
_cell_angle_beta   90.00000000
_cell_angle_gamma   90.00000000
_symmetry_Int_Tables_number   1
_chemical_formula_structural   LiNi2MoAs2
_chemical_formula_sum   'Li2 Ni4 Mo2 As4'
_cell_volume   162.72866818
_cell_formula_units_Z   2
loop_
 _symmetry_equiv_pos_site_id
 _symmetry_equiv_pos_as_xyz
  1  'x, y, z'
loop_
 _atom_site_type_symbol
 _atom_site_label
 _atom_site_symmetry_multiplicity
 _atom_site_fract_x
 _atom_site_fract_y
 _atom_site_fract_z
 _atom_site_occupancy
  Li  Li0  1  0.031996  0.250000  0.314343  1
  Li  Li1  1  0.531996  0.250000  0.185657  1
  Ni  Ni2  1  0.144532  0.250000  0.940956  1
  Ni  Ni3  1  0.644532  0.250000  0.559044  1
  Ni  Ni4  1  0.856269  0.750000  0.063528  1
  Ni  Ni5  1  0.356269  0.750000  0.436472  1
  Mo  Mo6  1  0.965748  0.750000  0.684662  1
  Mo  Mo7  1  0.465748  0.750000  0.815338  1
  As  As8  1  0.255063  0.250000  0.619228  1
  As  As9  1  0.755063  0.250000  0.880772  1
  As  As10  1  0.746393  0.750000  0.381146  1
  As  As11  1  0.246393  0.750000  0.118854  1
