# generated using pymatgen
data_Nd12IrPd2Rh
_symmetry_space_group_name_H-M   'P 1'
_cell_length_a   6.59110032
_cell_length_b   7.36121241
_cell_length_c   9.98793700
_cell_angle_alpha   90.00000000
_cell_angle_beta   90.00000000
_cell_angle_gamma   90.18178276
_symmetry_Int_Tables_number   1
_chemical_formula_structural   Nd12IrPd2Rh
_chemical_formula_sum   'Nd12 Ir1 Pd2 Rh1'
_cell_volume   484.59717761
_cell_formula_units_Z   1
loop_
 _symmetry_equiv_pos_site_id
 _symmetry_equiv_pos_as_xyz
  1  'x, y, z'
loop_
 _atom_site_type_symbol
 _atom_site_label
 _atom_site_symmetry_multiplicity
 _atom_site_fract_x
 _atom_site_fract_y
 _atom_site_fract_z
 _atom_site_occupancy
  Nd  Nd0  1  0.327208  0.681185  0.061503  1
  Nd  Nd1  1  0.163912  0.172140  0.435797  1
  Nd  Nd2  1  0.665410  0.328319  0.564660  1
  Nd  Nd3  1  0.828428  0.818147  0.938164  1
  Nd  Nd4  1  0.665410  0.328319  0.935340  1
  Nd  Nd5  1  0.828428  0.818147  0.561836  1
  Nd  Nd6  1  0.327208  0.681185  0.438497  1
  Nd  Nd7  1  0.163912  0.172140  0.064203  1
  Nd  Nd8  1  0.867492  0.536236  0.250000  1
  Nd  Nd9  1  0.643096  0.025826  0.250000  1
  Nd  Nd10  1  0.144745  0.474379  0.750000  1
  Nd  Nd11  1  0.369975  0.962468  0.750000  1
  Ir  Ir12  1  0.568298  0.618493  0.750000  1
  Pd  Pd13  1  0.429358  0.385996  0.250000  1
  Pd  Pd14  1  0.934992  0.114943  0.750000  1
  Rh  Rh15  1  0.072127  0.882079  0.250000  1
