# generated using pymatgen
data_Dy5YTa2(Ni4P3)4
_symmetry_space_group_name_H-M   'P 1'
_cell_length_a   3.77011600
_cell_length_b   10.70132400
_cell_length_c   12.37774200
_cell_angle_alpha   90.00000000
_cell_angle_beta   90.00000000
_cell_angle_gamma   90.00000000
_symmetry_Int_Tables_number   1
_chemical_formula_structural   Dy5YTa2(Ni4P3)4
_chemical_formula_sum   'Dy5 Y1 Ta2 Ni16 P12'
_cell_volume   499.38288294
_cell_formula_units_Z   1
loop_
 _symmetry_equiv_pos_site_id
 _symmetry_equiv_pos_as_xyz
  1  'x, y, z'
loop_
 _atom_site_type_symbol
 _atom_site_label
 _atom_site_symmetry_multiplicity
 _atom_site_fract_x
 _atom_site_fract_y
 _atom_site_fract_z
 _atom_site_occupancy
  Dy  Dy0  1  0.000000  0.500000  0.525190  1
  Dy  Dy1  1  0.500000  0.819600  0.207050  1
  Dy  Dy2  1  0.500000  0.180400  0.207050  1
  Dy  Dy3  1  0.000000  0.680384  0.792917  1
  Dy  Dy4  1  0.000000  0.319616  0.792917  1
  Y  Y5  1  0.500000  0.000000  0.475123  1
  Ta  Ta6  1  0.500000  0.500000  0.153192  1
  Ta  Ta7  1  0.000000  0.000000  0.846998  1
  Ni  Ni8  1  0.500000  0.500000  0.700022  1
  Ni  Ni9  1  0.000000  0.000000  0.299673  1
  Ni  Ni10  1  0.000000  0.500000  0.983633  1
  Ni  Ni11  1  0.500000  0.000000  0.016342  1
  Ni  Ni12  1  0.500000  0.334630  0.987271  1
  Ni  Ni13  1  0.500000  0.665370  0.987271  1
  Ni  Ni14  1  0.000000  0.165774  0.012559  1
  Ni  Ni15  1  0.000000  0.834226  0.012559  1
  Ni  Ni16  1  0.500000  0.301347  0.428458  1
  Ni  Ni17  1  0.500000  0.698653  0.428458  1
  Ni  Ni18  1  0.000000  0.199286  0.571615  1
  Ni  Ni19  1  0.000000  0.800714  0.571615  1
  Ni  Ni20  1  0.500000  0.878641  0.708880  1
  Ni  Ni21  1  0.500000  0.121359  0.708880  1
  Ni  Ni22  1  0.000000  0.621184  0.291248  1
  Ni  Ni23  1  0.000000  0.378816  0.291248  1
  P  P24  1  0.500000  0.500000  0.877421  1
  P  P25  1  0.000000  0.000000  0.122213  1
  P  P26  1  0.500000  0.500000  0.352877  1
  P  P27  1  0.000000  0.000000  0.647501  1
  P  P28  1  0.500000  0.314018  0.613855  1
  P  P29  1  0.500000  0.685982  0.613855  1
  P  P30  1  0.000000  0.186337  0.385974  1
  P  P31  1  0.000000  0.813663  0.385974  1
  P  P32  1  0.500000  0.841920  0.893407  1
  P  P33  1  0.500000  0.158080  0.893407  1
  P  P34  1  0.000000  0.657869  0.106675  1
  P  P35  1  0.000000  0.342131  0.106675  1
