# generated using pymatgen
data_TbDy3HoRu2
_symmetry_space_group_name_H-M   'P 1'
_cell_length_a   6.37680619
_cell_length_b   7.26927758
_cell_length_c   8.49209036
_cell_angle_alpha   96.62674914
_cell_angle_beta   112.05247847
_cell_angle_gamma   89.99999619
_symmetry_Int_Tables_number   1
_chemical_formula_structural   TbDy3HoRu2
_chemical_formula_sum   'Tb2 Dy6 Ho2 Ru4'
_cell_volume   362.01058485
_cell_formula_units_Z   2
loop_
 _symmetry_equiv_pos_site_id
 _symmetry_equiv_pos_as_xyz
  1  'x, y, z'
loop_
 _atom_site_type_symbol
 _atom_site_label
 _atom_site_symmetry_multiplicity
 _atom_site_fract_x
 _atom_site_fract_y
 _atom_site_fract_z
 _atom_site_occupancy
  Tb  Tb0  1  0.978295  0.915714  0.186233  1
  Tb  Tb1  1  0.792063  0.584286  0.813767  1
  Dy  Dy2  1  0.021745  0.084326  0.813811  1
  Dy  Dy3  1  0.207932  0.415674  0.186189  1
  Dy  Dy4  1  0.640276  0.814659  0.433688  1
  Dy  Dy5  1  0.206589  0.685341  0.566312  1
  Dy  Dy6  1  0.359706  0.185385  0.566373  1
  Dy  Dy7  1  0.793332  0.314615  0.433627  1
  Ho  Ho8  1  0.421460  0.750000  0.000000  1
  Ho  Ho9  1  0.578430  0.250000  0.000000  1
  Ru  Ru10  1  0.823878  0.575470  0.220294  1
  Ru  Ru11  1  0.603584  0.924530  0.779706  1
  Ru  Ru12  1  0.176242  0.424411  0.779776  1
  Ru  Ru13  1  0.396467  0.075589  0.220224  1
