# generated using pymatgen
data_NdEr2BiO7
_symmetry_space_group_name_H-M   'P 1'
_cell_length_a   6.58970447
_cell_length_b   6.58970442
_cell_length_c   7.74561900
_cell_angle_alpha   90.00000000
_cell_angle_beta   90.00000000
_cell_angle_gamma   109.22818492
_symmetry_Int_Tables_number   1
_chemical_formula_structural   NdEr2BiO7
_chemical_formula_sum   'Nd2 Er4 Bi2 O14'
_cell_volume   317.58403307
_cell_formula_units_Z   2
loop_
 _symmetry_equiv_pos_site_id
 _symmetry_equiv_pos_as_xyz
  1  'x, y, z'
loop_
 _atom_site_type_symbol
 _atom_site_label
 _atom_site_symmetry_multiplicity
 _atom_site_fract_x
 _atom_site_fract_y
 _atom_site_fract_z
 _atom_site_occupancy
  Nd  Nd0  1  0.500000  0.500000  0.500000  1
  Nd  Nd1  1  0.500000  0.500000  0.000000  1
  Er  Er2  1  0.530663  0.003037  0.750000  1
  Er  Er3  1  0.003037  0.530663  0.250000  1
  Er  Er4  1  0.469337  0.996963  0.250000  1
  Er  Er5  1  0.996963  0.469337  0.750000  1
  Bi  Bi6  1  0.000000  0.000000  0.500000  1
  Bi  Bi7  1  0.000000  0.000000  0.000000  1
  O  O8  1  0.663436  0.922387  0.469935  1
  O  O9  1  0.922387  0.663436  0.530065  1
  O  O10  1  0.663436  0.922387  0.030065  1
  O  O11  1  0.922387  0.663436  0.969935  1
  O  O12  1  0.336564  0.077613  0.530065  1
  O  O13  1  0.077613  0.336564  0.469935  1
  O  O14  1  0.336564  0.077613  0.969935  1
  O  O15  1  0.077613  0.336564  0.030065  1
  O  O16  1  0.914278  0.085722  0.750000  1
  O  O17  1  0.085722  0.914278  0.250000  1
  O  O18  1  0.361317  0.638683  0.750000  1
  O  O19  1  0.638683  0.361317  0.250000  1
  O  O20  1  0.643050  0.356950  0.750000  1
  O  O21  1  0.356950  0.643050  0.250000  1
