# generated using pymatgen
data_Y4Hf3AlIr4
_symmetry_space_group_name_H-M   'P 1'
_cell_length_a   4.45184900
_cell_length_b   7.10170289
_cell_length_c   8.22289762
_cell_angle_alpha   93.05263944
_cell_angle_beta   90.00000000
_cell_angle_gamma   90.00000000
_symmetry_Int_Tables_number   1
_chemical_formula_structural   Y4Hf3AlIr4
_chemical_formula_sum   'Y4 Hf3 Al1 Ir4'
_cell_volume   259.60384405
_cell_formula_units_Z   1
loop_
 _symmetry_equiv_pos_site_id
 _symmetry_equiv_pos_as_xyz
  1  'x, y, z'
loop_
 _atom_site_type_symbol
 _atom_site_label
 _atom_site_symmetry_multiplicity
 _atom_site_fract_x
 _atom_site_fract_y
 _atom_site_fract_z
 _atom_site_occupancy
  Y  Y0  1  0.250000  0.983674  0.315557  1
  Y  Y1  1  0.250000  0.462707  0.167040  1
  Y  Y2  1  0.750000  0.031816  0.686079  1
  Y  Y3  1  0.750000  0.507075  0.835410  1
  Hf  Hf4  1  0.250000  0.367626  0.570889  1
  Hf  Hf5  1  0.250000  0.859729  0.938058  1
  Hf  Hf6  1  0.750000  0.639750  0.428015  1
  Al  Al7  1  0.750000  0.140597  0.069767  1
  Ir  Ir8  1  0.250000  0.224583  0.880011  1
  Ir  Ir9  1  0.250000  0.739492  0.601138  1
  Ir  Ir10  1  0.750000  0.773258  0.112635  1
  Ir  Ir11  1  0.750000  0.269693  0.395401  1
