# generated using pymatgen
data_Nd2B(Rh3Pb)2
_symmetry_space_group_name_H-M   'P 1'
_cell_length_a   5.93543200
_cell_length_b   5.93543159
_cell_length_c   13.89756100
_cell_angle_alpha   90.00000000
_cell_angle_beta   90.00000000
_cell_angle_gamma   119.99999113
_symmetry_Int_Tables_number   1
_chemical_formula_structural   Nd2B(Rh3Pb)2
_chemical_formula_sum   'Nd4 B2 Rh12 Pb4'
_cell_volume   424.00785005
_cell_formula_units_Z   2
loop_
 _symmetry_equiv_pos_site_id
 _symmetry_equiv_pos_as_xyz
  1  'x, y, z'
loop_
 _atom_site_type_symbol
 _atom_site_label
 _atom_site_symmetry_multiplicity
 _atom_site_fract_x
 _atom_site_fract_y
 _atom_site_fract_z
 _atom_site_occupancy
  Nd  Nd0  1  0.333333  0.666667  0.409206  1
  Nd  Nd1  1  0.666667  0.333333  0.909206  1
  Nd  Nd2  1  0.666667  0.333333  0.590794  1
  Nd  Nd3  1  0.333333  0.666667  0.090794  1
  B  B4  1  0.000000  0.000000  0.500000  1
  B  B5  1  0.000000  0.000000  0.000000  1
  Rh  Rh6  1  0.337754  0.168878  0.412076  1
  Rh  Rh7  1  0.831122  0.168878  0.412076  1
  Rh  Rh8  1  0.831122  0.662246  0.412076  1
  Rh  Rh9  1  0.168878  0.337754  0.912076  1
  Rh  Rh10  1  0.662246  0.831122  0.587924  1
  Rh  Rh11  1  0.662246  0.831122  0.912076  1
  Rh  Rh12  1  0.337754  0.168878  0.087924  1
  Rh  Rh13  1  0.168878  0.337754  0.587924  1
  Rh  Rh14  1  0.168878  0.831122  0.587924  1
  Rh  Rh15  1  0.831122  0.168878  0.087924  1
  Rh  Rh16  1  0.831122  0.662246  0.087924  1
  Rh  Rh17  1  0.168878  0.831122  0.912076  1
  Pb  Pb18  1  0.000000  0.000000  0.750000  1
  Pb  Pb19  1  0.000000  0.000000  0.250000  1
  Pb  Pb20  1  0.333333  0.666667  0.750000  1
  Pb  Pb21  1  0.666667  0.333333  0.250000  1
