# generated using pymatgen
data_Tb3Y(B4Os)4
_symmetry_space_group_name_H-M   'P 1'
_cell_length_a   3.57918700
_cell_length_b   5.98697904
_cell_length_c   11.58457408
_cell_angle_alpha   90.01342016
_cell_angle_beta   90.00000000
_cell_angle_gamma   90.00000000
_symmetry_Int_Tables_number   1
_chemical_formula_structural   Tb3Y(B4Os)4
_chemical_formula_sum   'Tb3 Y1 B16 Os4'
_cell_volume   248.24024220
_cell_formula_units_Z   1
loop_
 _symmetry_equiv_pos_site_id
 _symmetry_equiv_pos_as_xyz
  1  'x, y, z'
loop_
 _atom_site_type_symbol
 _atom_site_label
 _atom_site_symmetry_multiplicity
 _atom_site_fract_x
 _atom_site_fract_y
 _atom_site_fract_z
 _atom_site_occupancy
  Tb  Tb0  1  0.000000  0.627868  0.650069  1
  Tb  Tb1  1  0.000000  0.372127  0.349906  1
  Tb  Tb2  1  0.000000  0.127852  0.849940  1
  Y  Y3  1  0.000000  0.872086  0.150028  1
  B  B4  1  0.500000  0.975045  0.691283  1
  B  B5  1  0.500000  0.024980  0.308613  1
  B  B6  1  0.500000  0.475055  0.808714  1
  B  B7  1  0.500000  0.524986  0.191355  1
  B  B8  1  0.500000  0.788345  0.814218  1
  B  B9  1  0.500000  0.211546  0.185839  1
  B  B10  1  0.500000  0.288327  0.685801  1
  B  B11  1  0.500000  0.711599  0.314166  1
  B  B12  1  0.500000  0.863431  0.969781  1
  B  B13  1  0.500000  0.136611  0.030263  1
  B  B14  1  0.500000  0.363336  0.530282  1
  B  B15  1  0.500000  0.636683  0.469714  1
  B  B16  1  0.500000  0.887868  0.546471  1
  B  B17  1  0.500000  0.112093  0.453493  1
  B  B18  1  0.500000  0.387886  0.953560  1
  B  B19  1  0.500000  0.612324  0.046559  1
  Os  Os20  1  0.000000  0.640676  0.906876  1
  Os  Os21  1  0.000000  0.359260  0.093199  1
  Os  Os22  1  0.000000  0.140658  0.593172  1
  Os  Os23  1  0.000000  0.859358  0.406699  1
