# generated using pymatgen
data_NaSr2Fe5CoAs6
_symmetry_space_group_name_H-M   'P 1'
_cell_length_a   8.56634535
_cell_length_b   8.57140494
_cell_length_c   6.55639075
_cell_angle_alpha   69.04203718
_cell_angle_beta   69.03528068
_cell_angle_gamma   37.58483003
_symmetry_Int_Tables_number   1
_chemical_formula_structural   NaSr2Fe5CoAs6
_chemical_formula_sum   'Na1 Sr2 Fe5 Co1 As6'
_cell_volume   271.85580120
_cell_formula_units_Z   1
loop_
 _symmetry_equiv_pos_site_id
 _symmetry_equiv_pos_as_xyz
  1  'x, y, z'
loop_
 _atom_site_type_symbol
 _atom_site_label
 _atom_site_symmetry_multiplicity
 _atom_site_fract_x
 _atom_site_fract_y
 _atom_site_fract_z
 _atom_site_occupancy
  Na  Na0  1  0.000067  0.999925  0.999703  1
  Sr  Sr1  1  0.663721  0.662853  0.674859  1
  Sr  Sr2  1  0.335896  0.337998  0.325519  1
  Fe  Fe3  1  0.416230  0.917098  0.168651  1
  Fe  Fe4  1  0.750318  0.249870  0.499618  1
  Fe  Fe5  1  0.249484  0.749600  0.500679  1
  Fe  Fe6  1  0.583343  0.083202  0.831891  1
  Fe  Fe7  1  0.917606  0.416774  0.167596  1
  Co  Co8  1  0.083133  0.583234  0.831552  1
  As  As9  1  0.880687  0.884190  0.525105  1
  As  As10  1  0.215544  0.212764  0.863144  1
  As  As11  1  0.548953  0.548641  0.193741  1
  As  As12  1  0.453750  0.449752  0.804784  1
  As  As13  1  0.783268  0.786064  0.138952  1
  As  As14  1  0.118001  0.118035  0.474206  1
