# generated using pymatgen
data_Eu3Mg2CdPt3
_symmetry_space_group_name_H-M   'P 1'
_cell_length_a   7.58635500
_cell_length_b   7.50860327
_cell_length_c   4.29742000
_cell_angle_alpha   90.00000000
_cell_angle_beta   90.00000000
_cell_angle_gamma   120.34313211
_symmetry_Int_Tables_number   1
_chemical_formula_structural   Eu3Mg2CdPt3
_chemical_formula_sum   'Eu3 Mg2 Cd1 Pt3'
_cell_volume   211.26070067
_cell_formula_units_Z   1
loop_
 _symmetry_equiv_pos_site_id
 _symmetry_equiv_pos_as_xyz
  1  'x, y, z'
loop_
 _atom_site_type_symbol
 _atom_site_label
 _atom_site_symmetry_multiplicity
 _atom_site_fract_x
 _atom_site_fract_y
 _atom_site_fract_z
 _atom_site_occupancy
  Eu  Eu0  1  0.418275  0.000000  0.500001  1
  Eu  Eu1  1  0.994807  0.407958  0.500001  1
  Eu  Eu2  1  0.586849  0.592043  0.500001  1
  Mg  Mg3  1  0.243728  0.242795  0.000000  1
  Mg  Mg4  1  0.000934  0.757206  0.000000  1
  Cd  Cd5  1  0.756139  0.000000  0.000000  1
  Pt  Pt6  1  0.663123  0.343260  0.000000  1
  Pt  Pt7  1  0.319864  0.656741  0.000000  1
  Pt  Pt8  1  0.016279  0.000000  0.500001  1
