# generated using pymatgen
data_La2Nd3Os2
_symmetry_space_group_name_H-M   'P 1'
_cell_length_a   8.98948791
_cell_length_b   8.98948735
_cell_length_c   7.41949357
_cell_angle_alpha   83.89650143
_cell_angle_beta   83.89650001
_cell_angle_gamma   43.78387790
_symmetry_Int_Tables_number   1
_chemical_formula_structural   La2Nd3Os2
_chemical_formula_sum   'La4 Nd6 Os4'
_cell_volume   412.13785133
_cell_formula_units_Z   2
loop_
 _symmetry_equiv_pos_site_id
 _symmetry_equiv_pos_as_xyz
  1  'x, y, z'
loop_
 _atom_site_type_symbol
 _atom_site_label
 _atom_site_symmetry_multiplicity
 _atom_site_fract_x
 _atom_site_fract_y
 _atom_site_fract_z
 _atom_site_occupancy
  La  La0  1  0.018498  0.795123  0.909774  1
  La  La1  1  0.204877  0.981502  0.590226  1
  La  La2  1  0.981502  0.204877  0.090226  1
  La  La3  1  0.795123  0.018498  0.409774  1
  Nd  Nd4  1  0.360679  0.207823  0.815973  1
  Nd  Nd5  1  0.792177  0.639321  0.684027  1
  Nd  Nd6  1  0.639321  0.792177  0.184027  1
  Nd  Nd7  1  0.207823  0.360679  0.315973  1
  Nd  Nd8  1  0.570737  0.429263  0.750000  1
  Nd  Nd9  1  0.429263  0.570737  0.250000  1
  Os  Os10  1  0.171247  0.607322  0.578177  1
  Os  Os11  1  0.392678  0.828753  0.921823  1
  Os  Os12  1  0.828753  0.392678  0.421823  1
  Os  Os13  1  0.607322  0.171247  0.078177  1
