# generated using pymatgen
data_Yb10GaNi4Bi
_symmetry_space_group_name_H-M   'P 1'
_cell_length_a   8.86993510
_cell_length_b   8.86993399
_cell_length_c   8.86993600
_cell_angle_alpha   129.38733877
_cell_angle_beta   129.38732454
_cell_angle_gamma   74.38812834
_symmetry_Int_Tables_number   1
_chemical_formula_structural   Yb10GaNi4Bi
_chemical_formula_sum   'Yb10 Ga1 Ni4 Bi1'
_cell_volume   406.29741495
_cell_formula_units_Z   1
loop_
 _symmetry_equiv_pos_site_id
 _symmetry_equiv_pos_as_xyz
  1  'x, y, z'
loop_
 _atom_site_type_symbol
 _atom_site_label
 _atom_site_symmetry_multiplicity
 _atom_site_fract_x
 _atom_site_fract_y
 _atom_site_fract_z
 _atom_site_occupancy
  Yb  Yb0  1  0.995152  0.995160  0.999986  1
  Yb  Yb1  1  0.504840  0.504848  0.000014  1
  Yb  Yb2  1  0.808825  0.295734  0.839976  1
  Yb  Yb3  1  0.204266  0.691175  0.160024  1
  Yb  Yb4  1  0.455726  0.968852  0.160000  1
  Yb  Yb5  1  0.295706  0.455751  0.486907  1
  Yb  Yb6  1  0.044249  0.204294  0.513093  1
  Yb  Yb7  1  0.531148  0.044274  0.840000  1
  Yb  Yb8  1  0.691224  0.531161  0.486927  1
  Yb  Yb9  1  0.968839  0.808776  0.513073  1
  Ga  Ga10  1  0.250018  0.249982  0.000000  1
  Ni  Ni11  1  0.113084  0.612977  0.725633  1
  Ni  Ni12  1  0.887023  0.386916  0.274367  1
  Ni  Ni13  1  0.612757  0.887243  0.500000  1
  Ni  Ni14  1  0.387193  0.112807  0.500000  1
  Bi  Bi15  1  0.749950  0.750050  0.000000  1
