# generated using pymatgen
data_Ga3Cu10
_symmetry_space_group_name_H-M   'P 1'
_cell_length_a   9.44729800
_cell_length_b   9.44729794
_cell_length_c   4.23176300
_cell_angle_alpha   90.00000000
_cell_angle_beta   90.00000000
_cell_angle_gamma   120.00000020
_symmetry_Int_Tables_number   1
_chemical_formula_structural   Ga3Cu10
_chemical_formula_sum   'Ga6 Cu20'
_cell_volume   327.08994568
_cell_formula_units_Z   2
loop_
 _symmetry_equiv_pos_site_id
 _symmetry_equiv_pos_as_xyz
  1  'x, y, z'
loop_
 _atom_site_type_symbol
 _atom_site_label
 _atom_site_symmetry_multiplicity
 _atom_site_fract_x
 _atom_site_fract_y
 _atom_site_fract_z
 _atom_site_occupancy
  Ga  Ga0  1  0.363688  0.106580  0.250000  1
  Ga  Ga1  1  0.893420  0.257107  0.250000  1
  Ga  Ga2  1  0.742893  0.636312  0.250000  1
  Ga  Ga3  1  0.636312  0.893420  0.750000  1
  Ga  Ga4  1  0.106580  0.742893  0.750000  1
  Ga  Ga5  1  0.257107  0.363688  0.750000  1
  Cu  Cu6  1  0.333333  0.666667  0.750000  1
  Cu  Cu7  1  0.666667  0.333333  0.250000  1
  Cu  Cu8  1  0.125000  0.177687  0.250000  1
  Cu  Cu9  1  0.822313  0.947313  0.250000  1
  Cu  Cu10  1  0.052687  0.875000  0.250000  1
  Cu  Cu11  1  0.875000  0.822313  0.750000  1
  Cu  Cu12  1  0.177687  0.052687  0.750000  1
  Cu  Cu13  1  0.947313  0.125000  0.750000  1
  Cu  Cu14  1  0.434279  0.411676  0.250000  1
  Cu  Cu15  1  0.588324  0.022603  0.250000  1
  Cu  Cu16  1  0.977397  0.565721  0.250000  1
  Cu  Cu17  1  0.565721  0.588324  0.750000  1
  Cu  Cu18  1  0.411676  0.977397  0.750000  1
  Cu  Cu19  1  0.022603  0.434279  0.750000  1
  Cu  Cu20  1  0.203939  0.488369  0.250000  1
  Cu  Cu21  1  0.511631  0.715570  0.250000  1
  Cu  Cu22  1  0.284430  0.796061  0.250000  1
  Cu  Cu23  1  0.796061  0.511631  0.750000  1
  Cu  Cu24  1  0.488369  0.284430  0.750000  1
  Cu  Cu25  1  0.715570  0.203939  0.750000  1
