# generated using pymatgen
data_Sm4Dy3FeI12
_symmetry_space_group_name_H-M   'P 1'
_cell_length_a   9.79698539
_cell_length_b   9.86305589
_cell_length_c   9.87885687
_cell_angle_alpha   107.01241675
_cell_angle_beta   107.06045591
_cell_angle_gamma   106.75972724
_symmetry_Int_Tables_number   1
_chemical_formula_structural   Sm4Dy3FeI12
_chemical_formula_sum   'Sm4 Dy3 Fe1 I12'
_cell_volume   796.18237066
_cell_formula_units_Z   1
loop_
 _symmetry_equiv_pos_site_id
 _symmetry_equiv_pos_as_xyz
  1  'x, y, z'
loop_
 _atom_site_type_symbol
 _atom_site_label
 _atom_site_symmetry_multiplicity
 _atom_site_fract_x
 _atom_site_fract_y
 _atom_site_fract_z
 _atom_site_occupancy
  Sm  Sm0  1  0.282590  0.022817  0.091307  1
  Sm  Sm1  1  0.905328  0.703280  0.977685  1
  Sm  Sm2  1  0.978091  0.906055  0.703039  1
  Sm  Sm3  1  0.718306  0.979257  0.911078  1
  Dy  Dy4  1  0.499873  0.500309  0.500157  1
  Dy  Dy5  1  0.092785  0.291542  0.023182  1
  Dy  Dy6  1  0.022064  0.094276  0.291689  1
  Fe  Fe7  1  0.000428  0.000513  0.000637  1
  I  I8  1  0.461744  0.386891  0.163043  1
  I  I9  1  0.161364  0.462130  0.385380  1
  I  I10  1  0.385191  0.163525  0.463140  1
  I  I11  1  0.534639  0.613165  0.835776  1
  I  I12  1  0.837007  0.534244  0.611582  1
  I  I13  1  0.611435  0.836619  0.536668  1
  I  I14  1  0.775451  0.319576  0.927853  1
  I  I15  1  0.928516  0.776991  0.321156  1
  I  I16  1  0.320739  0.928217  0.774963  1
  I  I17  1  0.228135  0.679110  0.072989  1
  I  I18  1  0.072926  0.228774  0.680980  1
  I  I19  1  0.683390  0.072708  0.227697  1
