# generated using pymatgen
data_Tm3AlAg3Ge2
_symmetry_space_group_name_H-M   'P 1'
_cell_length_a   7.13088200
_cell_length_b   7.13088253
_cell_length_c   4.16321700
_cell_angle_alpha   90.00000000
_cell_angle_beta   90.00000000
_cell_angle_gamma   120.00000681
_symmetry_Int_Tables_number   1
_chemical_formula_structural   Tm3AlAg3Ge2
_chemical_formula_sum   'Tm3 Al1 Ag3 Ge2'
_cell_volume   183.33533750
_cell_formula_units_Z   1
loop_
 _symmetry_equiv_pos_site_id
 _symmetry_equiv_pos_as_xyz
  1  'x, y, z'
loop_
 _atom_site_type_symbol
 _atom_site_label
 _atom_site_symmetry_multiplicity
 _atom_site_fract_x
 _atom_site_fract_y
 _atom_site_fract_z
 _atom_site_occupancy
  Tm  Tm0  1  0.429339  0.429339  0.500000  1
  Tm  Tm1  1  0.570661  0.000000  0.500000  1
  Tm  Tm2  1  0.000000  0.570661  0.500000  1
  Al  Al3  1  0.000000  0.000000  0.500000  1
  Ag  Ag4  1  0.755667  0.755667  0.000000  1
  Ag  Ag5  1  0.244333  0.000000  0.000000  1
  Ag  Ag6  1  0.000000  0.244333  0.000000  1
  Ge  Ge7  1  0.666667  0.333333  0.000000  1
  Ge  Ge8  1  0.333333  0.666667  0.000000  1
