# generated using pymatgen
data_NdSc3(BO3)4
_symmetry_space_group_name_H-M   'P 1'
_cell_length_a   6.29730455
_cell_length_b   6.29730379
_cell_length_c   6.29730416
_cell_angle_alpha   103.16972031
_cell_angle_beta   103.16972081
_cell_angle_gamma   103.16970351
_symmetry_Int_Tables_number   1
_chemical_formula_structural   NdSc3(BO3)4
_chemical_formula_sum   'Nd1 Sc3 B4 O12'
_cell_volume   226.22188162
_cell_formula_units_Z   1
loop_
 _symmetry_equiv_pos_site_id
 _symmetry_equiv_pos_as_xyz
  1  'x, y, z'
loop_
 _atom_site_type_symbol
 _atom_site_label
 _atom_site_symmetry_multiplicity
 _atom_site_fract_x
 _atom_site_fract_y
 _atom_site_fract_z
 _atom_site_occupancy
  Nd  Nd0  1  0.999981  0.999981  0.999981  1
  Sc  Sc1  1  0.451889  0.548101  0.999998  1
  Sc  Sc2  1  0.999999  0.451888  0.548100  1
  Sc  Sc3  1  0.548101  0.999999  0.451887  1
  B  B4  1  0.499994  0.049825  0.950167  1
  B  B5  1  0.950167  0.499993  0.049826  1
  B  B6  1  0.049825  0.950168  0.499993  1
  B  B7  1  0.499997  0.499997  0.499997  1
  O  O8  1  0.499994  0.640551  0.359447  1
  O  O9  1  0.359448  0.499994  0.640550  1
  O  O10  1  0.640551  0.359447  0.499995  1
  O  O11  1  0.500005  0.909302  0.090689  1
  O  O12  1  0.090689  0.500004  0.909304  1
  O  O13  1  0.909303  0.090690  0.500004  1
  O  O14  1  0.630107  0.031931  0.800837  1
  O  O15  1  0.800836  0.630107  0.031931  1
  O  O16  1  0.031931  0.800836  0.630106  1
  O  O17  1  0.968069  0.369874  0.199150  1
  O  O18  1  0.369874  0.199150  0.968069  1
  O  O19  1  0.199150  0.968069  0.369874  1
