# generated using pymatgen
data_Li2Nd5P12Ir17
_symmetry_space_group_name_H-M   'P 1'
_cell_length_a   12.75113200
_cell_length_b   12.85522439
_cell_length_c   4.00196100
_cell_angle_alpha   90.00000000
_cell_angle_beta   90.00000000
_cell_angle_gamma   119.73250358
_symmetry_Int_Tables_number   1
_chemical_formula_structural   Li2Nd5P12Ir17
_chemical_formula_sum   'Li2 Nd5 P12 Ir17'
_cell_volume   569.63440976
_cell_formula_units_Z   1
loop_
 _symmetry_equiv_pos_site_id
 _symmetry_equiv_pos_as_xyz
  1  'x, y, z'
loop_
 _atom_site_type_symbol
 _atom_site_label
 _atom_site_symmetry_multiplicity
 _atom_site_fract_x
 _atom_site_fract_y
 _atom_site_fract_z
 _atom_site_occupancy
  Li  Li0  1  0.998851  0.440184  0.500000  1
  Li  Li1  1  0.558667  0.559816  0.500000  1
  Nd  Nd2  1  0.332013  0.662580  0.500000  1
  Nd  Nd3  1  0.669434  0.337420  0.500000  1
  Nd  Nd4  1  0.002689  0.809170  0.000000  1
  Nd  Nd5  1  0.193520  0.190830  0.000000  1
  Nd  Nd6  1  0.810897  0.000000  0.000000  1
  P  P7  1  0.997886  0.625988  0.500000  1
  P  P8  1  0.371897  0.374012  0.500000  1
  P  P9  1  0.636923  0.000000  0.500000  1
  P  P10  1  0.515312  0.684198  0.000000  1
  P  P11  1  0.306143  0.822708  0.000000  1
  P  P12  1  0.165257  0.478301  0.000000  1
  P  P13  1  0.483435  0.177292  0.000000  1
  P  P14  1  0.686956  0.521699  0.000000  1
  P  P15  1  0.831113  0.315802  0.000000  1
  P  P16  1  0.997886  0.179524  0.500000  1
  P  P17  1  0.818362  0.820476  0.500000  1
  P  P18  1  0.180870  0.000000  0.500000  1
  Ir  Ir19  1  0.504775  0.867976  0.000000  1
  Ir  Ir20  1  0.127460  0.638418  0.000000  1
  Ir  Ir21  1  0.355819  0.486934  0.000000  1
  Ir  Ir22  1  0.489043  0.361582  0.000000  1
  Ir  Ir23  1  0.868885  0.513066  0.000000  1
  Ir  Ir24  1  0.636799  0.132024  0.000000  1
  Ir  Ir25  1  0.457720  0.000000  0.500000  1
  Ir  Ir26  1  0.996179  0.279060  0.000000  1
  Ir  Ir27  1  0.717120  0.720940  0.000000  1
  Ir  Ir28  1  0.289769  0.000000  0.000000  1
  Ir  Ir29  1  0.620330  0.805348  0.500000  1
  Ir  Ir30  1  0.204281  0.825077  0.500000  1
  Ir  Ir31  1  0.176468  0.372896  0.500000  1
  Ir  Ir32  1  0.379205  0.174923  0.500000  1
  Ir  Ir33  1  0.803572  0.627104  0.500000  1
  Ir  Ir34  1  0.814983  0.194652  0.500000  1
  Ir  Ir35  1  0.999480  0.000000  0.500000  1
