# generated using pymatgen
data_Lu3U(ReB6)2
_symmetry_space_group_name_H-M   'P 1'
_cell_length_a   3.63914300
_cell_length_b   9.06094982
_cell_length_c   11.41361665
_cell_angle_alpha   90.31318436
_cell_angle_beta   90.00000000
_cell_angle_gamma   90.00000000
_symmetry_Int_Tables_number   1
_chemical_formula_structural   Lu3U(ReB6)2
_chemical_formula_sum   'Lu6 U2 Re4 B24'
_cell_volume   376.34802447
_cell_formula_units_Z   2
loop_
 _symmetry_equiv_pos_site_id
 _symmetry_equiv_pos_as_xyz
  1  'x, y, z'
loop_
 _atom_site_type_symbol
 _atom_site_label
 _atom_site_symmetry_multiplicity
 _atom_site_fract_x
 _atom_site_fract_y
 _atom_site_fract_z
 _atom_site_occupancy
  Lu  Lu0  1  0.000000  0.822693  0.085656  1
  Lu  Lu1  1  0.000000  0.177307  0.914344  1
  Lu  Lu2  1  0.000000  0.945324  0.372381  1
  Lu  Lu3  1  0.000000  0.054676  0.627619  1
  Lu  Lu4  1  0.000000  0.444073  0.126260  1
  Lu  Lu5  1  0.000000  0.555927  0.873740  1
  U  U6  1  0.000000  0.322277  0.413738  1
  U  U7  1  0.000000  0.677723  0.586262  1
  Re  Re8  1  0.000000  0.636362  0.324426  1
  Re  Re9  1  0.000000  0.363638  0.675574  1
  Re  Re10  1  0.000000  0.140885  0.181519  1
  Re  Re11  1  0.000000  0.859115  0.818481  1
  B  B12  1  0.500000  0.553597  0.434016  1
  B  B13  1  0.500000  0.446403  0.565984  1
  B  B14  1  0.500000  0.053502  0.066420  1
  B  B15  1  0.500000  0.946498  0.933580  1
  B  B16  1  0.500000  0.750611  0.420198  1
  B  B17  1  0.500000  0.249389  0.579802  1
  B  B18  1  0.500000  0.249672  0.079438  1
  B  B19  1  0.500000  0.750328  0.920562  1
  B  B20  1  0.500000  0.793422  0.264562  1
  B  B21  1  0.500000  0.206578  0.735438  1
  B  B22  1  0.500000  0.293807  0.234726  1
  B  B23  1  0.500000  0.706193  0.765274  1
  B  B24  1  0.500000  0.631373  0.184361  1
  B  B25  1  0.500000  0.368627  0.815639  1
  B  B26  1  0.500000  0.132373  0.315477  1
  B  B27  1  0.500000  0.867627  0.684523  1
  B  B28  1  0.500000  0.981342  0.211862  1
  B  B29  1  0.500000  0.018658  0.788138  1
  B  B30  1  0.500000  0.481901  0.286609  1
  B  B31  1  0.500000  0.518099  0.713391  1
  B  B32  1  0.500000  0.602686  0.028738  1
  B  B33  1  0.500000  0.397314  0.971262  1
  B  B34  1  0.500000  0.106152  0.470712  1
  B  B35  1  0.500000  0.893848  0.529288  1
