# generated using pymatgen
data_La2P4Ir3Rh
_symmetry_space_group_name_H-M   'P 1'
_cell_length_a   4.22852500
_cell_length_b   4.22852500
_cell_length_c   9.67537500
_cell_angle_alpha   90.00000000
_cell_angle_beta   90.00000000
_cell_angle_gamma   90.00000000
_symmetry_Int_Tables_number   1
_chemical_formula_structural   La2P4Ir3Rh
_chemical_formula_sum   'La2 P4 Ir3 Rh1'
_cell_volume   172.99980422
_cell_formula_units_Z   1
loop_
 _symmetry_equiv_pos_site_id
 _symmetry_equiv_pos_as_xyz
  1  'x, y, z'
loop_
 _atom_site_type_symbol
 _atom_site_label
 _atom_site_symmetry_multiplicity
 _atom_site_fract_x
 _atom_site_fract_y
 _atom_site_fract_z
 _atom_site_occupancy
  La  La0  1  0.000000  0.500000  0.259026  1
  La  La1  1  0.500000  0.000000  0.740974  1
  P  P2  1  0.000000  0.000000  0.500000  1
  P  P3  1  0.500000  0.500000  0.500000  1
  P  P4  1  0.000000  0.500000  0.861714  1
  P  P5  1  0.500000  0.000000  0.138286  1
  Ir  Ir6  1  0.000000  0.000000  0.000000  1
  Ir  Ir7  1  0.000000  0.500000  0.611120  1
  Ir  Ir8  1  0.500000  0.000000  0.388880  1
  Rh  Rh9  1  0.500000  0.500000  0.000000  1
