# generated using pymatgen
data_Sc12FeCo2Tc
_symmetry_space_group_name_H-M   'P 1'
_cell_length_a   5.82587100
_cell_length_b   8.55426700
_cell_length_c   13.13492100
_cell_angle_alpha   90.00000000
_cell_angle_beta   90.00000000
_cell_angle_gamma   90.00000000
_symmetry_Int_Tables_number   1
_chemical_formula_structural   Sc12FeCo2Tc
_chemical_formula_sum   'Sc24 Fe2 Co4 Tc2'
_cell_volume   654.59265906
_cell_formula_units_Z   2
loop_
 _symmetry_equiv_pos_site_id
 _symmetry_equiv_pos_as_xyz
  1  'x, y, z'
loop_
 _atom_site_type_symbol
 _atom_site_label
 _atom_site_symmetry_multiplicity
 _atom_site_fract_x
 _atom_site_fract_y
 _atom_site_fract_z
 _atom_site_occupancy
  Sc  Sc0  1  0.529673  0.750000  0.353245  1
  Sc  Sc1  1  0.029673  0.250000  0.146755  1
  Sc  Sc2  1  0.456502  0.250000  0.647722  1
  Sc  Sc3  1  0.956502  0.750000  0.852278  1
  Sc  Sc4  1  0.781385  0.750000  0.106708  1
  Sc  Sc5  1  0.281385  0.250000  0.393292  1
  Sc  Sc6  1  0.207042  0.250000  0.884594  1
  Sc  Sc7  1  0.707042  0.750000  0.615406  1
  Sc  Sc8  1  0.408658  0.933969  0.790988  1
  Sc  Sc9  1  0.908658  0.066031  0.709012  1
  Sc  Sc10  1  0.586142  0.435339  0.216800  1
  Sc  Sc11  1  0.086142  0.564661  0.283200  1
  Sc  Sc12  1  0.586142  0.064661  0.216800  1
  Sc  Sc13  1  0.086142  0.935339  0.283200  1
  Sc  Sc14  1  0.408658  0.566031  0.790988  1
  Sc  Sc15  1  0.908658  0.433969  0.709012  1
  Sc  Sc16  1  0.253395  0.940098  0.538368  1
  Sc  Sc17  1  0.753395  0.059902  0.961632  1
  Sc  Sc18  1  0.764188  0.438435  0.465145  1
  Sc  Sc19  1  0.264188  0.561565  0.034855  1
  Sc  Sc20  1  0.764188  0.061565  0.465145  1
  Sc  Sc21  1  0.264188  0.938435  0.034855  1
  Sc  Sc22  1  0.253395  0.559902  0.538368  1
  Sc  Sc23  1  0.753395  0.440098  0.961632  1
  Fe  Fe24  1  0.063956  0.250000  0.560807  1
  Fe  Fe25  1  0.563956  0.750000  0.939193  1
  Co  Co26  1  0.371485  0.750000  0.180670  1
  Co  Co27  1  0.871485  0.250000  0.319330  1
  Co  Co28  1  0.630530  0.250000  0.819450  1
  Co  Co29  1  0.130530  0.750000  0.680550  1
  Tc  Tc30  1  0.934659  0.750000  0.441945  1
  Tc  Tc31  1  0.434659  0.250000  0.058055  1
