# generated using pymatgen
data_Yb3Nb2CoO9
_symmetry_space_group_name_H-M   'P 1'
_cell_length_a   5.64913695
_cell_length_b   5.64913837
_cell_length_c   13.66052889
_cell_angle_alpha   89.09065148
_cell_angle_beta   89.09064929
_cell_angle_gamma   58.52623802
_symmetry_Int_Tables_number   1
_chemical_formula_structural   Yb3Nb2CoO9
_chemical_formula_sum   'Yb6 Nb4 Co2 O18'
_cell_volume   371.74706714
_cell_formula_units_Z   2
loop_
 _symmetry_equiv_pos_site_id
 _symmetry_equiv_pos_as_xyz
  1  'x, y, z'
loop_
 _atom_site_type_symbol
 _atom_site_label
 _atom_site_symmetry_multiplicity
 _atom_site_fract_x
 _atom_site_fract_y
 _atom_site_fract_z
 _atom_site_occupancy
  Yb  Yb0  1  0.961573  0.978724  0.740076  1
  Yb  Yb1  1  0.645474  0.619857  0.409692  1
  Yb  Yb2  1  0.299980  0.299063  0.075380  1
  Yb  Yb3  1  0.978724  0.961573  0.240076  1
  Yb  Yb4  1  0.619857  0.645474  0.909692  1
  Yb  Yb5  1  0.299063  0.299980  0.575380  1
  Nb  Nb6  1  0.674773  0.661924  0.161573  1
  Nb  Nb7  1  0.320482  0.347133  0.840967  1
  Nb  Nb8  1  0.661924  0.674773  0.661573  1
  Nb  Nb9  1  0.347133  0.320482  0.340967  1
  Co  Co10  1  0.999993  0.990530  0.499234  1
  Co  Co11  1  0.990530  0.999993  0.999234  1
  O  O12  1  0.748362  0.940130  0.597061  1
  O  O13  1  0.436593  0.611826  0.258772  1
  O  O14  1  0.082964  0.284993  0.923080  1
  O  O15  1  0.738989  0.165193  0.381758  1
  O  O16  1  0.407798  0.828430  0.059032  1
  O  O17  1  0.075396  0.498175  0.721837  1
  O  O18  1  0.240999  0.594635  0.447528  1
  O  O19  1  0.886839  0.286912  0.118088  1
  O  O20  1  0.553954  0.961917  0.783875  1
  O  O21  1  0.286912  0.886839  0.618088  1
  O  O22  1  0.961917  0.553954  0.283875  1
  O  O23  1  0.594635  0.240999  0.947528  1
  O  O24  1  0.828430  0.407798  0.559032  1
  O  O25  1  0.498175  0.075396  0.221837  1
  O  O26  1  0.165193  0.738989  0.881758  1
  O  O27  1  0.284993  0.082964  0.423080  1
  O  O28  1  0.940130  0.748362  0.097061  1
  O  O29  1  0.611826  0.436593  0.758772  1
