# generated using pymatgen
data_Dy3ThZnCo
_symmetry_space_group_name_H-M   'P 1'
_cell_length_a   9.45816238
_cell_length_b   9.45816282
_cell_length_c   9.45816300
_cell_angle_alpha   60.00000285
_cell_angle_beta   60.00000132
_cell_angle_gamma   60.00000443
_symmetry_Int_Tables_number   1
_chemical_formula_structural   Dy3ThZnCo
_chemical_formula_sum   'Dy12 Th4 Zn4 Co4'
_cell_volume   598.28122766
_cell_formula_units_Z   4
loop_
 _symmetry_equiv_pos_site_id
 _symmetry_equiv_pos_as_xyz
  1  'x, y, z'
loop_
 _atom_site_type_symbol
 _atom_site_label
 _atom_site_symmetry_multiplicity
 _atom_site_fract_x
 _atom_site_fract_y
 _atom_site_fract_z
 _atom_site_occupancy
  Dy  Dy0  1  0.060838  0.439162  0.439162  1
  Dy  Dy1  1  0.439162  0.060838  0.060838  1
  Dy  Dy2  1  0.439162  0.060838  0.439162  1
  Dy  Dy3  1  0.060838  0.439162  0.060838  1
  Dy  Dy4  1  0.439162  0.439162  0.060838  1
  Dy  Dy5  1  0.060838  0.060838  0.439162  1
  Dy  Dy6  1  0.185629  0.814371  0.814371  1
  Dy  Dy7  1  0.814371  0.185629  0.185629  1
  Dy  Dy8  1  0.814371  0.185629  0.814371  1
  Dy  Dy9  1  0.185629  0.814371  0.185629  1
  Dy  Dy10  1  0.814371  0.814371  0.185629  1
  Dy  Dy11  1  0.185629  0.185629  0.814371  1
  Th  Th12  1  0.598504  0.598504  0.598504  1
  Th  Th13  1  0.598504  0.598504  0.204489  1
  Th  Th14  1  0.598504  0.204489  0.598504  1
  Th  Th15  1  0.204489  0.598504  0.598504  1
  Zn  Zn16  1  0.828815  0.828815  0.828815  1
  Zn  Zn17  1  0.828815  0.828815  0.513556  1
  Zn  Zn18  1  0.828815  0.513556  0.828815  1
  Zn  Zn19  1  0.513556  0.828815  0.828815  1
  Co  Co20  1  0.394696  0.394696  0.394696  1
  Co  Co21  1  0.394696  0.394696  0.815913  1
  Co  Co22  1  0.394696  0.815913  0.394696  1
  Co  Co23  1  0.815913  0.394696  0.394696  1
