# generated using pymatgen
data_Li2Tb5Sm(Co4P3)4
_symmetry_space_group_name_H-M   'P 1'
_cell_length_a   3.72774800
_cell_length_b   10.59596300
_cell_length_c   12.23435600
_cell_angle_alpha   90.00000000
_cell_angle_beta   90.00000000
_cell_angle_gamma   90.00000000
_symmetry_Int_Tables_number   1
_chemical_formula_structural   Li2Tb5Sm(Co4P3)4
_chemical_formula_sum   'Li2 Tb5 Sm1 Co16 P12'
_cell_volume   483.24580494
_cell_formula_units_Z   1
loop_
 _symmetry_equiv_pos_site_id
 _symmetry_equiv_pos_as_xyz
  1  'x, y, z'
loop_
 _atom_site_type_symbol
 _atom_site_label
 _atom_site_symmetry_multiplicity
 _atom_site_fract_x
 _atom_site_fract_y
 _atom_site_fract_z
 _atom_site_occupancy
  Li  Li0  1  0.500000  0.500000  0.152188  1
  Li  Li1  1  0.000000  0.000000  0.847227  1
  Tb  Tb2  1  0.500000  0.000000  0.477181  1
  Tb  Tb3  1  0.500000  0.819304  0.205951  1
  Tb  Tb4  1  0.500000  0.180696  0.205951  1
  Tb  Tb5  1  0.000000  0.680997  0.794287  1
  Tb  Tb6  1  0.000000  0.319003  0.794287  1
  Sm  Sm7  1  0.000000  0.500000  0.523212  1
  Co  Co8  1  0.500000  0.500000  0.705509  1
  Co  Co9  1  0.000000  0.000000  0.295746  1
  Co  Co10  1  0.000000  0.500000  0.987059  1
  Co  Co11  1  0.500000  0.000000  0.013071  1
  Co  Co12  1  0.500000  0.332945  0.996961  1
  Co  Co13  1  0.500000  0.667055  0.996961  1
  Co  Co14  1  0.000000  0.166986  0.003097  1
  Co  Co15  1  0.000000  0.833014  0.003097  1
  Co  Co16  1  0.500000  0.295643  0.430642  1
  Co  Co17  1  0.500000  0.704357  0.430642  1
  Co  Co18  1  0.000000  0.202486  0.569145  1
  Co  Co19  1  0.000000  0.797514  0.569145  1
  Co  Co20  1  0.500000  0.879344  0.706962  1
  Co  Co21  1  0.500000  0.120656  0.706962  1
  Co  Co22  1  0.000000  0.621270  0.292620  1
  Co  Co23  1  0.000000  0.378730  0.292620  1
  P  P24  1  0.500000  0.500000  0.885481  1
  P  P25  1  0.000000  0.000000  0.114912  1
  P  P26  1  0.500000  0.500000  0.343725  1
  P  P27  1  0.000000  0.000000  0.654660  1
  P  P28  1  0.500000  0.307528  0.615975  1
  P  P29  1  0.500000  0.692472  0.615975  1
  P  P30  1  0.000000  0.190866  0.384404  1
  P  P31  1  0.000000  0.809134  0.384404  1
  P  P32  1  0.500000  0.843824  0.894316  1
  P  P33  1  0.500000  0.156176  0.894316  1
  P  P34  1  0.000000  0.656371  0.105652  1
  P  P35  1  0.000000  0.343629  0.105652  1
