# generated using pymatgen
data_Sc4Nb4Co7Si14Os
_symmetry_space_group_name_H-M   'P 1'
_cell_length_a   9.42871918
_cell_length_b   9.40908373
_cell_length_c   9.43647902
_cell_angle_alpha   94.10046027
_cell_angle_beta   94.21103503
_cell_angle_gamma   148.74094114
_symmetry_Int_Tables_number   1
_chemical_formula_structural   Sc4Nb4Co7Si14Os
_chemical_formula_sum   'Sc4 Nb4 Co7 Si14 Os1'
_cell_volume   418.40067222
_cell_formula_units_Z   1
loop_
 _symmetry_equiv_pos_site_id
 _symmetry_equiv_pos_as_xyz
  1  'x, y, z'
loop_
 _atom_site_type_symbol
 _atom_site_label
 _atom_site_symmetry_multiplicity
 _atom_site_fract_x
 _atom_site_fract_y
 _atom_site_fract_z
 _atom_site_occupancy
  Sc  Sc0  1  0.306798  0.502162  0.803884  1
  Sc  Sc1  1  0.694134  0.502027  0.197185  1
  Sc  Sc2  1  0.503016  0.695116  0.197226  1
  Sc  Sc3  1  0.497143  0.301796  0.803917  1
  Nb  Nb4  1  0.134826  0.134837  0.269602  1
  Nb  Nb5  1  0.864947  0.864958  0.729943  1
  Nb  Nb6  1  0.134298  0.863675  0.000773  1
  Nb  Nb7  1  0.866484  0.137087  0.000783  1
  Co  Co8  1  0.104089  0.604083  0.208176  1
  Co  Co9  1  0.899439  0.103198  0.498849  1
  Co  Co10  1  0.599376  0.395655  0.498846  1
  Co  Co11  1  0.601453  0.101478  0.202923  1
  Co  Co12  1  0.898815  0.398832  0.797439  1
  Co  Co13  1  0.100287  0.895607  0.498767  1
  Co  Co14  1  0.398509  0.603148  0.498766  1
  Si  Si15  1  0.287917  0.287933  0.575972  1
  Si  Si16  1  0.712224  0.712238  0.424298  1
  Si  Si17  1  0.280440  0.699241  0.006168  1
  Si  Si18  1  0.725771  0.306952  0.006201  1
  Si  Si19  1  0.078512  0.485631  0.586846  1
  Si  Si20  1  0.902209  0.495540  0.407014  1
  Si  Si21  1  0.504847  0.911503  0.407040  1
  Si  Si22  1  0.508322  0.101186  0.586858  1
  Si  Si23  1  0.242673  0.242094  0.999959  1
  Si  Si24  1  0.757286  0.757859  0.999977  1
  Si  Si25  1  0.298462  0.000164  0.298261  1
  Si  Si26  1  0.713019  0.004859  0.700337  1
  Si  Si27  1  0.987396  0.695529  0.700363  1
  Si  Si28  1  0.999774  0.298081  0.298289  1
  Os  Os29  1  0.397535  0.897530  0.795338  1
