# generated using pymatgen
data_Rb8Dy6HgI20
_symmetry_space_group_name_H-M   'P 1'
_cell_length_a   13.24436391
_cell_length_b   13.24436440
_cell_length_c   13.24436300
_cell_angle_alpha   59.99999601
_cell_angle_beta   59.99999478
_cell_angle_gamma   59.99999919
_symmetry_Int_Tables_number   1
_chemical_formula_structural   Rb8Dy6HgI20
_chemical_formula_sum   'Rb8 Dy6 Hg1 I20'
_cell_volume   1642.77570362
_cell_formula_units_Z   1
loop_
 _symmetry_equiv_pos_site_id
 _symmetry_equiv_pos_as_xyz
  1  'x, y, z'
loop_
 _atom_site_type_symbol
 _atom_site_label
 _atom_site_symmetry_multiplicity
 _atom_site_fract_x
 _atom_site_fract_y
 _atom_site_fract_z
 _atom_site_occupancy
  Rb  Rb0  1  0.359019  0.359019  0.359019  1
  Rb  Rb1  1  0.640981  0.640981  0.640981  1
  Rb  Rb2  1  0.359019  0.359019  0.922943  1
  Rb  Rb3  1  0.359019  0.922943  0.359019  1
  Rb  Rb4  1  0.640981  0.640981  0.077057  1
  Rb  Rb5  1  0.640981  0.077057  0.640981  1
  Rb  Rb6  1  0.922943  0.359019  0.359019  1
  Rb  Rb7  1  0.077057  0.640981  0.640981  1
  Dy  Dy8  1  0.845082  0.154918  0.154918  1
  Dy  Dy9  1  0.154918  0.845082  0.845082  1
  Dy  Dy10  1  0.154918  0.845082  0.154918  1
  Dy  Dy11  1  0.845082  0.154918  0.845082  1
  Dy  Dy12  1  0.154918  0.154918  0.845082  1
  Dy  Dy13  1  0.845082  0.845082  0.154918  1
  Hg  Hg14  1  0.000000  0.000000  0.000000  1
  I  I15  1  0.331942  0.000000  0.000000  1
  I  I16  1  0.668058  0.000000  0.000000  1
  I  I17  1  0.000000  0.331942  0.668058  1
  I  I18  1  0.000000  0.668058  0.331942  1
  I  I19  1  0.000000  0.331942  0.000000  1
  I  I20  1  0.668058  0.000000  0.331942  1
  I  I21  1  0.000000  0.668058  0.000000  1
  I  I22  1  0.331942  0.000000  0.668058  1
  I  I23  1  0.000000  0.000000  0.331942  1
  I  I24  1  0.000000  0.000000  0.668058  1
  I  I25  1  0.668058  0.331942  0.000000  1
  I  I26  1  0.331942  0.668058  0.000000  1
  I  I27  1  0.678951  0.321049  0.321049  1
  I  I28  1  0.321049  0.678951  0.678951  1
  I  I29  1  0.321049  0.678951  0.321049  1
  I  I30  1  0.678951  0.321049  0.678951  1
  I  I31  1  0.321049  0.321049  0.678951  1
  I  I32  1  0.678951  0.678951  0.321049  1
  I  I33  1  0.250000  0.250000  0.250000  1
  I  I34  1  0.750000  0.750000  0.750000  1
