# generated using pymatgen
data_Zr5Co16Si6(TcP2)3
_symmetry_space_group_name_H-M   'P 1'
_cell_length_a   11.95431400
_cell_length_b   11.95431520
_cell_length_c   3.66906300
_cell_angle_alpha   90.00000000
_cell_angle_beta   90.00000000
_cell_angle_gamma   119.99999667
_symmetry_Int_Tables_number   1
_chemical_formula_structural   Zr5Co16Si6(TcP2)3
_chemical_formula_sum   'Zr5 Co16 Si6 Tc3 P6'
_cell_volume   454.08293115
_cell_formula_units_Z   1
loop_
 _symmetry_equiv_pos_site_id
 _symmetry_equiv_pos_as_xyz
  1  'x, y, z'
loop_
 _atom_site_type_symbol
 _atom_site_label
 _atom_site_symmetry_multiplicity
 _atom_site_fract_x
 _atom_site_fract_y
 _atom_site_fract_z
 _atom_site_occupancy
  Zr  Zr0  1  0.666667  0.333333  0.000000  1
  Zr  Zr1  1  0.333333  0.666667  0.000000  1
  Zr  Zr2  1  0.818946  0.818946  0.500000  1
  Zr  Zr3  1  0.181054  0.000000  0.500000  1
  Zr  Zr4  1  0.000000  0.181054  0.500000  1
  Co  Co5  1  0.192230  0.369409  0.000000  1
  Co  Co6  1  0.177180  0.807770  0.000000  1
  Co  Co7  1  0.822820  0.630591  0.000000  1
  Co  Co8  1  0.807770  0.177180  0.000000  1
  Co  Co9  1  0.369409  0.192230  0.000000  1
  Co  Co10  1  0.123124  0.475753  0.500000  1
  Co  Co11  1  0.352629  0.876876  0.500000  1
  Co  Co12  1  0.524247  0.647371  0.500000  1
  Co  Co13  1  0.647371  0.524247  0.500000  1
  Co  Co14  1  0.876876  0.352629  0.500000  1
  Co  Co15  1  0.475753  0.123124  0.500000  1
  Co  Co16  1  0.000000  0.000000  0.000000  1
  Co  Co17  1  0.723814  0.000000  0.500000  1
  Co  Co18  1  0.000000  0.723814  0.500000  1
  Co  Co19  1  0.630591  0.822820  0.000000  1
  Co  Co20  1  0.276186  0.276186  0.500000  1
  Si  Si21  1  0.481658  0.316792  0.500000  1
  Si  Si22  1  0.683208  0.164866  0.500000  1
  Si  Si23  1  0.835134  0.518342  0.500000  1
  Si  Si24  1  0.518342  0.835134  0.500000  1
  Si  Si25  1  0.164866  0.683208  0.500000  1
  Si  Si26  1  0.316792  0.481658  0.500000  1
  Tc  Tc27  1  0.446887  0.446887  0.000000  1
  Tc  Tc28  1  0.553113  0.000000  0.000000  1
  Tc  Tc29  1  0.000000  0.553113  0.000000  1
  P  P30  1  0.640651  0.640651  0.000000  1
  P  P31  1  0.359349  0.000000  0.000000  1
  P  P32  1  0.000000  0.359349  0.000000  1
  P  P33  1  0.824271  0.000000  0.000000  1
  P  P34  1  0.000000  0.824271  0.000000  1
  P  P35  1  0.175729  0.175729  0.000000  1
