# generated using pymatgen
data_VCl30
_symmetry_space_group_name_H-M   'P 1'
_cell_length_a   13.22628273
_cell_length_b   13.22628322
_cell_length_c   15.63111495
_cell_angle_alpha   83.87479987
_cell_angle_beta   83.87479793
_cell_angle_gamma   125.15636549
_symmetry_Int_Tables_number   1
_chemical_formula_structural   VCl30
_chemical_formula_sum   'V1 Cl30'
_cell_volume   2174.78768092
_cell_formula_units_Z   1
loop_
 _symmetry_equiv_pos_site_id
 _symmetry_equiv_pos_as_xyz
  1  'x, y, z'
loop_
 _atom_site_type_symbol
 _atom_site_label
 _atom_site_symmetry_multiplicity
 _atom_site_fract_x
 _atom_site_fract_y
 _atom_site_fract_z
 _atom_site_occupancy
  V  V0  1  0.000000  0.000000  0.000000  1
  Cl  Cl1  1  0.943767  0.943767  0.155771  1
  Cl  Cl2  1  0.056233  0.056233  0.844229  1
  Cl  Cl3  1  0.060519  0.194506  0.005430  1
  Cl  Cl4  1  0.939481  0.805494  0.994570  1
  Cl  Cl5  1  0.194506  0.060519  0.005430  1
  Cl  Cl6  1  0.805494  0.939481  0.994570  1
  Cl  Cl7  1  0.202606  0.741368  0.065682  1
  Cl  Cl8  1  0.797394  0.258632  0.934318  1
  Cl  Cl9  1  0.699940  0.078656  0.261417  1
  Cl  Cl10  1  0.258632  0.797394  0.934318  1
  Cl  Cl11  1  0.300060  0.921344  0.738583  1
  Cl  Cl12  1  0.741368  0.202606  0.065682  1
  Cl  Cl13  1  0.981831  0.195635  0.778769  1
  Cl  Cl14  1  0.921344  0.300060  0.738583  1
  Cl  Cl15  1  0.018169  0.804365  0.221231  1
  Cl  Cl16  1  0.078656  0.699940  0.261417  1
  Cl  Cl17  1  0.804365  0.018169  0.221231  1
  Cl  Cl18  1  0.195635  0.981831  0.778769  1
  Cl  Cl19  1  0.464107  0.548887  0.259830  1
  Cl  Cl20  1  0.535893  0.451113  0.740170  1
  Cl  Cl21  1  0.507994  0.204663  0.449861  1
  Cl  Cl22  1  0.451113  0.535893  0.740170  1
  Cl  Cl23  1  0.492006  0.795337  0.550139  1
  Cl  Cl24  1  0.548887  0.464107  0.259830  1
  Cl  Cl25  1  0.239210  0.427187  0.545772  1
  Cl  Cl26  1  0.795337  0.492006  0.550139  1
  Cl  Cl27  1  0.760790  0.572813  0.454228  1
  Cl  Cl28  1  0.204663  0.507994  0.449861  1
  Cl  Cl29  1  0.572813  0.760790  0.454228  1
  Cl  Cl30  1  0.427187  0.239210  0.545772  1
