# generated using pymatgen
data_Np4Mn3FeB16
_symmetry_space_group_name_H-M   'P 1'
_cell_length_a   3.35713700
_cell_length_b   5.89801628
_cell_length_c   11.42607069
_cell_angle_alpha   90.00228834
_cell_angle_beta   90.00000000
_cell_angle_gamma   90.00000000
_symmetry_Int_Tables_number   1
_chemical_formula_structural   Np4Mn3FeB16
_chemical_formula_sum   'Np4 Mn3 Fe1 B16'
_cell_volume   226.24132592
_cell_formula_units_Z   1
loop_
 _symmetry_equiv_pos_site_id
 _symmetry_equiv_pos_as_xyz
  1  'x, y, z'
loop_
 _atom_site_type_symbol
 _atom_site_label
 _atom_site_symmetry_multiplicity
 _atom_site_fract_x
 _atom_site_fract_y
 _atom_site_fract_z
 _atom_site_occupancy
  Np  Np0  1  0.000000  0.124978  0.650454  1
  Np  Np1  1  0.000000  0.874432  0.349302  1
  Np  Np2  1  0.000000  0.624668  0.849023  1
  Np  Np3  1  0.000000  0.374860  0.150516  1
  Mn  Mn4  1  0.000000  0.132305  0.911416  1
  Mn  Mn5  1  0.000000  0.867971  0.088896  1
  Mn  Mn6  1  0.000000  0.631720  0.588241  1
  Fe  Fe7  1  0.000000  0.368491  0.411711  1
  B  B8  1  0.500000  0.362990  0.966918  1
  B  B9  1  0.500000  0.637220  0.032998  1
  B  B10  1  0.500000  0.862877  0.532931  1
  B  B11  1  0.500000  0.137463  0.466881  1
  B  B12  1  0.500000  0.473367  0.690580  1
  B  B13  1  0.500000  0.526323  0.309468  1
  B  B14  1  0.500000  0.973620  0.809296  1
  B  B15  1  0.500000  0.026772  0.190786  1
  B  B16  1  0.500000  0.281450  0.814436  1
  B  B17  1  0.500000  0.718323  0.185536  1
  B  B18  1  0.500000  0.781414  0.685424  1
  B  B19  1  0.500000  0.218872  0.314980  1
  B  B20  1  0.500000  0.386993  0.546087  1
  B  B21  1  0.500000  0.613115  0.454181  1
  B  B22  1  0.500000  0.886749  0.954041  1
  B  B23  1  0.500000  0.113030  0.045900  1
