# generated using pymatgen
data_Dy2ThGa6(CuNi2)3
_symmetry_space_group_name_H-M   'P 1'
_cell_length_a   4.11622800
_cell_length_b   8.86251417
_cell_length_c   8.85743102
_cell_angle_alpha   60.06669604
_cell_angle_beta   90.00000000
_cell_angle_gamma   90.00000000
_symmetry_Int_Tables_number   1
_chemical_formula_structural   Dy2ThGa6(CuNi2)3
_chemical_formula_sum   'Dy2 Th1 Ga6 Cu3 Ni6'
_cell_volume   280.01820119
_cell_formula_units_Z   1
loop_
 _symmetry_equiv_pos_site_id
 _symmetry_equiv_pos_as_xyz
  1  'x, y, z'
loop_
 _atom_site_type_symbol
 _atom_site_label
 _atom_site_symmetry_multiplicity
 _atom_site_fract_x
 _atom_site_fract_y
 _atom_site_fract_z
 _atom_site_occupancy
  Dy  Dy0  1  0.500000  0.333342  0.333270  1
  Dy  Dy1  1  0.500000  0.666569  0.666787  1
  Th  Th2  1  0.000000  0.000053  0.999855  1
  Ga  Ga3  1  0.000000  0.520769  0.479303  1
  Ga  Ga4  1  0.000000  0.479216  0.000224  1
  Ga  Ga5  1  0.000000  0.999925  0.520755  1
  Ga  Ga6  1  0.500000  0.290319  0.709662  1
  Ga  Ga7  1  0.500000  0.709787  0.000066  1
  Ga  Ga8  1  0.500000  0.999913  0.290424  1
  Cu  Cu9  1  0.500000  0.706916  0.293178  1
  Cu  Cu10  1  0.500000  0.292946  0.000058  1
  Cu  Cu11  1  0.500000  0.000034  0.706760  1
  Ni  Ni12  1  0.000000  0.172360  0.201791  1
  Ni  Ni13  1  0.000000  0.202073  0.625422  1
  Ni  Ni14  1  0.000000  0.625682  0.172518  1
  Ni  Ni15  1  0.000000  0.798028  0.827675  1
  Ni  Ni16  1  0.000000  0.374412  0.798132  1
  Ni  Ni17  1  0.000000  0.827554  0.374220  1
