# generated using pymatgen
data_ErZr2WF15
_symmetry_space_group_name_H-M   'P 1'
_cell_length_a   8.16618483
_cell_length_b   8.16618427
_cell_length_c   8.15945300
_cell_angle_alpha   79.80537244
_cell_angle_beta   79.80538027
_cell_angle_gamma   100.09428413
_symmetry_Int_Tables_number   1
_chemical_formula_structural   ErZr2WF15
_chemical_formula_sum   'Er2 Zr4 W2 F30'
_cell_volume   514.95341053
_cell_formula_units_Z   2
loop_
 _symmetry_equiv_pos_site_id
 _symmetry_equiv_pos_as_xyz
  1  'x, y, z'
loop_
 _atom_site_type_symbol
 _atom_site_label
 _atom_site_symmetry_multiplicity
 _atom_site_fract_x
 _atom_site_fract_y
 _atom_site_fract_z
 _atom_site_occupancy
  Er  Er0  1  0.177074  0.822926  0.250000  1
  Er  Er1  1  0.822926  0.177074  0.750000  1
  Zr  Zr2  1  0.749290  0.677554  0.674368  1
  Zr  Zr3  1  0.322446  0.250710  0.825632  1
  Zr  Zr4  1  0.250710  0.322446  0.325632  1
  Zr  Zr5  1  0.677554  0.749290  0.174368  1
  W  W6  1  0.750116  0.249884  0.250000  1
  W  W7  1  0.249884  0.750116  0.750000  1
  F  F8  1  0.316484  0.349981  0.053398  1
  F  F9  1  0.937404  0.813055  0.151759  1
  F  F10  1  0.844272  0.458261  0.683459  1
  F  F11  1  0.458261  0.844272  0.183459  1
  F  F12  1  0.813055  0.937404  0.651759  1
  F  F13  1  0.349981  0.316484  0.553397  1
  F  F14  1  0.683516  0.650019  0.946602  1
  F  F15  1  0.062596  0.186945  0.848241  1
  F  F16  1  0.155728  0.541739  0.316541  1
  F  F17  1  0.541739  0.155728  0.816541  1
  F  F18  1  0.186945  0.062596  0.348241  1
  F  F19  1  0.650019  0.683516  0.446602  1
  F  F20  1  0.775835  0.281673  0.998119  1
  F  F21  1  0.006737  0.276891  0.217413  1
  F  F22  1  0.780282  0.506621  0.222668  1
  F  F23  1  0.506621  0.780282  0.722668  1
  F  F24  1  0.276891  0.006737  0.717413  1
  F  F25  1  0.281673  0.775835  0.498119  1
  F  F26  1  0.224165  0.718327  0.001881  1
  F  F27  1  0.993263  0.723109  0.782587  1
  F  F28  1  0.219718  0.493379  0.777332  1
  F  F29  1  0.493379  0.219718  0.277332  1
  F  F30  1  0.723109  0.993263  0.282587  1
  F  F31  1  0.718327  0.224165  0.501881  1
  F  F32  1  0.467237  0.532763  0.250000  1
  F  F33  1  0.747751  0.956248  0.970334  1
  F  F34  1  0.043752  0.252249  0.529666  1
  F  F35  1  0.252249  0.043752  0.029666  1
  F  F36  1  0.956248  0.747751  0.470334  1
  F  F37  1  0.532763  0.467237  0.750000  1
