# generated using pymatgen
data_Y12ZnFe4Bi
_symmetry_space_group_name_H-M   'P 1'
_cell_length_a   8.42976063
_cell_length_b   8.42976036
_cell_length_c   8.42975957
_cell_angle_alpha   110.60540963
_cell_angle_beta   111.31810124
_cell_angle_gamma   106.53041659
_symmetry_Int_Tables_number   1
_chemical_formula_structural   Y12ZnFe4Bi
_chemical_formula_sum   'Y12 Zn1 Fe4 Bi1'
_cell_volume   460.20645816
_cell_formula_units_Z   1
loop_
 _symmetry_equiv_pos_site_id
 _symmetry_equiv_pos_as_xyz
  1  'x, y, z'
loop_
 _atom_site_type_symbol
 _atom_site_label
 _atom_site_symmetry_multiplicity
 _atom_site_fract_x
 _atom_site_fract_y
 _atom_site_fract_z
 _atom_site_occupancy
  Y  Y0  1  0.284914  0.184659  0.469573  1
  Y  Y1  1  0.715143  0.815361  0.530503  1
  Y  Y2  1  0.284857  0.815361  0.100220  1
  Y  Y3  1  0.715086  0.184659  0.899744  1
  Y  Y4  1  0.615698  0.311206  0.304015  1
  Y  Y5  1  0.384302  0.688317  0.695508  1
  Y  Y6  1  0.007191  0.311206  0.695508  1
  Y  Y7  1  0.992809  0.688317  0.304015  1
  Y  Y8  1  0.219301  0.426975  0.207675  1
  Y  Y9  1  0.780480  0.572577  0.792096  1
  Y  Y10  1  0.219520  0.011616  0.792096  1
  Y  Y11  1  0.780699  0.988374  0.207675  1
  Zn  Zn12  1  0.000000  0.999699  0.999699  1
  Fe  Fe13  1  0.000000  0.387158  0.387158  1
  Fe  Fe14  1  0.000000  0.614731  0.614731  1
  Fe  Fe15  1  0.393286  0.893241  0.499955  1
  Fe  Fe16  1  0.606714  0.106668  0.499955  1
  Bi  Bi17  1  0.500000  0.499871  0.999871  1
