# generated using pymatgen
data_Y4Lu6Os3Ru
_symmetry_space_group_name_H-M   'P 1'
_cell_length_a   6.23890838
_cell_length_b   7.34003003
_cell_length_c   8.33058382
_cell_angle_alpha   97.24766791
_cell_angle_beta   111.91862349
_cell_angle_gamma   89.98118357
_symmetry_Int_Tables_number   1
_chemical_formula_structural   Y4Lu6Os3Ru
_chemical_formula_sum   'Y4 Lu6 Os3 Ru1'
_cell_volume   350.63163575
_cell_formula_units_Z   1
loop_
 _symmetry_equiv_pos_site_id
 _symmetry_equiv_pos_as_xyz
  1  'x, y, z'
loop_
 _atom_site_type_symbol
 _atom_site_label
 _atom_site_symmetry_multiplicity
 _atom_site_fract_x
 _atom_site_fract_y
 _atom_site_fract_z
 _atom_site_occupancy
  Y  Y0  1  0.523986  0.081157  0.809442  1
  Y  Y1  1  0.475796  0.918155  0.188008  1
  Y  Y2  1  0.713090  0.418085  0.187101  1
  Y  Y3  1  0.285390  0.580915  0.811800  1
  Lu  Lu4  1  0.304859  0.317548  0.435034  1
  Lu  Lu5  1  0.696395  0.683240  0.565478  1
  Lu  Lu6  1  0.867771  0.183861  0.566302  1
  Lu  Lu7  1  0.131302  0.817160  0.434784  1
  Lu  Lu8  1  0.081814  0.250141  0.999623  1
  Lu  Lu9  1  0.918607  0.749847  0.999798  1
  Os  Os10  1  0.312539  0.577777  0.221255  1
  Os  Os11  1  0.687357  0.423079  0.779533  1
  Os  Os12  1  0.090632  0.921912  0.777872  1
  Ru  Ru13  1  0.910461  0.077123  0.223971  1
