# generated using pymatgen
data_Tb2Tm2MnTc7
_symmetry_space_group_name_H-M   'P 1'
_cell_length_a   5.31979500
_cell_length_b   5.31979509
_cell_length_c   8.94188900
_cell_angle_alpha   90.00000000
_cell_angle_beta   90.00000000
_cell_angle_gamma   119.99999325
_symmetry_Int_Tables_number   1
_chemical_formula_structural   Tb2Tm2MnTc7
_chemical_formula_sum   'Tb2 Tm2 Mn1 Tc7'
_cell_volume   219.15416890
_cell_formula_units_Z   1
loop_
 _symmetry_equiv_pos_site_id
 _symmetry_equiv_pos_as_xyz
  1  'x, y, z'
loop_
 _atom_site_type_symbol
 _atom_site_label
 _atom_site_symmetry_multiplicity
 _atom_site_fract_x
 _atom_site_fract_y
 _atom_site_fract_z
 _atom_site_occupancy
  Tb  Tb0  1  0.333333  0.666667  0.435942  1
  Tb  Tb1  1  0.666667  0.333333  0.564058  1
  Tm  Tm2  1  0.666667  0.333333  0.935611  1
  Tm  Tm3  1  0.333333  0.666667  0.064389  1
  Mn  Mn4  1  0.000000  0.000000  0.500000  1
  Tc  Tc5  1  0.000000  0.000000  0.000000  1
  Tc  Tc6  1  0.829717  0.170283  0.249836  1
  Tc  Tc7  1  0.829717  0.659435  0.249836  1
  Tc  Tc8  1  0.340565  0.170283  0.249836  1
  Tc  Tc9  1  0.170283  0.829717  0.750164  1
  Tc  Tc10  1  0.170283  0.340565  0.750164  1
  Tc  Tc11  1  0.659435  0.829717  0.750164  1
