# generated using pymatgen
data_DyNb8VS16
_symmetry_space_group_name_H-M   'P 1'
_cell_length_a   6.71853900
_cell_length_b   6.71854109
_cell_length_c   13.03771800
_cell_angle_alpha   90.00000000
_cell_angle_beta   90.00000000
_cell_angle_gamma   120.00000447
_symmetry_Int_Tables_number   1
_chemical_formula_structural   DyNb8VS16
_chemical_formula_sum   'Dy1 Nb8 V1 S16'
_cell_volume   509.66172007
_cell_formula_units_Z   1
loop_
 _symmetry_equiv_pos_site_id
 _symmetry_equiv_pos_as_xyz
  1  'x, y, z'
loop_
 _atom_site_type_symbol
 _atom_site_label
 _atom_site_symmetry_multiplicity
 _atom_site_fract_x
 _atom_site_fract_y
 _atom_site_fract_z
 _atom_site_occupancy
  Dy  Dy0  1  0.000000  0.000000  0.000000  1
  Nb  Nb1  1  0.000000  0.000000  0.263869  1
  Nb  Nb2  1  0.000000  0.000000  0.736131  1
  Nb  Nb3  1  0.504760  0.009518  0.266174  1
  Nb  Nb4  1  0.495240  0.990482  0.733826  1
  Nb  Nb5  1  0.990482  0.495240  0.266174  1
  Nb  Nb6  1  0.009518  0.504760  0.733826  1
  Nb  Nb7  1  0.504760  0.495240  0.266174  1
  Nb  Nb8  1  0.495240  0.504760  0.733826  1
  V  V9  1  0.000000  0.000000  0.500000  1
  S  S10  1  0.333333  0.666667  0.612213  1
  S  S11  1  0.666667  0.333333  0.387787  1
  S  S12  1  0.666667  0.333333  0.143213  1
  S  S13  1  0.333333  0.666667  0.856787  1
  S  S14  1  0.169099  0.338197  0.144049  1
  S  S15  1  0.830901  0.661803  0.855951  1
  S  S16  1  0.661803  0.830901  0.144049  1
  S  S17  1  0.834957  0.669914  0.614472  1
  S  S18  1  0.338197  0.169099  0.855951  1
  S  S19  1  0.165043  0.330086  0.385528  1
  S  S20  1  0.169099  0.830901  0.144049  1
  S  S21  1  0.330086  0.165043  0.614472  1
  S  S22  1  0.830901  0.169099  0.855951  1
  S  S23  1  0.669914  0.834957  0.385528  1
  S  S24  1  0.834957  0.165043  0.614472  1
  S  S25  1  0.165043  0.834957  0.385528  1
