# generated using pymatgen
data_CaPr5SmFeI12
_symmetry_space_group_name_H-M   'P 1'
_cell_length_a   10.13555135
_cell_length_b   10.04480602
_cell_length_c   10.05031258
_cell_angle_alpha   106.98251374
_cell_angle_beta   106.79207379
_cell_angle_gamma   107.19363772
_symmetry_Int_Tables_number   1
_chemical_formula_structural   CaPr5SmFeI12
_chemical_formula_sum   'Ca1 Pr5 Sm1 Fe1 I12'
_cell_volume   852.38437143
_cell_formula_units_Z   1
loop_
 _symmetry_equiv_pos_site_id
 _symmetry_equiv_pos_as_xyz
  1  'x, y, z'
loop_
 _atom_site_type_symbol
 _atom_site_label
 _atom_site_symmetry_multiplicity
 _atom_site_fract_x
 _atom_site_fract_y
 _atom_site_fract_z
 _atom_site_occupancy
  Ca  Ca0  1  0.000086  0.999832  0.999894  1
  Pr  Pr1  1  0.525822  0.596360  0.792588  1
  Pr  Pr2  1  0.192479  0.473995  0.399083  1
  Pr  Pr3  1  0.475357  0.403837  0.207868  1
  Pr  Pr4  1  0.597173  0.793275  0.525714  1
  Pr  Pr5  1  0.405007  0.207057  0.474899  1
  Sm  Sm6  1  0.802693  0.526171  0.599634  1
  Fe  Fe7  1  0.500687  0.499910  0.500517  1
  I  I8  1  0.725820  0.187384  0.573837  1
  I  I9  1  0.957942  0.878070  0.657176  1
  I  I10  1  0.573815  0.725926  0.182884  1
  I  I11  1  0.119246  0.341479  0.039453  1
  I  I12  1  0.660332  0.960990  0.883335  1
  I  I13  1  0.880470  0.656089  0.955379  1
  I  I14  1  0.041347  0.117124  0.342160  1
  I  I15  1  0.816432  0.427671  0.278776  1
  I  I16  1  0.339763  0.039161  0.116642  1
  I  I17  1  0.276970  0.817825  0.427121  1
  I  I18  1  0.182337  0.573713  0.725912  1
  I  I19  1  0.426221  0.274133  0.817127  1
