# generated using pymatgen
data_Rb2NaScP2
_symmetry_space_group_name_H-M   'P 1'
_cell_length_a   9.14543229
_cell_length_b   9.14543314
_cell_length_c   9.14543236
_cell_angle_alpha   136.60977567
_cell_angle_beta   135.66967248
_cell_angle_gamma   63.76748929
_symmetry_Int_Tables_number   1
_chemical_formula_structural   Rb2NaScP2
_chemical_formula_sum   'Rb4 Na2 Sc2 P4'
_cell_volume   362.33903112
_cell_formula_units_Z   2
loop_
 _symmetry_equiv_pos_site_id
 _symmetry_equiv_pos_as_xyz
  1  'x, y, z'
loop_
 _atom_site_type_symbol
 _atom_site_label
 _atom_site_symmetry_multiplicity
 _atom_site_fract_x
 _atom_site_fract_y
 _atom_site_fract_z
 _atom_site_occupancy
  Rb  Rb0  1  0.545736  0.322055  0.223680  1
  Rb  Rb1  1  0.454264  0.677945  0.776320  1
  Rb  Rb2  1  0.098376  0.822055  0.276320  1
  Rb  Rb3  1  0.901624  0.177945  0.723680  1
  Na  Na4  1  0.500000  0.250000  0.750000  1
  Na  Na5  1  0.500000  0.750000  0.250000  1
  Sc  Sc6  1  0.000000  0.250000  0.250000  1
  Sc  Sc7  1  0.000000  0.750000  0.750000  1
  P  P8  1  0.297362  0.088360  0.209002  1
  P  P9  1  0.702638  0.911640  0.790998  1
  P  P10  1  0.879358  0.588360  0.290998  1
  P  P11  1  0.120642  0.411640  0.709002  1
