# generated using pymatgen
data_Ho2Er4VB14W
_symmetry_space_group_name_H-M   'P 1'
_cell_length_a   8.09741738
_cell_length_b   8.09741672
_cell_length_c   9.41627345
_cell_angle_alpha   89.96530289
_cell_angle_beta   90.03469676
_cell_angle_gamma   155.55901790
_symmetry_Int_Tables_number   1
_chemical_formula_structural   Ho2Er4VB14W
_chemical_formula_sum   'Ho2 Er4 V1 B14 W1'
_cell_volume   255.45593436
_cell_formula_units_Z   1
loop_
 _symmetry_equiv_pos_site_id
 _symmetry_equiv_pos_as_xyz
  1  'x, y, z'
loop_
 _atom_site_type_symbol
 _atom_site_label
 _atom_site_symmetry_multiplicity
 _atom_site_fract_x
 _atom_site_fract_y
 _atom_site_fract_z
 _atom_site_occupancy
  Ho  Ho0  1  0.893487  0.106513  0.437909  1
  Ho  Ho1  1  0.754656  0.245344  0.750009  1
  Er  Er2  1  0.106859  0.893141  0.557088  1
  Er  Er3  1  0.893672  0.106328  0.061748  1
  Er  Er4  1  0.106874  0.893126  0.942975  1
  Er  Er5  1  0.241834  0.758166  0.249995  1
  V  V6  1  0.052500  0.947500  0.249906  1
  B  B7  1  0.727179  0.272821  0.466519  1
  B  B8  1  0.272382  0.727618  0.531437  1
  B  B9  1  0.727337  0.272663  0.033537  1
  B  B10  1  0.272539  0.727461  0.968711  1
  B  B11  1  0.632571  0.367429  0.150027  1
  B  B12  1  0.365290  0.634710  0.854103  1
  B  B13  1  0.632563  0.367437  0.349970  1
  B  B14  1  0.365249  0.634751  0.646183  1
  B  B15  1  0.520756  0.479244  0.094968  1
  B  B16  1  0.481013  0.518987  0.909553  1
  B  B17  1  0.520846  0.479154  0.404850  1
  B  B18  1  0.481091  0.518909  0.590648  1
  B  B19  1  0.457627  0.542373  0.249710  1
  B  B20  1  0.546344  0.453656  0.750028  1
  W  W21  1  0.947332  0.052668  0.750125  1
