# generated using pymatgen
data_PrTh3(Si4Tc3)2
_symmetry_space_group_name_H-M   'P 1'
_cell_length_a   8.23855524
_cell_length_b   5.75416271
_cell_length_c   6.98568507
_cell_angle_alpha   76.68295998
_cell_angle_beta   90.07419308
_cell_angle_gamma   89.94878347
_symmetry_Int_Tables_number   1
_chemical_formula_structural   PrTh3(Si4Tc3)2
_chemical_formula_sum   'Pr1 Th3 Si8 Tc6'
_cell_volume   322.25794142
_cell_formula_units_Z   1
loop_
 _symmetry_equiv_pos_site_id
 _symmetry_equiv_pos_as_xyz
  1  'x, y, z'
loop_
 _atom_site_type_symbol
 _atom_site_label
 _atom_site_symmetry_multiplicity
 _atom_site_fract_x
 _atom_site_fract_y
 _atom_site_fract_z
 _atom_site_occupancy
  Pr  Pr0  1  0.568783  0.063161  0.254377  1
  Th  Th1  1  0.934713  0.567734  0.251630  1
  Th  Th2  1  0.435320  0.932783  0.749999  1
  Th  Th3  1  0.067505  0.433483  0.745944  1
  Si  Si4  1  0.587379  0.608244  0.116802  1
  Si  Si5  1  0.087532  0.888448  0.883694  1
  Si  Si6  1  0.413802  0.386079  0.888209  1
  Si  Si7  1  0.910331  0.114163  0.111645  1
  Si  Si8  1  0.750927  0.715722  0.592423  1
  Si  Si9  1  0.251320  0.787387  0.405633  1
  Si  Si10  1  0.250714  0.278021  0.406375  1
  Si  Si11  1  0.748974  0.220575  0.593344  1
  Tc  Tc12  1  0.290813  0.613869  0.115855  1
  Tc  Tc13  1  0.791814  0.885625  0.884753  1
  Tc  Tc14  1  0.709424  0.389428  0.883584  1
  Tc  Tc15  1  0.204535  0.116096  0.111000  1
  Tc  Tc16  1  0.496467  0.497999  0.504253  1
  Tc  Tc17  1  0.999649  0.001183  0.500480  1
