# generated using pymatgen
data_ErHf(Ni2P)4
_symmetry_space_group_name_H-M   'P 1'
_cell_length_a   3.58444200
_cell_length_b   6.98537829
_cell_length_c   6.98537829
_cell_angle_alpha   89.57835448
_cell_angle_beta   90.00000000
_cell_angle_gamma   90.00000000
_symmetry_Int_Tables_number   1
_chemical_formula_structural   ErHf(Ni2P)4
_chemical_formula_sum   'Er1 Hf1 Ni8 P4'
_cell_volume   174.89993874
_cell_formula_units_Z   1
loop_
 _symmetry_equiv_pos_site_id
 _symmetry_equiv_pos_as_xyz
  1  'x, y, z'
loop_
 _atom_site_type_symbol
 _atom_site_label
 _atom_site_symmetry_multiplicity
 _atom_site_fract_x
 _atom_site_fract_y
 _atom_site_fract_z
 _atom_site_occupancy
  Er  Er0  1  0.000000  0.500000  0.500000  1
  Hf  Hf1  1  0.500000  0.000000  0.000000  1
  Ni  Ni2  1  0.500000  0.164236  0.585127  1
  Ni  Ni3  1  0.500000  0.835764  0.414873  1
  Ni  Ni4  1  0.000000  0.334032  0.083833  1
  Ni  Ni5  1  0.000000  0.665968  0.916167  1
  Ni  Ni6  1  0.500000  0.585127  0.164236  1
  Ni  Ni7  1  0.500000  0.414873  0.835764  1
  Ni  Ni8  1  0.000000  0.083833  0.334032  1
  Ni  Ni9  1  0.000000  0.916167  0.665968  1
  P  P10  1  0.500000  0.726976  0.726976  1
  P  P11  1  0.500000  0.273024  0.273024  1
  P  P12  1  0.000000  0.786812  0.213188  1
  P  P13  1  0.000000  0.213188  0.786812  1
