# generated using pymatgen
data_Lu4B8Mo3Ru7
_symmetry_space_group_name_H-M   'P 1'
_cell_length_a   3.08810600
_cell_length_b   8.79306566
_cell_length_c   10.12770629
_cell_angle_alpha   90.22276892
_cell_angle_beta   90.00000000
_cell_angle_gamma   90.00000000
_symmetry_Int_Tables_number   1
_chemical_formula_structural   Lu4B8Mo3Ru7
_chemical_formula_sum   'Lu4 B8 Mo3 Ru7'
_cell_volume   275.00483599
_cell_formula_units_Z   1
loop_
 _symmetry_equiv_pos_site_id
 _symmetry_equiv_pos_as_xyz
  1  'x, y, z'
loop_
 _atom_site_type_symbol
 _atom_site_label
 _atom_site_symmetry_multiplicity
 _atom_site_fract_x
 _atom_site_fract_y
 _atom_site_fract_z
 _atom_site_occupancy
  Lu  Lu0  1  0.500000  0.837998  0.181191  1
  Lu  Lu1  1  0.500000  0.159628  0.818465  1
  Lu  Lu2  1  0.500000  0.658734  0.681098  1
  Lu  Lu3  1  0.500000  0.338636  0.317871  1
  B  B4  1  0.500000  0.968962  0.587892  1
  B  B5  1  0.500000  0.035180  0.413769  1
  B  B6  1  0.500000  0.854533  0.899752  1
  B  B7  1  0.500000  0.147497  0.101093  1
  B  B8  1  0.500000  0.649270  0.400180  1
  B  B9  1  0.500000  0.352164  0.599286  1
  B  B10  1  0.500000  0.465628  0.913947  1
  B  B11  1  0.500000  0.533015  0.085392  1
  Mo  Mo12  1  0.000000  0.660981  0.951602  1
  Mo  Mo13  1  0.000000  0.337989  0.047154  1
  Mo  Mo14  1  0.000000  0.842846  0.454790  1
  Ru  Ru15  1  0.000000  0.163825  0.547972  1
  Ru  Ru16  1  0.000000  0.999600  0.000591  1
  Ru  Ru17  1  0.000000  0.406053  0.759308  1
  Ru  Ru18  1  0.000000  0.591059  0.239294  1
  Ru  Ru19  1  0.000000  0.497727  0.499449  1
  Ru  Ru20  1  0.000000  0.907710  0.737457  1
  Ru  Ru21  1  0.000000  0.090964  0.262447  1
