# generated using pymatgen
data_TaTi6(Nb3As4)3
_symmetry_space_group_name_H-M   'P 1'
_cell_length_a   7.44952993
_cell_length_b   7.44953066
_cell_length_c   19.07416451
_cell_angle_alpha   89.45995027
_cell_angle_beta   90.54005025
_cell_angle_gamma   152.57887295
_symmetry_Int_Tables_number   1
_chemical_formula_structural   TaTi6(Nb3As4)3
_chemical_formula_sum   'Ta1 Ti6 Nb9 As12'
_cell_volume   487.45898345
_cell_formula_units_Z   1
loop_
 _symmetry_equiv_pos_site_id
 _symmetry_equiv_pos_as_xyz
  1  'x, y, z'
loop_
 _atom_site_type_symbol
 _atom_site_label
 _atom_site_symmetry_multiplicity
 _atom_site_fract_x
 _atom_site_fract_y
 _atom_site_fract_z
 _atom_site_occupancy
  Ta  Ta0  1  0.000000  0.000000  0.500000  1
  Ti  Ti1  1  0.736792  0.263208  0.159604  1
  Ti  Ti2  1  0.263208  0.736792  0.840396  1
  Ti  Ti3  1  0.265404  0.734596  0.662344  1
  Ti  Ti4  1  0.734596  0.265404  0.337656  1
  Ti  Ti5  1  0.534436  0.465564  0.118469  1
  Ti  Ti6  1  0.465564  0.534436  0.881531  1
  Nb  Nb7  1  0.465787  0.534213  0.622890  1
  Nb  Nb8  1  0.534213  0.465787  0.377110  1
  Nb  Nb9  1  0.668261  0.331739  0.974110  1
  Nb  Nb10  1  0.331739  0.668261  0.025890  1
  Nb  Nb11  1  0.335032  0.664968  0.472884  1
  Nb  Nb12  1  0.664968  0.335032  0.527116  1
  Nb  Nb13  1  0.000000  0.000000  0.000000  1
  Nb  Nb14  1  0.057226  0.942774  0.749024  1
  Nb  Nb15  1  0.942774  0.057226  0.250976  1
  As  As16  1  0.902386  0.097614  0.117798  1
  As  As17  1  0.097614  0.902386  0.882202  1
  As  As18  1  0.101074  0.898926  0.618708  1
  As  As19  1  0.898926  0.101074  0.381292  1
  As  As20  1  0.842246  0.157754  0.920295  1
  As  As21  1  0.157754  0.842246  0.079705  1
  As  As22  1  0.160213  0.839787  0.420757  1
  As  As23  1  0.839787  0.160213  0.579243  1
  As  As24  1  0.700508  0.299492  0.750380  1
  As  As25  1  0.299492  0.700508  0.249620  1
  As  As26  1  0.414357  0.585643  0.753406  1
  As  As27  1  0.585643  0.414357  0.246594  1
