# generated using pymatgen
data_Sr4TbTmNb2O12
_symmetry_space_group_name_H-M   'P 1'
_cell_length_a   5.84297393
_cell_length_b   5.94997053
_cell_length_c   8.32049575
_cell_angle_alpha   90.04802530
_cell_angle_beta   90.16524878
_cell_angle_gamma   89.99696795
_symmetry_Int_Tables_number   1
_chemical_formula_structural   Sr4TbTmNb2O12
_chemical_formula_sum   'Sr4 Tb1 Tm1 Nb2 O12'
_cell_volume   289.26507868
_cell_formula_units_Z   1
loop_
 _symmetry_equiv_pos_site_id
 _symmetry_equiv_pos_as_xyz
  1  'x, y, z'
loop_
 _atom_site_type_symbol
 _atom_site_label
 _atom_site_symmetry_multiplicity
 _atom_site_fract_x
 _atom_site_fract_y
 _atom_site_fract_z
 _atom_site_occupancy
  Sr  Sr0  1  0.490930  0.459196  0.246965  1
  Sr  Sr1  1  0.008879  0.960714  0.248568  1
  Sr  Sr2  1  0.991115  0.039279  0.751431  1
  Sr  Sr3  1  0.509066  0.540804  0.753036  1
  Tb  Tb4  1  0.999998  0.499997  0.499999  1
  Tm  Tm5  1  0.500003  0.000012  0.999997  1
  Nb  Nb6  1  0.000000  0.500001  0.000001  1
  Nb  Nb7  1  0.500001  0.000003  0.499997  1
  O  O8  1  0.276190  0.700543  0.040044  1
  O  O9  1  0.198578  0.223920  0.044633  1
  O  O10  1  0.917529  0.526036  0.234646  1
  O  O11  1  0.580898  0.025488  0.262038  1
  O  O12  1  0.309281  0.721783  0.453605  1
  O  O13  1  0.221439  0.193113  0.457750  1
  O  O14  1  0.778563  0.806888  0.542255  1
  O  O15  1  0.690721  0.278219  0.546400  1
  O  O16  1  0.419103  0.974511  0.737968  1
  O  O17  1  0.082473  0.473960  0.765354  1
  O  O18  1  0.801420  0.776078  0.955367  1
  O  O19  1  0.723813  0.299453  0.959953  1
