# generated using pymatgen
data_Nd3MnCo7TcP6
_symmetry_space_group_name_H-M   'P 1'
_cell_length_a   3.81075200
_cell_length_b   10.73976400
_cell_length_c   12.38960700
_cell_angle_alpha   90.00000000
_cell_angle_beta   90.00000000
_cell_angle_gamma   90.00000000
_symmetry_Int_Tables_number   1
_chemical_formula_structural   Nd3MnCo7TcP6
_chemical_formula_sum   'Nd6 Mn2 Co14 Tc2 P12'
_cell_volume   507.06420665
_cell_formula_units_Z   2
loop_
 _symmetry_equiv_pos_site_id
 _symmetry_equiv_pos_as_xyz
  1  'x, y, z'
loop_
 _atom_site_type_symbol
 _atom_site_label
 _atom_site_symmetry_multiplicity
 _atom_site_fract_x
 _atom_site_fract_y
 _atom_site_fract_z
 _atom_site_occupancy
  Nd  Nd0  1  0.000000  0.500000  0.523450  1
  Nd  Nd1  1  0.500000  0.000000  0.476550  1
  Nd  Nd2  1  0.500000  0.818377  0.203774  1
  Nd  Nd3  1  0.500000  0.181623  0.203774  1
  Nd  Nd4  1  0.000000  0.681623  0.796226  1
  Nd  Nd5  1  0.000000  0.318377  0.796226  1
  Mn  Mn6  1  0.000000  0.500000  0.988032  1
  Mn  Mn7  1  0.500000  0.000000  0.011968  1
  Co  Co8  1  0.500000  0.500000  0.698184  1
  Co  Co9  1  0.000000  0.000000  0.301816  1
  Co  Co10  1  0.500000  0.330762  0.992309  1
  Co  Co11  1  0.500000  0.669238  0.992309  1
  Co  Co12  1  0.000000  0.169238  0.007691  1
  Co  Co13  1  0.000000  0.830762  0.007691  1
  Co  Co14  1  0.500000  0.295565  0.430635  1
  Co  Co15  1  0.500000  0.704435  0.430635  1
  Co  Co16  1  0.000000  0.204435  0.569365  1
  Co  Co17  1  0.000000  0.795565  0.569365  1
  Co  Co18  1  0.500000  0.881244  0.708337  1
  Co  Co19  1  0.500000  0.118756  0.708337  1
  Co  Co20  1  0.000000  0.618756  0.291663  1
  Co  Co21  1  0.000000  0.381244  0.291663  1
  Tc  Tc22  1  0.500000  0.500000  0.153868  1
  Tc  Tc23  1  0.000000  0.000000  0.846132  1
  P  P24  1  0.500000  0.500000  0.886317  1
  P  P25  1  0.000000  0.000000  0.113683  1
  P  P26  1  0.500000  0.500000  0.341719  1
  P  P27  1  0.000000  0.000000  0.658281  1
  P  P28  1  0.500000  0.305756  0.614951  1
  P  P29  1  0.500000  0.694244  0.614951  1
  P  P30  1  0.000000  0.194244  0.385049  1
  P  P31  1  0.000000  0.805756  0.385049  1
  P  P32  1  0.500000  0.848289  0.897674  1
  P  P33  1  0.500000  0.151711  0.897674  1
  P  P34  1  0.000000  0.651711  0.102326  1
  P  P35  1  0.000000  0.348289  0.102326  1
