# generated using pymatgen
data_Eu2Dy4CrCo17P12
_symmetry_space_group_name_H-M   'P 1'
_cell_length_a   3.71171000
_cell_length_b   10.56506100
_cell_length_c   12.22652800
_cell_angle_alpha   90.00000000
_cell_angle_beta   90.00000000
_cell_angle_gamma   90.00000000
_symmetry_Int_Tables_number   1
_chemical_formula_structural   Eu2Dy4CrCo17P12
_chemical_formula_sum   'Eu2 Dy4 Cr1 Co17 P12'
_cell_volume   479.45648002
_cell_formula_units_Z   1
loop_
 _symmetry_equiv_pos_site_id
 _symmetry_equiv_pos_as_xyz
  1  'x, y, z'
loop_
 _atom_site_type_symbol
 _atom_site_label
 _atom_site_symmetry_multiplicity
 _atom_site_fract_x
 _atom_site_fract_y
 _atom_site_fract_z
 _atom_site_occupancy
  Eu  Eu0  1  0.000000  0.500000  0.523831  1
  Eu  Eu1  1  0.500000  0.000000  0.476475  1
  Dy  Dy2  1  0.500000  0.817462  0.204496  1
  Dy  Dy3  1  0.500000  0.182538  0.204496  1
  Dy  Dy4  1  0.000000  0.682150  0.796523  1
  Dy  Dy5  1  0.000000  0.317850  0.796523  1
  Cr  Cr6  1  0.500000  0.500000  0.154055  1
  Co  Co7  1  0.000000  0.000000  0.842868  1
  Co  Co8  1  0.500000  0.500000  0.703631  1
  Co  Co9  1  0.000000  0.000000  0.295418  1
  Co  Co10  1  0.000000  0.500000  0.986746  1
  Co  Co11  1  0.500000  0.000000  0.014067  1
  Co  Co12  1  0.500000  0.333164  0.993483  1
  Co  Co13  1  0.500000  0.666836  0.993483  1
  Co  Co14  1  0.000000  0.166871  0.006440  1
  Co  Co15  1  0.000000  0.833129  0.006440  1
  Co  Co16  1  0.500000  0.295948  0.429352  1
  Co  Co17  1  0.500000  0.704052  0.429352  1
  Co  Co18  1  0.000000  0.204002  0.570343  1
  Co  Co19  1  0.000000  0.795998  0.570343  1
  Co  Co20  1  0.500000  0.879663  0.712042  1
  Co  Co21  1  0.500000  0.120337  0.712042  1
  Co  Co22  1  0.000000  0.620188  0.288171  1
  Co  Co23  1  0.000000  0.379812  0.288171  1
  P  P24  1  0.500000  0.500000  0.882573  1
  P  P25  1  0.000000  0.000000  0.116724  1
  P  P26  1  0.500000  0.500000  0.341031  1
  P  P27  1  0.000000  0.000000  0.660313  1
  P  P28  1  0.500000  0.307114  0.617341  1
  P  P29  1  0.500000  0.692886  0.617341  1
  P  P30  1  0.000000  0.192578  0.382986  1
  P  P31  1  0.000000  0.807422  0.382986  1
  P  P32  1  0.500000  0.847682  0.894008  1
  P  P33  1  0.500000  0.152318  0.894008  1
  P  P34  1  0.000000  0.652813  0.105949  1
  P  P35  1  0.000000  0.347187  0.105949  1
