# generated using pymatgen
data_Sc7(CoSe)2
_symmetry_space_group_name_H-M   'P 1'
_cell_length_a   8.41046453
_cell_length_b   8.41046495
_cell_length_c   8.41046467
_cell_angle_alpha   155.42664815
_cell_angle_beta   67.37124316
_cell_angle_gamma   118.38077567
_symmetry_Int_Tables_number   1
_chemical_formula_structural   Sc7(CoSe)2
_chemical_formula_sum   'Sc7 Co2 Se2'
_cell_volume   215.82344647
_cell_formula_units_Z   1
loop_
 _symmetry_equiv_pos_site_id
 _symmetry_equiv_pos_as_xyz
  1  'x, y, z'
loop_
 _atom_site_type_symbol
 _atom_site_label
 _atom_site_symmetry_multiplicity
 _atom_site_fract_x
 _atom_site_fract_y
 _atom_site_fract_z
 _atom_site_occupancy
  Sc  Sc0  1  0.319877  0.319877  0.000000  1
  Sc  Sc1  1  0.861020  0.734387  0.126633  1
  Sc  Sc2  1  0.259284  0.945027  0.314257  1
  Sc  Sc3  1  0.942016  0.583488  0.358529  1
  Sc  Sc4  1  0.224959  0.583489  0.641471  1
  Sc  Sc5  1  0.630771  0.945027  0.685743  1
  Sc  Sc6  1  0.607754  0.734387  0.873367  1
  Co  Co7  1  0.487753  0.250710  0.237044  1
  Co  Co8  1  0.013667  0.250711  0.762957  1
  Se  Se9  1  0.982240  0.982240  0.000000  1
  Se  Se10  1  0.576008  0.076008  0.500000  1
