# generated using pymatgen
data_Ho16Cd4IrOsPt2
_symmetry_space_group_name_H-M   'P 1'
_cell_length_a   9.66324845
_cell_length_b   9.64540484
_cell_length_c   9.64540542
_cell_angle_alpha   59.40151492
_cell_angle_beta   59.40602303
_cell_angle_gamma   59.40601952
_symmetry_Int_Tables_number   1
_chemical_formula_structural   Ho16Cd4IrOsPt2
_chemical_formula_sum   'Ho16 Cd4 Ir1 Os1 Pt2'
_cell_volume   627.08134923
_cell_formula_units_Z   1
loop_
 _symmetry_equiv_pos_site_id
 _symmetry_equiv_pos_as_xyz
  1  'x, y, z'
loop_
 _atom_site_type_symbol
 _atom_site_label
 _atom_site_symmetry_multiplicity
 _atom_site_fract_x
 _atom_site_fract_y
 _atom_site_fract_z
 _atom_site_occupancy
  Ho  Ho0  1  0.603546  0.599450  0.599450  1
  Ho  Ho1  1  0.601133  0.597863  0.202086  1
  Ho  Ho2  1  0.601133  0.202086  0.597863  1
  Ho  Ho3  1  0.197697  0.600606  0.600606  1
  Ho  Ho4  1  0.061983  0.438620  0.438620  1
  Ho  Ho5  1  0.439386  0.058668  0.058668  1
  Ho  Ho6  1  0.439613  0.064213  0.439204  1
  Ho  Ho7  1  0.056716  0.437722  0.062959  1
  Ho  Ho8  1  0.439613  0.439204  0.064213  1
  Ho  Ho9  1  0.056716  0.062959  0.437722  1
  Ho  Ho10  1  0.186921  0.814464  0.814464  1
  Ho  Ho11  1  0.808317  0.188472  0.188472  1
  Ho  Ho12  1  0.816168  0.186588  0.812057  1
  Ho  Ho13  1  0.188035  0.807026  0.187969  1
  Ho  Ho14  1  0.816168  0.812057  0.186588  1
  Ho  Ho15  1  0.188035  0.187969  0.807026  1
  Cd  Cd16  1  0.830073  0.829702  0.829702  1
  Cd  Cd17  1  0.830920  0.830804  0.504749  1
  Cd  Cd18  1  0.830920  0.504749  0.830804  1
  Cd  Cd19  1  0.505361  0.830597  0.830597  1
  Ir  Ir20  1  0.824192  0.394188  0.394188  1
  Os  Os21  1  0.391225  0.393912  0.393912  1
  Pt  Pt22  1  0.393065  0.394286  0.823799  1
  Pt  Pt23  1  0.393065  0.823799  0.394286  1
