# generated using pymatgen
data_ErTh7(ZnRh)8
_symmetry_space_group_name_H-M   'P 1'
_cell_length_a   3.92770600
_cell_length_b   7.50202329
_cell_length_c   16.57232099
_cell_angle_alpha   89.77003070
_cell_angle_beta   90.00000000
_cell_angle_gamma   90.00000000
_symmetry_Int_Tables_number   1
_chemical_formula_structural   ErTh7(ZnRh)8
_chemical_formula_sum   'Er1 Th7 Zn8 Rh8'
_cell_volume   488.31179936
_cell_formula_units_Z   1
loop_
 _symmetry_equiv_pos_site_id
 _symmetry_equiv_pos_as_xyz
  1  'x, y, z'
loop_
 _atom_site_type_symbol
 _atom_site_label
 _atom_site_symmetry_multiplicity
 _atom_site_fract_x
 _atom_site_fract_y
 _atom_site_fract_z
 _atom_site_occupancy
  Er  Er0  1  0.750000  0.938740  0.286576  1
  Th  Th1  1  0.750000  0.326501  0.438110  1
  Th  Th2  1  0.250000  0.064261  0.714948  1
  Th  Th3  1  0.250000  0.561270  0.784844  1
  Th  Th4  1  0.250000  0.677041  0.559726  1
  Th  Th5  1  0.750000  0.823137  0.062942  1
  Th  Th6  1  0.250000  0.170707  0.940718  1
  Th  Th7  1  0.750000  0.439214  0.216081  1
  Zn  Zn8  1  0.250000  0.105200  0.158687  1
  Zn  Zn9  1  0.250000  0.994952  0.434964  1
  Zn  Zn10  1  0.750000  0.887337  0.846938  1
  Zn  Zn11  1  0.750000  0.005996  0.558345  1
  Zn  Zn12  1  0.250000  0.490957  0.059200  1
  Zn  Zn13  1  0.750000  0.389754  0.652630  1
  Zn  Zn14  1  0.750000  0.503767  0.940920  1
  Zn  Zn15  1  0.250000  0.622570  0.345596  1
  Rh  Rh16  1  0.750000  0.260801  0.814764  1
  Rh  Rh17  1  0.250000  0.249779  0.314358  1
  Rh  Rh18  1  0.250000  0.755878  0.938284  1
  Rh  Rh19  1  0.250000  0.256175  0.561035  1
  Rh  Rh20  1  0.250000  0.732196  0.182963  1
  Rh  Rh21  1  0.750000  0.743066  0.438334  1
  Rh  Rh22  1  0.750000  0.239164  0.063565  1
  Rh  Rh23  1  0.750000  0.761538  0.685470  1
