# generated using pymatgen
data_NaAs12(RuRh)2
_symmetry_space_group_name_H-M   'P 1'
_cell_length_a   7.44340300
_cell_length_b   7.45477913
_cell_length_c   7.45478023
_cell_angle_alpha   109.50418342
_cell_angle_beta   109.50216494
_cell_angle_gamma   109.46919088
_symmetry_Int_Tables_number   1
_chemical_formula_structural   NaAs12(RuRh)2
_chemical_formula_sum   'Na1 As12 Ru2 Rh2'
_cell_volume   318.19044743
_cell_formula_units_Z   1
loop_
 _symmetry_equiv_pos_site_id
 _symmetry_equiv_pos_as_xyz
  1  'x, y, z'
loop_
 _atom_site_type_symbol
 _atom_site_label
 _atom_site_symmetry_multiplicity
 _atom_site_fract_x
 _atom_site_fract_y
 _atom_site_fract_z
 _atom_site_occupancy
  Na  Na0  1  0.000000  0.000000  0.000000  1
  As  As1  1  0.850246  0.647433  0.501154  1
  As  As2  1  0.149754  0.352567  0.498846  1
  As  As3  1  0.149754  0.650908  0.797189  1
  As  As4  1  0.850246  0.349092  0.202811  1
  As  As5  1  0.647266  0.500992  0.849981  1
  As  As6  1  0.352734  0.499008  0.150019  1
  As  As7  1  0.647266  0.797286  0.146274  1
  As  As8  1  0.352734  0.202714  0.853726  1
  As  As9  1  0.501839  0.850767  0.651073  1
  As  As10  1  0.498161  0.149233  0.348927  1
  As  As11  1  0.205165  0.852813  0.352353  1
  As  As12  1  0.794835  0.147187  0.647647  1
  Ru  Ru13  1  0.500000  0.500000  0.500000  1
  Ru  Ru14  1  0.500000  0.000000  0.000000  1
  Rh  Rh15  1  0.000000  0.500000  0.000000  1
  Rh  Rh16  1  0.000000  0.000000  0.500000  1
