# generated using pymatgen
data_Ho7Er9(Ga3Os)2
_symmetry_space_group_name_H-M   'P 1'
_cell_length_a   9.95614582
_cell_length_b   9.95638745
_cell_length_c   7.02283364
_cell_angle_alpha   89.95884995
_cell_angle_beta   90.04553337
_cell_angle_gamma   119.98948278
_symmetry_Int_Tables_number   1
_chemical_formula_structural   Ho7Er9(Ga3Os)2
_chemical_formula_sum   'Ho7 Er9 Ga6 Os2'
_cell_volume   602.95083336
_cell_formula_units_Z   1
loop_
 _symmetry_equiv_pos_site_id
 _symmetry_equiv_pos_as_xyz
  1  'x, y, z'
loop_
 _atom_site_type_symbol
 _atom_site_label
 _atom_site_symmetry_multiplicity
 _atom_site_fract_x
 _atom_site_fract_y
 _atom_site_fract_z
 _atom_site_occupancy
  Ho  Ho0  1  0.068664  0.534229  0.205051  1
  Ho  Ho1  1  0.465776  0.931292  0.205057  1
  Ho  Ho2  1  0.534220  0.465773  0.705010  1
  Ho  Ho3  1  0.931482  0.465731  0.705109  1
  Ho  Ho4  1  0.534253  0.068500  0.705107  1
  Ho  Ho5  1  0.999987  0.000016  0.233917  1
  Ho  Ho6  1  0.999964  0.000028  0.734035  1
  Er  Er7  1  0.171568  0.828406  0.510549  1
  Er  Er8  1  0.656790  0.828298  0.510411  1
  Er  Er9  1  0.171738  0.343228  0.510459  1
  Er  Er10  1  0.828468  0.171580  0.010566  1
  Er  Er11  1  0.343292  0.171900  0.010884  1
  Er  Er12  1  0.828140  0.656687  0.010919  1
  Er  Er13  1  0.333398  0.666568  0.838709  1
  Er  Er14  1  0.666562  0.333509  0.338625  1
  Er  Er15  1  0.465517  0.534469  0.204810  1
  Ga  Ga16  1  0.163874  0.836107  0.957186  1
  Ga  Ga17  1  0.672117  0.835987  0.957334  1
  Ga  Ga18  1  0.164016  0.327866  0.957283  1
  Ga  Ga19  1  0.836168  0.163852  0.457038  1
  Ga  Ga20  1  0.327796  0.163887  0.457150  1
  Ga  Ga21  1  0.836083  0.672195  0.457146  1
  Os  Os22  1  0.333481  0.666524  0.445738  1
  Os  Os23  1  0.666646  0.333368  0.945950  1
