# generated using pymatgen
data_Tb8GaBBr12
_symmetry_space_group_name_H-M   'P 1'
_cell_length_a   3.99644000
_cell_length_b   13.31140037
_cell_length_c   14.01703538
_cell_angle_alpha   90.54345992
_cell_angle_beta   90.00000000
_cell_angle_gamma   90.00000000
_symmetry_Int_Tables_number   1
_chemical_formula_structural   Tb8GaBBr12
_chemical_formula_sum   'Tb8 Ga1 B1 Br12'
_cell_volume   745.64768862
_cell_formula_units_Z   1
loop_
 _symmetry_equiv_pos_site_id
 _symmetry_equiv_pos_as_xyz
  1  'x, y, z'
loop_
 _atom_site_type_symbol
 _atom_site_label
 _atom_site_symmetry_multiplicity
 _atom_site_fract_x
 _atom_site_fract_y
 _atom_site_fract_z
 _atom_site_occupancy
  Tb  Tb0  1  0.500000  0.109318  0.352330  1
  Tb  Tb1  1  0.500000  0.890682  0.647670  1
  Tb  Tb2  1  0.500000  0.622096  0.164392  1
  Tb  Tb3  1  0.500000  0.377904  0.835608  1
  Tb  Tb4  1  0.000000  0.106968  0.571757  1
  Tb  Tb5  1  0.000000  0.893032  0.428243  1
  Tb  Tb6  1  0.000000  0.625425  0.916326  1
  Tb  Tb7  1  0.000000  0.374575  0.083674  1
  Ga  Ga8  1  0.500000  0.500000  0.000000  1
  B  B9  1  0.500000  0.000000  0.500000  1
  Br  Br10  1  0.500000  0.241955  0.168411  1
  Br  Br11  1  0.500000  0.758045  0.831589  1
  Br  Br12  1  0.500000  0.751317  0.337621  1
  Br  Br13  1  0.500000  0.248683  0.662379  1
  Br  Br14  1  0.000000  0.252846  0.415108  1
  Br  Br15  1  0.000000  0.747154  0.584892  1
  Br  Br16  1  0.000000  0.758303  0.088797  1
  Br  Br17  1  0.000000  0.241697  0.911203  1
  Br  Br18  1  0.000000  0.999201  0.244989  1
  Br  Br19  1  0.000000  0.000799  0.755011  1
  Br  Br20  1  0.000000  0.502075  0.261171  1
  Br  Br21  1  0.000000  0.497925  0.738829  1
