# generated using pymatgen
data_Y2Tm10Co5Pb
_symmetry_space_group_name_H-M   'P 1'
_cell_length_a   8.20808922
_cell_length_b   8.20808914
_cell_length_c   8.18115168
_cell_angle_alpha   110.98486972
_cell_angle_beta   110.71690351
_cell_angle_gamma   106.88573228
_symmetry_Int_Tables_number   1
_chemical_formula_structural   Y2Tm10Co5Pb
_chemical_formula_sum   'Y2 Tm10 Co5 Pb1'
_cell_volume   422.88789928
_cell_formula_units_Z   1
loop_
 _symmetry_equiv_pos_site_id
 _symmetry_equiv_pos_as_xyz
  1  'x, y, z'
loop_
 _atom_site_type_symbol
 _atom_site_label
 _atom_site_symmetry_multiplicity
 _atom_site_fract_x
 _atom_site_fract_y
 _atom_site_fract_z
 _atom_site_occupancy
  Y  Y0  1  0.287577  0.185847  0.473424  1
  Y  Y1  1  0.712423  0.814153  0.526576  1
  Tm  Tm2  1  0.288424  0.814055  0.102478  1
  Tm  Tm3  1  0.711576  0.185945  0.897522  1
  Tm  Tm4  1  0.620711  0.311619  0.306627  1
  Tm  Tm5  1  0.379289  0.688381  0.693373  1
  Tm  Tm6  1  0.004992  0.314085  0.693373  1
  Tm  Tm7  1  0.995008  0.685915  0.306627  1
  Tm  Tm8  1  0.208622  0.403497  0.191862  1
  Tm  Tm9  1  0.791378  0.596503  0.808138  1
  Tm  Tm10  1  0.211636  0.016761  0.808138  1
  Tm  Tm11  1  0.788364  0.983239  0.191862  1
  Co  Co12  1  0.999161  0.376006  0.375168  1
  Co  Co13  1  0.000839  0.623994  0.624832  1
  Co  Co14  1  0.387393  0.887393  0.500000  1
  Co  Co15  1  0.612607  0.112607  0.500000  1
  Co  Co16  1  0.000000  0.000000  0.000000  1
  Pb  Pb17  1  0.500000  0.500000  0.000000  1
