# generated using pymatgen
data_Lu2Sc3P12Ru19
_symmetry_space_group_name_H-M   'P 1'
_cell_length_a   12.44618100
_cell_length_b   12.44618218
_cell_length_c   3.94543600
_cell_angle_alpha   90.00000000
_cell_angle_beta   90.00000000
_cell_angle_gamma   119.99999952
_symmetry_Int_Tables_number   1
_chemical_formula_structural   Lu2Sc3P12Ru19
_chemical_formula_sum   'Lu2 Sc3 P12 Ru19'
_cell_volume   529.29513581
_cell_formula_units_Z   1
loop_
 _symmetry_equiv_pos_site_id
 _symmetry_equiv_pos_as_xyz
  1  'x, y, z'
loop_
 _atom_site_type_symbol
 _atom_site_label
 _atom_site_symmetry_multiplicity
 _atom_site_fract_x
 _atom_site_fract_y
 _atom_site_fract_z
 _atom_site_occupancy
  Lu  Lu0  1  0.666667  0.333333  0.000000  1
  Lu  Lu1  1  0.333333  0.666667  0.000000  1
  Sc  Sc2  1  0.000000  0.182422  0.500000  1
  Sc  Sc3  1  0.817578  0.817578  0.500000  1
  Sc  Sc4  1  0.182422  0.000000  0.500000  1
  P  P5  1  0.000000  0.818889  0.000000  1
  P  P6  1  0.181111  0.181111  0.000000  1
  P  P7  1  0.818889  0.000000  0.000000  1
  P  P8  1  0.692907  0.170146  0.500000  1
  P  P9  1  0.829854  0.522760  0.500000  1
  P  P10  1  0.477240  0.307093  0.500000  1
  P  P11  1  0.170146  0.692907  0.500000  1
  P  P12  1  0.522760  0.829854  0.500000  1
  P  P13  1  0.307093  0.477240  0.500000  1
  P  P14  1  0.000000  0.371878  0.000000  1
  P  P15  1  0.628122  0.628122  0.000000  1
  P  P16  1  0.371878  0.000000  0.000000  1
  Ru  Ru17  1  0.000000  0.555597  0.000000  1
  Ru  Ru18  1  0.444403  0.444403  0.000000  1
  Ru  Ru19  1  0.555597  0.000000  0.000000  1
  Ru  Ru20  1  0.000000  0.720975  0.500000  1
  Ru  Ru21  1  0.279025  0.279025  0.500000  1
  Ru  Ru22  1  0.720975  0.000000  0.500000  1
  Ru  Ru23  1  0.811550  0.184786  0.000000  1
  Ru  Ru24  1  0.815214  0.626765  0.000000  1
  Ru  Ru25  1  0.373235  0.188450  0.000000  1
  Ru  Ru26  1  0.184786  0.811550  0.000000  1
  Ru  Ru27  1  0.626765  0.815214  0.000000  1
  Ru  Ru28  1  0.188450  0.373235  0.000000  1
  Ru  Ru29  1  0.873122  0.364848  0.500000  1
  Ru  Ru30  1  0.635152  0.508275  0.500000  1
  Ru  Ru31  1  0.491725  0.126878  0.500000  1
  Ru  Ru32  1  0.364848  0.873122  0.500000  1
  Ru  Ru33  1  0.508275  0.635152  0.500000  1
  Ru  Ru34  1  0.126878  0.491725  0.500000  1
  Ru  Ru35  1  0.000000  0.000000  0.000000  1
