# generated using pymatgen
data_YbPa(CoC2)2
_symmetry_space_group_name_H-M   'P 1'
_cell_length_a   3.68551273
_cell_length_b   3.66536962
_cell_length_c   7.30167813
_cell_angle_alpha   82.96792665
_cell_angle_beta   82.56595151
_cell_angle_gamma   90.07613488
_symmetry_Int_Tables_number   1
_chemical_formula_structural   YbPa(CoC2)2
_chemical_formula_sum   'Yb1 Pa1 Co2 C4'
_cell_volume   97.05706530
_cell_formula_units_Z   1
loop_
 _symmetry_equiv_pos_site_id
 _symmetry_equiv_pos_as_xyz
  1  'x, y, z'
loop_
 _atom_site_type_symbol
 _atom_site_label
 _atom_site_symmetry_multiplicity
 _atom_site_fract_x
 _atom_site_fract_y
 _atom_site_fract_z
 _atom_site_occupancy
  Yb  Yb0  1  0.067480  0.930200  0.002107  1
  Pa  Pa1  1  0.935356  0.061383  0.497787  1
  Co  Co2  1  0.368864  0.508633  0.693082  1
  Co  Co3  1  0.509262  0.378203  0.194086  1
  C  C4  1  0.448280  0.593220  0.428147  1
  C  C5  1  0.591757  0.443924  0.929132  1
  C  C6  1  0.492131  0.864778  0.271344  1
  C  C7  1  0.853868  0.486657  0.778116  1
