# generated using pymatgen
data_Hf6AlFeSn
_symmetry_space_group_name_H-M   'P 1'
_cell_length_a   3.32607300
_cell_length_b   7.95345250
_cell_length_c   7.95338500
_cell_angle_alpha   60.00670139
_cell_angle_beta   90.00000000
_cell_angle_gamma   90.00000000
_symmetry_Int_Tables_number   1
_chemical_formula_structural   Hf6AlFeSn
_chemical_formula_sum   'Hf6 Al1 Fe1 Sn1'
_cell_volume   182.22142101
_cell_formula_units_Z   1
loop_
 _symmetry_equiv_pos_site_id
 _symmetry_equiv_pos_as_xyz
  1  'x, y, z'
loop_
 _atom_site_type_symbol
 _atom_site_label
 _atom_site_symmetry_multiplicity
 _atom_site_fract_x
 _atom_site_fract_y
 _atom_site_fract_z
 _atom_site_occupancy
  Hf  Hf0  1  0.500000  0.612606  0.397292  1
  Hf  Hf1  1  0.500000  0.397271  0.990148  1
  Hf  Hf2  1  0.500000  0.990043  0.612651  1
  Hf  Hf3  1  0.000000  0.247263  0.756541  1
  Hf  Hf4  1  0.000000  0.756549  0.996247  1
  Hf  Hf5  1  0.000000  0.996167  0.247223  1
  Al  Al6  1  0.000000  0.666613  0.666736  1
  Fe  Fe7  1  0.500000  0.000111  0.999881  1
  Sn  Sn8  1  0.000000  0.333277  0.333381  1
