# generated using pymatgen
data_Sc2MnFe(Co4P3)2
_symmetry_space_group_name_H-M   'P 1'
_cell_length_a   3.58214100
_cell_length_b   10.14347000
_cell_length_c   11.64755200
_cell_angle_alpha   90.00000000
_cell_angle_beta   90.00000000
_cell_angle_gamma   90.00000000
_symmetry_Int_Tables_number   1
_chemical_formula_structural   Sc2MnFe(Co4P3)2
_chemical_formula_sum   'Sc4 Mn2 Fe2 Co16 P12'
_cell_volume   423.21775940
_cell_formula_units_Z   2
loop_
 _symmetry_equiv_pos_site_id
 _symmetry_equiv_pos_as_xyz
  1  'x, y, z'
loop_
 _atom_site_type_symbol
 _atom_site_label
 _atom_site_symmetry_multiplicity
 _atom_site_fract_x
 _atom_site_fract_y
 _atom_site_fract_z
 _atom_site_occupancy
  Sc  Sc0  1  0.250000  0.579721  0.703981  1
  Sc  Sc1  1  0.250000  0.920279  0.203981  1
  Sc  Sc2  1  0.750000  0.418524  0.295153  1
  Sc  Sc3  1  0.750000  0.081476  0.795153  1
  Mn  Mn4  1  0.250000  0.711334  0.988738  1
  Mn  Mn5  1  0.250000  0.788666  0.488738  1
  Fe  Fe6  1  0.750000  0.288142  0.011705  1
  Fe  Fe7  1  0.750000  0.211858  0.511705  1
  Co  Co8  1  0.250000  0.407153  0.485281  1
  Co  Co9  1  0.250000  0.092847  0.985281  1
  Co  Co10  1  0.750000  0.592329  0.515081  1
  Co  Co11  1  0.750000  0.907671  0.015081  1
  Co  Co12  1  0.250000  0.221614  0.177164  1
  Co  Co13  1  0.250000  0.278387  0.677164  1
  Co  Co14  1  0.750000  0.778436  0.823299  1
  Co  Co15  1  0.750000  0.721564  0.323299  1
  Co  Co16  1  0.250000  0.883719  0.699954  1
  Co  Co17  1  0.250000  0.616281  0.199954  1
  Co  Co18  1  0.750000  0.117199  0.300070  1
  Co  Co19  1  0.750000  0.382801  0.800070  1
  Co  Co20  1  0.250000  0.464047  0.931958  1
  Co  Co21  1  0.250000  0.035953  0.431958  1
  Co  Co22  1  0.750000  0.534663  0.068258  1
  Co  Co23  1  0.750000  0.965337  0.568258  1
  P  P24  1  0.250000  0.418728  0.115345  1
  P  P25  1  0.250000  0.081272  0.615345  1
  P  P26  1  0.750000  0.580007  0.884118  1
  P  P27  1  0.750000  0.919993  0.384118  1
  P  P28  1  0.250000  0.264107  0.867363  1
  P  P29  1  0.250000  0.235893  0.367363  1
  P  P30  1  0.750000  0.735243  0.133384  1
  P  P31  1  0.750000  0.764757  0.633384  1
  P  P32  1  0.250000  0.596306  0.389650  1
  P  P33  1  0.250000  0.903694  0.889650  1
  P  P34  1  0.750000  0.400182  0.609498  1
  P  P35  1  0.750000  0.099818  0.109498  1
