# generated using pymatgen
data_Tb3Ho13(In3Rh)2
_symmetry_space_group_name_H-M   'P 1'
_cell_length_a   10.41722600
_cell_length_b   10.41722656
_cell_length_c   7.01435800
_cell_angle_alpha   90.00000000
_cell_angle_beta   90.00000000
_cell_angle_gamma   119.99999822
_symmetry_Int_Tables_number   1
_chemical_formula_structural   Tb3Ho13(In3Rh)2
_chemical_formula_sum   'Tb3 Ho13 In6 Rh2'
_cell_volume   659.20844588
_cell_formula_units_Z   1
loop_
 _symmetry_equiv_pos_site_id
 _symmetry_equiv_pos_as_xyz
  1  'x, y, z'
loop_
 _atom_site_type_symbol
 _atom_site_label
 _atom_site_symmetry_multiplicity
 _atom_site_fract_x
 _atom_site_fract_y
 _atom_site_fract_z
 _atom_site_occupancy
  Tb  Tb0  1  0.532596  0.065191  0.507441  1
  Tb  Tb1  1  0.934809  0.467404  0.507441  1
  Tb  Tb2  1  0.532596  0.467404  0.507441  1
  Ho  Ho3  1  0.467045  0.934089  0.007471  1
  Ho  Ho4  1  0.065911  0.532955  0.007471  1
  Ho  Ho5  1  0.467045  0.532955  0.007471  1
  Ho  Ho6  1  0.176420  0.352840  0.713203  1
  Ho  Ho7  1  0.647160  0.823580  0.713203  1
  Ho  Ho8  1  0.176420  0.823580  0.713203  1
  Ho  Ho9  1  0.823601  0.647202  0.212527  1
  Ho  Ho10  1  0.352798  0.176399  0.212527  1
  Ho  Ho11  1  0.823601  0.176399  0.212527  1
  Ho  Ho12  1  0.666667  0.333333  0.888206  1
  Ho  Ho13  1  0.333333  0.666667  0.387594  1
  Ho  Ho14  1  0.000000  0.000000  0.493505  1
  Ho  Ho15  1  0.000000  0.000000  0.993807  1
  In  In16  1  0.837497  0.674993  0.751702  1
  In  In17  1  0.325007  0.162503  0.751702  1
  In  In18  1  0.837497  0.162503  0.751702  1
  In  In19  1  0.162618  0.325238  0.251252  1
  In  In20  1  0.674762  0.837382  0.251252  1
  In  In21  1  0.162618  0.837382  0.251252  1
  Rh  Rh22  1  0.666667  0.333333  0.281681  1
  Rh  Rh23  1  0.333333  0.666667  0.782462  1
