# generated using pymatgen
data_Dy5Sc5(Si5Pt2)4
_symmetry_space_group_name_H-M   'P 1'
_cell_length_a   12.53046500
_cell_length_b   12.53046500
_cell_length_c   4.21257600
_cell_angle_alpha   90.00000000
_cell_angle_beta   90.00000000
_cell_angle_gamma   90.00000000
_symmetry_Int_Tables_number   1
_chemical_formula_structural   Dy5Sc5(Si5Pt2)4
_chemical_formula_sum   'Dy5 Sc5 Si20 Pt8'
_cell_volume   661.42731296
_cell_formula_units_Z   1
loop_
 _symmetry_equiv_pos_site_id
 _symmetry_equiv_pos_as_xyz
  1  'x, y, z'
loop_
 _atom_site_type_symbol
 _atom_site_label
 _atom_site_symmetry_multiplicity
 _atom_site_fract_x
 _atom_site_fract_y
 _atom_site_fract_z
 _atom_site_occupancy
  Dy  Dy0  1  0.000000  0.000000  0.000000  1
  Dy  Dy1  1  0.886401  0.387448  0.500000  1
  Dy  Dy2  1  0.113599  0.612552  0.500000  1
  Dy  Dy3  1  0.387448  0.113599  0.500000  1
  Dy  Dy4  1  0.612552  0.886401  0.500000  1
  Sc  Sc5  1  0.500000  0.500000  0.000000  1
  Sc  Sc6  1  0.674216  0.175799  0.500000  1
  Sc  Sc7  1  0.325784  0.824201  0.500000  1
  Sc  Sc8  1  0.175799  0.325784  0.500000  1
  Sc  Sc9  1  0.824201  0.674216  0.500000  1
  Si  Si10  1  0.565311  0.067291  0.000000  1
  Si  Si11  1  0.434689  0.932709  0.000000  1
  Si  Si12  1  0.067291  0.434689  0.000000  1
  Si  Si13  1  0.932709  0.565311  0.000000  1
  Si  Si14  1  0.666314  0.702291  0.000000  1
  Si  Si15  1  0.333686  0.297709  0.000000  1
  Si  Si16  1  0.166386  0.797652  0.000000  1
  Si  Si17  1  0.833614  0.202348  0.000000  1
  Si  Si18  1  0.297709  0.666314  0.000000  1
  Si  Si19  1  0.702291  0.333686  0.000000  1
  Si  Si20  1  0.202348  0.166386  0.000000  1
  Si  Si21  1  0.797652  0.833614  0.000000  1
  Si  Si22  1  0.647643  0.507551  0.500000  1
  Si  Si23  1  0.352357  0.492449  0.500000  1
  Si  Si24  1  0.154086  0.994218  0.500000  1
  Si  Si25  1  0.845914  0.005782  0.500000  1
  Si  Si26  1  0.492449  0.647643  0.500000  1
  Si  Si27  1  0.507551  0.352357  0.500000  1
  Si  Si28  1  0.005782  0.154086  0.500000  1
  Si  Si29  1  0.994218  0.845914  0.500000  1
  Pt  Pt30  1  0.740814  0.521488  0.000000  1
  Pt  Pt31  1  0.259186  0.478512  0.000000  1
  Pt  Pt32  1  0.244787  0.978133  0.000000  1
  Pt  Pt33  1  0.755213  0.021867  0.000000  1
  Pt  Pt34  1  0.478512  0.740814  0.000000  1
  Pt  Pt35  1  0.521488  0.259186  0.000000  1
  Pt  Pt36  1  0.021867  0.244787  0.000000  1
  Pt  Pt37  1  0.978133  0.755213  0.000000  1
