# generated using pymatgen
data_Ho16Hg4Ir3Rh
_symmetry_space_group_name_H-M   'P 1'
_cell_length_a   9.55566980
_cell_length_b   9.55567026
_cell_length_c   9.55566948
_cell_angle_alpha   60.10021950
_cell_angle_beta   60.10022189
_cell_angle_gamma   60.10022169
_symmetry_Int_Tables_number   1
_chemical_formula_structural   Ho16Hg4Ir3Rh
_chemical_formula_sum   'Ho16 Hg4 Ir3 Rh1'
_cell_volume   618.37724242
_cell_formula_units_Z   1
loop_
 _symmetry_equiv_pos_site_id
 _symmetry_equiv_pos_as_xyz
  1  'x, y, z'
loop_
 _atom_site_type_symbol
 _atom_site_label
 _atom_site_symmetry_multiplicity
 _atom_site_fract_x
 _atom_site_fract_y
 _atom_site_fract_z
 _atom_site_occupancy
  Ho  Ho0  1  0.600179  0.600179  0.600179  1
  Ho  Ho1  1  0.601608  0.601608  0.197002  1
  Ho  Ho2  1  0.601608  0.197002  0.601608  1
  Ho  Ho3  1  0.197002  0.601608  0.601608  1
  Ho  Ho4  1  0.058973  0.439960  0.439960  1
  Ho  Ho5  1  0.439124  0.059968  0.059968  1
  Ho  Ho6  1  0.439960  0.058973  0.439960  1
  Ho  Ho7  1  0.059968  0.439124  0.059968  1
  Ho  Ho8  1  0.439960  0.439960  0.058973  1
  Ho  Ho9  1  0.059968  0.059968  0.439124  1
  Ho  Ho10  1  0.188917  0.811873  0.811873  1
  Ho  Ho11  1  0.812728  0.187639  0.187639  1
  Ho  Ho12  1  0.811873  0.188917  0.811873  1
  Ho  Ho13  1  0.187639  0.812728  0.187639  1
  Ho  Ho14  1  0.811873  0.811873  0.188917  1
  Ho  Ho15  1  0.187639  0.187639  0.812728  1
  Hg  Hg16  1  0.834389  0.834389  0.834389  1
  Hg  Hg17  1  0.834905  0.834905  0.495345  1
  Hg  Hg18  1  0.834905  0.495345  0.834905  1
  Hg  Hg19  1  0.495345  0.834905  0.834905  1
  Ir  Ir20  1  0.392892  0.392892  0.823585  1
  Ir  Ir21  1  0.392892  0.823585  0.392892  1
  Ir  Ir22  1  0.823585  0.392892  0.392892  1
  Rh  Rh23  1  0.392072  0.392072  0.392072  1
