# generated using pymatgen
data_Pr16Co3Hg4Ir
_symmetry_space_group_name_H-M   'P 1'
_cell_length_a   9.93097272
_cell_length_b   9.90562974
_cell_length_c   9.90562900
_cell_angle_alpha   59.99999913
_cell_angle_beta   60.08437990
_cell_angle_gamma   60.08437614
_symmetry_Int_Tables_number   1
_chemical_formula_structural   Pr16Co3Hg4Ir
_chemical_formula_sum   'Pr16 Co3 Hg4 Ir1'
_cell_volume   689.91192010
_cell_formula_units_Z   1
loop_
 _symmetry_equiv_pos_site_id
 _symmetry_equiv_pos_as_xyz
  1  'x, y, z'
loop_
 _atom_site_type_symbol
 _atom_site_label
 _atom_site_symmetry_multiplicity
 _atom_site_fract_x
 _atom_site_fract_y
 _atom_site_fract_z
 _atom_site_occupancy
  Pr  Pr0  1  0.342258  0.349958  0.349958  1
  Pr  Pr1  1  0.342258  0.349958  0.957824  1
  Pr  Pr2  1  0.342258  0.957824  0.349958  1
  Pr  Pr3  1  0.960393  0.346535  0.346535  1
  Pr  Pr4  1  0.815265  0.189511  0.189511  1
  Pr  Pr5  1  0.190799  0.810456  0.810456  1
  Pr  Pr6  1  0.190799  0.810456  0.188289  1
  Pr  Pr7  1  0.815265  0.189511  0.805714  1
  Pr  Pr8  1  0.190799  0.188289  0.810456  1
  Pr  Pr9  1  0.815265  0.805714  0.189511  1
  Pr  Pr10  1  0.937802  0.561953  0.561953  1
  Pr  Pr11  1  0.562218  0.939640  0.939640  1
  Pr  Pr12  1  0.562218  0.939640  0.558504  1
  Pr  Pr13  1  0.937802  0.561953  0.938293  1
  Pr  Pr14  1  0.562218  0.558504  0.939640  1
  Pr  Pr15  1  0.937802  0.938293  0.561953  1
  Co  Co16  1  0.139138  0.141499  0.141499  1
  Co  Co17  1  0.139138  0.141499  0.577866  1
  Co  Co18  1  0.139138  0.577866  0.141499  1
  Hg  Hg19  1  0.583637  0.582191  0.582191  1
  Hg  Hg20  1  0.583637  0.582191  0.251980  1
  Hg  Hg21  1  0.583637  0.251980  0.582191  1
  Hg  Hg22  1  0.250051  0.583316  0.583316  1
  Ir  Ir23  1  0.576207  0.141264  0.141264  1
