# generated using pymatgen
data_Sc8Ti8V3Si16Ir
_symmetry_space_group_name_H-M   'P 1'
_cell_length_a   6.78182520
_cell_length_b   6.79698621
_cell_length_c   12.44951378
_cell_angle_alpha   90.21160176
_cell_angle_beta   89.77585083
_cell_angle_gamma   89.73607661
_symmetry_Int_Tables_number   1
_chemical_formula_structural   Sc8Ti8V3Si16Ir
_chemical_formula_sum   'Sc8 Ti8 V3 Si16 Ir1'
_cell_volume   573.85801140
_cell_formula_units_Z   1
loop_
 _symmetry_equiv_pos_site_id
 _symmetry_equiv_pos_as_xyz
  1  'x, y, z'
loop_
 _atom_site_type_symbol
 _atom_site_label
 _atom_site_symmetry_multiplicity
 _atom_site_fract_x
 _atom_site_fract_y
 _atom_site_fract_z
 _atom_site_occupancy
  Sc  Sc0  1  0.999780  0.660931  0.030232  1
  Sc  Sc1  1  0.839844  0.500307  0.282666  1
  Sc  Sc2  1  0.159556  0.499538  0.782671  1
  Sc  Sc3  1  0.500818  0.840966  0.718497  1
  Sc  Sc4  1  0.499132  0.157945  0.216468  1
  Sc  Sc5  1  0.002491  0.337735  0.531549  1
  Sc  Sc6  1  0.660696  0.999713  0.968895  1
  Sc  Sc7  1  0.338859  0.000696  0.469551  1
  Ti  Ti8  1  0.169900  0.832892  0.248075  1
  Ti  Ti9  1  0.832636  0.167963  0.751989  1
  Ti  Ti10  1  0.673246  0.672271  0.500230  1
  Ti  Ti11  1  0.998075  0.149951  0.128004  1
  Ti  Ti12  1  0.350929  0.505434  0.376050  1
  Ti  Ti13  1  0.657504  0.495503  0.875844  1
  Ti  Ti14  1  0.504500  0.348524  0.625960  1
  Ti  Ti15  1  0.493857  0.658588  0.122283  1
  V  V16  1  0.993115  0.848799  0.626794  1
  V  V17  1  0.148273  0.999743  0.872019  1
  V  V18  1  0.850053  0.993214  0.372559  1
  Si  Si19  1  0.289679  0.960085  0.059195  1
  Si  Si20  1  0.546776  0.800355  0.316168  1
  Si  Si21  1  0.448371  0.201587  0.818320  1
  Si  Si22  1  0.800284  0.547648  0.684241  1
  Si  Si23  1  0.202484  0.453251  0.183328  1
  Si  Si24  1  0.708665  0.041253  0.563108  1
  Si  Si25  1  0.962265  0.288655  0.936381  1
  Si  Si26  1  0.041987  0.708235  0.437116  1
  Si  Si27  1  0.705124  0.368088  0.071257  1
  Si  Si28  1  0.133059  0.203394  0.321345  1
  Si  Si29  1  0.868499  0.796758  0.819089  1
  Si  Si30  1  0.202208  0.130517  0.681761  1
  Si  Si31  1  0.794480  0.862580  0.181767  1
  Si  Si32  1  0.289856  0.638163  0.572149  1
  Si  Si33  1  0.367521  0.712487  0.925514  1
  Si  Si34  1  0.638586  0.288299  0.428429  1
  Ir  Ir35  1  0.326896  0.327938  0.000496  1
