# generated using pymatgen
data_PrMgBi2(Pt2O7)2
_symmetry_space_group_name_H-M   'P 1'
_cell_length_a   7.26031823
_cell_length_b   7.38384166
_cell_length_c   7.38384262
_cell_angle_alpha   60.33819058
_cell_angle_beta   59.65035470
_cell_angle_gamma   59.65036568
_symmetry_Int_Tables_number   1
_chemical_formula_structural   PrMgBi2(Pt2O7)2
_chemical_formula_sum   'Pr1 Mg1 Bi2 Pt4 O14'
_cell_volume   279.11020361
_cell_formula_units_Z   1
loop_
 _symmetry_equiv_pos_site_id
 _symmetry_equiv_pos_as_xyz
  1  'x, y, z'
loop_
 _atom_site_type_symbol
 _atom_site_label
 _atom_site_symmetry_multiplicity
 _atom_site_fract_x
 _atom_site_fract_y
 _atom_site_fract_z
 _atom_site_occupancy
  Pr  Pr0  1  0.125000  0.125000  0.125000  1
  Mg  Mg1  1  0.625000  0.125000  0.125000  1
  Bi  Bi2  1  0.125000  0.125000  0.625000  1
  Bi  Bi3  1  0.125000  0.625000  0.125000  1
  Pt  Pt4  1  0.625000  0.625000  0.125000  1
  Pt  Pt5  1  0.625000  0.125000  0.625000  1
  Pt  Pt6  1  0.125000  0.625000  0.625000  1
  Pt  Pt7  1  0.625000  0.625000  0.625000  1
  O  O8  1  0.281198  0.243269  0.243269  1
  O  O9  1  0.968802  0.006731  0.006731  1
  O  O10  1  0.546672  0.957723  0.536695  1
  O  O11  1  0.287454  0.711674  0.290606  1
  O  O12  1  0.546672  0.536695  0.957723  1
  O  O13  1  0.960452  0.540371  0.540371  1
  O  O14  1  0.546859  0.960447  0.960447  1
  O  O15  1  0.962546  0.959394  0.538326  1
  O  O16  1  0.962546  0.538326  0.959394  1
  O  O17  1  0.703141  0.289553  0.289553  1
  O  O18  1  0.289548  0.709629  0.709629  1
  O  O19  1  0.703328  0.292277  0.713305  1
  O  O20  1  0.287454  0.290606  0.711674  1
  O  O21  1  0.703328  0.713305  0.292277  1
