# generated using pymatgen
data_Sm8Cu3Si12Rh
_symmetry_space_group_name_H-M   'P 1'
_cell_length_a   8.10664200
_cell_length_b   8.10664244
_cell_length_c   8.35744000
_cell_angle_alpha   90.00000000
_cell_angle_beta   90.00000000
_cell_angle_gamma   119.99999003
_symmetry_Int_Tables_number   1
_chemical_formula_structural   Sm8Cu3Si12Rh
_chemical_formula_sum   'Sm8 Cu3 Si12 Rh1'
_cell_volume   475.64830698
_cell_formula_units_Z   1
loop_
 _symmetry_equiv_pos_site_id
 _symmetry_equiv_pos_as_xyz
  1  'x, y, z'
loop_
 _atom_site_type_symbol
 _atom_site_label
 _atom_site_symmetry_multiplicity
 _atom_site_fract_x
 _atom_site_fract_y
 _atom_site_fract_z
 _atom_site_occupancy
  Sm  Sm0  1  0.000000  0.000000  0.250074  1
  Sm  Sm1  1  0.000000  0.000000  0.749868  1
  Sm  Sm2  1  0.499244  0.500756  0.248117  1
  Sm  Sm3  1  0.499244  0.998489  0.248117  1
  Sm  Sm4  1  0.001511  0.500756  0.248117  1
  Sm  Sm5  1  0.498644  0.501356  0.751863  1
  Sm  Sm6  1  0.498644  0.997288  0.751863  1
  Sm  Sm7  1  0.002712  0.501356  0.751863  1
  Cu  Cu8  1  0.333333  0.666667  0.499328  1
  Cu  Cu9  1  0.666667  0.333333  0.502463  1
  Cu  Cu10  1  0.666667  0.333333  0.998262  1
  Si  Si11  1  0.168823  0.831177  0.499604  1
  Si  Si12  1  0.168823  0.337648  0.499604  1
  Si  Si13  1  0.662352  0.831177  0.499604  1
  Si  Si14  1  0.830956  0.169044  0.500325  1
  Si  Si15  1  0.830956  0.661911  0.500325  1
  Si  Si16  1  0.338089  0.169044  0.500325  1
  Si  Si17  1  0.832065  0.167935  0.999535  1
  Si  Si18  1  0.832065  0.664128  0.999535  1
  Si  Si19  1  0.335872  0.167935  0.999535  1
  Si  Si20  1  0.167770  0.832230  0.000473  1
  Si  Si21  1  0.167770  0.335542  0.000473  1
  Si  Si22  1  0.664458  0.832230  0.000473  1
  Rh  Rh23  1  0.333333  0.666667  0.000255  1
