# generated using pymatgen
data_Nd16Dy4Ir7Pt5
_symmetry_space_group_name_H-M   'P 1'
_cell_length_a   11.33236761
_cell_length_b   11.33236765
_cell_length_c   6.48517077
_cell_angle_alpha   90.06613972
_cell_angle_beta   90.06614265
_cell_angle_gamma   89.96465119
_symmetry_Int_Tables_number   1
_chemical_formula_structural   Nd16Dy4Ir7Pt5
_chemical_formula_sum   'Nd16 Dy4 Ir7 Pt5'
_cell_volume   832.84093945
_cell_formula_units_Z   1
loop_
 _symmetry_equiv_pos_site_id
 _symmetry_equiv_pos_as_xyz
  1  'x, y, z'
loop_
 _atom_site_type_symbol
 _atom_site_label
 _atom_site_symmetry_multiplicity
 _atom_site_fract_x
 _atom_site_fract_y
 _atom_site_fract_z
 _atom_site_occupancy
  Nd  Nd0  1  0.293201  0.090597  0.375937  1
  Nd  Nd1  1  0.294229  0.909249  0.874691  1
  Nd  Nd2  1  0.706065  0.086320  0.874532  1
  Nd  Nd3  1  0.706207  0.908504  0.375098  1
  Nd  Nd4  1  0.586540  0.787551  0.879997  1
  Nd  Nd5  1  0.584747  0.208471  0.375157  1
  Nd  Nd6  1  0.413391  0.789815  0.379467  1
  Nd  Nd7  1  0.410066  0.209604  0.881365  1
  Nd  Nd8  1  0.212449  0.413460  0.620003  1
  Nd  Nd9  1  0.210185  0.586609  0.120533  1
  Nd  Nd10  1  0.791529  0.415253  0.124843  1
  Nd  Nd11  1  0.790396  0.589934  0.618635  1
  Nd  Nd12  1  0.909403  0.706799  0.124063  1
  Nd  Nd13  1  0.913680  0.293935  0.625468  1
  Nd  Nd14  1  0.090751  0.705771  0.625309  1
  Nd  Nd15  1  0.091496  0.293793  0.124902  1
  Dy  Dy16  1  0.999717  0.999786  0.499245  1
  Dy  Dy17  1  0.000214  0.000283  0.000755  1
  Dy  Dy18  1  0.498182  0.500987  0.000508  1
  Dy  Dy19  1  0.499013  0.501818  0.499492  1
  Ir  Ir20  1  0.649128  0.648362  0.250377  1
  Ir  Ir21  1  0.351638  0.350872  0.249623  1
  Ir  Ir22  1  0.349865  0.650135  0.750000  1
  Ir  Ir23  1  0.500187  0.000068  0.118580  1
  Ir  Ir24  1  0.499942  0.000851  0.619438  1
  Ir  Ir25  1  0.999149  0.500058  0.880562  1
  Ir  Ir26  1  0.999932  0.499813  0.381420  1
  Pt  Pt27  1  0.850765  0.149235  0.250000  1
  Pt  Pt28  1  0.851693  0.852547  0.750026  1
  Pt  Pt29  1  0.147453  0.148307  0.749974  1
  Pt  Pt30  1  0.148585  0.851415  0.250000  1
  Pt  Pt31  1  0.650200  0.349800  0.750000  1
