# generated using pymatgen
data_Zr9CoRe3Mo
_symmetry_space_group_name_H-M   'P 1'
_cell_length_a   8.70711900
_cell_length_b   8.70711990
_cell_length_c   8.50892500
_cell_angle_alpha   90.00000000
_cell_angle_beta   90.00000000
_cell_angle_gamma   120.00000037
_symmetry_Int_Tables_number   1
_chemical_formula_structural   Zr9CoRe3Mo
_chemical_formula_sum   'Zr18 Co2 Re6 Mo2'
_cell_volume   558.66868772
_cell_formula_units_Z   2
loop_
 _symmetry_equiv_pos_site_id
 _symmetry_equiv_pos_as_xyz
  1  'x, y, z'
loop_
 _atom_site_type_symbol
 _atom_site_label
 _atom_site_symmetry_multiplicity
 _atom_site_fract_x
 _atom_site_fract_y
 _atom_site_fract_z
 _atom_site_occupancy
  Zr  Zr0  1  0.199937  0.800063  0.441830  1
  Zr  Zr1  1  0.199937  0.399874  0.441830  1
  Zr  Zr2  1  0.600126  0.800063  0.441830  1
  Zr  Zr3  1  0.800063  0.199937  0.558170  1
  Zr  Zr4  1  0.800063  0.600126  0.558170  1
  Zr  Zr5  1  0.399874  0.199937  0.558170  1
  Zr  Zr6  1  0.800063  0.199937  0.941830  1
  Zr  Zr7  1  0.800063  0.600126  0.941830  1
  Zr  Zr8  1  0.399874  0.199937  0.941830  1
  Zr  Zr9  1  0.199937  0.800063  0.058170  1
  Zr  Zr10  1  0.199937  0.399874  0.058170  1
  Zr  Zr11  1  0.600126  0.800063  0.058170  1
  Zr  Zr12  1  0.541962  0.458038  0.250000  1
  Zr  Zr13  1  0.541962  0.083924  0.250000  1
  Zr  Zr14  1  0.916076  0.458038  0.250000  1
  Zr  Zr15  1  0.458038  0.541962  0.750000  1
  Zr  Zr16  1  0.458038  0.916076  0.750000  1
  Zr  Zr17  1  0.083924  0.541962  0.750000  1
  Co  Co18  1  0.333333  0.666667  0.250000  1
  Co  Co19  1  0.666667  0.333333  0.750000  1
  Re  Re20  1  0.890765  0.109235  0.250000  1
  Re  Re21  1  0.890765  0.781531  0.250000  1
  Re  Re22  1  0.218469  0.109235  0.250000  1
  Re  Re23  1  0.109235  0.890765  0.750000  1
  Re  Re24  1  0.109235  0.218469  0.750000  1
  Re  Re25  1  0.781531  0.890765  0.750000  1
  Mo  Mo26  1  0.000000  0.000000  0.500000  1
  Mo  Mo27  1  0.000000  0.000000  0.000000  1
