# generated using pymatgen
data_LaNd6IrBr12
_symmetry_space_group_name_H-M   'P 1'
_cell_length_a   9.62025430
_cell_length_b   9.62025441
_cell_length_c   9.62025383
_cell_angle_alpha   106.74474740
_cell_angle_beta   106.74474504
_cell_angle_gamma   106.74472204
_symmetry_Int_Tables_number   1
_chemical_formula_structural   LaNd6IrBr12
_chemical_formula_sum   'La1 Nd6 Ir1 Br12'
_cell_volume   746.59309864
_cell_formula_units_Z   1
loop_
 _symmetry_equiv_pos_site_id
 _symmetry_equiv_pos_as_xyz
  1  'x, y, z'
loop_
 _atom_site_type_symbol
 _atom_site_label
 _atom_site_symmetry_multiplicity
 _atom_site_fract_x
 _atom_site_fract_y
 _atom_site_fract_z
 _atom_site_occupancy
  La  La0  1  0.500000  0.500000  0.500000  1
  Nd  Nd1  1  0.100463  0.311180  0.021815  1
  Nd  Nd2  1  0.311180  0.021816  0.100462  1
  Nd  Nd3  1  0.021816  0.100462  0.311181  1
  Nd  Nd4  1  0.978185  0.899538  0.688820  1
  Nd  Nd5  1  0.688820  0.978185  0.899538  1
  Nd  Nd6  1  0.899537  0.688820  0.978185  1
  Ir  Ir7  1  0.000000  0.000000  0.000000  1
  Br  Br8  1  0.221697  0.684126  0.074508  1
  Br  Br9  1  0.458286  0.381116  0.162914  1
  Br  Br10  1  0.684127  0.074508  0.221697  1
  Br  Br11  1  0.925493  0.778303  0.315874  1
  Br  Br12  1  0.162914  0.458286  0.381116  1
  Br  Br13  1  0.381116  0.162914  0.458286  1
  Br  Br14  1  0.618884  0.837086  0.541715  1
  Br  Br15  1  0.837087  0.541714  0.618884  1
  Br  Br16  1  0.074508  0.221697  0.684127  1
  Br  Br17  1  0.315874  0.925493  0.778303  1
  Br  Br18  1  0.541714  0.618884  0.837087  1
  Br  Br19  1  0.778303  0.315874  0.925492  1
