# generated using pymatgen
data_SmDyB6Os
_symmetry_space_group_name_H-M   'P 1'
_cell_length_a   3.68640700
_cell_length_b   9.20743700
_cell_length_c   11.60781500
_cell_angle_alpha   90.00000000
_cell_angle_beta   90.00000000
_cell_angle_gamma   90.00000000
_symmetry_Int_Tables_number   1
_chemical_formula_structural   SmDyB6Os
_chemical_formula_sum   'Sm4 Dy4 B24 Os4'
_cell_volume   393.99663797
_cell_formula_units_Z   4
loop_
 _symmetry_equiv_pos_site_id
 _symmetry_equiv_pos_as_xyz
  1  'x, y, z'
loop_
 _atom_site_type_symbol
 _atom_site_label
 _atom_site_symmetry_multiplicity
 _atom_site_fract_x
 _atom_site_fract_y
 _atom_site_fract_z
 _atom_site_occupancy
  Sm  Sm0  1  0.000000  0.322739  0.413960  1
  Sm  Sm1  1  0.000000  0.677261  0.586040  1
  Sm  Sm2  1  0.000000  0.822739  0.086040  1
  Sm  Sm3  1  0.000000  0.177261  0.913960  1
  Dy  Dy4  1  0.000000  0.944220  0.372673  1
  Dy  Dy5  1  0.000000  0.055780  0.627327  1
  Dy  Dy6  1  0.000000  0.444220  0.127327  1
  Dy  Dy7  1  0.000000  0.555780  0.872673  1
  B  B8  1  0.500000  0.555041  0.431665  1
  B  B9  1  0.500000  0.444959  0.568335  1
  B  B10  1  0.500000  0.055041  0.068335  1
  B  B11  1  0.500000  0.944959  0.931665  1
  B  B12  1  0.500000  0.748558  0.418736  1
  B  B13  1  0.500000  0.251442  0.581264  1
  B  B14  1  0.500000  0.248558  0.081264  1
  B  B15  1  0.500000  0.751442  0.918736  1
  B  B16  1  0.500000  0.790585  0.267089  1
  B  B17  1  0.500000  0.209415  0.732911  1
  B  B18  1  0.500000  0.290585  0.232911  1
  B  B19  1  0.500000  0.709415  0.767089  1
  B  B20  1  0.500000  0.631672  0.185520  1
  B  B21  1  0.500000  0.368328  0.814480  1
  B  B22  1  0.500000  0.131672  0.314480  1
  B  B23  1  0.500000  0.868328  0.685520  1
  B  B24  1  0.500000  0.985017  0.213621  1
  B  B25  1  0.500000  0.014983  0.786379  1
  B  B26  1  0.500000  0.485017  0.286379  1
  B  B27  1  0.500000  0.514983  0.713621  1
  B  B28  1  0.500000  0.606174  0.029269  1
  B  B29  1  0.500000  0.393826  0.970731  1
  B  B30  1  0.500000  0.106173  0.470731  1
  B  B31  1  0.500000  0.893826  0.529269  1
  Os  Os32  1  0.000000  0.638410  0.320589  1
  Os  Os33  1  0.000000  0.361590  0.679411  1
  Os  Os34  1  0.000000  0.138410  0.179411  1
  Os  Os35  1  0.000000  0.861590  0.820589  1
