# generated using pymatgen
data_Pr4YCoRuO12
_symmetry_space_group_name_H-M   'P 1'
_cell_length_a   7.04680397
_cell_length_b   7.04883565
_cell_length_c   7.56067627
_cell_angle_alpha   74.14376010
_cell_angle_beta   74.14663745
_cell_angle_gamma   50.24262882
_symmetry_Int_Tables_number   1
_chemical_formula_structural   Pr4YCoRuO12
_chemical_formula_sum   'Pr4 Y1 Co1 Ru1 O12'
_cell_volume   275.25243908
_cell_formula_units_Z   1
loop_
 _symmetry_equiv_pos_site_id
 _symmetry_equiv_pos_as_xyz
  1  'x, y, z'
loop_
 _atom_site_type_symbol
 _atom_site_label
 _atom_site_symmetry_multiplicity
 _atom_site_fract_x
 _atom_site_fract_y
 _atom_site_fract_z
 _atom_site_occupancy
  Pr  Pr0  1  0.703502  0.685786  0.640563  1
  Pr  Pr1  1  0.696073  0.690712  0.164816  1
  Pr  Pr2  1  0.309200  0.303956  0.833302  1
  Pr  Pr3  1  0.999829  0.002501  0.497716  1
  Y  Y4  1  0.315041  0.297935  0.355071  1
  Co  Co5  1  0.745149  0.252587  0.003175  1
  Ru  Ru6  1  0.234637  0.763015  0.002204  1
  O  O7  1  0.106924  0.589972  0.567252  1
  O  O8  1  0.984825  0.013270  0.168745  1
  O  O9  1  0.403356  0.908817  0.421125  1
  O  O10  1  0.496714  0.497827  0.176625  1
  O  O11  1  0.103808  0.576257  0.085583  1
  O  O12  1  0.919819  0.397844  0.419870  1
  O  O13  1  0.988768  0.006930  0.831663  1
  O  O14  1  0.594374  0.096522  0.568939  1
  O  O15  1  0.503048  0.495514  0.833237  1
  O  O16  1  0.581207  0.108239  0.084226  1
  O  O17  1  0.417242  0.899748  0.922277  1
  O  O18  1  0.896486  0.412567  0.923610  1
