# generated using pymatgen
data_YLu9(InPb2)2
_symmetry_space_group_name_H-M   'P 1'
_cell_length_a   8.87647200
_cell_length_b   8.86397590
_cell_length_c   6.53837500
_cell_angle_alpha   90.00000000
_cell_angle_beta   90.00000000
_cell_angle_gamma   120.01384678
_symmetry_Int_Tables_number   1
_chemical_formula_structural   YLu9(InPb2)2
_chemical_formula_sum   'Y1 Lu9 In2 Pb4'
_cell_volume   445.46008701
_cell_formula_units_Z   1
loop_
 _symmetry_equiv_pos_site_id
 _symmetry_equiv_pos_as_xyz
  1  'x, y, z'
loop_
 _atom_site_type_symbol
 _atom_site_label
 _atom_site_symmetry_multiplicity
 _atom_site_fract_x
 _atom_site_fract_y
 _atom_site_fract_z
 _atom_site_occupancy
  Y  Y0  1  0.995764  0.764231  0.250000  1
  Lu  Lu1  1  0.663868  0.336505  0.999679  1
  Lu  Lu2  1  0.336055  0.663123  0.999738  1
  Lu  Lu3  1  0.336055  0.663123  0.500262  1
  Lu  Lu4  1  0.663868  0.336505  0.500321  1
  Lu  Lu5  1  0.762230  0.763404  0.750000  1
  Lu  Lu6  1  0.237511  0.005999  0.750000  1
  Lu  Lu7  1  0.004966  0.234615  0.750000  1
  Lu  Lu8  1  0.236590  0.236747  0.250000  1
  Lu  Lu9  1  0.763073  0.995276  0.250000  1
  In  In10  1  0.400542  0.400808  0.750000  1
  In  In11  1  0.596615  0.597927  0.250000  1
  Pb  Pb12  1  0.605142  0.002873  0.750000  1
  Pb  Pb13  1  0.002366  0.606132  0.750000  1
  Pb  Pb14  1  0.397866  0.999163  0.250000  1
  Pb  Pb15  1  0.997490  0.393570  0.250000  1
