# generated using pymatgen
data_Ba5CaSn8BiI
_symmetry_space_group_name_H-M   'P 1'
_cell_length_a   9.26851052
_cell_length_b   9.26850989
_cell_length_c   9.31976580
_cell_angle_alpha   119.81825056
_cell_angle_beta   119.81824212
_cell_angle_gamma   89.99999916
_symmetry_Int_Tables_number   1
_chemical_formula_structural   Ba5CaSn8BiI
_chemical_formula_sum   'Ba5 Ca1 Sn8 Bi1 I1'
_cell_volume   569.21810759
_cell_formula_units_Z   1
loop_
 _symmetry_equiv_pos_site_id
 _symmetry_equiv_pos_as_xyz
  1  'x, y, z'
loop_
 _atom_site_type_symbol
 _atom_site_label
 _atom_site_symmetry_multiplicity
 _atom_site_fract_x
 _atom_site_fract_y
 _atom_site_fract_z
 _atom_site_occupancy
  Ba  Ba0  1  0.746049  0.746049  0.492099  1
  Ba  Ba1  1  0.656563  0.164501  0.999646  1
  Ba  Ba2  1  0.343083  0.835145  0.999646  1
  Ba  Ba3  1  0.835145  0.656563  0.999646  1
  Ba  Ba4  1  0.164501  0.343083  0.999646  1
  Ca  Ca5  1  0.255055  0.255055  0.510111  1
  Sn  Sn6  1  0.333383  0.838330  0.386666  1
  Sn  Sn7  1  0.660847  0.166422  0.612854  1
  Sn  Sn8  1  0.053285  0.548337  0.386666  1
  Sn  Sn9  1  0.548337  0.333383  0.386666  1
  Sn  Sn10  1  0.166422  0.952007  0.612854  1
  Sn  Sn11  1  0.952007  0.446432  0.612854  1
  Sn  Sn12  1  0.446432  0.660847  0.612854  1
  Sn  Sn13  1  0.838330  0.053285  0.386666  1
  Bi  Bi14  1  0.488240  0.488240  0.976479  1
  I  I15  1  0.012322  0.012322  0.024644  1
