# generated using pymatgen
data_Tb2Lu2TcB12Rh
_symmetry_space_group_name_H-M   'P 1'
_cell_length_a   3.65110000
_cell_length_b   9.08877641
_cell_length_c   11.49519837
_cell_angle_alpha   90.30506596
_cell_angle_beta   90.00000000
_cell_angle_gamma   90.00000000
_symmetry_Int_Tables_number   1
_chemical_formula_structural   Tb2Lu2TcB12Rh
_chemical_formula_sum   'Tb4 Lu4 Tc2 B24 Rh2'
_cell_volume   381.45161846
_cell_formula_units_Z   2
loop_
 _symmetry_equiv_pos_site_id
 _symmetry_equiv_pos_as_xyz
  1  'x, y, z'
loop_
 _atom_site_type_symbol
 _atom_site_label
 _atom_site_symmetry_multiplicity
 _atom_site_fract_x
 _atom_site_fract_y
 _atom_site_fract_z
 _atom_site_occupancy
  Tb  Tb0  1  0.500000  0.318681  0.411569  1
  Tb  Tb1  1  0.500000  0.681319  0.588431  1
  Tb  Tb2  1  0.500000  0.174479  0.916707  1
  Tb  Tb3  1  0.500000  0.825521  0.083293  1
  Lu  Lu4  1  0.500000  0.441902  0.126648  1
  Lu  Lu5  1  0.500000  0.558098  0.873352  1
  Lu  Lu6  1  0.500000  0.053388  0.628384  1
  Lu  Lu7  1  0.500000  0.946612  0.371616  1
  Tc  Tc8  1  0.500000  0.139991  0.180823  1
  Tc  Tc9  1  0.500000  0.860009  0.819177  1
  B  B10  1  0.000000  0.103810  0.472379  1
  B  B11  1  0.000000  0.896190  0.527621  1
  B  B12  1  0.000000  0.397364  0.971513  1
  B  B13  1  0.000000  0.602636  0.028487  1
  B  B14  1  0.000000  0.131397  0.315584  1
  B  B15  1  0.000000  0.868603  0.684416  1
  B  B16  1  0.000000  0.368641  0.817125  1
  B  B17  1  0.000000  0.631359  0.182875  1
  B  B18  1  0.000000  0.053790  0.068018  1
  B  B19  1  0.000000  0.946210  0.931982  1
  B  B20  1  0.000000  0.444744  0.566452  1
  B  B21  1  0.000000  0.555256  0.433548  1
  B  B22  1  0.000000  0.483598  0.286846  1
  B  B23  1  0.000000  0.516402  0.713154  1
  B  B24  1  0.000000  0.016836  0.786045  1
  B  B25  1  0.000000  0.983164  0.213955  1
  B  B26  1  0.000000  0.250101  0.081836  1
  B  B27  1  0.000000  0.749899  0.918164  1
  B  B28  1  0.000000  0.248928  0.579558  1
  B  B29  1  0.000000  0.751072  0.420442  1
  B  B30  1  0.000000  0.293612  0.234801  1
  B  B31  1  0.000000  0.706388  0.765199  1
  B  B32  1  0.000000  0.207677  0.734923  1
  B  B33  1  0.000000  0.792323  0.265077  1
  Rh  Rh34  1  0.500000  0.360832  0.679827  1
  Rh  Rh35  1  0.500000  0.639168  0.320173  1
