# generated using pymatgen
data_La3Pr(IrBr)2
_symmetry_space_group_name_H-M   'P 1'
_cell_length_a   4.19856100
_cell_length_b   4.19855996
_cell_length_c   15.85971700
_cell_angle_alpha   90.00000000
_cell_angle_beta   90.00000000
_cell_angle_gamma   120.00001604
_symmetry_Int_Tables_number   1
_chemical_formula_structural   La3Pr(IrBr)2
_chemical_formula_sum   'La3 Pr1 Ir2 Br2'
_cell_volume   242.11785767
_cell_formula_units_Z   1
loop_
 _symmetry_equiv_pos_site_id
 _symmetry_equiv_pos_as_xyz
  1  'x, y, z'
loop_
 _atom_site_type_symbol
 _atom_site_label
 _atom_site_symmetry_multiplicity
 _atom_site_fract_x
 _atom_site_fract_y
 _atom_site_fract_z
 _atom_site_occupancy
  La  La0  1  0.333333  0.666667  0.097854  1
  La  La1  1  0.666667  0.333333  0.596814  1
  La  La2  1  0.666667  0.333333  0.902238  1
  Pr  Pr3  1  0.333333  0.666667  0.402255  1
  Ir  Ir4  1  0.000000  0.000000  0.999944  1
  Ir  Ir5  1  0.000000  0.000000  0.500827  1
  Br  Br6  1  0.666667  0.333333  0.250040  1
  Br  Br7  1  0.333333  0.666667  0.750029  1
