# generated using pymatgen
data_Tm5Zr3(P3Ir4)4
_symmetry_space_group_name_H-M   'P 1'
_cell_length_a   12.88293000
_cell_length_b   12.88292943
_cell_length_c   3.96038100
_cell_angle_alpha   90.00000000
_cell_angle_beta   90.00000000
_cell_angle_gamma   120.00000146
_symmetry_Int_Tables_number   1
_chemical_formula_structural   Tm5Zr3(P3Ir4)4
_chemical_formula_sum   'Tm5 Zr3 P12 Ir16'
_cell_volume   569.24191182
_cell_formula_units_Z   1
loop_
 _symmetry_equiv_pos_site_id
 _symmetry_equiv_pos_as_xyz
  1  'x, y, z'
loop_
 _atom_site_type_symbol
 _atom_site_label
 _atom_site_symmetry_multiplicity
 _atom_site_fract_x
 _atom_site_fract_y
 _atom_site_fract_z
 _atom_site_occupancy
  Tm  Tm0  1  0.333333  0.666667  0.000000  1
  Tm  Tm1  1  0.666667  0.333333  0.000000  1
  Tm  Tm2  1  0.815944  0.000000  0.500000  1
  Tm  Tm3  1  0.000000  0.815944  0.500000  1
  Tm  Tm4  1  0.184056  0.184056  0.500000  1
  Zr  Zr5  1  0.449412  0.000000  0.000000  1
  Zr  Zr6  1  0.000000  0.449412  0.000000  1
  Zr  Zr7  1  0.550588  0.550588  0.000000  1
  P  P8  1  0.175414  0.000000  0.000000  1
  P  P9  1  0.000000  0.175414  0.000000  1
  P  P10  1  0.824586  0.824586  0.000000  1
  P  P11  1  0.169797  0.482927  0.500000  1
  P  P12  1  0.517073  0.686869  0.500000  1
  P  P13  1  0.313131  0.830203  0.500000  1
  P  P14  1  0.686869  0.517073  0.500000  1
  P  P15  1  0.830203  0.313131  0.500000  1
  P  P16  1  0.482927  0.169797  0.500000  1
  P  P17  1  0.650417  0.000000  0.000000  1
  P  P18  1  0.000000  0.650417  0.000000  1
  P  P19  1  0.349583  0.349583  0.000000  1
  Ir  Ir20  1  0.356548  0.493847  0.500000  1
  Ir  Ir21  1  0.506153  0.862701  0.500000  1
  Ir  Ir22  1  0.137299  0.643452  0.500000  1
  Ir  Ir23  1  0.862701  0.506153  0.500000  1
  Ir  Ir24  1  0.643452  0.137299  0.500000  1
  Ir  Ir25  1  0.493847  0.356548  0.500000  1
  Ir  Ir26  1  0.178284  0.369861  0.000000  1
  Ir  Ir27  1  0.630139  0.808424  0.000000  1
  Ir  Ir28  1  0.191576  0.821716  0.000000  1
  Ir  Ir29  1  0.808424  0.630139  0.000000  1
  Ir  Ir30  1  0.821716  0.191576  0.000000  1
  Ir  Ir31  1  0.369861  0.178284  0.000000  1
  Ir  Ir32  1  0.277029  0.000000  0.500000  1
  Ir  Ir33  1  0.000000  0.277029  0.500000  1
  Ir  Ir34  1  0.722971  0.722971  0.500000  1
  Ir  Ir35  1  0.000000  0.000000  0.000000  1
