# generated using pymatgen
data_Tb8Hf10TaSi16W
_symmetry_space_group_name_H-M   'P 1'
_cell_length_a   7.24994003
_cell_length_b   7.24994022
_cell_length_c   13.31794703
_cell_angle_alpha   89.99481071
_cell_angle_beta   90.00519047
_cell_angle_gamma   90.15576710
_symmetry_Int_Tables_number   1
_chemical_formula_structural   Tb8Hf10TaSi16W
_chemical_formula_sum   'Tb8 Hf10 Ta1 Si16 W1'
_cell_volume   700.01043523
_cell_formula_units_Z   1
loop_
 _symmetry_equiv_pos_site_id
 _symmetry_equiv_pos_as_xyz
  1  'x, y, z'
loop_
 _atom_site_type_symbol
 _atom_site_label
 _atom_site_symmetry_multiplicity
 _atom_site_fract_x
 _atom_site_fract_y
 _atom_site_fract_z
 _atom_site_occupancy
  Tb  Tb0  1  0.997187  0.342881  0.213730  1
  Tb  Tb1  1  0.003853  0.656647  0.714870  1
  Tb  Tb2  1  0.155789  0.496252  0.465915  1
  Tb  Tb3  1  0.502605  0.844929  0.033949  1
  Tb  Tb4  1  0.844929  0.502605  0.966051  1
  Tb  Tb5  1  0.496252  0.155789  0.534085  1
  Tb  Tb6  1  0.342881  0.997187  0.786270  1
  Tb  Tb7  1  0.656647  0.003853  0.285130  1
  Hf  Hf8  1  0.324099  0.675170  0.249713  1
  Hf  Hf9  1  0.675170  0.324099  0.750287  1
  Hf  Hf10  1  0.147163  0.996251  0.375815  1
  Hf  Hf11  1  0.853710  0.004682  0.876902  1
  Hf  Hf12  1  0.505621  0.649736  0.623290  1
  Hf  Hf13  1  0.348991  0.492965  0.877320  1
  Hf  Hf14  1  0.492965  0.348991  0.122680  1
  Hf  Hf15  1  0.649736  0.505621  0.376710  1
  Hf  Hf16  1  0.996251  0.147163  0.624185  1
  Hf  Hf17  1  0.004682  0.853710  0.123098  1
  Ta  Ta18  1  0.825030  0.825030  0.500000  1
  Si  Si19  1  0.362560  0.295572  0.316530  1
  Si  Si20  1  0.637294  0.704495  0.816681  1
  Si  Si21  1  0.202428  0.861300  0.566235  1
  Si  Si22  1  0.138575  0.798534  0.933811  1
  Si  Si23  1  0.798534  0.138575  0.066189  1
  Si  Si24  1  0.861300  0.202428  0.433765  1
  Si  Si25  1  0.295572  0.362560  0.683470  1
  Si  Si26  1  0.704495  0.637294  0.183319  1
  Si  Si27  1  0.294327  0.051201  0.183002  1
  Si  Si28  1  0.705186  0.950006  0.683827  1
  Si  Si29  1  0.453026  0.796857  0.435614  1
  Si  Si30  1  0.203562  0.546068  0.064468  1
  Si  Si31  1  0.546068  0.203562  0.935532  1
  Si  Si32  1  0.796857  0.453026  0.564386  1
  Si  Si33  1  0.051201  0.294327  0.816998  1
  Si  Si34  1  0.950006  0.705186  0.316173  1
  W  W35  1  0.175447  0.175447  0.000000  1
