# generated using pymatgen
data_LiPrDy4(P2Ru3)6
_symmetry_space_group_name_H-M   'P 1'
_cell_length_a   12.46088414
_cell_length_b   12.64772398
_cell_length_c   3.98329100
_cell_angle_alpha   90.00000000
_cell_angle_beta   90.00000000
_cell_angle_gamma   119.52972867
_symmetry_Int_Tables_number   1
_chemical_formula_structural   LiPrDy4(P2Ru3)6
_chemical_formula_sum   'Li1 Pr1 Dy4 P12 Ru18'
_cell_volume   546.22614033
_cell_formula_units_Z   1
loop_
 _symmetry_equiv_pos_site_id
 _symmetry_equiv_pos_as_xyz
  1  'x, y, z'
loop_
 _atom_site_type_symbol
 _atom_site_label
 _atom_site_symmetry_multiplicity
 _atom_site_fract_x
 _atom_site_fract_y
 _atom_site_fract_z
 _atom_site_occupancy
  Li  Li0  1  0.438242  0.999622  0.000000  1
  Pr  Pr1  1  0.185345  0.182557  0.500000  1
  Dy  Dy2  1  0.817424  0.999240  0.500000  1
  Dy  Dy3  1  0.001172  0.817068  0.500000  1
  Dy  Dy4  1  0.330609  0.659087  0.000000  1
  Dy  Dy5  1  0.671973  0.342397  0.000000  1
  P  P6  1  0.193537  0.997996  0.000000  1
  P  P7  1  0.995704  0.181545  0.000000  1
  P  P8  1  0.815427  0.817859  0.000000  1
  P  P9  1  0.519198  0.692649  0.500000  1
  P  P10  1  0.300009  0.817414  0.500000  1
  P  P11  1  0.166865  0.472822  0.500000  1
  P  P12  1  0.482261  0.181901  0.500000  1
  P  P13  1  0.694794  0.527677  0.500000  1
  P  P14  1  0.825994  0.308130  0.500000  1
  P  P15  1  0.631651  0.999781  0.000000  1
  P  P16  1  0.000237  0.625377  0.000000  1
  P  P17  1  0.376555  0.376439  0.000000  1
  Ru  Ru18  1  0.997510  0.443455  0.000000  1
  Ru  Ru19  1  0.555902  0.557449  0.000000  1
  Ru  Ru20  1  0.290890  0.998451  0.500000  1
  Ru  Ru21  1  0.995107  0.280487  0.500000  1
  Ru  Ru22  1  0.716565  0.719828  0.500000  1
  Ru  Ru23  1  0.618967  0.806222  0.000000  1
  Ru  Ru24  1  0.193897  0.811121  0.000000  1
  Ru  Ru25  1  0.182393  0.375096  0.000000  1
  Ru  Ru26  1  0.384933  0.187047  0.000000  1
  Ru  Ru27  1  0.811314  0.628198  0.000000  1
  Ru  Ru28  1  0.811713  0.193538  0.000000  1
  Ru  Ru29  1  0.508286  0.876577  0.500000  1
  Ru  Ru30  1  0.121766  0.629440  0.500000  1
  Ru  Ru31  1  0.364777  0.492736  0.500000  1
  Ru  Ru32  1  0.493087  0.371110  0.500000  1
  Ru  Ru33  1  0.871884  0.508263  0.500000  1
  Ru  Ru34  1  0.631856  0.123871  0.500000  1
  Ru  Ru35  1  0.002157  0.997551  0.000000  1
