# generated using pymatgen
data_InBi(BrO3)6
_symmetry_space_group_name_H-M   'P 1'
_cell_length_a   7.33251499
_cell_length_b   9.39499038
_cell_length_c   8.95634201
_cell_angle_alpha   56.70265267
_cell_angle_beta   89.50580865
_cell_angle_gamma   88.21889173
_symmetry_Int_Tables_number   1
_chemical_formula_structural   InBi(BrO3)6
_chemical_formula_sum   'In1 Bi1 Br6 O18'
_cell_volume   515.42720857
_cell_formula_units_Z   1
loop_
 _symmetry_equiv_pos_site_id
 _symmetry_equiv_pos_as_xyz
  1  'x, y, z'
loop_
 _atom_site_type_symbol
 _atom_site_label
 _atom_site_symmetry_multiplicity
 _atom_site_fract_x
 _atom_site_fract_y
 _atom_site_fract_z
 _atom_site_occupancy
  In  In0  1  0.960714  0.691004  0.646402  1
  Bi  Bi1  1  0.480274  0.323643  0.349072  1
  Br  Br2  1  0.769743  0.679950  0.999186  1
  Br  Br3  1  0.771618  0.304826  0.717424  1
  Br  Br4  1  0.657665  0.978628  0.298296  1
  Br  Br5  1  0.243160  0.351182  0.940608  1
  Br  Br6  1  0.165535  0.675443  0.311715  1
  Br  Br7  1  0.258571  0.924337  0.732566  1
  O  O8  1  0.639809  0.500436  0.087908  1
  O  O9  1  0.700451  0.347661  0.513179  1
  O  O10  1  0.669991  0.101392  0.387045  1
  O  O11  1  0.119519  0.531602  0.898609  1
  O  O12  1  0.163308  0.596243  0.539218  1
  O  O13  1  0.128939  0.907520  0.584604  1
  O  O14  1  0.753200  0.755908  0.773946  1
  O  O15  1  0.760924  0.499843  0.690053  1
  O  O16  1  0.862890  0.865091  0.371636  1
  O  O17  1  0.317503  0.265711  0.153915  1
  O  O18  1  0.364863  0.590942  0.294398  1
  O  O19  1  0.300183  0.137253  0.605680  1
  O  O20  1  0.649432  0.823154  0.010567  1
  O  O21  1  0.608403  0.203133  0.861793  1
  O  O22  1  0.091964  0.218593  0.955364  1
  O  O23  1  0.120219  0.898266  0.891910  1
  O  O24  1  0.493543  0.846209  0.405499  1
  O  O25  1  0.002580  0.573029  0.287405  1
