# generated using pymatgen
data_La4YMgSi3Ge
_symmetry_space_group_name_H-M   'P 1'
_cell_length_a   7.65028211
_cell_length_b   7.66254803
_cell_length_c   4.49507500
_cell_angle_alpha   90.00000000
_cell_angle_beta   90.00000000
_cell_angle_gamma   89.73115945
_symmetry_Int_Tables_number   1
_chemical_formula_structural   La4YMgSi3Ge
_chemical_formula_sum   'La4 Y1 Mg1 Si3 Ge1'
_cell_volume   263.50133614
_cell_formula_units_Z   1
loop_
 _symmetry_equiv_pos_site_id
 _symmetry_equiv_pos_as_xyz
  1  'x, y, z'
loop_
 _atom_site_type_symbol
 _atom_site_label
 _atom_site_symmetry_multiplicity
 _atom_site_fract_x
 _atom_site_fract_y
 _atom_site_fract_z
 _atom_site_occupancy
  La  La0  1  0.671145  0.187625  0.500000  1
  La  La1  1  0.329981  0.813583  0.500000  1
  La  La2  1  0.187615  0.326865  0.500000  1
  La  La3  1  0.810512  0.671335  0.500000  1
  Y  Y4  1  0.999366  0.001503  0.000000  1
  Mg  Mg5  1  0.501274  0.499500  0.000000  1
  Si  Si6  1  0.890102  0.377947  0.000000  1
  Si  Si7  1  0.618638  0.893072  0.000000  1
  Si  Si8  1  0.381182  0.106809  0.000000  1
  Ge  Ge9  1  0.110185  0.621761  0.000000  1
