# generated using pymatgen
data_LiTb16In3Co3Ir
_symmetry_space_group_name_H-M   'P 1'
_cell_length_a   9.60859617
_cell_length_b   9.63482935
_cell_length_c   9.60859586
_cell_angle_alpha   60.07191825
_cell_angle_beta   59.83483626
_cell_angle_gamma   60.07191651
_symmetry_Int_Tables_number   1
_chemical_formula_structural   LiTb16In3Co3Ir
_chemical_formula_sum   'Li1 Tb16 In3 Co3 Ir1'
_cell_volume   628.88890559
_cell_formula_units_Z   1
loop_
 _symmetry_equiv_pos_site_id
 _symmetry_equiv_pos_as_xyz
  1  'x, y, z'
loop_
 _atom_site_type_symbol
 _atom_site_label
 _atom_site_symmetry_multiplicity
 _atom_site_fract_x
 _atom_site_fract_y
 _atom_site_fract_z
 _atom_site_occupancy
  Li  Li0  1  0.321104  0.321423  0.321104  1
  Tb  Tb1  1  0.096573  0.711595  0.096573  1
  Tb  Tb2  1  0.939652  0.941373  0.559687  1
  Tb  Tb3  1  0.941037  0.563661  0.941037  1
  Tb  Tb4  1  0.311765  0.688843  0.311765  1
  Tb  Tb5  1  0.936317  0.567191  0.557725  1
  Tb  Tb6  1  0.309303  0.311120  0.690093  1
  Tb  Tb7  1  0.100149  0.093311  0.100149  1
  Tb  Tb8  1  0.557725  0.567191  0.936317  1
  Tb  Tb9  1  0.099402  0.092678  0.709251  1
  Tb  Tb10  1  0.690898  0.309764  0.690898  1
  Tb  Tb11  1  0.689988  0.689178  0.310518  1
  Tb  Tb12  1  0.690093  0.311120  0.309303  1
  Tb  Tb13  1  0.310518  0.689178  0.689988  1
  Tb  Tb14  1  0.563025  0.936461  0.563025  1
  Tb  Tb15  1  0.709251  0.092678  0.099402  1
  Tb  Tb16  1  0.559687  0.941373  0.939652  1
  In  In17  1  0.005631  0.332627  0.331766  1
  In  In18  1  0.332325  0.005167  0.332325  1
  In  In19  1  0.331766  0.332627  0.005631  1
  Co  Co20  1  0.892328  0.891630  0.892328  1
  Co  Co21  1  0.891600  0.891385  0.327933  1
  Co  Co22  1  0.327933  0.891385  0.891600  1
  Ir  Ir23  1  0.891932  0.327039  0.891932  1
