# generated using pymatgen
data_Er2Fe4SiPC2
_symmetry_space_group_name_H-M   'P 1'
_cell_length_a   5.50281374
_cell_length_b   5.50281455
_cell_length_c   6.68391900
_cell_angle_alpha   90.00000000
_cell_angle_beta   90.00000000
_cell_angle_gamma   141.07161629
_symmetry_Int_Tables_number   1
_chemical_formula_structural   Er2Fe4SiPC2
_chemical_formula_sum   'Er2 Fe4 Si1 P1 C2'
_cell_volume   127.17491618
_cell_formula_units_Z   1
loop_
 _symmetry_equiv_pos_site_id
 _symmetry_equiv_pos_as_xyz
  1  'x, y, z'
loop_
 _atom_site_type_symbol
 _atom_site_label
 _atom_site_symmetry_multiplicity
 _atom_site_fract_x
 _atom_site_fract_y
 _atom_site_fract_z
 _atom_site_occupancy
  Er  Er0  1  0.549178  0.450822  0.250000  1
  Er  Er1  1  0.451060  0.548940  0.750000  1
  Fe  Fe2  1  0.834067  0.165933  0.064334  1
  Fe  Fe3  1  0.166623  0.833377  0.945935  1
  Fe  Fe4  1  0.166623  0.833377  0.554065  1
  Fe  Fe5  1  0.834067  0.165933  0.435666  1
  Si  Si6  1  0.730472  0.269528  0.750000  1
  P  P7  1  0.269028  0.730972  0.250000  1
  C  C8  1  0.999441  0.000559  0.998840  1
  C  C9  1  0.999441  0.000559  0.501160  1
