# generated using pymatgen
data_Mg2Sc4B4Ir3Rh7
_symmetry_space_group_name_H-M   'P 1'
_cell_length_a   9.52252601
_cell_length_b   9.49777101
_cell_length_c   3.05423600
_cell_angle_alpha   90.00000000
_cell_angle_beta   90.00000000
_cell_angle_gamma   90.00601825
_symmetry_Int_Tables_number   1
_chemical_formula_structural   Mg2Sc4B4Ir3Rh7
_chemical_formula_sum   'Mg2 Sc4 B4 Ir3 Rh7'
_cell_volume   276.23356725
_cell_formula_units_Z   1
loop_
 _symmetry_equiv_pos_site_id
 _symmetry_equiv_pos_as_xyz
  1  'x, y, z'
loop_
 _atom_site_type_symbol
 _atom_site_label
 _atom_site_symmetry_multiplicity
 _atom_site_fract_x
 _atom_site_fract_y
 _atom_site_fract_z
 _atom_site_occupancy
  Mg  Mg0  1  0.998133  0.999402  0.000000  1
  Mg  Mg1  1  0.500426  0.500022  0.000000  1
  Sc  Sc2  1  0.677476  0.177846  0.000000  1
  Sc  Sc3  1  0.321009  0.823907  0.000000  1
  Sc  Sc4  1  0.177035  0.321910  0.000000  1
  Sc  Sc5  1  0.821748  0.677431  0.000000  1
  B  B6  1  0.125509  0.625056  0.000000  1
  B  B7  1  0.875660  0.375035  0.000000  1
  B  B8  1  0.624454  0.874741  0.000000  1
  B  B9  1  0.374047  0.125147  0.000000  1
  Ir  Ir10  1  0.501149  0.999722  0.500000  1
  Ir  Ir11  1  0.999991  0.500798  0.500000  1
  Ir  Ir12  1  0.220682  0.070650  0.500000  1
  Rh  Rh13  1  0.778989  0.928783  0.500000  1
  Rh  Rh14  1  0.070822  0.779578  0.500000  1
  Rh  Rh15  1  0.721512  0.428345  0.500000  1
  Rh  Rh16  1  0.930385  0.220729  0.500000  1
  Rh  Rh17  1  0.279332  0.570887  0.500000  1
  Rh  Rh18  1  0.570794  0.720387  0.500000  1
  Rh  Rh19  1  0.430846  0.279625  0.500000  1
