# generated using pymatgen
data_Y4ReCl4
_symmetry_space_group_name_H-M   'P 1'
_cell_length_a   8.63486330
_cell_length_b   8.63486429
_cell_length_c   6.57438765
_cell_angle_alpha   89.73380797
_cell_angle_beta   89.73380571
_cell_angle_gamma   89.50646765
_symmetry_Int_Tables_number   1
_chemical_formula_structural   Y4ReCl4
_chemical_formula_sum   'Y8 Re2 Cl8'
_cell_volume   490.16340554
_cell_formula_units_Z   2
loop_
 _symmetry_equiv_pos_site_id
 _symmetry_equiv_pos_as_xyz
  1  'x, y, z'
loop_
 _atom_site_type_symbol
 _atom_site_label
 _atom_site_symmetry_multiplicity
 _atom_site_fract_x
 _atom_site_fract_y
 _atom_site_fract_z
 _atom_site_occupancy
  Y  Y0  1  0.105471  0.741155  0.984511  1
  Y  Y1  1  0.258845  0.894529  0.515489  1
  Y  Y2  1  0.894529  0.258845  0.015489  1
  Y  Y3  1  0.741155  0.105471  0.484511  1
  Y  Y4  1  0.743323  0.896140  0.007355  1
  Y  Y5  1  0.103860  0.256677  0.492645  1
  Y  Y6  1  0.256677  0.103860  0.992645  1
  Y  Y7  1  0.896140  0.743323  0.507355  1
  Re  Re8  1  0.007556  0.992444  0.250000  1
  Re  Re9  1  0.992444  0.007556  0.750000  1
  Cl  Cl10  1  0.421296  0.820842  0.902885  1
  Cl  Cl11  1  0.179158  0.578704  0.597115  1
  Cl  Cl12  1  0.578704  0.179158  0.097115  1
  Cl  Cl13  1  0.820842  0.421296  0.402885  1
  Cl  Cl14  1  0.813960  0.581432  0.902678  1
  Cl  Cl15  1  0.418568  0.186040  0.597322  1
  Cl  Cl16  1  0.186040  0.418568  0.097322  1
  Cl  Cl17  1  0.581432  0.813960  0.402678  1
