# generated using pymatgen
data_Pr3Dy2Nb3(Co4P3)4
_symmetry_space_group_name_H-M   'P 1'
_cell_length_a   12.30678300
_cell_length_b   12.31529008
_cell_length_c   3.74156100
_cell_angle_alpha   90.00000000
_cell_angle_beta   90.00000000
_cell_angle_gamma   119.97714934
_symmetry_Int_Tables_number   1
_chemical_formula_structural   Pr3Dy2Nb3(Co4P3)4
_chemical_formula_sum   'Pr3 Dy2 Nb3 Co16 P12'
_cell_volume   491.21611316
_cell_formula_units_Z   1
loop_
 _symmetry_equiv_pos_site_id
 _symmetry_equiv_pos_as_xyz
  1  'x, y, z'
loop_
 _atom_site_type_symbol
 _atom_site_label
 _atom_site_symmetry_multiplicity
 _atom_site_fract_x
 _atom_site_fract_y
 _atom_site_fract_z
 _atom_site_occupancy
  Pr  Pr0  1  0.816917  0.000000  0.500000  1
  Pr  Pr1  1  0.333422  0.667060  0.000000  1
  Pr  Pr2  1  0.666364  0.332940  0.000000  1
  Dy  Dy3  1  0.000720  0.815910  0.500000  1
  Dy  Dy4  1  0.184810  0.184090  0.500000  1
  Nb  Nb5  1  0.441359  0.000000  0.000000  1
  Nb  Nb6  1  0.000783  0.444423  0.000000  1
  Nb  Nb7  1  0.556360  0.555577  0.000000  1
  Co  Co8  1  0.276975  0.000000  0.500000  1
  Co  Co9  1  0.002559  0.280458  0.500000  1
  Co  Co10  1  0.722101  0.719542  0.500000  1
  Co  Co11  1  0.626299  0.801213  0.000000  1
  Co  Co12  1  0.195048  0.824141  0.000000  1
  Co  Co13  1  0.177156  0.372612  0.000000  1
  Co  Co14  1  0.370907  0.175859  0.000000  1
  Co  Co15  1  0.804543  0.627388  0.000000  1
  Co  Co16  1  0.825086  0.198787  0.000000  1
  Co  Co17  1  0.520770  0.875346  0.500000  1
  Co  Co18  1  0.123947  0.647201  0.500000  1
  Co  Co19  1  0.353369  0.477520  0.500000  1
  Co  Co20  1  0.476746  0.352799  0.500000  1
  Co  Co21  1  0.875849  0.522480  0.500000  1
  Co  Co22  1  0.645424  0.124654  0.500000  1
  Co  Co23  1  0.002041  0.000000  0.000000  1
  P  P24  1  0.177989  0.000000  0.000000  1
  P  P25  1  0.004196  0.181307  0.000000  1
  P  P26  1  0.822889  0.818693  0.000000  1
  P  P27  1  0.525840  0.690397  0.500000  1
  P  P28  1  0.308760  0.835076  0.500000  1
  P  P29  1  0.165839  0.475786  0.500000  1
  P  P30  1  0.473684  0.164924  0.500000  1
  P  P31  1  0.690052  0.524214  0.500000  1
  P  P32  1  0.835443  0.309603  0.500000  1
  P  P33  1  0.639060  0.000000  0.000000  1
  P  P34  1  0.999986  0.643279  0.000000  1
  P  P35  1  0.356707  0.356721  0.000000  1
