# generated using pymatgen
data_Eu6Pb2NF
_symmetry_space_group_name_H-M   'P 1'
_cell_length_a   7.23599656
_cell_length_b   7.23599679
_cell_length_c   7.23599700
_cell_angle_alpha   60.00000360
_cell_angle_beta   60.00000254
_cell_angle_gamma   60.00000539
_symmetry_Int_Tables_number   1
_chemical_formula_structural   Eu6Pb2NF
_chemical_formula_sum   'Eu6 Pb2 N1 F1'
_cell_volume   267.90457803
_cell_formula_units_Z   1
loop_
 _symmetry_equiv_pos_site_id
 _symmetry_equiv_pos_as_xyz
  1  'x, y, z'
loop_
 _atom_site_type_symbol
 _atom_site_label
 _atom_site_symmetry_multiplicity
 _atom_site_fract_x
 _atom_site_fract_y
 _atom_site_fract_z
 _atom_site_occupancy
  Eu  Eu0  1  0.758900  0.241100  0.241100  1
  Eu  Eu1  1  0.241100  0.758900  0.241100  1
  Eu  Eu2  1  0.758900  0.758900  0.241100  1
  Eu  Eu3  1  0.241100  0.241100  0.758900  1
  Eu  Eu4  1  0.758900  0.241100  0.758900  1
  Eu  Eu5  1  0.241100  0.758900  0.758900  1
  Pb  Pb6  1  0.250000  0.250000  0.250000  1
  Pb  Pb7  1  0.750000  0.750000  0.750000  1
  N  N8  1  0.000000  0.000000  0.000000  1
  F  F9  1  0.500000  0.500000  0.500000  1
