# generated using pymatgen
data_Sm5Er3(Sc3Sn4)4
_symmetry_space_group_name_H-M   'P 1'
_cell_length_a   7.72899303
_cell_length_b   8.00033321
_cell_length_c   14.90130077
_cell_angle_alpha   89.98834305
_cell_angle_beta   89.94539059
_cell_angle_gamma   90.02323669
_symmetry_Int_Tables_number   1
_chemical_formula_structural   Sm5Er3(Sc3Sn4)4
_chemical_formula_sum   'Sm5 Er3 Sc12 Sn16'
_cell_volume   921.41426164
_cell_formula_units_Z   1
loop_
 _symmetry_equiv_pos_site_id
 _symmetry_equiv_pos_as_xyz
  1  'x, y, z'
loop_
 _atom_site_type_symbol
 _atom_site_label
 _atom_site_symmetry_multiplicity
 _atom_site_fract_x
 _atom_site_fract_y
 _atom_site_fract_z
 _atom_site_occupancy
  Sm  Sm0  1  0.996769  0.176640  0.094209  1
  Sm  Sm1  1  0.003290  0.823355  0.905546  1
  Sm  Sm2  1  0.503165  0.676580  0.906031  1
  Sm  Sm3  1  0.003249  0.823396  0.593871  1
  Sm  Sm4  1  0.496842  0.323280  0.094198  1
  Er  Er5  1  0.996868  0.177569  0.405372  1
  Er  Er6  1  0.496670  0.322603  0.405492  1
  Er  Er7  1  0.503301  0.677113  0.594375  1
  Sc  Sc8  1  0.162851  0.496522  0.749807  1
  Sc  Sc9  1  0.837303  0.503185  0.250359  1
  Sc  Sc10  1  0.337382  0.996833  0.250430  1
  Sc  Sc11  1  0.662396  0.003513  0.749780  1
  Sc  Sc12  1  0.334628  0.162947  0.627077  1
  Sc  Sc13  1  0.665521  0.837483  0.372854  1
  Sc  Sc14  1  0.165984  0.662260  0.372807  1
  Sc  Sc15  1  0.665627  0.837453  0.127521  1
  Sc  Sc16  1  0.834274  0.337370  0.627048  1
  Sc  Sc17  1  0.334412  0.162467  0.872596  1
  Sc  Sc18  1  0.834359  0.337366  0.872629  1
  Sc  Sc19  1  0.165640  0.662623  0.127541  1
  Sn  Sn20  1  0.025327  0.125342  0.749861  1
  Sn  Sn21  1  0.974677  0.875333  0.250302  1
  Sn  Sn22  1  0.474746  0.624608  0.250262  1
  Sn  Sn23  1  0.525330  0.375406  0.749702  1
  Sn  Sn24  1  0.305630  0.851108  0.749258  1
  Sn  Sn25  1  0.695161  0.149001  0.251194  1
  Sn  Sn26  1  0.195147  0.350948  0.251214  1
  Sn  Sn27  1  0.803877  0.648082  0.749548  1
  Sn  Sn28  1  0.180627  0.457778  0.542174  1
  Sn  Sn29  1  0.819428  0.540699  0.457402  1
  Sn  Sn30  1  0.320955  0.958961  0.457266  1
  Sn  Sn31  1  0.821931  0.542142  0.042532  1
  Sn  Sn32  1  0.678454  0.042178  0.542135  1
  Sn  Sn33  1  0.178031  0.457927  0.957544  1
  Sn  Sn34  1  0.678241  0.042023  0.957520  1
  Sn  Sn35  1  0.321907  0.957907  0.042545  1
