# generated using pymatgen
data_Y4TmZn2Bi
_symmetry_space_group_name_H-M   'P 1'
_cell_length_a   8.66831559
_cell_length_b   8.66831622
_cell_length_c   8.66831705
_cell_angle_alpha   123.90965553
_cell_angle_beta   123.90965702
_cell_angle_gamma   83.35196419
_symmetry_Int_Tables_number   1
_chemical_formula_structural   Y4TmZn2Bi
_chemical_formula_sum   'Y8 Tm2 Zn4 Bi2'
_cell_volume   430.17170117
_cell_formula_units_Z   2
loop_
 _symmetry_equiv_pos_site_id
 _symmetry_equiv_pos_as_xyz
  1  'x, y, z'
loop_
 _atom_site_type_symbol
 _atom_site_label
 _atom_site_symmetry_multiplicity
 _atom_site_fract_x
 _atom_site_fract_y
 _atom_site_fract_z
 _atom_site_occupancy
  Y  Y0  1  0.795697  0.295697  0.808974  1
  Y  Y1  1  0.204303  0.704303  0.191026  1
  Y  Y2  1  0.486723  0.986723  0.191026  1
  Y  Y3  1  0.295697  0.486723  0.500000  1
  Y  Y4  1  0.013277  0.204303  0.500000  1
  Y  Y5  1  0.513277  0.013277  0.808974  1
  Y  Y6  1  0.704303  0.513277  0.500000  1
  Y  Y7  1  0.986723  0.795697  0.500000  1
  Tm  Tm8  1  0.000000  0.000000  0.000000  1
  Tm  Tm9  1  0.500000  0.500000  0.000000  1
  Zn  Zn10  1  0.138594  0.638594  0.777188  1
  Zn  Zn11  1  0.861406  0.361406  0.222812  1
  Zn  Zn12  1  0.638594  0.861406  0.500000  1
  Zn  Zn13  1  0.361406  0.138594  0.500000  1
  Bi  Bi14  1  0.250000  0.250000  0.000000  1
  Bi  Bi15  1  0.750000  0.750000  0.000000  1
