# generated using pymatgen
data_ThNp7VSe17
_symmetry_space_group_name_H-M   'P 1'
_cell_length_a   8.22790653
_cell_length_b   8.23297428
_cell_length_c   10.92437100
_cell_angle_alpha   80.42343790
_cell_angle_beta   80.48967945
_cell_angle_gamma   65.25190277
_symmetry_Int_Tables_number   1
_chemical_formula_structural   ThNp7VSe17
_chemical_formula_sum   'Th1 Np7 V1 Se17'
_cell_volume   658.90190347
_cell_formula_units_Z   1
loop_
 _symmetry_equiv_pos_site_id
 _symmetry_equiv_pos_as_xyz
  1  'x, y, z'
loop_
 _atom_site_type_symbol
 _atom_site_label
 _atom_site_symmetry_multiplicity
 _atom_site_fract_x
 _atom_site_fract_y
 _atom_site_fract_z
 _atom_site_occupancy
  Th  Th0  1  0.319309  0.318733  0.020132  1
  Np  Np1  1  0.817100  0.301155  0.299484  1
  Np  Np2  1  0.701394  0.180012  0.699343  1
  Np  Np3  1  0.180478  0.701224  0.699796  1
  Np  Np4  1  0.301075  0.818882  0.299839  1
  Np  Np5  1  0.204595  0.205053  0.543778  1
  Np  Np6  1  0.795095  0.795669  0.455800  1
  Np  Np7  1  0.682174  0.680299  0.981442  1
  V  V8  1  0.999777  0.999537  0.998454  1
  Se  Se9  1  0.823247  0.431660  0.535289  1
  Se  Se10  1  0.568424  0.176388  0.465268  1
  Se  Se11  1  0.176568  0.568291  0.464764  1
  Se  Se12  1  0.431733  0.823511  0.535279  1
  Se  Se13  1  0.939749  0.322295  0.027884  1
  Se  Se14  1  0.681136  0.052019  0.970025  1
  Se  Se15  1  0.052618  0.680965  0.970123  1
  Se  Se16  1  0.322343  0.941028  0.030587  1
  Se  Se17  1  0.209605  0.210248  0.281701  1
  Se  Se18  1  0.788954  0.787953  0.720484  1
  Se  Se19  1  0.059706  0.059012  0.771928  1
  Se  Se20  1  0.942224  0.943445  0.227492  1
  Se  Se21  1  0.302625  0.302973  0.752531  1
  Se  Se22  1  0.698315  0.699227  0.244943  1
  Se  Se23  1  0.522271  0.521859  0.830036  1
  Se  Se24  1  0.480169  0.479105  0.173214  1
  Se  Se25  1  0.999316  0.999457  0.500382  1
