# generated using pymatgen
data_Pr5LuRuO12
_symmetry_space_group_name_H-M   'P 1'
_cell_length_a   7.20309308
_cell_length_b   7.20309320
_cell_length_c   7.70718107
_cell_angle_alpha   74.52256426
_cell_angle_beta   74.52256344
_cell_angle_gamma   50.96673223
_symmetry_Int_Tables_number   1
_chemical_formula_structural   Pr5LuRuO12
_chemical_formula_sum   'Pr5 Lu1 Ru1 O12'
_cell_volume   296.73876097
_cell_formula_units_Z   1
loop_
 _symmetry_equiv_pos_site_id
 _symmetry_equiv_pos_as_xyz
  1  'x, y, z'
loop_
 _atom_site_type_symbol
 _atom_site_label
 _atom_site_symmetry_multiplicity
 _atom_site_fract_x
 _atom_site_fract_y
 _atom_site_fract_z
 _atom_site_occupancy
  Pr  Pr0  1  0.304022  0.301232  0.359534  1
  Pr  Pr1  1  0.698768  0.695978  0.640466  1
  Pr  Pr2  1  0.685777  0.700537  0.167246  1
  Pr  Pr3  1  0.299463  0.314223  0.832754  1
  Pr  Pr4  1  0.011311  0.988689  0.500000  1
  Lu  Lu5  1  0.763257  0.236743  0.000000  1
  Ru  Ru6  1  0.248871  0.751129  0.000000  1
  O  O7  1  0.094915  0.598696  0.570724  1
  O  O8  1  0.032973  0.968206  0.181998  1
  O  O9  1  0.401304  0.905085  0.429276  1
  O  O10  1  0.483956  0.518249  0.179868  1
  O  O11  1  0.101996  0.589561  0.080514  1
  O  O12  1  0.904680  0.405046  0.421088  1
  O  O13  1  0.031794  0.967027  0.818002  1
  O  O14  1  0.594954  0.095319  0.578912  1
  O  O15  1  0.481751  0.516044  0.820132  1
  O  O16  1  0.552473  0.102708  0.083735  1
  O  O17  1  0.410439  0.898004  0.919486  1
  O  O18  1  0.897292  0.447527  0.916265  1
