# generated using pymatgen
data_Rb2Tm2Bi3SbSe10
_symmetry_space_group_name_H-M   'P 1'
_cell_length_a   4.13328200
_cell_length_b   12.33713618
_cell_length_c   22.30857383
_cell_angle_alpha   89.71513164
_cell_angle_beta   90.00000000
_cell_angle_gamma   90.00000000
_symmetry_Int_Tables_number   1
_chemical_formula_structural   Rb2Tm2Bi3SbSe10
_chemical_formula_sum   'Rb4 Tm4 Bi6 Sb2 Se20'
_cell_volume   1137.56398646
_cell_formula_units_Z   2
loop_
 _symmetry_equiv_pos_site_id
 _symmetry_equiv_pos_as_xyz
  1  'x, y, z'
loop_
 _atom_site_type_symbol
 _atom_site_label
 _atom_site_symmetry_multiplicity
 _atom_site_fract_x
 _atom_site_fract_y
 _atom_site_fract_z
 _atom_site_occupancy
  Rb  Rb0  1  0.250000  0.488509  0.209067  1
  Rb  Rb1  1  0.750000  0.511491  0.790933  1
  Rb  Rb2  1  0.750000  0.989194  0.289716  1
  Rb  Rb3  1  0.250000  0.010806  0.710284  1
  Tm  Tm4  1  0.250000  0.365816  0.023221  1
  Tm  Tm5  1  0.750000  0.634184  0.976779  1
  Tm  Tm6  1  0.750000  0.864502  0.476166  1
  Tm  Tm7  1  0.250000  0.135498  0.523834  1
  Bi  Bi8  1  0.750000  0.301477  0.373793  1
  Bi  Bi9  1  0.250000  0.698523  0.626207  1
  Bi  Bi10  1  0.250000  0.596495  0.423444  1
  Bi  Bi11  1  0.750000  0.403505  0.576556  1
  Bi  Bi12  1  0.750000  0.096634  0.074526  1
  Bi  Bi13  1  0.250000  0.903366  0.925474  1
  Sb  Sb14  1  0.250000  0.805289  0.126297  1
  Sb  Sb15  1  0.750000  0.194711  0.873703  1
  Se  Se16  1  0.250000  0.814649  0.391279  1
  Se  Se17  1  0.750000  0.185351  0.608721  1
  Se  Se18  1  0.750000  0.313320  0.108631  1
  Se  Se19  1  0.250000  0.686680  0.891369  1
  Se  Se20  1  0.250000  0.245807  0.294966  1
  Se  Se21  1  0.750000  0.754193  0.705034  1
  Se  Se22  1  0.750000  0.750102  0.201359  1
  Se  Se23  1  0.250000  0.249898  0.798641  1
  Se  Se24  1  0.250000  0.353589  0.480945  1
  Se  Se25  1  0.750000  0.646411  0.519055  1
  Se  Se26  1  0.750000  0.853632  0.019499  1
  Se  Se27  1  0.250000  0.146368  0.980501  1
  Se  Se28  1  0.250000  0.020087  0.159297  1
  Se  Se29  1  0.750000  0.979913  0.840703  1
  Se  Se30  1  0.750000  0.527736  0.340180  1
  Se  Se31  1  0.250000  0.472264  0.659820  1
  Se  Se32  1  0.250000  0.583169  0.059246  1
  Se  Se33  1  0.750000  0.416831  0.940754  1
  Se  Se34  1  0.750000  0.082961  0.441124  1
  Se  Se35  1  0.250000  0.917039  0.558876  1
