# generated using pymatgen
data_Tb4Lu4B24Mo3Rh
_symmetry_space_group_name_H-M   'P 1'
_cell_length_a   3.63157400
_cell_length_b   9.18691270
_cell_length_c   11.58977241
_cell_angle_alpha   90.13823918
_cell_angle_beta   90.00000000
_cell_angle_gamma   90.00000000
_symmetry_Int_Tables_number   1
_chemical_formula_structural   Tb4Lu4B24Mo3Rh
_chemical_formula_sum   'Tb4 Lu4 B24 Mo3 Rh1'
_cell_volume   386.66791039
_cell_formula_units_Z   1
loop_
 _symmetry_equiv_pos_site_id
 _symmetry_equiv_pos_as_xyz
  1  'x, y, z'
loop_
 _atom_site_type_symbol
 _atom_site_label
 _atom_site_symmetry_multiplicity
 _atom_site_fract_x
 _atom_site_fract_y
 _atom_site_fract_z
 _atom_site_occupancy
  Tb  Tb0  1  0.500000  0.318793  0.414892  1
  Tb  Tb1  1  0.500000  0.678812  0.587942  1
  Tb  Tb2  1  0.500000  0.178401  0.913860  1
  Tb  Tb3  1  0.500000  0.824037  0.083147  1
  Lu  Lu4  1  0.500000  0.443438  0.129305  1
  Lu  Lu5  1  0.500000  0.555987  0.872392  1
  Lu  Lu6  1  0.500000  0.054906  0.628007  1
  Lu  Lu7  1  0.500000  0.943142  0.370641  1
  B  B8  1  0.000000  0.096844  0.472503  1
  B  B9  1  0.000000  0.898518  0.526124  1
  B  B10  1  0.000000  0.401233  0.973708  1
  B  B11  1  0.000000  0.600096  0.029044  1
  B  B12  1  0.000000  0.130406  0.318199  1
  B  B13  1  0.000000  0.868675  0.682881  1
  B  B14  1  0.000000  0.370344  0.816102  1
  B  B15  1  0.000000  0.631015  0.183807  1
  B  B16  1  0.000000  0.052928  0.066402  1
  B  B17  1  0.000000  0.947770  0.933744  1
  B  B18  1  0.000000  0.448152  0.564877  1
  B  B19  1  0.000000  0.555732  0.432297  1
  B  B20  1  0.000000  0.484242  0.287154  1
  B  B21  1  0.000000  0.520669  0.713119  1
  B  B22  1  0.000000  0.019868  0.786011  1
  B  B23  1  0.000000  0.979342  0.213328  1
  B  B24  1  0.000000  0.253291  0.080853  1
  B  B25  1  0.000000  0.747668  0.920208  1
  B  B26  1  0.000000  0.245832  0.579766  1
  B  B27  1  0.000000  0.750922  0.418490  1
  B  B28  1  0.000000  0.295953  0.237124  1
  B  B29  1  0.000000  0.704568  0.765147  1
  B  B30  1  0.000000  0.205092  0.734913  1
  B  B31  1  0.000000  0.791958  0.264725  1
  Mo  Mo32  1  0.500000  0.140498  0.181944  1
  Mo  Mo33  1  0.500000  0.859850  0.819248  1
  Mo  Mo34  1  0.500000  0.361042  0.678518  1
  Rh  Rh35  1  0.500000  0.639974  0.319582  1
