# generated using pymatgen
data_Fe2Ni7Pt3
_symmetry_space_group_name_H-M   'P 1'
_cell_length_a   3.67293200
_cell_length_b   3.67293200
_cell_length_c   10.97988300
_cell_angle_alpha   90.00000000
_cell_angle_beta   90.00000000
_cell_angle_gamma   90.00000000
_symmetry_Int_Tables_number   1
_chemical_formula_structural   Fe2Ni7Pt3
_chemical_formula_sum   'Fe2 Ni7 Pt3'
_cell_volume   148.12333727
_cell_formula_units_Z   1
loop_
 _symmetry_equiv_pos_site_id
 _symmetry_equiv_pos_as_xyz
  1  'x, y, z'
loop_
 _atom_site_type_symbol
 _atom_site_label
 _atom_site_symmetry_multiplicity
 _atom_site_fract_x
 _atom_site_fract_y
 _atom_site_fract_z
 _atom_site_occupancy
  Fe  Fe0  1  0.000000  0.000000  0.331036  1
  Fe  Fe1  1  0.000000  0.000000  0.668964  1
  Ni  Ni2  1  0.000000  0.000000  0.000000  1
  Ni  Ni3  1  0.500000  0.000000  0.166518  1
  Ni  Ni4  1  0.500000  0.000000  0.500000  1
  Ni  Ni5  1  0.500000  0.000000  0.833482  1
  Ni  Ni6  1  0.000000  0.500000  0.166518  1
  Ni  Ni7  1  0.000000  0.500000  0.500000  1
  Ni  Ni8  1  0.000000  0.500000  0.833482  1
  Pt  Pt9  1  0.500000  0.500000  0.000000  1
  Pt  Pt10  1  0.500000  0.500000  0.332660  1
  Pt  Pt11  1  0.500000  0.500000  0.667340  1
