# generated using pymatgen
data_HoTmIn(AsRh2)6
_symmetry_space_group_name_H-M   'P 1'
_cell_length_a   10.03259400
_cell_length_b   10.03259377
_cell_length_c   3.97197700
_cell_angle_alpha   90.00000000
_cell_angle_beta   90.00000000
_cell_angle_gamma   120.00000077
_symmetry_Int_Tables_number   1
_chemical_formula_structural   HoTmIn(AsRh2)6
_chemical_formula_sum   'Ho1 Tm1 In1 As6 Rh12'
_cell_volume   346.22930047
_cell_formula_units_Z   1
loop_
 _symmetry_equiv_pos_site_id
 _symmetry_equiv_pos_as_xyz
  1  'x, y, z'
loop_
 _atom_site_type_symbol
 _atom_site_label
 _atom_site_symmetry_multiplicity
 _atom_site_fract_x
 _atom_site_fract_y
 _atom_site_fract_z
 _atom_site_occupancy
  Ho  Ho0  1  0.666667  0.333333  0.755006  1
  Tm  Tm1  1  0.333333  0.666667  0.245002  1
  In  In2  1  0.000000  0.000000  0.499965  1
  As  As3  1  0.405002  0.117230  0.254709  1
  As  As4  1  0.712229  0.594998  0.254709  1
  As  As5  1  0.882770  0.287771  0.254709  1
  As  As6  1  0.594725  0.882585  0.745318  1
  As  As7  1  0.287860  0.405275  0.745318  1
  As  As8  1  0.117415  0.712140  0.745318  1
  Rh  Rh9  1  0.450657  0.385201  0.251369  1
  Rh  Rh10  1  0.934544  0.549343  0.251369  1
  Rh  Rh11  1  0.614799  0.065456  0.251369  1
  Rh  Rh12  1  0.548829  0.614878  0.748582  1
  Rh  Rh13  1  0.066050  0.451171  0.748582  1
  Rh  Rh14  1  0.385122  0.933950  0.748582  1
  Rh  Rh15  1  0.159624  0.873190  0.241819  1
  Rh  Rh16  1  0.713567  0.840376  0.241819  1
  Rh  Rh17  1  0.126810  0.286433  0.241819  1
  Rh  Rh18  1  0.840411  0.126699  0.758212  1
  Rh  Rh19  1  0.286288  0.159589  0.758212  1
  Rh  Rh20  1  0.873301  0.713712  0.758212  1
