# generated using pymatgen
data_LuGaTeO6
_symmetry_space_group_name_H-M   'P 1'
_cell_length_a   5.11669800
_cell_length_b   5.11643149
_cell_length_c   9.62642400
_cell_angle_alpha   90.00375146
_cell_angle_beta   89.99812997
_cell_angle_gamma   119.99824487
_symmetry_Int_Tables_number   1
_chemical_formula_structural   LuGaTeO6
_chemical_formula_sum   'Lu2 Ga2 Te2 O12'
_cell_volume   218.25301183
_cell_formula_units_Z   2
loop_
 _symmetry_equiv_pos_site_id
 _symmetry_equiv_pos_as_xyz
  1  'x, y, z'
loop_
 _atom_site_type_symbol
 _atom_site_label
 _atom_site_symmetry_multiplicity
 _atom_site_fract_x
 _atom_site_fract_y
 _atom_site_fract_z
 _atom_site_occupancy
  Lu  Lu0  1  0.000000  0.000000  0.000000  1
  Lu  Lu1  1  0.000000  0.000000  0.500000  1
  Ga  Ga2  1  0.333281  0.666641  0.250000  1
  Ga  Ga3  1  0.666719  0.333359  0.750000  1
  Te  Te4  1  0.333507  0.666753  0.750000  1
  Te  Te5  1  0.666493  0.333247  0.250000  1
  O  O6  1  0.360307  0.352306  0.137109  1
  O  O7  1  0.647579  0.007973  0.137087  1
  O  O8  1  0.991907  0.639607  0.137082  1
  O  O9  1  0.639693  0.647694  0.862891  1
  O  O10  1  0.352421  0.992027  0.862913  1
  O  O11  1  0.008093  0.360393  0.862918  1
  O  O12  1  0.647579  0.639604  0.362913  1
  O  O13  1  0.360307  0.007999  0.362891  1
  O  O14  1  0.991907  0.352303  0.362918  1
  O  O15  1  0.352421  0.360396  0.637087  1
  O  O16  1  0.639693  0.992001  0.637109  1
  O  O17  1  0.008093  0.647697  0.637082  1
