# generated using pymatgen
data_Y6Er4GaSb5
_symmetry_space_group_name_H-M   'P 1'
_cell_length_a   6.35304500
_cell_length_b   8.90146658
_cell_length_c   8.89076854
_cell_angle_alpha   120.03981355
_cell_angle_beta   90.00001930
_cell_angle_gamma   89.99996879
_symmetry_Int_Tables_number   1
_chemical_formula_structural   Y6Er4GaSb5
_chemical_formula_sum   'Y6 Er4 Ga1 Sb5'
_cell_volume   435.25028045
_cell_formula_units_Z   1
loop_
 _symmetry_equiv_pos_site_id
 _symmetry_equiv_pos_as_xyz
  1  'x, y, z'
loop_
 _atom_site_type_symbol
 _atom_site_label
 _atom_site_symmetry_multiplicity
 _atom_site_fract_x
 _atom_site_fract_y
 _atom_site_fract_z
 _atom_site_occupancy
  Y  Y0  1  0.749996  0.249919  0.000000  1
  Y  Y1  1  0.749996  0.751798  0.762640  1
  Y  Y2  1  0.749996  0.989159  0.237360  1
  Y  Y3  1  0.250007  0.755029  0.000000  1
  Y  Y4  1  0.249993  0.245917  0.245018  1
  Y  Y5  1  0.249993  0.000898  0.754982  1
  Er  Er6  1  0.501427  0.340537  0.675416  1
  Er  Er7  1  0.501427  0.665121  0.324584  1
  Er  Er8  1  0.998577  0.665125  0.324586  1
  Er  Er9  1  0.998577  0.340538  0.675414  1
  Ga  Ga10  1  0.750009  0.604842  0.000000  1
  Sb  Sb11  1  0.750001  0.388317  0.390445  1
  Sb  Sb12  1  0.750001  0.997870  0.609555  1
  Sb  Sb13  1  0.249998  0.391662  0.000000  1
  Sb  Sb14  1  0.250003  0.610230  0.607194  1
  Sb  Sb15  1  0.250003  0.003037  0.392806  1
