# generated using pymatgen
data_SrCa2(As3Pd10)2
_symmetry_space_group_name_H-M   'P 1'
_cell_length_a   8.92487211
_cell_length_b   8.92487143
_cell_length_c   8.92487200
_cell_angle_alpha   59.99999790
_cell_angle_beta   60.00000039
_cell_angle_gamma   60.00000205
_symmetry_Int_Tables_number   1
_chemical_formula_structural   SrCa2(As3Pd10)2
_chemical_formula_sum   'Sr1 Ca2 As6 Pd20'
_cell_volume   502.67926275
_cell_formula_units_Z   1
loop_
 _symmetry_equiv_pos_site_id
 _symmetry_equiv_pos_as_xyz
  1  'x, y, z'
loop_
 _atom_site_type_symbol
 _atom_site_label
 _atom_site_symmetry_multiplicity
 _atom_site_fract_x
 _atom_site_fract_y
 _atom_site_fract_z
 _atom_site_occupancy
  Sr  Sr0  1  0.250000  0.250000  0.250000  1
  Ca  Ca1  1  0.750000  0.750000  0.750000  1
  Ca  Ca2  1  0.000000  0.000000  0.000000  1
  As  As3  1  0.736483  0.736483  0.263517  1
  As  As4  1  0.263517  0.263517  0.736483  1
  As  As5  1  0.263517  0.736483  0.736483  1
  As  As6  1  0.736483  0.263517  0.736483  1
  As  As7  1  0.263517  0.736483  0.263517  1
  As  As8  1  0.736483  0.263517  0.263517  1
  Pd  Pd9  1  0.616163  0.616163  0.616163  1
  Pd  Pd10  1  0.387663  0.837011  0.387663  1
  Pd  Pd11  1  0.652750  0.351232  0.998009  1
  Pd  Pd12  1  0.998009  0.351232  0.652750  1
  Pd  Pd13  1  0.652750  0.998009  0.998009  1
  Pd  Pd14  1  0.616163  0.616163  0.151512  1
  Pd  Pd15  1  0.998009  0.998009  0.652750  1
  Pd  Pd16  1  0.998009  0.351232  0.998009  1
  Pd  Pd17  1  0.652750  0.998009  0.351232  1
  Pd  Pd18  1  0.351232  0.998009  0.998009  1
  Pd  Pd19  1  0.998009  0.652750  0.998009  1
  Pd  Pd20  1  0.351232  0.998009  0.652750  1
  Pd  Pd21  1  0.998009  0.652750  0.351232  1
  Pd  Pd22  1  0.351232  0.652750  0.998009  1
  Pd  Pd23  1  0.151512  0.616163  0.616163  1
  Pd  Pd24  1  0.387663  0.387663  0.387663  1
  Pd  Pd25  1  0.837011  0.387663  0.387663  1
  Pd  Pd26  1  0.387663  0.387663  0.837011  1
  Pd  Pd27  1  0.616163  0.151512  0.616163  1
  Pd  Pd28  1  0.998009  0.998009  0.351232  1
