# generated using pymatgen
data_Pr5Dy3(Si3Rh)4
_symmetry_space_group_name_H-M   'P 1'
_cell_length_a   8.27389100
_cell_length_b   8.27389143
_cell_length_c   8.25187900
_cell_angle_alpha   90.00000000
_cell_angle_beta   90.00000000
_cell_angle_gamma   120.00000229
_symmetry_Int_Tables_number   1
_chemical_formula_structural   Pr5Dy3(Si3Rh)4
_chemical_formula_sum   'Pr5 Dy3 Si12 Rh4'
_cell_volume   489.21874112
_cell_formula_units_Z   1
loop_
 _symmetry_equiv_pos_site_id
 _symmetry_equiv_pos_as_xyz
  1  'x, y, z'
loop_
 _atom_site_type_symbol
 _atom_site_label
 _atom_site_symmetry_multiplicity
 _atom_site_fract_x
 _atom_site_fract_y
 _atom_site_fract_z
 _atom_site_occupancy
  Pr  Pr0  1  0.000000  0.000000  0.250000  1
  Pr  Pr1  1  0.000000  0.000000  0.750000  1
  Pr  Pr2  1  0.498682  0.501318  0.250000  1
  Pr  Pr3  1  0.498682  0.997362  0.250000  1
  Pr  Pr4  1  0.002638  0.501318  0.250000  1
  Dy  Dy5  1  0.504080  0.495920  0.750000  1
  Dy  Dy6  1  0.991840  0.495920  0.750000  1
  Dy  Dy7  1  0.504080  0.008160  0.750000  1
  Si  Si8  1  0.833541  0.166459  0.504329  1
  Si  Si9  1  0.833541  0.667082  0.504329  1
  Si  Si10  1  0.332918  0.166459  0.504329  1
  Si  Si11  1  0.833541  0.166459  0.995671  1
  Si  Si12  1  0.833541  0.667082  0.995671  1
  Si  Si13  1  0.332918  0.166459  0.995671  1
  Si  Si14  1  0.167935  0.832065  0.995061  1
  Si  Si15  1  0.664130  0.832065  0.995061  1
  Si  Si16  1  0.167935  0.335870  0.995061  1
  Si  Si17  1  0.167935  0.832065  0.504939  1
  Si  Si18  1  0.664130  0.832065  0.504939  1
  Si  Si19  1  0.167935  0.335870  0.504939  1
  Rh  Rh20  1  0.666667  0.333333  0.514027  1
  Rh  Rh21  1  0.666667  0.333333  0.985973  1
  Rh  Rh22  1  0.333333  0.666667  0.961068  1
  Rh  Rh23  1  0.333333  0.666667  0.538932  1
