# generated using pymatgen
data_Ac5La3(Si4Br3)2
_symmetry_space_group_name_H-M   'P 1'
_cell_length_a   12.31429361
_cell_length_b   12.31429263
_cell_length_c   12.64471175
_cell_angle_alpha   83.08965399
_cell_angle_beta   83.08965454
_cell_angle_gamma   19.99927408
_symmetry_Int_Tables_number   1
_chemical_formula_structural   Ac5La3(Si4Br3)2
_chemical_formula_sum   'Ac5 La3 Si8 Br6'
_cell_volume   650.87696445
_cell_formula_units_Z   1
loop_
 _symmetry_equiv_pos_site_id
 _symmetry_equiv_pos_as_xyz
  1  'x, y, z'
loop_
 _atom_site_type_symbol
 _atom_site_label
 _atom_site_symmetry_multiplicity
 _atom_site_fract_x
 _atom_site_fract_y
 _atom_site_fract_z
 _atom_site_occupancy
  Ac  Ac0  1  0.494888  0.494888  0.166447  1
  Ac  Ac1  1  0.920321  0.920321  0.441688  1
  Ac  Ac2  1  0.348080  0.348080  0.025429  1
  Ac  Ac3  1  0.080820  0.080820  0.561679  1
  Ac  Ac4  1  0.651450  0.651450  0.971824  1
  La  La5  1  0.641029  0.641029  0.292346  1
  La  La6  1  0.359717  0.359717  0.706403  1
  La  La7  1  0.502433  0.502433  0.835247  1
  Si  Si8  1  0.525936  0.525936  0.410170  1
  Si  Si9  1  0.043338  0.043338  0.325068  1
  Si  Si10  1  0.050607  0.050607  0.983511  1
  Si  Si11  1  0.475601  0.475601  0.594051  1
  Si  Si12  1  0.903360  0.903360  0.855286  1
  Si  Si13  1  0.949539  0.949539  0.009466  1
  Si  Si14  1  0.958236  0.958236  0.677994  1
  Si  Si15  1  0.097101  0.097101  0.140862  1
  Br  Br16  1  0.248935  0.248935  0.871217  1
  Br  Br17  1  0.751400  0.751400  0.127252  1
  Br  Br18  1  0.800857  0.800857  0.581329  1
  Br  Br19  1  0.366760  0.366760  0.283880  1
  Br  Br20  1  0.199436  0.199436  0.418605  1
  Br  Br21  1  0.630156  0.630156  0.720249  1
