# generated using pymatgen
data_Er5TmAl24Os7Pt
_symmetry_space_group_name_H-M   'P 1'
_cell_length_a   8.81684455
_cell_length_b   8.81869730
_cell_length_c   9.53047843
_cell_angle_alpha   89.60407870
_cell_angle_beta   90.40444389
_cell_angle_gamma   119.88176177
_symmetry_Int_Tables_number   1
_chemical_formula_structural   Er5TmAl24Os7Pt
_chemical_formula_sum   'Er5 Tm1 Al24 Os7 Pt1'
_cell_volume   642.48799102
_cell_formula_units_Z   1
loop_
 _symmetry_equiv_pos_site_id
 _symmetry_equiv_pos_as_xyz
  1  'x, y, z'
loop_
 _atom_site_type_symbol
 _atom_site_label
 _atom_site_symmetry_multiplicity
 _atom_site_fract_x
 _atom_site_fract_y
 _atom_site_fract_z
 _atom_site_occupancy
  Er  Er0  1  0.809324  0.611819  0.748321  1
  Er  Er1  1  0.611462  0.809110  0.251614  1
  Er  Er2  1  0.388135  0.190747  0.748273  1
  Er  Er3  1  0.195462  0.804405  0.251558  1
  Er  Er4  1  0.804542  0.195595  0.748671  1
  Tm  Tm5  1  0.190757  0.388073  0.251661  1
  Al  Al6  1  0.331479  0.668047  0.021388  1
  Al  Al7  1  0.668176  0.331646  0.978618  1
  Al  Al8  1  0.666485  0.333471  0.517825  1
  Al  Al9  1  0.333427  0.666154  0.482165  1
  Al  Al10  1  0.163761  0.325576  0.577300  1
  Al  Al11  1  0.836318  0.674530  0.422702  1
  Al  Al12  1  0.674500  0.836288  0.577373  1
  Al  Al13  1  0.841960  0.675515  0.077482  1
  Al  Al14  1  0.325608  0.163843  0.422651  1
  Al  Al15  1  0.158048  0.324567  0.922445  1
  Al  Al16  1  0.163524  0.836525  0.575464  1
  Al  Al17  1  0.324623  0.158136  0.077522  1
  Al  Al18  1  0.836605  0.163598  0.424550  1
  Al  Al19  1  0.675500  0.841979  0.922457  1
  Al  Al20  1  0.836872  0.163293  0.075437  1
  Al  Al21  1  0.163199  0.836842  0.924482  1
  Al  Al22  1  0.560230  0.121953  0.249054  1
  Al  Al23  1  0.439845  0.878112  0.750941  1
  Al  Al24  1  0.878261  0.439661  0.249029  1
  Al  Al25  1  0.121956  0.560248  0.750906  1
  Al  Al26  1  0.561337  0.438378  0.251857  1
  Al  Al27  1  0.438494  0.561589  0.748206  1
  Al  Al28  1  0.999397  0.000058  0.250111  1
  Al  Al29  1  0.000412  0.999664  0.749922  1
  Os  Os30  1  0.500022  0.000005  0.999968  1
  Os  Os31  1  0.999718  0.499944  0.999663  1
  Os  Os32  1  0.500003  0.999951  0.500051  1
  Os  Os33  1  0.000021  0.500072  0.500150  1
  Os  Os34  1  0.500055  0.499935  0.500270  1
  Os  Os35  1  0.000247  0.000279  0.000076  1
  Os  Os36  1  0.000189  0.000264  0.499971  1
  Pt  Pt37  1  0.500044  0.500128  0.999866  1
