# generated using pymatgen
data_Ac2GeIrF14
_symmetry_space_group_name_H-M   'P 1'
_cell_length_a   5.73240800
_cell_length_b   9.25977844
_cell_length_c   12.31092800
_cell_angle_alpha   62.07513801
_cell_angle_beta   90.00000000
_cell_angle_gamma   90.00000000
_symmetry_Int_Tables_number   1
_chemical_formula_structural   Ac2GeIrF14
_chemical_formula_sum   'Ac4 Ge2 Ir2 F28'
_cell_volume   577.38534445
_cell_formula_units_Z   2
loop_
 _symmetry_equiv_pos_site_id
 _symmetry_equiv_pos_as_xyz
  1  'x, y, z'
loop_
 _atom_site_type_symbol
 _atom_site_label
 _atom_site_symmetry_multiplicity
 _atom_site_fract_x
 _atom_site_fract_y
 _atom_site_fract_z
 _atom_site_occupancy
  Ac  Ac0  1  0.763070  0.812674  0.264322  1
  Ac  Ac1  1  0.263070  0.187326  0.235678  1
  Ac  Ac2  1  0.237340  0.196074  0.735632  1
  Ac  Ac3  1  0.737340  0.803926  0.764368  1
  Ge  Ge4  1  0.244198  0.724159  0.542846  1
  Ge  Ge5  1  0.744198  0.275841  0.957154  1
  Ir  Ir6  1  0.754453  0.275426  0.455667  1
  Ir  Ir7  1  0.254453  0.724574  0.044333  1
  F  F8  1  0.975002  0.712422  0.466600  1
  F  F9  1  0.475002  0.287578  0.033400  1
  F  F10  1  0.056671  0.284025  0.530472  1
  F  F11  1  0.556671  0.715975  0.969528  1
  F  F12  1  0.087191  0.707918  0.912315  1
  F  F13  1  0.587191  0.292082  0.587685  1
  F  F14  1  0.921553  0.290066  0.074347  1
  F  F15  1  0.421553  0.709934  0.425653  1
  F  F16  1  0.737641  0.497606  0.866769  1
  F  F17  1  0.237641  0.502394  0.633231  1
  F  F18  1  0.258018  0.488639  0.137278  1
  F  F19  1  0.758018  0.511361  0.362722  1
  F  F20  1  0.735268  0.053317  0.044548  1
  F  F21  1  0.235268  0.946683  0.455452  1
  F  F22  1  0.259549  0.961894  0.956736  1
  F  F23  1  0.759549  0.038106  0.543264  1
  F  F24  1  0.070219  0.736643  0.662452  1
  F  F25  1  0.570219  0.263357  0.837548  1
  F  F26  1  0.920772  0.267941  0.319991  1
  F  F27  1  0.420772  0.732059  0.180009  1
  F  F28  1  0.010162  0.271131  0.877730  1
  F  F29  1  0.510162  0.728869  0.622270  1
  F  F30  1  0.953858  0.725934  0.122326  1
  F  F31  1  0.453858  0.274066  0.377674  1
  F  F32  1  0.129991  0.955156  0.219898  1
  F  F33  1  0.629991  0.044844  0.280102  1
  F  F34  1  0.885042  0.038231  0.774058  1
  F  F35  1  0.385042  0.961769  0.725942  1
