# generated using pymatgen
data_DyHo2SiAg3Ge2
_symmetry_space_group_name_H-M   'P 1'
_cell_length_a   7.14452827
_cell_length_b   7.14097380
_cell_length_c   4.19813700
_cell_angle_alpha   90.00000000
_cell_angle_beta   90.00000000
_cell_angle_gamma   119.97585137
_symmetry_Int_Tables_number   1
_chemical_formula_structural   DyHo2SiAg3Ge2
_chemical_formula_sum   'Dy1 Ho2 Si1 Ag3 Ge2'
_cell_volume   185.53415300
_cell_formula_units_Z   1
loop_
 _symmetry_equiv_pos_site_id
 _symmetry_equiv_pos_as_xyz
  1  'x, y, z'
loop_
 _atom_site_type_symbol
 _atom_site_label
 _atom_site_symmetry_multiplicity
 _atom_site_fract_x
 _atom_site_fract_y
 _atom_site_fract_z
 _atom_site_occupancy
  Dy  Dy0  1  0.001478  0.583391  0.500000  1
  Ho  Ho1  1  0.416641  0.418149  0.500000  1
  Ho  Ho2  1  0.581675  0.998243  0.500000  1
  Si  Si3  1  0.334039  0.666950  0.000000  1
  Ag  Ag4  1  0.742699  0.748497  0.000000  1
  Ag  Ag5  1  0.251702  0.994645  0.000000  1
  Ag  Ag6  1  0.005601  0.256869  0.000000  1
  Ge  Ge7  1  0.666173  0.333044  0.000000  1
  Ge  Ge8  1  0.999991  0.000212  0.500000  1
