# generated using pymatgen
data_PrGd8Tm11Sn16
_symmetry_space_group_name_H-M   'P 1'
_cell_length_a   7.86348569
_cell_length_b   8.29732377
_cell_length_c   15.61914100
_cell_angle_alpha   90.21145557
_cell_angle_beta   89.97594061
_cell_angle_gamma   91.88723601
_symmetry_Int_Tables_number   1
_chemical_formula_structural   PrGd8Tm11Sn16
_chemical_formula_sum   'Pr1 Gd8 Tm11 Sn16'
_cell_volume   1018.52494859
_cell_formula_units_Z   1
loop_
 _symmetry_equiv_pos_site_id
 _symmetry_equiv_pos_as_xyz
  1  'x, y, z'
loop_
 _atom_site_type_symbol
 _atom_site_label
 _atom_site_symmetry_multiplicity
 _atom_site_fract_x
 _atom_site_fract_y
 _atom_site_fract_z
 _atom_site_occupancy
  Pr  Pr0  1  0.000886  0.178817  0.905052  1
  Gd  Gd1  1  0.833890  0.663748  0.875773  1
  Gd  Gd2  1  0.500741  0.320944  0.905069  1
  Gd  Gd3  1  0.003543  0.176863  0.595379  1
  Gd  Gd4  1  0.498772  0.680040  0.405109  1
  Gd  Gd5  1  0.998200  0.821430  0.097219  1
  Gd  Gd6  1  0.497893  0.678644  0.095493  1
  Gd  Gd7  1  0.996440  0.823182  0.403828  1
  Gd  Gd8  1  0.501377  0.318614  0.593716  1
  Tm  Tm9  1  0.334826  0.836803  0.873327  1
  Tm  Tm10  1  0.836581  0.664836  0.624454  1
  Tm  Tm11  1  0.664812  0.160853  0.375265  1
  Tm  Tm12  1  0.164928  0.336524  0.127013  1
  Tm  Tm13  1  0.666096  0.162183  0.127196  1
  Tm  Tm14  1  0.164598  0.335448  0.374114  1
  Tm  Tm15  1  0.335409  0.839427  0.622970  1
  Tm  Tm16  1  0.165416  0.501074  0.749939  1
  Tm  Tm17  1  0.668617  0.000478  0.748089  1
  Tm  Tm18  1  0.834445  0.499708  0.250826  1
  Tm  Tm19  1  0.331344  0.999064  0.250496  1
  Sn  Sn20  1  0.318864  0.042400  0.041896  1
  Sn  Sn21  1  0.821759  0.461721  0.458512  1
  Sn  Sn22  1  0.686038  0.957118  0.540476  1
  Sn  Sn23  1  0.186903  0.539651  0.960425  1
  Sn  Sn24  1  0.674207  0.959413  0.960032  1
  Sn  Sn25  1  0.178931  0.536881  0.541358  1
  Sn  Sn26  1  0.315069  0.043249  0.458445  1
  Sn  Sn27  1  0.819553  0.461063  0.044449  1
  Sn  Sn28  1  0.527439  0.624283  0.745887  1
  Sn  Sn29  1  0.033207  0.880728  0.748416  1
  Sn  Sn30  1  0.471819  0.376341  0.252052  1
  Sn  Sn31  1  0.968679  0.118127  0.250719  1
  Sn  Sn32  1  0.307476  0.150843  0.748101  1
  Sn  Sn33  1  0.800694  0.351723  0.746999  1
  Sn  Sn34  1  0.693590  0.849101  0.250774  1
  Sn  Sn35  1  0.196958  0.648680  0.251128  1
