# generated using pymatgen
data_Eu2In5Pd4
_symmetry_space_group_name_H-M   'P 1'
_cell_length_a   4.64852200
_cell_length_b   9.81459009
_cell_length_c   10.98261611
_cell_angle_alpha   77.52289582
_cell_angle_beta   90.00000000
_cell_angle_gamma   90.00000000
_symmetry_Int_Tables_number   1
_chemical_formula_structural   Eu2In5Pd4
_chemical_formula_sum   'Eu4 In10 Pd8'
_cell_volume   489.22969664
_cell_formula_units_Z   2
loop_
 _symmetry_equiv_pos_site_id
 _symmetry_equiv_pos_as_xyz
  1  'x, y, z'
loop_
 _atom_site_type_symbol
 _atom_site_label
 _atom_site_symmetry_multiplicity
 _atom_site_fract_x
 _atom_site_fract_y
 _atom_site_fract_z
 _atom_site_occupancy
  Eu  Eu0  1  0.250000  0.326032  0.703408  1
  Eu  Eu1  1  0.750000  0.673968  0.296592  1
  Eu  Eu2  1  0.250000  0.224137  0.111804  1
  Eu  Eu3  1  0.750000  0.775863  0.888196  1
  In  In4  1  0.750000  0.081744  0.651178  1
  In  In5  1  0.250000  0.833617  0.649655  1
  In  In6  1  0.750000  0.428205  0.923703  1
  In  In7  1  0.750000  0.166383  0.350345  1
  In  In8  1  0.750000  0.594073  0.637894  1
  In  In9  1  0.250000  0.888867  0.072593  1
  In  In10  1  0.250000  0.571795  0.076297  1
  In  In11  1  0.250000  0.918256  0.348822  1
  In  In12  1  0.750000  0.111133  0.927407  1
  In  In13  1  0.250000  0.405927  0.362106  1
  Pd  Pd14  1  0.250000  0.015682  0.814543  1
  Pd  Pd15  1  0.250000  0.121461  0.503025  1
  Pd  Pd16  1  0.750000  0.424095  0.183294  1
  Pd  Pd17  1  0.750000  0.878539  0.496975  1
  Pd  Pd18  1  0.750000  0.984318  0.185457  1
  Pd  Pd19  1  0.750000  0.370530  0.506401  1
  Pd  Pd20  1  0.250000  0.575905  0.816706  1
  Pd  Pd21  1  0.250000  0.629470  0.493599  1
