# generated using pymatgen
data_Cs2NaCu6F21
_symmetry_space_group_name_H-M   'P 1'
_cell_length_a   7.22880990
_cell_length_b   7.22881108
_cell_length_c   10.53378700
_cell_angle_alpha   69.95874047
_cell_angle_beta   69.95873704
_cell_angle_gamma   60.08967733
_symmetry_Int_Tables_number   1
_chemical_formula_structural   Cs2NaCu6F21
_chemical_formula_sum   'Cs2 Na1 Cu6 F21'
_cell_volume   438.15115636
_cell_formula_units_Z   1
loop_
 _symmetry_equiv_pos_site_id
 _symmetry_equiv_pos_as_xyz
  1  'x, y, z'
loop_
 _atom_site_type_symbol
 _atom_site_label
 _atom_site_symmetry_multiplicity
 _atom_site_fract_x
 _atom_site_fract_y
 _atom_site_fract_z
 _atom_site_occupancy
  Cs  Cs0  1  0.127764  0.137894  0.603032  1
  Cs  Cs1  1  0.862106  0.872236  0.396968  1
  Na  Na2  1  0.499820  0.500180  0.500000  1
  Cu  Cu3  1  0.459295  0.912994  0.193372  1
  Cu  Cu4  1  0.087006  0.540705  0.806628  1
  Cu  Cu5  1  0.959176  0.414349  0.190391  1
  Cu  Cu6  1  0.460369  0.414443  0.189666  1
  Cu  Cu7  1  0.585557  0.539631  0.810334  1
  Cu  Cu8  1  0.585651  0.040824  0.809609  1
  F  F9  1  0.699370  0.544478  0.620402  1
  F  F10  1  0.455522  0.300630  0.379598  1
  F  F11  1  0.150386  0.487700  0.235050  1
  F  F12  1  0.512300  0.849614  0.764950  1
  F  F13  1  0.863322  0.450775  0.843355  1
  F  F14  1  0.508179  0.927967  0.002016  1
  F  F15  1  0.769181  0.338865  0.146198  1
  F  F16  1  0.130169  0.584203  0.614174  1
  F  F17  1  0.885013  0.838673  0.804227  1
  F  F18  1  0.758445  0.712276  0.189139  1
  F  F19  1  0.661135  0.230819  0.853802  1
  F  F20  1  0.439279  0.560721  0.000000  1
  F  F21  1  0.854852  0.342196  0.379964  1
  F  F22  1  0.312361  0.629669  0.767363  1
  F  F23  1  0.415797  0.869831  0.385826  1
  F  F24  1  0.287724  0.241555  0.810861  1
  F  F25  1  0.549225  0.136678  0.156645  1
  F  F26  1  0.370331  0.687639  0.232637  1
  F  F27  1  0.161327  0.114987  0.195773  1
  F  F28  1  0.072033  0.491821  0.997984  1
  F  F29  1  0.657804  0.145148  0.620036  1
