# generated using pymatgen
data_YRe3Si2Mo
_symmetry_space_group_name_H-M   'P 1'
_cell_length_a   7.05403100
_cell_length_b   7.79540900
_cell_length_c   4.20484100
_cell_angle_alpha   90.00000000
_cell_angle_beta   90.00000000
_cell_angle_gamma   90.00000000
_symmetry_Int_Tables_number   1
_chemical_formula_structural   YRe3Si2Mo
_chemical_formula_sum   'Y2 Re6 Si4 Mo2'
_cell_volume   231.22024035
_cell_formula_units_Z   2
loop_
 _symmetry_equiv_pos_site_id
 _symmetry_equiv_pos_as_xyz
  1  'x, y, z'
loop_
 _atom_site_type_symbol
 _atom_site_label
 _atom_site_symmetry_multiplicity
 _atom_site_fract_x
 _atom_site_fract_y
 _atom_site_fract_z
 _atom_site_occupancy
  Y  Y0  1  0.499448  0.498491  0.000000  1
  Y  Y1  1  0.999448  0.001509  0.500000  1
  Re  Re2  1  0.080179  0.336421  0.000000  1
  Re  Re3  1  0.921641  0.656204  0.000000  1
  Re  Re4  1  0.421641  0.843796  0.500000  1
  Re  Re5  1  0.580179  0.163579  0.500000  1
  Re  Re6  1  0.345808  0.111013  0.000000  1
  Re  Re7  1  0.845808  0.388987  0.500000  1
  Si  Si8  1  0.227625  0.812109  0.000000  1
  Si  Si9  1  0.773565  0.191578  0.000000  1
  Si  Si10  1  0.727625  0.687891  0.500000  1
  Si  Si11  1  0.273565  0.308422  0.500000  1
  Mo  Mo12  1  0.651735  0.890198  0.000000  1
  Mo  Mo13  1  0.151735  0.609802  0.500000  1
