# generated using pymatgen
data_DyTm4Mg2P12Ir17
_symmetry_space_group_name_H-M   'P 1'
_cell_length_a   12.64100400
_cell_length_b   12.82136106
_cell_length_c   3.96506400
_cell_angle_alpha   90.00000000
_cell_angle_beta   90.00000000
_cell_angle_gamma   119.53575084
_symmetry_Int_Tables_number   1
_chemical_formula_structural   DyTm4Mg2P12Ir17
_chemical_formula_sum   'Dy1 Tm4 Mg2 P12 Ir17'
_cell_volume   559.12543400
_cell_formula_units_Z   1
loop_
 _symmetry_equiv_pos_site_id
 _symmetry_equiv_pos_as_xyz
  1  'x, y, z'
loop_
 _atom_site_type_symbol
 _atom_site_label
 _atom_site_symmetry_multiplicity
 _atom_site_fract_x
 _atom_site_fract_y
 _atom_site_fract_z
 _atom_site_occupancy
  Dy  Dy0  1  0.810096  0.000000  0.000000  1
  Tm  Tm1  1  0.332911  0.663750  0.500000  1
  Tm  Tm2  1  0.669161  0.336250  0.500000  1
  Tm  Tm3  1  0.002544  0.813659  0.000000  1
  Tm  Tm4  1  0.188886  0.186341  0.000000  1
  Mg  Mg5  1  0.997276  0.444147  0.500000  1
  Mg  Mg6  1  0.553129  0.555853  0.500000  1
  P  P7  1  0.003663  0.644740  0.500000  1
  P  P8  1  0.358922  0.355260  0.500000  1
  P  P9  1  0.642761  0.000000  0.500000  1
  P  P10  1  0.513864  0.686457  0.000000  1
  P  P11  1  0.307895  0.823193  0.000000  1
  P  P12  1  0.168817  0.481991  0.000000  1
  P  P13  1  0.484702  0.176807  0.000000  1
  P  P14  1  0.686826  0.518009  0.000000  1
  P  P15  1  0.827406  0.313543  0.000000  1
  P  P16  1  0.999306  0.175586  0.500000  1
  P  P17  1  0.823721  0.824414  0.500000  1
  P  P18  1  0.178922  0.000000  0.500000  1
  Ir  Ir19  1  0.504020  0.865242  0.000000  1
  Ir  Ir20  1  0.127666  0.639517  0.000000  1
  Ir  Ir21  1  0.357814  0.494546  0.000000  1
  Ir  Ir22  1  0.488150  0.360483  0.000000  1
  Ir  Ir23  1  0.863270  0.505454  0.000000  1
  Ir  Ir24  1  0.638779  0.134758  0.000000  1
  Ir  Ir25  1  0.461831  0.000000  0.500000  1
  Ir  Ir26  1  0.996991  0.279204  0.000000  1
  Ir  Ir27  1  0.717787  0.720796  0.000000  1
  Ir  Ir28  1  0.287013  0.000000  0.000000  1
  Ir  Ir29  1  0.622529  0.806851  0.500000  1
  Ir  Ir30  1  0.200709  0.824604  0.500000  1
  Ir  Ir31  1  0.177675  0.365879  0.500000  1
  Ir  Ir32  1  0.376105  0.175396  0.500000  1
  Ir  Ir33  1  0.811796  0.634121  0.500000  1
  Ir  Ir34  1  0.815678  0.193149  0.500000  1
  Ir  Ir35  1  0.001380  0.000000  0.500000  1
