# generated using pymatgen
data_MoP2Cl13
_symmetry_space_group_name_H-M   'P 1'
_cell_length_a   9.78927048
_cell_length_b   9.78926898
_cell_length_c   12.05625100
_cell_angle_alpha   90.00000000
_cell_angle_beta   90.00000000
_cell_angle_gamma   114.77935079
_symmetry_Int_Tables_number   1
_chemical_formula_structural   MoP2Cl13
_chemical_formula_sum   'Mo2 P4 Cl26'
_cell_volume   1048.97360981
_cell_formula_units_Z   2
loop_
 _symmetry_equiv_pos_site_id
 _symmetry_equiv_pos_as_xyz
  1  'x, y, z'
loop_
 _atom_site_type_symbol
 _atom_site_label
 _atom_site_symmetry_multiplicity
 _atom_site_fract_x
 _atom_site_fract_y
 _atom_site_fract_z
 _atom_site_occupancy
  Mo  Mo0  1  0.790472  0.209528  0.001031  1
  Mo  Mo1  1  0.209528  0.790472  0.501031  1
  P  P2  1  0.546757  0.453243  0.845362  1
  P  P3  1  0.858044  0.141956  0.536923  1
  P  P4  1  0.453243  0.546757  0.345362  1
  P  P5  1  0.141956  0.858044  0.036923  1
  Cl  Cl6  1  0.064266  0.238120  0.593455  1
  Cl  Cl7  1  0.317394  0.380704  0.870214  1
  Cl  Cl8  1  0.328547  0.671453  0.605879  1
  Cl  Cl9  1  0.671453  0.328547  0.105879  1
  Cl  Cl10  1  0.090595  0.909405  0.392044  1
  Cl  Cl11  1  0.909405  0.090595  0.892044  1
  Cl  Cl12  1  0.309617  0.004151  0.616104  1
  Cl  Cl13  1  0.690383  0.995849  0.116104  1
  Cl  Cl14  1  0.995849  0.690383  0.616104  1
  Cl  Cl15  1  0.004151  0.309617  0.116104  1
  Cl  Cl16  1  0.423467  0.894213  0.385934  1
  Cl  Cl17  1  0.576533  0.105787  0.885934  1
  Cl  Cl18  1  0.105787  0.576533  0.385934  1
  Cl  Cl19  1  0.894213  0.423467  0.885934  1
  Cl  Cl20  1  0.619296  0.682606  0.870214  1
  Cl  Cl21  1  0.238120  0.064266  0.093455  1
  Cl  Cl22  1  0.761880  0.935734  0.593455  1
  Cl  Cl23  1  0.935734  0.761880  0.093455  1
  Cl  Cl24  1  0.745745  0.254255  0.588921  1
  Cl  Cl25  1  0.254255  0.745745  0.088921  1
  Cl  Cl26  1  0.859816  0.140184  0.374457  1
  Cl  Cl27  1  0.140184  0.859816  0.874457  1
  Cl  Cl28  1  0.552403  0.447597  0.672769  1
  Cl  Cl29  1  0.447597  0.552403  0.172769  1
  Cl  Cl30  1  0.380704  0.317394  0.370214  1
  Cl  Cl31  1  0.682606  0.619296  0.370214  1
