# generated using pymatgen
data_Pr6AlGa4Sn5
_symmetry_space_group_name_H-M   'P 1'
_cell_length_a   6.49512432
_cell_length_b   6.49512300
_cell_length_c   10.17751311
_cell_angle_alpha   89.94397826
_cell_angle_beta   89.94397788
_cell_angle_gamma   102.66121904
_symmetry_Int_Tables_number   1
_chemical_formula_structural   Pr6AlGa4Sn5
_chemical_formula_sum   'Pr6 Al1 Ga4 Sn5'
_cell_volume   418.91390871
_cell_formula_units_Z   1
loop_
 _symmetry_equiv_pos_site_id
 _symmetry_equiv_pos_as_xyz
  1  'x, y, z'
loop_
 _atom_site_type_symbol
 _atom_site_label
 _atom_site_symmetry_multiplicity
 _atom_site_fract_x
 _atom_site_fract_y
 _atom_site_fract_z
 _atom_site_occupancy
  Pr  Pr0  1  0.649155  0.649155  0.250810  1
  Pr  Pr1  1  0.362998  0.362998  0.747373  1
  Pr  Pr2  1  0.200216  0.800123  0.494757  1
  Pr  Pr3  1  0.200032  0.798907  0.004644  1
  Pr  Pr4  1  0.800123  0.200216  0.494757  1
  Pr  Pr5  1  0.798907  0.200032  0.004644  1
  Al  Al6  1  0.310971  0.310971  0.052720  1
  Ga  Ga7  1  0.032546  0.032546  0.249147  1
  Ga  Ga8  1  0.685464  0.685464  0.956118  1
  Ga  Ga9  1  0.310466  0.310466  0.451088  1
  Ga  Ga10  1  0.686997  0.686997  0.544383  1
  Sn  Sn11  1  0.974374  0.974374  0.750220  1
  Sn  Sn12  1  0.483485  0.090019  0.249569  1
  Sn  Sn13  1  0.908530  0.505716  0.750100  1
  Sn  Sn14  1  0.505716  0.908530  0.750100  1
  Sn  Sn15  1  0.090019  0.483485  0.249569  1
