# generated using pymatgen
data_Sr4Fe2RhWO12
_symmetry_space_group_name_H-M   'P 1'
_cell_length_a   5.59928135
_cell_length_b   5.63783415
_cell_length_c   9.75860276
_cell_angle_alpha   89.57160883
_cell_angle_beta   106.69260253
_cell_angle_gamma   119.62306621
_symmetry_Int_Tables_number   1
_chemical_formula_structural   Sr4Fe2RhWO12
_chemical_formula_sum   'Sr4 Fe2 Rh1 W1 O12'
_cell_volume   253.13988248
_cell_formula_units_Z   1
loop_
 _symmetry_equiv_pos_site_id
 _symmetry_equiv_pos_as_xyz
  1  'x, y, z'
loop_
 _atom_site_type_symbol
 _atom_site_label
 _atom_site_symmetry_multiplicity
 _atom_site_fract_x
 _atom_site_fract_y
 _atom_site_fract_z
 _atom_site_occupancy
  Sr  Sr0  1  0.756697  0.627794  0.387319  1
  Sr  Sr1  1  0.742290  0.121956  0.859614  1
  Sr  Sr2  1  0.257710  0.878044  0.140386  1
  Sr  Sr3  1  0.243303  0.372206  0.612681  1
  Fe  Fe4  1  0.003210  0.251728  0.255639  1
  Fe  Fe5  1  0.996790  0.748272  0.744361  1
  Rh  Rh6  1  0.500000  0.000000  0.500000  1
  W  W7  1  0.500000  0.500000  0.000000  1
  O  O8  1  0.746184  0.864333  0.120731  1
  O  O9  1  0.743452  0.374850  0.627701  1
  O  O10  1  0.256548  0.625150  0.372299  1
  O  O11  1  0.253816  0.135667  0.879269  1
  O  O12  1  0.208832  0.098590  0.388416  1
  O  O13  1  0.222374  0.609608  0.899963  1
  O  O14  1  0.791168  0.901410  0.611584  1
  O  O15  1  0.777626  0.390392  0.100037  1
  O  O16  1  0.706201  0.638948  0.860666  1
  O  O17  1  0.717881  0.149375  0.356749  1
  O  O18  1  0.282119  0.850625  0.643251  1
  O  O19  1  0.293799  0.361052  0.139334  1
