# generated using pymatgen
data_Lu10ZnIn6Hg
_symmetry_space_group_name_H-M   'P 1'
_cell_length_a   9.02380100
_cell_length_b   9.02380083
_cell_length_c   6.59764900
_cell_angle_alpha   90.00000000
_cell_angle_beta   90.00000000
_cell_angle_gamma   119.99999695
_symmetry_Int_Tables_number   1
_chemical_formula_structural   Lu10ZnIn6Hg
_chemical_formula_sum   'Lu10 Zn1 In6 Hg1'
_cell_volume   465.26337069
_cell_formula_units_Z   1
loop_
 _symmetry_equiv_pos_site_id
 _symmetry_equiv_pos_as_xyz
  1  'x, y, z'
loop_
 _atom_site_type_symbol
 _atom_site_label
 _atom_site_symmetry_multiplicity
 _atom_site_fract_x
 _atom_site_fract_y
 _atom_site_fract_z
 _atom_site_occupancy
  Lu  Lu0  1  0.333333  0.666667  0.500000  1
  Lu  Lu1  1  0.666667  0.333333  0.500000  1
  Lu  Lu2  1  0.666667  0.333333  0.000000  1
  Lu  Lu3  1  0.333333  0.666667  0.000000  1
  Lu  Lu4  1  0.281186  0.000000  0.757401  1
  Lu  Lu5  1  0.718814  0.000000  0.242599  1
  Lu  Lu6  1  0.000000  0.281186  0.757401  1
  Lu  Lu7  1  0.000000  0.718814  0.242599  1
  Lu  Lu8  1  0.718814  0.718814  0.757401  1
  Lu  Lu9  1  0.281186  0.281186  0.242599  1
  Zn  Zn10  1  0.000000  0.000000  0.000000  1
  In  In11  1  0.623164  0.000000  0.749023  1
  In  In12  1  0.376836  0.000000  0.250977  1
  In  In13  1  0.000000  0.623164  0.749023  1
  In  In14  1  0.000000  0.376836  0.250977  1
  In  In15  1  0.376836  0.376836  0.749023  1
  In  In16  1  0.623164  0.623164  0.250977  1
  Hg  Hg17  1  0.000000  0.000000  0.500000  1
