# generated using pymatgen
data_Yb4Al18Ir5Pt
_symmetry_space_group_name_H-M   'P 1'
_cell_length_a   7.57599422
_cell_length_b   7.57599447
_cell_length_c   9.59952500
_cell_angle_alpha   90.09409648
_cell_angle_beta   90.09408892
_cell_angle_gamma   119.45159790
_symmetry_Int_Tables_number   1
_chemical_formula_structural   Yb4Al18Ir5Pt
_chemical_formula_sum   'Yb4 Al18 Ir5 Pt1'
_cell_volume   479.76754535
_cell_formula_units_Z   1
loop_
 _symmetry_equiv_pos_site_id
 _symmetry_equiv_pos_as_xyz
  1  'x, y, z'
loop_
 _atom_site_type_symbol
 _atom_site_label
 _atom_site_symmetry_multiplicity
 _atom_site_fract_x
 _atom_site_fract_y
 _atom_site_fract_z
 _atom_site_occupancy
  Yb  Yb0  1  0.996039  0.672929  0.250654  1
  Yb  Yb1  1  0.003961  0.327071  0.749346  1
  Yb  Yb2  1  0.672929  0.996039  0.250654  1
  Yb  Yb3  1  0.327071  0.003961  0.749346  1
  Al  Al4  1  0.133118  0.133118  0.252242  1
  Al  Al5  1  0.866882  0.866882  0.747758  1
  Al  Al6  1  0.002223  0.338607  0.071954  1
  Al  Al7  1  0.997777  0.661393  0.928046  1
  Al  Al8  1  0.998544  0.664410  0.570437  1
  Al  Al9  1  0.335590  0.001456  0.429563  1
  Al  Al10  1  0.001456  0.335590  0.429563  1
  Al  Al11  1  0.664410  0.998544  0.570437  1
  Al  Al12  1  0.661393  0.997777  0.928046  1
  Al  Al13  1  0.338607  0.002223  0.071954  1
  Al  Al14  1  0.333975  0.333975  0.547994  1
  Al  Al15  1  0.666025  0.666025  0.452006  1
  Al  Al16  1  0.662947  0.662947  0.049844  1
  Al  Al17  1  0.337053  0.337053  0.950156  1
  Al  Al18  1  0.336926  0.548234  0.250096  1
  Al  Al19  1  0.663074  0.451766  0.749904  1
  Al  Al20  1  0.548234  0.336926  0.250096  1
  Al  Al21  1  0.451766  0.663074  0.749904  1
  Ir  Ir22  1  0.671619  0.328381  0.000000  1
  Ir  Ir23  1  0.328381  0.671619  0.000000  1
  Ir  Ir24  1  0.328587  0.671413  0.500000  1
  Ir  Ir25  1  0.671413  0.328587  0.500000  1
  Ir  Ir26  1  0.000000  0.000000  0.500000  1
  Pt  Pt27  1  0.000000  0.000000  0.000000  1
