# generated using pymatgen
data_TbNdSc2(WO6)2
_symmetry_space_group_name_H-M   'P 1'
_cell_length_a   5.38692400
_cell_length_b   7.61520835
_cell_length_c   11.28514634
_cell_angle_alpha   78.59473587
_cell_angle_beta   90.00000000
_cell_angle_gamma   90.00000000
_symmetry_Int_Tables_number   1
_chemical_formula_structural   TbNdSc2(WO6)2
_chemical_formula_sum   'Tb2 Nd2 Sc4 W4 O24'
_cell_volume   453.80368499
_cell_formula_units_Z   2
loop_
 _symmetry_equiv_pos_site_id
 _symmetry_equiv_pos_as_xyz
  1  'x, y, z'
loop_
 _atom_site_type_symbol
 _atom_site_label
 _atom_site_symmetry_multiplicity
 _atom_site_fract_x
 _atom_site_fract_y
 _atom_site_fract_z
 _atom_site_occupancy
  Tb  Tb0  1  0.770742  0.000000  0.750000  1
  Tb  Tb1  1  0.229258  0.000000  0.250000  1
  Nd  Nd2  1  0.693247  0.500000  0.750000  1
  Nd  Nd3  1  0.306753  0.500000  0.250000  1
  Sc  Sc4  1  0.202783  0.777376  0.592987  1
  Sc  Sc5  1  0.797217  0.777376  0.092987  1
  Sc  Sc6  1  0.202783  0.222624  0.907013  1
  Sc  Sc7  1  0.797217  0.222624  0.407013  1
  W  W8  1  0.267744  0.736954  0.889665  1
  W  W9  1  0.732256  0.736954  0.389665  1
  W  W10  1  0.267744  0.263046  0.610335  1
  W  W11  1  0.732256  0.263046  0.110335  1
  O  O12  1  0.093165  0.964966  0.889415  1
  O  O13  1  0.573965  0.831317  0.938781  1
  O  O14  1  0.906835  0.964966  0.389415  1
  O  O15  1  0.464486  0.794390  0.726580  1
  O  O16  1  0.426035  0.831317  0.438781  1
  O  O17  1  0.997311  0.718173  0.772725  1
  O  O18  1  0.535514  0.794390  0.226580  1
  O  O19  1  0.867107  0.660110  0.547126  1
  O  O20  1  0.351888  0.494498  0.887508  1
  O  O21  1  0.002689  0.718173  0.272725  1
  O  O22  1  0.351888  0.505502  0.612492  1
  O  O23  1  0.867107  0.339890  0.952874  1
  O  O24  1  0.132893  0.660110  0.047126  1
  O  O25  1  0.648112  0.494498  0.387508  1
  O  O26  1  0.997311  0.281827  0.727275  1
  O  O27  1  0.648112  0.505502  0.112492  1
  O  O28  1  0.132893  0.339890  0.452874  1
  O  O29  1  0.464486  0.205610  0.773420  1
  O  O30  1  0.002689  0.281827  0.227275  1
  O  O31  1  0.573965  0.168683  0.561219  1
  O  O32  1  0.535514  0.205610  0.273420  1
  O  O33  1  0.093165  0.035034  0.610585  1
  O  O34  1  0.426035  0.168683  0.061219  1
  O  O35  1  0.906835  0.035034  0.110585  1
