# generated using pymatgen
data_Ca(AlAu)3
_symmetry_space_group_name_H-M   'P 1'
_cell_length_a   4.36654100
_cell_length_b   7.26536600
_cell_length_c   8.64351800
_cell_angle_alpha   90.00000000
_cell_angle_beta   90.00000000
_cell_angle_gamma   90.00000000
_symmetry_Int_Tables_number   1
_chemical_formula_structural   Ca(AlAu)3
_chemical_formula_sum   'Ca2 Al6 Au6'
_cell_volume   274.21144686
_cell_formula_units_Z   2
loop_
 _symmetry_equiv_pos_site_id
 _symmetry_equiv_pos_as_xyz
  1  'x, y, z'
loop_
 _atom_site_type_symbol
 _atom_site_label
 _atom_site_symmetry_multiplicity
 _atom_site_fract_x
 _atom_site_fract_y
 _atom_site_fract_z
 _atom_site_occupancy
  Ca  Ca0  1  0.500000  0.000000  0.737197  1
  Ca  Ca1  1  0.000000  0.500000  0.262803  1
  Al  Al2  1  0.000000  0.308583  0.893443  1
  Al  Al3  1  0.500000  0.191417  0.106557  1
  Al  Al4  1  0.000000  0.691417  0.893443  1
  Al  Al5  1  0.000000  0.000000  0.363566  1
  Al  Al6  1  0.500000  0.808583  0.106557  1
  Al  Al7  1  0.500000  0.500000  0.636434  1
  Au  Au8  1  0.000000  0.721713  0.601813  1
  Au  Au9  1  0.500000  0.778287  0.398187  1
  Au  Au10  1  0.500000  0.500000  0.955847  1
  Au  Au11  1  0.000000  0.000000  0.044153  1
  Au  Au12  1  0.500000  0.221713  0.398187  1
  Au  Au13  1  0.000000  0.278287  0.601813  1
