# generated using pymatgen
data_Tb20GaCo4Bi7
_symmetry_space_group_name_H-M   'P 1'
_cell_length_a   8.03631565
_cell_length_b   8.88539535
_cell_length_c   12.37022791
_cell_angle_alpha   90.12799938
_cell_angle_beta   90.11416242
_cell_angle_gamma   90.07360707
_symmetry_Int_Tables_number   1
_chemical_formula_structural   Tb20GaCo4Bi7
_chemical_formula_sum   'Tb20 Ga1 Co4 Bi7'
_cell_volume   883.30184467
_cell_formula_units_Z   1
loop_
 _symmetry_equiv_pos_site_id
 _symmetry_equiv_pos_as_xyz
  1  'x, y, z'
loop_
 _atom_site_type_symbol
 _atom_site_label
 _atom_site_symmetry_multiplicity
 _atom_site_fract_x
 _atom_site_fract_y
 _atom_site_fract_z
 _atom_site_occupancy
  Tb  Tb0  1  0.840214  0.741428  0.799423  1
  Tb  Tb1  1  0.151927  0.250081  0.196196  1
  Tb  Tb2  1  0.354941  0.258601  0.702705  1
  Tb  Tb3  1  0.650051  0.751162  0.301073  1
  Tb  Tb4  1  0.389538  0.740243  0.695863  1
  Tb  Tb5  1  0.619071  0.250130  0.310310  1
  Tb  Tb6  1  0.868832  0.256917  0.811607  1
  Tb  Tb7  1  0.119434  0.750125  0.189632  1
  Tb  Tb8  1  0.954995  0.751323  0.503050  1
  Tb  Tb9  1  0.047700  0.249180  0.497835  1
  Tb  Tb10  1  0.462224  0.261268  0.990296  1
  Tb  Tb11  1  0.546809  0.738907  0.996011  1
  Tb  Tb12  1  0.677977  0.034168  0.563758  1
  Tb  Tb13  1  0.323053  0.964978  0.437515  1
  Tb  Tb14  1  0.176542  0.967574  0.935262  1
  Tb  Tb15  1  0.323390  0.532642  0.436212  1
  Tb  Tb16  1  0.820252  0.031150  0.063519  1
  Tb  Tb17  1  0.674032  0.468212  0.571261  1
  Tb  Tb18  1  0.823113  0.465689  0.061298  1
  Tb  Tb19  1  0.181726  0.533670  0.933952  1
  Ga  Ga20  1  0.568929  0.495420  0.829675  1
  Co  Co21  1  0.561702  0.749082  0.509006  1
  Co  Co22  1  0.438170  0.250056  0.492471  1
  Co  Co23  1  0.058094  0.249689  0.991101  1
  Co  Co24  1  0.938967  0.749523  0.007279  1
  Bi  Bi25  1  0.427439  0.507816  0.175115  1
  Bi  Bi26  1  0.072557  0.507112  0.673624  1
  Bi  Bi27  1  0.428006  0.992644  0.169942  1
  Bi  Bi28  1  0.927680  0.492231  0.326469  1
  Bi  Bi29  1  0.571876  0.006988  0.826520  1
  Bi  Bi30  1  0.928588  0.008311  0.325259  1
  Bi  Bi31  1  0.072170  0.993679  0.676763  1
