# generated using pymatgen
data_Tm6Ni18P13Pt2
_symmetry_space_group_name_H-M   'P 1'
_cell_length_a   12.76288600
_cell_length_b   12.76288693
_cell_length_c   3.74606400
_cell_angle_alpha   90.00000000
_cell_angle_beta   90.00000000
_cell_angle_gamma   120.00000277
_symmetry_Int_Tables_number   1
_chemical_formula_structural   Tm6Ni18P13Pt2
_chemical_formula_sum   'Tm6 Ni18 P13 Pt2'
_cell_volume   528.44966177
_cell_formula_units_Z   1
loop_
 _symmetry_equiv_pos_site_id
 _symmetry_equiv_pos_as_xyz
  1  'x, y, z'
loop_
 _atom_site_type_symbol
 _atom_site_label
 _atom_site_symmetry_multiplicity
 _atom_site_fract_x
 _atom_site_fract_y
 _atom_site_fract_z
 _atom_site_occupancy
  Tm  Tm0  1  0.464954  0.184017  0.000000  1
  Tm  Tm1  1  0.719064  0.535046  0.000000  1
  Tm  Tm2  1  0.815983  0.280936  0.000000  1
  Tm  Tm3  1  0.535340  0.815587  0.500000  1
  Tm  Tm4  1  0.280247  0.464660  0.500000  1
  Tm  Tm5  1  0.184413  0.719753  0.500000  1
  Ni  Ni6  1  0.194551  0.092088  0.000000  1
  Ni  Ni7  1  0.897536  0.805449  0.000000  1
  Ni  Ni8  1  0.907912  0.102464  0.000000  1
  Ni  Ni9  1  0.850576  0.926872  0.500000  1
  Ni  Ni10  1  0.076296  0.149424  0.500000  1
  Ni  Ni11  1  0.073128  0.923704  0.500000  1
  Ni  Ni12  1  0.435464  0.413999  0.000000  1
  Ni  Ni13  1  0.978536  0.564536  0.000000  1
  Ni  Ni14  1  0.586001  0.021464  0.000000  1
  Ni  Ni15  1  0.568059  0.589618  0.500000  1
  Ni  Ni16  1  0.021559  0.431941  0.500000  1
  Ni  Ni17  1  0.410382  0.978441  0.500000  1
  Ni  Ni18  1  0.077449  0.317685  0.000000  1
  Ni  Ni19  1  0.240236  0.922551  0.000000  1
  Ni  Ni20  1  0.682315  0.759764  0.000000  1
  Ni  Ni21  1  0.930434  0.684728  0.500000  1
  Ni  Ni22  1  0.754294  0.069566  0.500000  1
  Ni  Ni23  1  0.315272  0.245706  0.500000  1
  P  P24  1  0.233065  0.282825  0.000000  1
  P  P25  1  0.049761  0.766935  0.000000  1
  P  P26  1  0.717175  0.950239  0.000000  1
  P  P27  1  0.769691  0.721286  0.500000  1
  P  P28  1  0.951595  0.230309  0.500000  1
  P  P29  1  0.278714  0.048405  0.500000  1
  P  P30  1  0.483569  0.612479  0.000000  1
  P  P31  1  0.128909  0.516431  0.000000  1
  P  P32  1  0.387521  0.871091  0.000000  1
  P  P33  1  0.517549  0.388871  0.500000  1
  P  P34  1  0.871322  0.482451  0.500000  1
  P  P35  1  0.611129  0.128678  0.500000  1
  P  P36  1  0.000000  0.000000  0.000000  1
  Pt  Pt37  1  0.333333  0.666667  0.000000  1
  Pt  Pt38  1  0.666667  0.333333  0.500000  1
