# generated using pymatgen
data_HoEr3Bi3Sb3Rh7
_symmetry_space_group_name_H-M   'P 1'
_cell_length_a   7.73169392
_cell_length_b   7.67757182
_cell_length_c   7.67757106
_cell_angle_alpha   109.33683426
_cell_angle_beta   109.62154847
_cell_angle_gamma   109.62156234
_symmetry_Int_Tables_number   1
_chemical_formula_structural   HoEr3Bi3Sb3Rh7
_chemical_formula_sum   'Ho1 Er3 Bi3 Sb3 Rh7'
_cell_volume   350.10907317
_cell_formula_units_Z   1
loop_
 _symmetry_equiv_pos_site_id
 _symmetry_equiv_pos_as_xyz
  1  'x, y, z'
loop_
 _atom_site_type_symbol
 _atom_site_label
 _atom_site_symmetry_multiplicity
 _atom_site_fract_x
 _atom_site_fract_y
 _atom_site_fract_z
 _atom_site_occupancy
  Ho  Ho0  1  0.488316  0.484035  0.484035  1
  Er  Er1  1  0.461117  0.999988  0.999988  1
  Er  Er2  1  0.004294  0.516015  0.000005  1
  Er  Er3  1  0.004294  0.000005  0.516015  1
  Bi  Bi4  1  0.986429  0.295081  0.295081  1
  Bi  Bi5  1  0.691494  0.000121  0.704927  1
  Bi  Bi6  1  0.691494  0.704927  0.000121  1
  Sb  Sb7  1  0.986983  0.662875  0.662875  1
  Sb  Sb8  1  0.324009  0.999870  0.337112  1
  Sb  Sb9  1  0.324009  0.337112  0.999870  1
  Rh  Rh10  1  0.071703  0.999959  0.999959  1
  Rh  Rh11  1  0.497305  0.753914  0.255089  1
  Rh  Rh12  1  0.743504  0.501323  0.246074  1
  Rh  Rh13  1  0.242120  0.744918  0.498692  1
  Rh  Rh14  1  0.242120  0.498692  0.744918  1
  Rh  Rh15  1  0.497305  0.255089  0.753914  1
  Rh  Rh16  1  0.743504  0.246074  0.501323  1
