# generated using pymatgen
data_La4Tl2AgPd3
_symmetry_space_group_name_H-M   'P 1'
_cell_length_a   3.95974900
_cell_length_b   8.08691679
_cell_length_c   8.08691700
_cell_angle_alpha   89.50337093
_cell_angle_beta   90.00000000
_cell_angle_gamma   90.00000000
_symmetry_Int_Tables_number   1
_chemical_formula_structural   La4Tl2AgPd3
_chemical_formula_sum   'La4 Tl2 Ag1 Pd3'
_cell_volume   258.95082750
_cell_formula_units_Z   1
loop_
 _symmetry_equiv_pos_site_id
 _symmetry_equiv_pos_as_xyz
  1  'x, y, z'
loop_
 _atom_site_type_symbol
 _atom_site_label
 _atom_site_symmetry_multiplicity
 _atom_site_fract_x
 _atom_site_fract_y
 _atom_site_fract_z
 _atom_site_occupancy
  La  La0  1  0.500000  0.178225  0.678225  1
  La  La1  1  0.500000  0.835483  0.335483  1
  La  La2  1  0.500000  0.312035  0.173932  1
  La  La3  1  0.500000  0.673932  0.812035  1
  Tl  Tl4  1  0.000000  0.499008  0.499853  1
  Tl  Tl5  1  0.000000  0.999853  0.999008  1
  Ag  Ag6  1  0.000000  0.623032  0.123032  1
  Pd  Pd7  1  0.000000  0.375649  0.875649  1
  Pd  Pd8  1  0.000000  0.876053  0.626732  1
  Pd  Pd9  1  0.000000  0.126732  0.376053  1
