# generated using pymatgen
data_Y3NbSn2(B2Ru5)2
_symmetry_space_group_name_H-M   'P 1'
_cell_length_a   9.72373247
_cell_length_b   9.72373229
_cell_length_c   3.10908800
_cell_angle_alpha   90.00000000
_cell_angle_beta   90.00000000
_cell_angle_gamma   91.05961711
_symmetry_Int_Tables_number   1
_chemical_formula_structural   Y3NbSn2(B2Ru5)2
_chemical_formula_sum   'Y3 Nb1 Sn2 B4 Ru10'
_cell_volume   293.91702051
_cell_formula_units_Z   1
loop_
 _symmetry_equiv_pos_site_id
 _symmetry_equiv_pos_as_xyz
  1  'x, y, z'
loop_
 _atom_site_type_symbol
 _atom_site_label
 _atom_site_symmetry_multiplicity
 _atom_site_fract_x
 _atom_site_fract_y
 _atom_site_fract_z
 _atom_site_occupancy
  Y  Y0  1  0.822960  0.675120  0.000000  1
  Y  Y1  1  0.175120  0.322960  0.000000  1
  Y  Y2  1  0.325006  0.825006  0.000000  1
  Nb  Nb3  1  0.674081  0.174081  0.000000  1
  Sn  Sn4  1  0.498742  0.506223  0.000000  1
  Sn  Sn5  1  0.006223  0.998742  0.000000  1
  B  B6  1  0.624014  0.883759  0.000000  1
  B  B7  1  0.383759  0.124014  0.000000  1
  B  B8  1  0.117365  0.617365  0.000000  1
  B  B9  1  0.874963  0.374963  0.000000  1
  Ru  Ru10  1  0.571220  0.729082  0.500000  1
  Ru  Ru11  1  0.446422  0.277001  0.500000  1
  Ru  Ru12  1  0.069591  0.774235  0.500000  1
  Ru  Ru13  1  0.911036  0.214426  0.500000  1
  Ru  Ru14  1  0.274235  0.569591  0.500000  1
  Ru  Ru15  1  0.714426  0.411036  0.500000  1
  Ru  Ru16  1  0.229082  0.071220  0.500000  1
  Ru  Ru17  1  0.777001  0.946422  0.500000  1
  Ru  Ru18  1  0.510234  0.010234  0.500000  1
  Ru  Ru19  1  0.994520  0.494520  0.500000  1
