# generated using pymatgen
data_Tb2Fe10Co2P7
_symmetry_space_group_name_H-M   'P 1'
_cell_length_a   3.63639700
_cell_length_b   8.96747007
_cell_length_c   8.98400801
_cell_angle_alpha   119.99179486
_cell_angle_beta   90.00000000
_cell_angle_gamma   90.00000000
_symmetry_Int_Tables_number   1
_chemical_formula_structural   Tb2Fe10Co2P7
_chemical_formula_sum   'Tb2 Fe10 Co2 P7'
_cell_volume   253.73354688
_cell_formula_units_Z   1
loop_
 _symmetry_equiv_pos_site_id
 _symmetry_equiv_pos_as_xyz
  1  'x, y, z'
loop_
 _atom_site_type_symbol
 _atom_site_label
 _atom_site_symmetry_multiplicity
 _atom_site_fract_x
 _atom_site_fract_y
 _atom_site_fract_z
 _atom_site_occupancy
  Tb  Tb0  1  0.000000  0.666405  0.332727  1
  Tb  Tb1  1  0.500000  0.333500  0.666518  1
  Fe  Fe2  1  0.000000  0.573098  0.630819  1
  Fe  Fe3  1  0.000000  0.879894  0.727168  1
  Fe  Fe4  1  0.000000  0.272055  0.152960  1
  Fe  Fe5  1  0.000000  0.845931  0.119629  1
  Fe  Fe6  1  0.500000  0.951056  0.565529  1
  Fe  Fe7  1  0.500000  0.434002  0.385327  1
  Fe  Fe8  1  0.500000  0.612826  0.047415  1
  Fe  Fe9  1  0.500000  0.121042  0.900600  1
  Fe  Fe10  1  0.500000  0.098874  0.221863  1
  Fe  Fe11  1  0.500000  0.784959  0.881725  1
  Co  Co12  1  0.000000  0.368716  0.939739  1
  Co  Co13  1  0.000000  0.060077  0.429277  1
  P  P14  1  0.000000  0.108708  0.701066  1
  P  P15  1  0.000000  0.300178  0.408327  1
  P  P16  1  0.000000  0.592619  0.889458  1
  P  P17  1  0.500000  0.711099  0.599509  1
  P  P18  1  0.500000  0.399678  0.113528  1
  P  P19  1  0.500000  0.885773  0.286626  1
  P  P20  1  0.000000  0.999511  0.000188  1
