# generated using pymatgen
data_Y7HoEr8Cd3AgIr4
_symmetry_space_group_name_H-M   'P 1'
_cell_length_a   9.60479948
_cell_length_b   9.60479848
_cell_length_c   9.60831555
_cell_angle_alpha   59.77932647
_cell_angle_beta   59.77932188
_cell_angle_gamma   59.89634899
_symmetry_Int_Tables_number   1
_chemical_formula_structural   Y7HoEr8Cd3AgIr4
_chemical_formula_sum   'Y7 Ho1 Er8 Cd3 Ag1 Ir4'
_cell_volume   624.18463163
_cell_formula_units_Z   1
loop_
 _symmetry_equiv_pos_site_id
 _symmetry_equiv_pos_as_xyz
  1  'x, y, z'
loop_
 _atom_site_type_symbol
 _atom_site_label
 _atom_site_symmetry_multiplicity
 _atom_site_fract_x
 _atom_site_fract_y
 _atom_site_fract_z
 _atom_site_occupancy
  Y  Y0  1  0.810153  0.810153  0.187125  1
  Y  Y1  1  0.937622  0.560164  0.561061  1
  Y  Y2  1  0.561016  0.937334  0.937005  1
  Y  Y3  1  0.560164  0.937622  0.561061  1
  Y  Y4  1  0.937334  0.561016  0.937005  1
  Y  Y5  1  0.560204  0.560204  0.937835  1
  Y  Y6  1  0.937324  0.937324  0.561481  1
  Ho  Ho7  1  0.188815  0.188815  0.810701  1
  Er  Er8  1  0.349037  0.349037  0.349364  1
  Er  Er9  1  0.349080  0.349080  0.953915  1
  Er  Er10  1  0.348544  0.954793  0.349116  1
  Er  Er11  1  0.954793  0.348544  0.349116  1
  Er  Er12  1  0.810366  0.189368  0.188918  1
  Er  Er13  1  0.187779  0.810131  0.810268  1
  Er  Er14  1  0.189368  0.810366  0.188918  1
  Er  Er15  1  0.810131  0.187779  0.810268  1
  Cd  Cd16  1  0.581231  0.581231  0.259902  1
  Cd  Cd17  1  0.581250  0.259765  0.581157  1
  Cd  Cd18  1  0.259765  0.581250  0.581157  1
  Ag  Ag19  1  0.582479  0.582479  0.582490  1
  Ir  Ir20  1  0.141490  0.141490  0.142508  1
  Ir  Ir21  1  0.142384  0.142384  0.575502  1
  Ir  Ir22  1  0.145579  0.574091  0.142067  1
  Ir  Ir23  1  0.574091  0.145579  0.142067  1
