# generated using pymatgen
data_NdCd(CuO2)4
_symmetry_space_group_name_H-M   'P 1'
_cell_length_a   6.32447716
_cell_length_b   6.32451497
_cell_length_c   6.32595436
_cell_angle_alpha   125.38383838
_cell_angle_beta   125.34911037
_cell_angle_gamma   80.92388050
_symmetry_Int_Tables_number   1
_chemical_formula_structural   NdCd(CuO2)4
_chemical_formula_sum   'Nd1 Cd1 Cu4 O8'
_cell_volume   162.17492535
_cell_formula_units_Z   1
loop_
 _symmetry_equiv_pos_site_id
 _symmetry_equiv_pos_as_xyz
  1  'x, y, z'
loop_
 _atom_site_type_symbol
 _atom_site_label
 _atom_site_symmetry_multiplicity
 _atom_site_fract_x
 _atom_site_fract_y
 _atom_site_fract_z
 _atom_site_occupancy
  Nd  Nd0  1  0.750098  0.250081  0.500079  1
  Cd  Cd1  1  0.000020  0.999999  0.999989  1
  Cu  Cu2  1  0.374104  0.627809  0.250943  1
  Cu  Cu3  1  0.372154  0.623195  0.746356  1
  Cu  Cu4  1  0.876831  0.625781  0.253622  1
  Cu  Cu5  1  0.376856  0.123158  0.749056  1
  O  O6  1  0.170474  0.597184  0.866212  1
  O  O7  1  0.730862  0.304156  0.133633  1
  O  O8  1  0.342417  0.977285  0.919904  1
  O  O9  1  0.695520  0.829378  0.426494  1
  O  O10  1  0.057339  0.422475  0.080078  1
  O  O11  1  0.402791  0.269019  0.573502  1
  O  O12  1  0.022903  0.942845  0.365270  1
  O  O13  1  0.577632  0.657637  0.634864  1
