# generated using pymatgen
data_Hf7Sc(Nb2Sn5)2
_symmetry_space_group_name_H-M   'P 1'
_cell_length_a   10.78308942
_cell_length_b   10.78622354
_cell_length_c   10.78622350
_cell_angle_alpha   149.43327001
_cell_angle_beta   131.78612270
_cell_angle_gamma   58.17349151
_symmetry_Int_Tables_number   1
_chemical_formula_structural   Hf7Sc(Nb2Sn5)2
_chemical_formula_sum   'Hf7 Sc1 Nb4 Sn10'
_cell_volume   472.12757013
_cell_formula_units_Z   1
loop_
 _symmetry_equiv_pos_site_id
 _symmetry_equiv_pos_as_xyz
  1  'x, y, z'
loop_
 _atom_site_type_symbol
 _atom_site_label
 _atom_site_symmetry_multiplicity
 _atom_site_fract_x
 _atom_site_fract_y
 _atom_site_fract_z
 _atom_site_occupancy
  Hf  Hf0  1  0.672313  0.433224  0.239089  1
  Hf  Hf1  1  0.328011  0.567272  0.760740  1
  Hf  Hf2  1  0.193398  0.933756  0.259643  1
  Hf  Hf3  1  0.807581  0.066930  0.740651  1
  Hf  Hf4  1  0.242530  0.143006  0.099526  1
  Hf  Hf5  1  0.754331  0.856939  0.897391  1
  Hf  Hf6  1  0.043704  0.644553  0.399152  1
  Sc  Sc7  1  0.959252  0.354956  0.604296  1
  Nb  Nb8  1  0.308547  0.557936  0.250264  1
  Nb  Nb9  1  0.689948  0.442080  0.750329  1
  Nb  Nb10  1  0.689948  0.939619  0.247868  1
  Nb  Nb11  1  0.308547  0.058283  0.750611  1
  Sn  Sn12  1  0.582283  0.285336  0.296947  1
  Sn  Sn13  1  0.420482  0.715277  0.705204  1
  Sn  Sn14  1  0.989388  0.785646  0.203742  1
  Sn  Sn15  1  0.009690  0.214906  0.794784  1
  Sn  Sn16  1  0.000153  0.250993  0.250447  1
  Sn  Sn17  1  0.000153  0.749705  0.749159  1
  Sn  Sn18  1  0.465430  0.069260  0.396167  1
  Sn  Sn19  1  0.534503  0.930816  0.603689  1
  Sn  Sn20  1  0.673811  0.568999  0.104812  1
  Sn  Sn21  1  0.325997  0.430509  0.895488  1
