# generated using pymatgen
data_In2Se5
_symmetry_space_group_name_H-M   'P 1'
_cell_length_a   8.35471508
_cell_length_b   8.35471560
_cell_length_c   12.90205011
_cell_angle_alpha   89.39338439
_cell_angle_beta   89.39338460
_cell_angle_gamma   150.92436429
_symmetry_Int_Tables_number   1
_chemical_formula_structural   In2Se5
_chemical_formula_sum   'In4 Se10'
_cell_volume   437.25955508
_cell_formula_units_Z   2
loop_
 _symmetry_equiv_pos_site_id
 _symmetry_equiv_pos_as_xyz
  1  'x, y, z'
loop_
 _atom_site_type_symbol
 _atom_site_label
 _atom_site_symmetry_multiplicity
 _atom_site_fract_x
 _atom_site_fract_y
 _atom_site_fract_z
 _atom_site_occupancy
  In  In0  1  0.400252  0.635119  0.687334  1
  In  In1  1  0.001516  0.993084  0.858537  1
  In  In2  1  0.635119  0.400252  0.187334  1
  In  In3  1  0.993084  0.001516  0.358537  1
  Se  Se4  1  0.789873  0.402620  0.768358  1
  Se  Se5  1  0.583599  0.394879  0.395479  1
  Se  Se6  1  0.402620  0.789873  0.268358  1
  Se  Se7  1  0.772393  0.087588  0.410639  1
  Se  Se8  1  0.735695  0.198218  0.128458  1
  Se  Se9  1  0.999962  0.037711  0.648309  1
  Se  Se10  1  0.037711  0.999962  0.148309  1
  Se  Se11  1  0.087588  0.772393  0.910639  1
  Se  Se12  1  0.198218  0.735695  0.628458  1
  Se  Se13  1  0.394879  0.583599  0.895479  1
