# generated using pymatgen
data_Tb10PdPb6Cl
_symmetry_space_group_name_H-M   'P 1'
_cell_length_a   9.24563500
_cell_length_b   9.24563580
_cell_length_c   6.74026100
_cell_angle_alpha   90.00000000
_cell_angle_beta   90.00000000
_cell_angle_gamma   119.99999355
_symmetry_Int_Tables_number   1
_chemical_formula_structural   Tb10PdPb6Cl
_chemical_formula_sum   'Tb10 Pd1 Pb6 Cl1'
_cell_volume   498.97742805
_cell_formula_units_Z   1
loop_
 _symmetry_equiv_pos_site_id
 _symmetry_equiv_pos_as_xyz
  1  'x, y, z'
loop_
 _atom_site_type_symbol
 _atom_site_label
 _atom_site_symmetry_multiplicity
 _atom_site_fract_x
 _atom_site_fract_y
 _atom_site_fract_z
 _atom_site_occupancy
  Tb  Tb0  1  0.253038  0.253038  0.752240  1
  Tb  Tb1  1  0.000000  0.746962  0.752240  1
  Tb  Tb2  1  0.253038  0.000000  0.247760  1
  Tb  Tb3  1  0.746962  0.000000  0.752240  1
  Tb  Tb4  1  0.333333  0.666667  0.500000  1
  Tb  Tb5  1  0.666667  0.333333  0.500000  1
  Tb  Tb6  1  0.746962  0.746962  0.247760  1
  Tb  Tb7  1  0.000000  0.253038  0.247760  1
  Tb  Tb8  1  0.333333  0.666667  0.000000  1
  Tb  Tb9  1  0.666667  0.333333  0.000000  1
  Pd  Pd10  1  0.000000  0.000000  0.000000  1
  Pb  Pb11  1  0.606974  0.000000  0.250456  1
  Pb  Pb12  1  0.000000  0.606974  0.250456  1
  Pb  Pb13  1  0.606974  0.606974  0.749544  1
  Pb  Pb14  1  0.393026  0.393026  0.250456  1
  Pb  Pb15  1  0.000000  0.393026  0.749544  1
  Pb  Pb16  1  0.393026  0.000000  0.749544  1
  Cl  Cl17  1  0.000000  0.000000  0.500000  1
