# generated using pymatgen
data_Dy8Ti9Si16W3
_symmetry_space_group_name_H-M   'P 1'
_cell_length_a   6.99812913
_cell_length_b   6.99812913
_cell_length_c   12.87055030
_cell_angle_alpha   89.98258970
_cell_angle_beta   90.01741030
_cell_angle_gamma   89.93723748
_symmetry_Int_Tables_number   1
_chemical_formula_structural   Dy8Ti9Si16W3
_chemical_formula_sum   'Dy8 Ti9 Si16 W3'
_cell_volume   630.31946550
_cell_formula_units_Z   1
loop_
 _symmetry_equiv_pos_site_id
 _symmetry_equiv_pos_as_xyz
  1  'x, y, z'
loop_
 _atom_site_type_symbol
 _atom_site_label
 _atom_site_symmetry_multiplicity
 _atom_site_fract_x
 _atom_site_fract_y
 _atom_site_fract_z
 _atom_site_occupancy
  Dy  Dy0  1  0.997820  0.659980  0.033381  1
  Dy  Dy1  1  0.000716  0.340374  0.533063  1
  Dy  Dy2  1  0.659980  0.997820  0.966619  1
  Dy  Dy3  1  0.158554  0.501551  0.782104  1
  Dy  Dy4  1  0.840846  0.499351  0.283283  1
  Dy  Dy5  1  0.501551  0.158554  0.217896  1
  Dy  Dy6  1  0.499351  0.840846  0.716717  1
  Dy  Dy7  1  0.340374  0.000716  0.466937  1
  Ti  Ti8  1  0.347026  0.509302  0.374346  1
  Ti  Ti9  1  0.847220  0.990956  0.376285  1
  Ti  Ti10  1  0.008311  0.151720  0.124876  1
  Ti  Ti11  1  0.990956  0.847220  0.623715  1
  Ti  Ti12  1  0.509302  0.347026  0.625654  1
  Ti  Ti13  1  0.151720  0.008311  0.875124  1
  Ti  Ti14  1  0.327183  0.327183  0.000000  1
  Ti  Ti15  1  0.491826  0.653857  0.127376  1
  Ti  Ti16  1  0.653857  0.491826  0.872624  1
  Si  Si17  1  0.046524  0.708161  0.434660  1
  Si  Si18  1  0.951934  0.292000  0.933859  1
  Si  Si19  1  0.708161  0.046524  0.565340  1
  Si  Si20  1  0.208772  0.454319  0.184870  1
  Si  Si21  1  0.791530  0.546764  0.684520  1
  Si  Si22  1  0.454319  0.208772  0.815130  1
  Si  Si23  1  0.546764  0.791530  0.315480  1
  Si  Si24  1  0.292000  0.951934  0.066141  1
  Si  Si25  1  0.798951  0.870141  0.184738  1
  Si  Si26  1  0.299726  0.630242  0.565153  1
  Si  Si27  1  0.702134  0.369860  0.065203  1
  Si  Si28  1  0.630242  0.299726  0.434847  1
  Si  Si29  1  0.369860  0.702134  0.934797  1
  Si  Si30  1  0.129940  0.200568  0.314862  1
  Si  Si31  1  0.200568  0.129940  0.685138  1
  Si  Si32  1  0.870141  0.798951  0.815262  1
  W  W33  1  0.672912  0.672912  0.500000  1
  W  W34  1  0.826238  0.172691  0.749387  1
  W  W35  1  0.172691  0.826238  0.250613  1
