# generated using pymatgen
data_Tb8Al(Si4Ni)3
_symmetry_space_group_name_H-M   'P 1'
_cell_length_a   8.00747500
_cell_length_b   8.00747458
_cell_length_c   8.16710300
_cell_angle_alpha   90.00000000
_cell_angle_beta   90.00000000
_cell_angle_gamma   120.00000585
_symmetry_Int_Tables_number   1
_chemical_formula_structural   Tb8Al(Si4Ni)3
_chemical_formula_sum   'Tb8 Al1 Si12 Ni3'
_cell_volume   453.51306100
_cell_formula_units_Z   1
loop_
 _symmetry_equiv_pos_site_id
 _symmetry_equiv_pos_as_xyz
  1  'x, y, z'
loop_
 _atom_site_type_symbol
 _atom_site_label
 _atom_site_symmetry_multiplicity
 _atom_site_fract_x
 _atom_site_fract_y
 _atom_site_fract_z
 _atom_site_occupancy
  Tb  Tb0  1  0.502331  0.004663  0.247271  1
  Tb  Tb1  1  0.502002  0.004005  0.752707  1
  Tb  Tb2  1  0.995337  0.497669  0.247271  1
  Tb  Tb3  1  0.995995  0.497998  0.752707  1
  Tb  Tb4  1  0.502331  0.497669  0.247271  1
  Tb  Tb5  1  0.502002  0.497998  0.752707  1
  Tb  Tb6  1  0.000000  0.000000  0.247042  1
  Tb  Tb7  1  0.000000  0.000000  0.752943  1
  Al  Al8  1  0.333333  0.666667  0.499496  1
  Si  Si9  1  0.171314  0.342630  0.000241  1
  Si  Si10  1  0.829077  0.658153  0.999828  1
  Si  Si11  1  0.657370  0.828686  0.000241  1
  Si  Si12  1  0.825369  0.650737  0.500070  1
  Si  Si13  1  0.341847  0.170923  0.999828  1
  Si  Si14  1  0.161268  0.322537  0.499885  1
  Si  Si15  1  0.171314  0.828686  0.000241  1
  Si  Si16  1  0.349263  0.174631  0.500070  1
  Si  Si17  1  0.829077  0.170923  0.999828  1
  Si  Si18  1  0.677463  0.838732  0.499885  1
  Si  Si19  1  0.825369  0.174631  0.500070  1
  Si  Si20  1  0.161268  0.838732  0.499885  1
  Ni  Ni21  1  0.333333  0.666667  0.000387  1
  Ni  Ni22  1  0.666667  0.333333  0.999232  1
  Ni  Ni23  1  0.666667  0.333333  0.500892  1
