# generated using pymatgen
data_Dy3Ho5In3Ni
_symmetry_space_group_name_H-M   'P 1'
_cell_length_a   10.43225700
_cell_length_b   10.43225761
_cell_length_c   6.90481400
_cell_angle_alpha   90.00000000
_cell_angle_beta   90.00000000
_cell_angle_gamma   120.00000123
_symmetry_Int_Tables_number   1
_chemical_formula_structural   Dy3Ho5In3Ni
_chemical_formula_sum   'Dy6 Ho10 In6 Ni2'
_cell_volume   650.78748235
_cell_formula_units_Z   2
loop_
 _symmetry_equiv_pos_site_id
 _symmetry_equiv_pos_as_xyz
  1  'x, y, z'
loop_
 _atom_site_type_symbol
 _atom_site_label
 _atom_site_symmetry_multiplicity
 _atom_site_fract_x
 _atom_site_fract_y
 _atom_site_fract_z
 _atom_site_occupancy
  Dy  Dy0  1  0.532057  0.064115  0.507647  1
  Dy  Dy1  1  0.935885  0.467943  0.507647  1
  Dy  Dy2  1  0.532057  0.467943  0.507647  1
  Dy  Dy3  1  0.467943  0.935885  0.007647  1
  Dy  Dy4  1  0.064115  0.532057  0.007647  1
  Dy  Dy5  1  0.467943  0.532057  0.007647  1
  Ho  Ho6  1  0.177191  0.354383  0.715585  1
  Ho  Ho7  1  0.645617  0.822809  0.715585  1
  Ho  Ho8  1  0.177191  0.822809  0.715585  1
  Ho  Ho9  1  0.822809  0.645617  0.215585  1
  Ho  Ho10  1  0.354383  0.177191  0.215585  1
  Ho  Ho11  1  0.822809  0.177191  0.215585  1
  Ho  Ho12  1  0.666667  0.333333  0.892282  1
  Ho  Ho13  1  0.333333  0.666667  0.392282  1
  Ho  Ho14  1  0.000000  0.000000  0.491140  1
  Ho  Ho15  1  0.000000  0.000000  0.991140  1
  In  In16  1  0.837406  0.674812  0.747864  1
  In  In17  1  0.325188  0.162594  0.747864  1
  In  In18  1  0.837406  0.162594  0.747864  1
  In  In19  1  0.162594  0.325188  0.247864  1
  In  In20  1  0.674812  0.837406  0.247864  1
  In  In21  1  0.162594  0.837406  0.247864  1
  Ni  Ni22  1  0.666667  0.333333  0.282308  1
  Ni  Ni23  1  0.333333  0.666667  0.782308  1
