# generated using pymatgen
data_Ag3Pt(NO3)8
_symmetry_space_group_name_H-M   'P 1'
_cell_length_a   8.03899725
_cell_length_b   8.03899611
_cell_length_c   8.03899653
_cell_angle_alpha   88.75024691
_cell_angle_beta   91.24975407
_cell_angle_gamma   91.24975017
_symmetry_Int_Tables_number   1
_chemical_formula_structural   Ag3Pt(NO3)8
_chemical_formula_sum   'Ag3 Pt1 N8 O24'
_cell_volume   519.15846486
_cell_formula_units_Z   1
loop_
 _symmetry_equiv_pos_site_id
 _symmetry_equiv_pos_as_xyz
  1  'x, y, z'
loop_
 _atom_site_type_symbol
 _atom_site_label
 _atom_site_symmetry_multiplicity
 _atom_site_fract_x
 _atom_site_fract_y
 _atom_site_fract_z
 _atom_site_occupancy
  Ag  Ag0  1  0.500000  0.500000  0.500000  1
  Ag  Ag1  1  0.500000  0.000000  0.000000  1
  Ag  Ag2  1  0.000000  0.500000  0.000000  1
  Pt  Pt3  1  0.000000  0.000000  0.500000  1
  N  N4  1  0.698420  0.133397  0.316207  1
  N  N5  1  0.666060  0.333940  0.833940  1
  N  N6  1  0.866603  0.816207  0.801580  1
  N  N7  1  0.816207  0.698420  0.366603  1
  N  N8  1  0.133397  0.183793  0.198420  1
  N  N9  1  0.183793  0.301580  0.633397  1
  N  N10  1  0.333940  0.666060  0.166060  1
  N  N11  1  0.301580  0.866603  0.683793  1
  O  O12  1  0.547581  0.228313  0.821351  1
  O  O13  1  0.582229  0.231413  0.308466  1
  O  O14  1  0.678649  0.452419  0.728313  1
  O  O15  1  0.729388  0.029423  0.209459  1
  O  O16  1  0.709459  0.729388  0.470577  1
  O  O17  1  0.768587  0.808466  0.917771  1
  O  O18  1  0.771687  0.321351  0.952419  1
  O  O19  1  0.794953  0.144584  0.453146  1
  O  O20  1  0.855416  0.953146  0.705047  1
  O  O21  1  0.808466  0.582229  0.268587  1
  O  O22  1  0.970577  0.709459  0.770612  1
  O  O23  1  0.953146  0.794953  0.355416  1
  O  O24  1  0.046854  0.205047  0.644584  1
  O  O25  1  0.029423  0.290541  0.229388  1
  O  O26  1  0.191534  0.417771  0.731413  1
  O  O27  1  0.144584  0.046854  0.294953  1
  O  O28  1  0.228313  0.678649  0.047581  1
  O  O29  1  0.205047  0.855416  0.546854  1
  O  O30  1  0.231413  0.191534  0.082229  1
  O  O31  1  0.290541  0.270612  0.529423  1
  O  O32  1  0.321351  0.547581  0.271687  1
  O  O33  1  0.270612  0.970577  0.790541  1
  O  O34  1  0.417771  0.768587  0.691534  1
  O  O35  1  0.452419  0.771687  0.178649  1
