# generated using pymatgen
data_Lu4ScTc3(P3Ir4)4
_symmetry_space_group_name_H-M   'P 1'
_cell_length_a   12.61356102
_cell_length_b   12.61356030
_cell_length_c   3.95330500
_cell_angle_alpha   90.00000000
_cell_angle_beta   90.00000000
_cell_angle_gamma   119.99290597
_symmetry_Int_Tables_number   1
_chemical_formula_structural   Lu4ScTc3(P3Ir4)4
_chemical_formula_sum   'Lu4 Sc1 Tc3 P12 Ir16'
_cell_volume   544.75019519
_cell_formula_units_Z   1
loop_
 _symmetry_equiv_pos_site_id
 _symmetry_equiv_pos_as_xyz
  1  'x, y, z'
loop_
 _atom_site_type_symbol
 _atom_site_label
 _atom_site_symmetry_multiplicity
 _atom_site_fract_x
 _atom_site_fract_y
 _atom_site_fract_z
 _atom_site_occupancy
  Lu  Lu0  1  0.333315  0.666634  0.000000  1
  Lu  Lu1  1  0.666634  0.333315  0.000000  1
  Lu  Lu2  1  0.820482  0.000077  0.500000  1
  Lu  Lu3  1  0.000077  0.820482  0.500000  1
  Sc  Sc4  1  0.179532  0.179532  0.500000  1
  Tc  Tc5  1  0.455437  0.000038  0.000000  1
  Tc  Tc6  1  0.000038  0.455437  0.000000  1
  Tc  Tc7  1  0.544316  0.544316  0.000000  1
  P  P8  1  0.175889  0.001205  0.000000  1
  P  P9  1  0.001205  0.175889  0.000000  1
  P  P10  1  0.825392  0.825392  0.000000  1
  P  P11  1  0.169362  0.484780  0.500000  1
  P  P12  1  0.514677  0.684065  0.500000  1
  P  P13  1  0.315610  0.830931  0.500000  1
  P  P14  1  0.684065  0.514677  0.500000  1
  P  P15  1  0.830931  0.315610  0.500000  1
  P  P16  1  0.484780  0.169362  0.500000  1
  P  P17  1  0.640210  0.999969  0.000000  1
  P  P18  1  0.999969  0.640210  0.000000  1
  P  P19  1  0.358790  0.358790  0.000000  1
  Ir  Ir20  1  0.356984  0.490104  0.500000  1
  Ir  Ir21  1  0.509461  0.866649  0.500000  1
  Ir  Ir22  1  0.133294  0.642780  0.500000  1
  Ir  Ir23  1  0.866649  0.509461  0.500000  1
  Ir  Ir24  1  0.642780  0.133294  0.500000  1
  Ir  Ir25  1  0.490104  0.356984  0.500000  1
  Ir  Ir26  1  0.179067  0.369616  0.000000  1
  Ir  Ir27  1  0.629616  0.808388  0.000000  1
  Ir  Ir28  1  0.191633  0.821201  0.000000  1
  Ir  Ir29  1  0.808388  0.629616  0.000000  1
  Ir  Ir30  1  0.821201  0.191633  0.000000  1
  Ir  Ir31  1  0.369616  0.179067  0.000000  1
  Ir  Ir32  1  0.290453  0.000226  0.500000  1
  Ir  Ir33  1  0.000226  0.290453  0.500000  1
  Ir  Ir34  1  0.708930  0.708930  0.500000  1
  Ir  Ir35  1  0.000883  0.000883  0.000000  1
