# generated using pymatgen
data_Dy7ErSc12(SiGe)8
_symmetry_space_group_name_H-M   'P 1'
_cell_length_a   7.15254724
_cell_length_b   7.41138529
_cell_length_c   14.06053607
_cell_angle_alpha   89.98900652
_cell_angle_beta   89.99824116
_cell_angle_gamma   89.97006171
_symmetry_Int_Tables_number   1
_chemical_formula_structural   Dy7ErSc12(SiGe)8
_chemical_formula_sum   'Dy7 Er1 Sc12 Si8 Ge8'
_cell_volume   745.35288604
_cell_formula_units_Z   1
loop_
 _symmetry_equiv_pos_site_id
 _symmetry_equiv_pos_as_xyz
  1  'x, y, z'
loop_
 _atom_site_type_symbol
 _atom_site_label
 _atom_site_symmetry_multiplicity
 _atom_site_fract_x
 _atom_site_fract_y
 _atom_site_fract_z
 _atom_site_occupancy
  Dy  Dy0  1  0.992277  0.823357  0.901489  1
  Dy  Dy1  1  0.491823  0.676758  0.901481  1
  Dy  Dy2  1  0.992131  0.823288  0.598736  1
  Dy  Dy3  1  0.507903  0.322956  0.098740  1
  Dy  Dy4  1  0.007970  0.176698  0.401348  1
  Dy  Dy5  1  0.507895  0.323195  0.400979  1
  Dy  Dy6  1  0.492226  0.676719  0.598746  1
  Er  Er7  1  0.007765  0.177088  0.099229  1
  Sc  Sc8  1  0.164489  0.501226  0.750051  1
  Sc  Sc9  1  0.835566  0.498570  0.249843  1
  Sc  Sc10  1  0.335324  0.001574  0.249788  1
  Sc  Sc11  1  0.664546  0.998741  0.750045  1
  Sc  Sc12  1  0.335455  0.172899  0.626508  1
  Sc  Sc13  1  0.664704  0.827159  0.373242  1
  Sc  Sc14  1  0.164571  0.672899  0.373190  1
  Sc  Sc15  1  0.664733  0.827358  0.126392  1
  Sc  Sc16  1  0.835402  0.327174  0.626555  1
  Sc  Sc17  1  0.335370  0.172772  0.873576  1
  Sc  Sc18  1  0.835638  0.326758  0.873482  1
  Sc  Sc19  1  0.164422  0.673117  0.126590  1
  Si  Si20  1  0.036776  0.117576  0.750005  1
  Si  Si21  1  0.963443  0.882974  0.249818  1
  Si  Si22  1  0.463500  0.617715  0.249836  1
  Si  Si23  1  0.536618  0.382300  0.750109  1
  Si  Si24  1  0.289386  0.872134  0.750047  1
  Si  Si25  1  0.711219  0.128054  0.249594  1
  Si  Si26  1  0.210158  0.371604  0.249646  1
  Si  Si27  1  0.789314  0.627840  0.750060  1
  Ge  Ge28  1  0.170125  0.461023  0.540591  1
  Ge  Ge29  1  0.829853  0.539168  0.459285  1
  Ge  Ge30  1  0.330105  0.960660  0.459237  1
  Ge  Ge31  1  0.830304  0.538161  0.040921  1
  Ge  Ge32  1  0.670155  0.039124  0.540587  1
  Ge  Ge33  1  0.169661  0.460288  0.959695  1
  Ge  Ge34  1  0.670852  0.039288  0.959603  1
  Ge  Ge35  1  0.328321  0.961787  0.040957  1
