# generated using pymatgen
data_Tb7DyHf9Si16Mo3
_symmetry_space_group_name_H-M   'P 1'
_cell_length_a   7.20728888
_cell_length_b   7.20720888
_cell_length_c   13.18158302
_cell_angle_alpha   90.12134658
_cell_angle_beta   90.11745134
_cell_angle_gamma   90.06623554
_symmetry_Int_Tables_number   1
_chemical_formula_structural   Tb7DyHf9Si16Mo3
_chemical_formula_sum   'Tb7 Dy1 Hf9 Si16 Mo3'
_cell_volume   684.70646597
_cell_formula_units_Z   1
loop_
 _symmetry_equiv_pos_site_id
 _symmetry_equiv_pos_as_xyz
  1  'x, y, z'
loop_
 _atom_site_type_symbol
 _atom_site_label
 _atom_site_symmetry_multiplicity
 _atom_site_fract_x
 _atom_site_fract_y
 _atom_site_fract_z
 _atom_site_occupancy
  Tb  Tb0  1  0.003155  0.657043  0.714522  1
  Tb  Tb1  1  0.155246  0.500288  0.464017  1
  Tb  Tb2  1  0.499724  0.844717  0.035970  1
  Tb  Tb3  1  0.846057  0.501297  0.967697  1
  Tb  Tb4  1  0.498715  0.153935  0.532315  1
  Tb  Tb5  1  0.342967  0.996818  0.785433  1
  Tb  Tb6  1  0.655985  0.000203  0.284859  1
  Dy  Dy7  1  0.999915  0.344112  0.215132  1
  Hf  Hf8  1  0.675353  0.324657  0.749994  1
  Hf  Hf9  1  0.146915  0.992726  0.373573  1
  Hf  Hf10  1  0.854657  0.005016  0.876676  1
  Hf  Hf11  1  0.506154  0.649590  0.621598  1
  Hf  Hf12  1  0.350411  0.493871  0.878394  1
  Hf  Hf13  1  0.492414  0.352530  0.125503  1
  Hf  Hf14  1  0.647499  0.507590  0.374494  1
  Hf  Hf15  1  0.994974  0.145339  0.623312  1
  Hf  Hf16  1  0.007281  0.853098  0.126423  1
  Si  Si17  1  0.361505  0.296844  0.316817  1
  Si  Si18  1  0.637299  0.705700  0.817475  1
  Si  Si19  1  0.204409  0.862186  0.566137  1
  Si  Si20  1  0.137809  0.795547  0.933863  1
  Si  Si21  1  0.796243  0.137689  0.067317  1
  Si  Si22  1  0.862419  0.203840  0.432734  1
  Si  Si23  1  0.294300  0.362703  0.682518  1
  Si  Si24  1  0.703237  0.638299  0.183157  1
  Si  Si25  1  0.295462  0.051053  0.184306  1
  Si  Si26  1  0.705095  0.947676  0.682553  1
  Si  Si27  1  0.448578  0.795071  0.432689  1
  Si  Si28  1  0.204841  0.551352  0.067379  1
  Si  Si29  1  0.547783  0.203410  0.936109  1
  Si  Si30  1  0.796593  0.452260  0.563895  1
  Si  Si31  1  0.052298  0.294929  0.817414  1
  Si  Si32  1  0.949022  0.704363  0.315680  1
  Mo  Mo33  1  0.176356  0.175277  0.001317  1
  Mo  Mo34  1  0.824772  0.823614  0.498727  1
  Mo  Mo35  1  0.324557  0.675354  0.249998  1
