# generated using pymatgen
data_CePr7(ZnSi3)4
_symmetry_space_group_name_H-M   'P 1'
_cell_length_a   8.19897700
_cell_length_b   8.19898499
_cell_length_c   8.54096300
_cell_angle_alpha   90.00000000
_cell_angle_beta   90.00000000
_cell_angle_gamma   120.00000406
_symmetry_Int_Tables_number   1
_chemical_formula_structural   CePr7(ZnSi3)4
_chemical_formula_sum   'Ce1 Pr7 Zn4 Si12'
_cell_volume   497.22987465
_cell_formula_units_Z   1
loop_
 _symmetry_equiv_pos_site_id
 _symmetry_equiv_pos_as_xyz
  1  'x, y, z'
loop_
 _atom_site_type_symbol
 _atom_site_label
 _atom_site_symmetry_multiplicity
 _atom_site_fract_x
 _atom_site_fract_y
 _atom_site_fract_z
 _atom_site_occupancy
  Ce  Ce0  1  0.000000  0.000000  0.750000  1
  Pr  Pr1  1  0.499958  0.500042  0.750000  1
  Pr  Pr2  1  0.500043  0.499957  0.250000  1
  Pr  Pr3  1  0.000083  0.500042  0.750000  1
  Pr  Pr4  1  0.999915  0.499957  0.250000  1
  Pr  Pr5  1  0.499958  0.999917  0.750000  1
  Pr  Pr6  1  0.500043  0.000085  0.250000  1
  Pr  Pr7  1  0.000000  0.000000  0.250000  1
  Zn  Zn8  1  0.666667  0.333333  0.999894  1
  Zn  Zn9  1  0.333333  0.666667  0.000954  1
  Zn  Zn10  1  0.333333  0.666667  0.499046  1
  Zn  Zn11  1  0.666667  0.333333  0.500106  1
  Si  Si12  1  0.834560  0.165440  0.998368  1
  Si  Si13  1  0.165439  0.834561  0.998330  1
  Si  Si14  1  0.330881  0.165440  0.998368  1
  Si  Si15  1  0.165439  0.834561  0.501670  1
  Si  Si16  1  0.669121  0.834561  0.998330  1
  Si  Si17  1  0.834560  0.165440  0.501632  1
  Si  Si18  1  0.834560  0.669119  0.998368  1
  Si  Si19  1  0.669121  0.834561  0.501670  1
  Si  Si20  1  0.165439  0.330879  0.998330  1
  Si  Si21  1  0.330881  0.165440  0.501632  1
  Si  Si22  1  0.165439  0.330879  0.501670  1
  Si  Si23  1  0.834560  0.669119  0.501632  1
