# generated using pymatgen
data_Y7Sn23Os6
_symmetry_space_group_name_H-M   'P 1'
_cell_length_a   9.86715400
_cell_length_b   9.86715448
_cell_length_c   10.14181600
_cell_angle_alpha   90.00000000
_cell_angle_beta   90.00000000
_cell_angle_gamma   120.00000511
_symmetry_Int_Tables_number   1
_chemical_formula_structural   Y7Sn23Os6
_chemical_formula_sum   'Y7 Sn23 Os6'
_cell_volume   855.12611596
_cell_formula_units_Z   1
loop_
 _symmetry_equiv_pos_site_id
 _symmetry_equiv_pos_as_xyz
  1  'x, y, z'
loop_
 _atom_site_type_symbol
 _atom_site_label
 _atom_site_symmetry_multiplicity
 _atom_site_fract_x
 _atom_site_fract_y
 _atom_site_fract_z
 _atom_site_occupancy
  Y  Y0  1  0.000000  0.000000  0.000000  1
  Y  Y1  1  0.032064  0.516032  0.302713  1
  Y  Y2  1  0.483968  0.967936  0.302713  1
  Y  Y3  1  0.483968  0.516032  0.302713  1
  Y  Y4  1  0.967936  0.483968  0.697287  1
  Y  Y5  1  0.516032  0.032064  0.697287  1
  Y  Y6  1  0.516032  0.483968  0.697287  1
  Sn  Sn7  1  0.000000  0.000000  0.500000  1
  Sn  Sn8  1  0.117199  0.882801  0.275060  1
  Sn  Sn9  1  0.765601  0.882801  0.275060  1
  Sn  Sn10  1  0.117199  0.234399  0.275060  1
  Sn  Sn11  1  0.882801  0.117199  0.724940  1
  Sn  Sn12  1  0.234399  0.117199  0.724940  1
  Sn  Sn13  1  0.882801  0.765601  0.724940  1
  Sn  Sn14  1  0.349859  0.000000  0.000000  1
  Sn  Sn15  1  0.650141  0.650141  0.000000  1
  Sn  Sn16  1  0.000000  0.349859  0.000000  1
  Sn  Sn17  1  0.349859  0.349859  0.000000  1
  Sn  Sn18  1  0.000000  0.650141  0.000000  1
  Sn  Sn19  1  0.650141  0.000000  0.000000  1
  Sn  Sn20  1  0.780523  0.561047  0.461778  1
  Sn  Sn21  1  0.780523  0.219477  0.461778  1
  Sn  Sn22  1  0.438953  0.219477  0.461778  1
  Sn  Sn23  1  0.219477  0.438953  0.538222  1
  Sn  Sn24  1  0.219477  0.780523  0.538222  1
  Sn  Sn25  1  0.561047  0.780523  0.538222  1
  Sn  Sn26  1  0.666667  0.333333  0.176179  1
  Sn  Sn27  1  0.333333  0.666667  0.823821  1
  Sn  Sn28  1  0.666667  0.333333  0.872824  1
  Sn  Sn29  1  0.333333  0.666667  0.127176  1
  Os  Os30  1  0.169971  0.830029  0.797972  1
  Os  Os31  1  0.660058  0.830029  0.797972  1
  Os  Os32  1  0.169971  0.339942  0.797972  1
  Os  Os33  1  0.830029  0.169971  0.202028  1
  Os  Os34  1  0.339942  0.169971  0.202028  1
  Os  Os35  1  0.830029  0.660058  0.202028  1
