# generated using pymatgen
data_ErLu11Fe3Sn2
_symmetry_space_group_name_H-M   'P 1'
_cell_length_a   8.18260028
_cell_length_b   8.18260175
_cell_length_c   8.18990800
_cell_angle_alpha   108.48547955
_cell_angle_beta   108.48548298
_cell_angle_gamma   111.42635008
_symmetry_Int_Tables_number   1
_chemical_formula_structural   ErLu11Fe3Sn2
_chemical_formula_sum   'Er1 Lu11 Fe3 Sn2'
_cell_volume   421.92863870
_cell_formula_units_Z   1
loop_
 _symmetry_equiv_pos_site_id
 _symmetry_equiv_pos_as_xyz
  1  'x, y, z'
loop_
 _atom_site_type_symbol
 _atom_site_label
 _atom_site_symmetry_multiplicity
 _atom_site_fract_x
 _atom_site_fract_y
 _atom_site_fract_z
 _atom_site_occupancy
  Er  Er0  1  0.307158  0.307158  0.614376  1
  Lu  Lu1  1  0.691887  0.691886  0.383856  1
  Lu  Lu2  1  0.692143  0.308463  0.000688  1
  Lu  Lu3  1  0.308464  0.692137  0.000684  1
  Lu  Lu4  1  0.192161  0.427482  0.234507  1
  Lu  Lu5  1  0.808821  0.573356  0.765276  1
  Lu  Lu6  1  0.191928  0.956524  0.765337  1
  Lu  Lu7  1  0.956530  0.191929  0.765340  1
  Lu  Lu8  1  0.807025  0.042406  0.234555  1
  Lu  Lu9  1  0.042401  0.807023  0.234553  1
  Lu  Lu10  1  0.427478  0.192154  0.234500  1
  Lu  Lu11  1  0.573354  0.808814  0.765276  1
  Fe  Fe12  1  0.384276  0.384271  0.000891  1
  Fe  Fe13  1  0.616564  0.616566  0.000915  1
  Fe  Fe14  1  0.000129  0.000130  0.000107  1
  Sn  Sn15  1  0.999874  0.499826  0.499572  1
  Sn  Sn16  1  0.499807  0.999874  0.499566  1
