# generated using pymatgen
data_ErTm7Re2(B12Os)2
_symmetry_space_group_name_H-M   'P 1'
_cell_length_a   3.63217400
_cell_length_b   9.09273532
_cell_length_c   11.46621204
_cell_angle_alpha   90.13024214
_cell_angle_beta   90.00000000
_cell_angle_gamma   90.00000000
_symmetry_Int_Tables_number   1
_chemical_formula_structural   ErTm7Re2(B12Os)2
_chemical_formula_sum   'Er1 Tm7 Re2 B24 Os2'
_cell_volume   378.68669064
_cell_formula_units_Z   1
loop_
 _symmetry_equiv_pos_site_id
 _symmetry_equiv_pos_as_xyz
  1  'x, y, z'
loop_
 _atom_site_type_symbol
 _atom_site_label
 _atom_site_symmetry_multiplicity
 _atom_site_fract_x
 _atom_site_fract_y
 _atom_site_fract_z
 _atom_site_occupancy
  Er  Er0  1  0.000000  0.320224  0.412341  1
  Tm  Tm1  1  0.000000  0.679814  0.587689  1
  Tm  Tm2  1  0.000000  0.824356  0.084554  1
  Tm  Tm3  1  0.000000  0.175640  0.915436  1
  Tm  Tm4  1  0.000000  0.943370  0.370907  1
  Tm  Tm5  1  0.000000  0.056534  0.629121  1
  Tm  Tm6  1  0.000000  0.442739  0.128514  1
  Tm  Tm7  1  0.000000  0.557287  0.871459  1
  Re  Re8  1  0.000000  0.138255  0.179620  1
  Re  Re9  1  0.000000  0.861668  0.820286  1
  B  B10  1  0.500000  0.553605  0.433548  1
  B  B11  1  0.500000  0.446567  0.566547  1
  B  B12  1  0.500000  0.052894  0.066553  1
  B  B13  1  0.500000  0.947101  0.933444  1
  B  B14  1  0.500000  0.749249  0.419249  1
  B  B15  1  0.500000  0.250742  0.580915  1
  B  B16  1  0.500000  0.249302  0.080556  1
  B  B17  1  0.500000  0.750696  0.919431  1
  B  B18  1  0.500000  0.791312  0.265533  1
  B  B19  1  0.500000  0.208696  0.734483  1
  B  B20  1  0.500000  0.292320  0.234839  1
  B  B21  1  0.500000  0.707601  0.765023  1
  B  B22  1  0.500000  0.630728  0.185474  1
  B  B23  1  0.500000  0.369291  0.814520  1
  B  B24  1  0.500000  0.131025  0.315358  1
  B  B25  1  0.500000  0.868852  0.684544  1
  B  B26  1  0.500000  0.981677  0.212619  1
  B  B27  1  0.500000  0.018303  0.787369  1
  B  B28  1  0.500000  0.482312  0.287857  1
  B  B29  1  0.500000  0.517863  0.712088  1
  B  B30  1  0.500000  0.602843  0.028745  1
  B  B31  1  0.500000  0.397165  0.971247  1
  B  B32  1  0.500000  0.102812  0.471746  1
  B  B33  1  0.500000  0.896990  0.528309  1
  Os  Os34  1  0.000000  0.637613  0.321804  1
  Os  Os35  1  0.000000  0.362553  0.678271  1
