# generated using pymatgen
data_Y2Ho2Sn10PdRh5
_symmetry_space_group_name_H-M   'P 1'
_cell_length_a   13.49069042
_cell_length_b   13.49069071
_cell_length_c   7.30317644
_cell_angle_alpha   89.89065530
_cell_angle_beta   90.10934394
_cell_angle_gamma   161.11829384
_symmetry_Int_Tables_number   1
_chemical_formula_structural   Y2Ho2Sn10PdRh5
_chemical_formula_sum   'Y2 Ho2 Sn10 Pd1 Rh5'
_cell_volume   430.13860941
_cell_formula_units_Z   1
loop_
 _symmetry_equiv_pos_site_id
 _symmetry_equiv_pos_as_xyz
  1  'x, y, z'
loop_
 _atom_site_type_symbol
 _atom_site_label
 _atom_site_symmetry_multiplicity
 _atom_site_fract_x
 _atom_site_fract_y
 _atom_site_fract_z
 _atom_site_occupancy
  Y  Y0  1  0.173089  0.826911  0.743628  1
  Y  Y1  1  0.827536  0.172464  0.244235  1
  Ho  Ho2  1  0.475027  0.524973  0.759052  1
  Ho  Ho3  1  0.523307  0.476693  0.266672  1
  Sn  Sn4  1  0.880525  0.119475  0.769844  1
  Sn  Sn5  1  0.120377  0.879623  0.273508  1
  Sn  Sn6  1  0.704621  0.295379  0.451455  1
  Sn  Sn7  1  0.295977  0.704023  0.950817  1
  Sn  Sn8  1  0.597607  0.402393  0.882660  1
  Sn  Sn9  1  0.403227  0.596773  0.386379  1
  Sn  Sn10  1  0.951644  0.048356  0.104361  1
  Sn  Sn11  1  0.047138  0.952862  0.597770  1
  Sn  Sn12  1  0.290780  0.709220  0.522386  1
  Sn  Sn13  1  0.709596  0.290404  0.022204  1
  Pd  Pd14  1  0.049836  0.950164  0.983982  1
  Rh  Rh15  1  0.949856  0.050144  0.483882  1
  Rh  Rh16  1  0.776362  0.223638  0.735115  1
  Rh  Rh17  1  0.223257  0.776743  0.234434  1
  Rh  Rh18  1  0.394628  0.605372  0.016640  1
  Rh  Rh19  1  0.605611  0.394389  0.514976  1
