# generated using pymatgen
data_Zr5(PaNi5)2
_symmetry_space_group_name_H-M   'P 1'
_cell_length_a   7.80902736
_cell_length_b   7.80902830
_cell_length_c   9.27308800
_cell_angle_alpha   90.00000000
_cell_angle_beta   90.00000000
_cell_angle_gamma   106.91815097
_symmetry_Int_Tables_number   1
_chemical_formula_structural   Zr5(PaNi5)2
_chemical_formula_sum   'Zr10 Pa4 Ni20'
_cell_volume   541.00817862
_cell_formula_units_Z   2
loop_
 _symmetry_equiv_pos_site_id
 _symmetry_equiv_pos_as_xyz
  1  'x, y, z'
loop_
 _atom_site_type_symbol
 _atom_site_label
 _atom_site_symmetry_multiplicity
 _atom_site_fract_x
 _atom_site_fract_y
 _atom_site_fract_z
 _atom_site_occupancy
  Zr  Zr0  1  0.308461  0.311723  0.689805  1
  Zr  Zr1  1  0.688277  0.691539  0.310195  1
  Zr  Zr2  1  0.812523  0.187477  0.000000  1
  Zr  Zr3  1  0.002677  0.501534  0.749723  1
  Zr  Zr4  1  0.998466  0.497323  0.249723  1
  Zr  Zr5  1  0.808461  0.811723  0.810195  1
  Zr  Zr6  1  0.498466  0.997323  0.250277  1
  Zr  Zr7  1  0.312523  0.687477  0.500000  1
  Zr  Zr8  1  0.502677  0.001534  0.750277  1
  Zr  Zr9  1  0.188277  0.191539  0.189805  1
  Pa  Pa10  1  0.187815  0.812185  0.000000  1
  Pa  Pa11  1  0.687815  0.312185  0.500000  1
  Pa  Pa12  1  0.502143  0.497857  0.000000  1
  Pa  Pa13  1  0.002143  0.997857  0.500000  1
  Ni  Ni14  1  0.895888  0.895118  0.104337  1
  Ni  Ni15  1  0.637063  0.347810  0.206688  1
  Ni  Ni16  1  0.059454  0.350310  0.493241  1
  Ni  Ni17  1  0.652190  0.362937  0.793312  1
  Ni  Ni18  1  0.848071  0.137829  0.294997  1
  Ni  Ni19  1  0.137063  0.847810  0.293312  1
  Ni  Ni20  1  0.604882  0.604112  0.604337  1
  Ni  Ni21  1  0.439257  0.149028  0.992951  1
  Ni  Ni22  1  0.362171  0.651929  0.794997  1
  Ni  Ni23  1  0.152190  0.862937  0.706688  1
  Ni  Ni24  1  0.149690  0.440546  0.993241  1
  Ni  Ni25  1  0.559454  0.850310  0.006759  1
  Ni  Ni26  1  0.939257  0.649028  0.507049  1
  Ni  Ni27  1  0.649690  0.940546  0.506759  1
  Ni  Ni28  1  0.104882  0.104112  0.895663  1
  Ni  Ni29  1  0.395888  0.395118  0.395663  1
  Ni  Ni30  1  0.850972  0.560743  0.007049  1
  Ni  Ni31  1  0.350972  0.060743  0.492951  1
  Ni  Ni32  1  0.862171  0.151929  0.705003  1
  Ni  Ni33  1  0.348071  0.637829  0.205003  1
