# generated using pymatgen
data_Pr3NdTm4(ReB6)4
_symmetry_space_group_name_H-M   'P 1'
_cell_length_a   3.71826900
_cell_length_b   9.22841700
_cell_length_c   11.70485800
_cell_angle_alpha   89.99668288
_cell_angle_beta   90.00000000
_cell_angle_gamma   90.00000000
_symmetry_Int_Tables_number   1
_chemical_formula_structural   Pr3NdTm4(ReB6)4
_chemical_formula_sum   'Pr3 Nd1 Tm4 Re4 B24'
_cell_volume   401.63741694
_cell_formula_units_Z   1
loop_
 _symmetry_equiv_pos_site_id
 _symmetry_equiv_pos_as_xyz
  1  'x, y, z'
loop_
 _atom_site_type_symbol
 _atom_site_label
 _atom_site_symmetry_multiplicity
 _atom_site_fract_x
 _atom_site_fract_y
 _atom_site_fract_z
 _atom_site_occupancy
  Pr  Pr0  1  0.000000  0.322348  0.414691  1
  Pr  Pr1  1  0.000000  0.677628  0.585377  1
  Pr  Pr2  1  0.000000  0.822484  0.085230  1
  Nd  Nd3  1  0.000000  0.177455  0.914638  1
  Tm  Tm4  1  0.000000  0.942893  0.369131  1
  Tm  Tm5  1  0.000000  0.057196  0.630811  1
  Tm  Tm6  1  0.000000  0.442782  0.130429  1
  Tm  Tm7  1  0.000000  0.557106  0.869487  1
  Re  Re8  1  0.000000  0.639931  0.318323  1
  Re  Re9  1  0.000000  0.359855  0.682008  1
  Re  Re10  1  0.000000  0.140006  0.181273  1
  Re  Re11  1  0.000000  0.860652  0.818467  1
  B  B12  1  0.500000  0.555632  0.429391  1
  B  B13  1  0.500000  0.444127  0.570861  1
  B  B14  1  0.500000  0.055855  0.069956  1
  B  B15  1  0.500000  0.944933  0.929632  1
  B  B16  1  0.500000  0.750742  0.414795  1
  B  B17  1  0.500000  0.249181  0.585491  1
  B  B18  1  0.500000  0.250745  0.084462  1
  B  B19  1  0.500000  0.749453  0.914903  1
  B  B20  1  0.500000  0.791839  0.265602  1
  B  B21  1  0.500000  0.207861  0.734837  1
  B  B22  1  0.500000  0.291779  0.233933  1
  B  B23  1  0.500000  0.708261  0.765890  1
  B  B24  1  0.500000  0.628842  0.185663  1
  B  B25  1  0.500000  0.370658  0.814770  1
  B  B26  1  0.500000  0.128986  0.313943  1
  B  B27  1  0.500000  0.871263  0.685981  1
  B  B28  1  0.500000  0.983932  0.213553  1
  B  B29  1  0.500000  0.016708  0.786467  1
  B  B30  1  0.500000  0.483713  0.286008  1
  B  B31  1  0.500000  0.515964  0.714180  1
  B  B32  1  0.500000  0.594718  0.025929  1
  B  B33  1  0.500000  0.404480  0.973867  1
  B  B34  1  0.500000  0.094678  0.474081  1
  B  B35  1  0.500000  0.905313  0.525941  1
