# generated using pymatgen
data_LiDyNi9Mo3P7
_symmetry_space_group_name_H-M   'P 1'
_cell_length_a   9.18513100
_cell_length_b   9.18513107
_cell_length_c   3.67605100
_cell_angle_alpha   90.00000000
_cell_angle_beta   90.00000000
_cell_angle_gamma   120.00001055
_symmetry_Int_Tables_number   1
_chemical_formula_structural   LiDyNi9Mo3P7
_chemical_formula_sum   'Li1 Dy1 Ni9 Mo3 P7'
_cell_volume   268.58566287
_cell_formula_units_Z   1
loop_
 _symmetry_equiv_pos_site_id
 _symmetry_equiv_pos_as_xyz
  1  'x, y, z'
loop_
 _atom_site_type_symbol
 _atom_site_label
 _atom_site_symmetry_multiplicity
 _atom_site_fract_x
 _atom_site_fract_y
 _atom_site_fract_z
 _atom_site_occupancy
  Li  Li0  1  0.333333  0.666667  0.000000  1
  Dy  Dy1  1  0.666667  0.333333  0.500000  1
  Ni  Ni2  1  0.712306  0.873921  0.000000  1
  Ni  Ni3  1  0.161616  0.287694  0.000000  1
  Ni  Ni4  1  0.126079  0.838384  0.000000  1
  Ni  Ni5  1  0.626958  0.567250  0.000000  1
  Ni  Ni6  1  0.940293  0.373042  0.000000  1
  Ni  Ni7  1  0.432750  0.059707  0.000000  1
  Ni  Ni8  1  0.554738  0.941515  0.500000  1
  Ni  Ni9  1  0.386778  0.445262  0.500000  1
  Ni  Ni10  1  0.058485  0.613222  0.500000  1
  Mo  Mo11  1  0.878497  0.780058  0.500000  1
  Mo  Mo12  1  0.901560  0.121503  0.500000  1
  Mo  Mo13  1  0.219942  0.098440  0.500000  1
  P  P14  1  0.586541  0.710090  0.500000  1
  P  P15  1  0.123550  0.413459  0.500000  1
  P  P16  1  0.289910  0.876450  0.500000  1
  P  P17  1  0.000000  0.000000  0.000000  1
  P  P18  1  0.886594  0.588180  0.000000  1
  P  P19  1  0.701585  0.113406  0.000000  1
  P  P20  1  0.411820  0.298415  0.000000  1
