# generated using pymatgen
data_TmTh6Sc3(Ge5Rh2)4
_symmetry_space_group_name_H-M   'P 1'
_cell_length_a   13.05783200
_cell_length_b   13.05783200
_cell_length_c   4.35130400
_cell_angle_alpha   90.00000000
_cell_angle_beta   90.00000000
_cell_angle_gamma   89.99696361
_symmetry_Int_Tables_number   1
_chemical_formula_structural   TmTh6Sc3(Ge5Rh2)4
_chemical_formula_sum   'Tm1 Th6 Sc3 Ge20 Rh8'
_cell_volume   741.92768853
_cell_formula_units_Z   1
loop_
 _symmetry_equiv_pos_site_id
 _symmetry_equiv_pos_as_xyz
  1  'x, y, z'
loop_
 _atom_site_type_symbol
 _atom_site_label
 _atom_site_symmetry_multiplicity
 _atom_site_fract_x
 _atom_site_fract_y
 _atom_site_fract_z
 _atom_site_occupancy
  Tm  Tm0  1  0.674448  0.174448  0.500000  1
  Th  Th1  1  0.112585  0.612585  0.500000  1
  Th  Th2  1  0.612395  0.886901  0.500000  1
  Th  Th3  1  0.386901  0.112395  0.500000  1
  Th  Th4  1  0.887661  0.387661  0.500000  1
  Th  Th5  1  0.499928  0.500056  0.000000  1
  Th  Th6  1  0.000056  0.999928  0.000000  1
  Sc  Sc7  1  0.326072  0.826072  0.500000  1
  Sc  Sc8  1  0.826090  0.673910  0.500000  1
  Sc  Sc9  1  0.173910  0.326090  0.500000  1
  Ge  Ge10  1  0.336968  0.494435  0.500000  1
  Ge  Ge11  1  0.663109  0.505401  0.500000  1
  Ge  Ge12  1  0.504190  0.337854  0.500000  1
  Ge  Ge13  1  0.494436  0.663042  0.500000  1
  Ge  Ge14  1  0.994435  0.836968  0.500000  1
  Ge  Ge15  1  0.837854  0.004190  0.500000  1
  Ge  Ge16  1  0.163042  0.994436  0.500000  1
  Ge  Ge17  1  0.005401  0.163109  0.500000  1
  Ge  Ge18  1  0.335446  0.301436  0.000000  1
  Ge  Ge19  1  0.664356  0.698610  0.000000  1
  Ge  Ge20  1  0.699378  0.337385  0.000000  1
  Ge  Ge21  1  0.301327  0.664364  0.000000  1
  Ge  Ge22  1  0.801436  0.835446  0.000000  1
  Ge  Ge23  1  0.837385  0.199378  0.000000  1
  Ge  Ge24  1  0.164364  0.801327  0.000000  1
  Ge  Ge25  1  0.198610  0.164356  0.000000  1
  Ge  Ge26  1  0.431534  0.931534  0.000000  1
  Ge  Ge27  1  0.931823  0.568171  0.000000  1
  Ge  Ge28  1  0.566584  0.066584  0.000000  1
  Ge  Ge29  1  0.068171  0.431823  0.000000  1
  Rh  Rh30  1  0.245196  0.976859  0.000000  1
  Rh  Rh31  1  0.755270  0.022336  0.000000  1
  Rh  Rh32  1  0.023461  0.245357  0.000000  1
  Rh  Rh33  1  0.976946  0.754679  0.000000  1
  Rh  Rh34  1  0.476859  0.745196  0.000000  1
  Rh  Rh35  1  0.745357  0.523461  0.000000  1
  Rh  Rh36  1  0.254679  0.476946  0.000000  1
  Rh  Rh37  1  0.522336  0.255270  0.000000  1
