# generated using pymatgen
data_TbNd8Tm11Si16
_symmetry_space_group_name_H-M   'P 1'
_cell_length_a   7.72162704
_cell_length_b   7.72313528
_cell_length_c   14.21219524
_cell_angle_alpha   90.06585446
_cell_angle_beta   90.05914892
_cell_angle_gamma   89.99501198
_symmetry_Int_Tables_number   1
_chemical_formula_structural   TbNd8Tm11Si16
_chemical_formula_sum   'Tb1 Nd8 Tm11 Si16'
_cell_volume   847.54566746
_cell_formula_units_Z   1
loop_
 _symmetry_equiv_pos_site_id
 _symmetry_equiv_pos_as_xyz
  1  'x, y, z'
loop_
 _atom_site_type_symbol
 _atom_site_label
 _atom_site_symmetry_multiplicity
 _atom_site_fract_x
 _atom_site_fract_y
 _atom_site_fract_z
 _atom_site_occupancy
  Tb  Tb0  1  0.492746  0.360253  0.124167  1
  Nd  Nd1  1  0.642782  0.992757  0.459484  1
  Nd  Nd2  1  0.357189  0.006940  0.958882  1
  Nd  Nd3  1  0.993066  0.642925  0.540825  1
  Nd  Nd4  1  0.492792  0.857583  0.209350  1
  Nd  Nd5  1  0.507137  0.142846  0.709197  1
  Nd  Nd6  1  0.857279  0.492771  0.790584  1
  Nd  Nd7  1  0.142631  0.507111  0.291207  1
  Nd  Nd8  1  0.006498  0.357198  0.040568  1
  Tm  Tm9  1  0.993307  0.140288  0.625762  1
  Tm  Tm10  1  0.859978  0.006554  0.873926  1
  Tm  Tm11  1  0.140000  0.993072  0.374433  1
  Tm  Tm12  1  0.506693  0.640213  0.624200  1
  Tm  Tm13  1  0.359625  0.493375  0.875536  1
  Tm  Tm14  1  0.640385  0.506801  0.376025  1
  Tm  Tm15  1  0.006979  0.859752  0.125864  1
  Tm  Tm16  1  0.318203  0.318225  0.500055  1
  Tm  Tm17  1  0.181886  0.818311  0.749986  1
  Tm  Tm18  1  0.818542  0.181537  0.250140  1
  Tm  Tm19  1  0.682207  0.682572  0.999778  1
  Si  Si20  1  0.289311  0.937626  0.561813  1
  Si  Si21  1  0.711590  0.060967  0.061327  1
  Si  Si22  1  0.937739  0.289230  0.438281  1
  Si  Si23  1  0.437337  0.209618  0.312792  1
  Si  Si24  1  0.562206  0.789471  0.811693  1
  Si  Si25  1  0.210621  0.437686  0.688205  1
  Si  Si26  1  0.790763  0.563515  0.188797  1
  Si  Si27  1  0.062308  0.710921  0.938188  1
  Si  Si28  1  0.795972  0.849048  0.687756  1
  Si  Si29  1  0.202650  0.149761  0.188426  1
  Si  Si30  1  0.849081  0.795558  0.312190  1
  Si  Si31  1  0.349030  0.704193  0.437864  1
  Si  Si32  1  0.651790  0.295473  0.936709  1
  Si  Si33  1  0.704174  0.349033  0.562309  1
  Si  Si34  1  0.294513  0.652729  0.061503  1
  Si  Si35  1  0.150992  0.204090  0.812175  1
