# generated using pymatgen
data_Er3Hf(Co4P3)2
_symmetry_space_group_name_H-M   'P 1'
_cell_length_a   3.69390100
_cell_length_b   10.64373700
_cell_length_c   12.30533200
_cell_angle_alpha   90.00000000
_cell_angle_beta   90.00000000
_cell_angle_gamma   90.00000000
_symmetry_Int_Tables_number   1
_chemical_formula_structural   Er3Hf(Co4P3)2
_chemical_formula_sum   'Er6 Hf2 Co16 P12'
_cell_volume   483.80763997
_cell_formula_units_Z   2
loop_
 _symmetry_equiv_pos_site_id
 _symmetry_equiv_pos_as_xyz
  1  'x, y, z'
loop_
 _atom_site_type_symbol
 _atom_site_label
 _atom_site_symmetry_multiplicity
 _atom_site_fract_x
 _atom_site_fract_y
 _atom_site_fract_z
 _atom_site_occupancy
  Er  Er0  1  0.750000  0.250000  0.471105  1
  Er  Er1  1  0.250000  0.750000  0.528895  1
  Er  Er2  1  0.250000  0.927806  0.795522  1
  Er  Er3  1  0.250000  0.572194  0.795522  1
  Er  Er4  1  0.750000  0.072194  0.204478  1
  Er  Er5  1  0.750000  0.427806  0.204478  1
  Hf  Hf6  1  0.250000  0.250000  0.842049  1
  Hf  Hf7  1  0.750000  0.750000  0.157951  1
  Co  Co8  1  0.250000  0.250000  0.297001  1
  Co  Co9  1  0.750000  0.750000  0.702999  1
  Co  Co10  1  0.750000  0.250000  0.013167  1
  Co  Co11  1  0.250000  0.750000  0.986833  1
  Co  Co12  1  0.250000  0.417812  0.006515  1
  Co  Co13  1  0.250000  0.082188  0.006515  1
  Co  Co14  1  0.750000  0.582188  0.993485  1
  Co  Co15  1  0.750000  0.917812  0.993485  1
  Co  Co16  1  0.250000  0.454705  0.566829  1
  Co  Co17  1  0.250000  0.045295  0.566829  1
  Co  Co18  1  0.750000  0.545295  0.433171  1
  Co  Co19  1  0.750000  0.954705  0.433171  1
  Co  Co20  1  0.250000  0.872622  0.297296  1
  Co  Co21  1  0.250000  0.627378  0.297296  1
  Co  Co22  1  0.750000  0.127378  0.702704  1
  Co  Co23  1  0.750000  0.372622  0.702704  1
  P  P24  1  0.250000  0.250000  0.117054  1
  P  P25  1  0.750000  0.750000  0.882946  1
  P  P26  1  0.250000  0.250000  0.637033  1
  P  P27  1  0.750000  0.750000  0.362967  1
  P  P28  1  0.250000  0.439060  0.384057  1
  P  P29  1  0.250000  0.060940  0.384057  1
  P  P30  1  0.750000  0.560940  0.615943  1
  P  P31  1  0.750000  0.939060  0.615943  1
  P  P32  1  0.250000  0.911980  0.107871  1
  P  P33  1  0.250000  0.588020  0.107871  1
  P  P34  1  0.750000  0.088020  0.892129  1
  P  P35  1  0.750000  0.411980  0.892129  1
