# generated using pymatgen
data_LiPr(CuO2)4
_symmetry_space_group_name_H-M   'P 1'
_cell_length_a   6.25262657
_cell_length_b   6.25262675
_cell_length_c   6.25262635
_cell_angle_alpha   124.99307051
_cell_angle_beta   124.99307984
_cell_angle_gamma   81.54950487
_symmetry_Int_Tables_number   1
_chemical_formula_structural   LiPr(CuO2)4
_chemical_formula_sum   'Li1 Pr1 Cu4 O8'
_cell_volume   157.91291306
_cell_formula_units_Z   1
loop_
 _symmetry_equiv_pos_site_id
 _symmetry_equiv_pos_as_xyz
  1  'x, y, z'
loop_
 _atom_site_type_symbol
 _atom_site_label
 _atom_site_symmetry_multiplicity
 _atom_site_fract_x
 _atom_site_fract_y
 _atom_site_fract_z
 _atom_site_occupancy
  Li  Li0  1  0.000000  0.000000  0.000000  1
  Pr  Pr1  1  0.750000  0.250000  0.500000  1
  Cu  Cu2  1  0.878436  0.625040  0.255250  1
  Cu  Cu3  1  0.376814  0.121564  0.746604  1
  Cu  Cu4  1  0.374960  0.630210  0.253396  1
  Cu  Cu5  1  0.369790  0.623186  0.744750  1
  O  O6  1  0.335948  0.973842  0.912530  1
  O  O7  1  0.696826  0.826159  0.424964  1
  O  O8  1  0.728139  0.303174  0.129334  1
  O  O9  1  0.576582  0.664052  0.637893  1
  O  O10  1  0.173841  0.598805  0.870666  1
  O  O11  1  0.026158  0.938688  0.362107  1
  O  O12  1  0.061312  0.423418  0.087470  1
  O  O13  1  0.401195  0.271861  0.575036  1
