# generated using pymatgen
data_AcLaZn5Si
_symmetry_space_group_name_H-M   'P 1'
_cell_length_a   8.51313256
_cell_length_b   8.51313302
_cell_length_c   9.00699400
_cell_angle_alpha   90.00000000
_cell_angle_beta   90.00000000
_cell_angle_gamma   148.72330128
_symmetry_Int_Tables_number   1
_chemical_formula_structural   AcLaZn5Si
_chemical_formula_sum   'Ac2 La2 Zn10 Si2'
_cell_volume   338.89845954
_cell_formula_units_Z   2
loop_
 _symmetry_equiv_pos_site_id
 _symmetry_equiv_pos_as_xyz
  1  'x, y, z'
loop_
 _atom_site_type_symbol
 _atom_site_label
 _atom_site_symmetry_multiplicity
 _atom_site_fract_x
 _atom_site_fract_y
 _atom_site_fract_z
 _atom_site_occupancy
  Ac  Ac0  1  0.000000  0.000000  0.500000  1
  Ac  Ac1  1  0.000000  0.000000  0.000000  1
  La  La2  1  0.206372  0.793628  0.250000  1
  La  La3  1  0.793628  0.206372  0.750000  1
  Zn  Zn4  1  0.812849  0.187151  0.390985  1
  Zn  Zn5  1  0.187151  0.812849  0.609015  1
  Zn  Zn6  1  0.812849  0.187151  0.109015  1
  Zn  Zn7  1  0.187151  0.812849  0.890985  1
  Zn  Zn8  1  0.653108  0.346892  0.478598  1
  Zn  Zn9  1  0.346892  0.653108  0.521402  1
  Zn  Zn10  1  0.653108  0.346892  0.021402  1
  Zn  Zn11  1  0.346892  0.653108  0.978598  1
  Zn  Zn12  1  0.407224  0.592776  0.250000  1
  Zn  Zn13  1  0.592776  0.407224  0.750000  1
  Si  Si14  1  0.562483  0.437517  0.250000  1
  Si  Si15  1  0.437517  0.562483  0.750000  1
