# generated using pymatgen
data_Tb2Er4TcTe2
_symmetry_space_group_name_H-M   'P 1'
_cell_length_a   8.21279500
_cell_length_b   8.13143425
_cell_length_c   4.07558400
_cell_angle_alpha   90.00000000
_cell_angle_beta   90.00000000
_cell_angle_gamma   119.67284043
_symmetry_Int_Tables_number   1
_chemical_formula_structural   Tb2Er4TcTe2
_chemical_formula_sum   'Tb2 Er4 Tc1 Te2'
_cell_volume   236.48354499
_cell_formula_units_Z   1
loop_
 _symmetry_equiv_pos_site_id
 _symmetry_equiv_pos_as_xyz
  1  'x, y, z'
loop_
 _atom_site_type_symbol
 _atom_site_label
 _atom_site_symmetry_multiplicity
 _atom_site_fract_x
 _atom_site_fract_y
 _atom_site_fract_z
 _atom_site_occupancy
  Tb  Tb0  1  0.607459  0.607288  0.500000  1
  Tb  Tb1  1  0.392541  0.999830  0.500000  1
  Er  Er2  1  0.000000  0.389317  0.500000  1
  Er  Er3  1  0.000000  0.762374  0.000000  1
  Er  Er4  1  0.238854  0.238311  0.000000  1
  Er  Er5  1  0.761146  0.999457  0.000000  1
  Tc  Tc6  1  0.000000  0.005161  0.500000  1
  Te  Te7  1  0.333012  0.665637  0.000000  1
  Te  Te8  1  0.666988  0.332624  0.000000  1
