# generated using pymatgen
data_Tb2Dy2MnCo7O20
_symmetry_space_group_name_H-M   'P 1'
_cell_length_a   5.69675000
_cell_length_b   7.25639803
_cell_length_c   8.41458817
_cell_angle_alpha   89.98333356
_cell_angle_beta   90.00000000
_cell_angle_gamma   90.00000000
_symmetry_Int_Tables_number   1
_chemical_formula_structural   Tb2Dy2MnCo7O20
_chemical_formula_sum   'Tb2 Dy2 Mn1 Co7 O20'
_cell_volume   347.84126744
_cell_formula_units_Z   1
loop_
 _symmetry_equiv_pos_site_id
 _symmetry_equiv_pos_as_xyz
  1  'x, y, z'
loop_
 _atom_site_type_symbol
 _atom_site_label
 _atom_site_symmetry_multiplicity
 _atom_site_fract_x
 _atom_site_fract_y
 _atom_site_fract_z
 _atom_site_occupancy
  Tb  Tb0  1  0.999053  0.362611  0.672684  1
  Tb  Tb1  1  0.999053  0.637389  0.327316  1
  Dy  Dy2  1  0.998431  0.861508  0.828826  1
  Dy  Dy3  1  0.998431  0.138492  0.171174  1
  Mn  Mn4  1  0.257347  0.000000  0.500000  1
  Co  Co5  1  0.499214  0.092893  0.850998  1
  Co  Co6  1  0.499214  0.907107  0.149002  1
  Co  Co7  1  0.500655  0.588605  0.652208  1
  Co  Co8  1  0.500655  0.411395  0.347792  1
  Co  Co9  1  0.255612  0.500000  0.000000  1
  Co  Co10  1  0.744251  0.000000  0.500000  1
  Co  Co11  1  0.744833  0.500000  0.000000  1
  O  O12  1  0.243376  0.894107  0.289669  1
  O  O13  1  0.243376  0.105893  0.710331  1
  O  O14  1  0.756023  0.397663  0.206201  1
  O  O15  1  0.756023  0.602337  0.793799  1
  O  O16  1  0.754979  0.103155  0.706975  1
  O  O17  1  0.754979  0.896845  0.293025  1
  O  O18  1  0.244509  0.603206  0.793665  1
  O  O19  1  0.244509  0.396794  0.206335  1
  O  O20  1  0.500527  0.348386  0.932891  1
  O  O21  1  0.500527  0.651614  0.067109  1
  O  O22  1  0.502795  0.844896  0.569498  1
  O  O23  1  0.502795  0.155104  0.430502  1
  O  O24  1  0.274680  0.000000  0.000000  1
  O  O25  1  0.724103  0.500000  0.500000  1
  O  O26  1  0.725546  0.000000  0.000000  1
  O  O27  1  0.276441  0.500000  0.500000  1
  O  O28  1  0.999120  0.163933  0.444184  1
  O  O29  1  0.999120  0.836067  0.555816  1
  O  O30  1  0.999910  0.662094  0.053053  1
  O  O31  1  0.999910  0.337906  0.946947  1
