# generated using pymatgen
data_RbDy2TmSe5
_symmetry_space_group_name_H-M   'P 1'
_cell_length_a   4.09659100
_cell_length_b   12.49970100
_cell_length_c   21.80659700
_cell_angle_alpha   90.00000000
_cell_angle_beta   90.00000000
_cell_angle_gamma   90.00000000
_symmetry_Int_Tables_number   1
_chemical_formula_structural   RbDy2TmSe5
_chemical_formula_sum   'Rb4 Dy8 Tm4 Se20'
_cell_volume   1116.63215216
_cell_formula_units_Z   4
loop_
 _symmetry_equiv_pos_site_id
 _symmetry_equiv_pos_as_xyz
  1  'x, y, z'
loop_
 _atom_site_type_symbol
 _atom_site_label
 _atom_site_symmetry_multiplicity
 _atom_site_fract_x
 _atom_site_fract_y
 _atom_site_fract_z
 _atom_site_occupancy
  Rb  Rb0  1  0.250000  0.846410  0.095007  1
  Rb  Rb1  1  0.750000  0.153590  0.904993  1
  Rb  Rb2  1  0.750000  0.346410  0.404993  1
  Rb  Rb3  1  0.250000  0.653590  0.595007  1
  Dy  Dy4  1  0.750000  0.799451  0.828956  1
  Dy  Dy5  1  0.250000  0.200549  0.171044  1
  Dy  Dy6  1  0.250000  0.299451  0.671044  1
  Dy  Dy7  1  0.750000  0.700549  0.328956  1
  Dy  Dy8  1  0.250000  0.959108  0.699456  1
  Dy  Dy9  1  0.750000  0.040892  0.300544  1
  Dy  Dy10  1  0.750000  0.459108  0.800544  1
  Dy  Dy11  1  0.250000  0.540892  0.199456  1
  Tm  Tm12  1  0.750000  0.393005  0.052871  1
  Tm  Tm13  1  0.250000  0.606995  0.947129  1
  Tm  Tm14  1  0.250000  0.893005  0.447129  1
  Tm  Tm15  1  0.750000  0.106995  0.552871  1
  Se  Se16  1  0.250000  0.948571  0.569630  1
  Se  Se17  1  0.750000  0.051429  0.430370  1
  Se  Se18  1  0.750000  0.448571  0.930370  1
  Se  Se19  1  0.250000  0.551429  0.069630  1
  Se  Se20  1  0.750000  0.760775  0.958015  1
  Se  Se21  1  0.250000  0.239225  0.041985  1
  Se  Se22  1  0.250000  0.260775  0.541985  1
  Se  Se23  1  0.750000  0.739225  0.458015  1
  Se  Se24  1  0.250000  0.953907  0.829975  1
  Se  Se25  1  0.750000  0.046093  0.170025  1
  Se  Se26  1  0.750000  0.453907  0.670025  1
  Se  Se27  1  0.250000  0.546093  0.329975  1
  Se  Se28  1  0.750000  0.128464  0.684133  1
  Se  Se29  1  0.250000  0.871536  0.315867  1
  Se  Se30  1  0.250000  0.628464  0.815867  1
  Se  Se31  1  0.750000  0.371536  0.184133  1
  Se  Se32  1  0.750000  0.693822  0.198219  1
  Se  Se33  1  0.250000  0.306178  0.801781  1
  Se  Se34  1  0.250000  0.193822  0.301781  1
  Se  Se35  1  0.750000  0.806178  0.698219  1
