# generated using pymatgen
data_Nd2Gd3Ho(RuO7)2
_symmetry_space_group_name_H-M   'P 1'
_cell_length_a   6.49332629
_cell_length_b   6.50385434
_cell_length_c   7.54912400
_cell_angle_alpha   90.00000000
_cell_angle_beta   90.00000000
_cell_angle_gamma   110.50392438
_symmetry_Int_Tables_number   1
_chemical_formula_structural   Nd2Gd3Ho(RuO7)2
_chemical_formula_sum   'Nd2 Gd3 Ho1 Ru2 O14'
_cell_volume   298.61463943
_cell_formula_units_Z   1
loop_
 _symmetry_equiv_pos_site_id
 _symmetry_equiv_pos_as_xyz
  1  'x, y, z'
loop_
 _atom_site_type_symbol
 _atom_site_label
 _atom_site_symmetry_multiplicity
 _atom_site_fract_x
 _atom_site_fract_y
 _atom_site_fract_z
 _atom_site_occupancy
  Nd  Nd0  1  0.000328  0.999893  0.498885  1
  Nd  Nd1  1  0.000328  0.999893  0.001115  1
  Gd  Gd2  1  0.480457  0.928129  0.750000  1
  Gd  Gd3  1  0.519736  0.071229  0.250000  1
  Gd  Gd4  1  0.928456  0.480456  0.750000  1
  Ho  Ho5  1  0.069041  0.517649  0.250000  1
  Ru  Ru6  1  0.500218  0.500363  0.499232  1
  Ru  Ru7  1  0.500218  0.500363  0.000768  1
  O  O8  1  0.587021  0.586067  0.750000  1
  O  O9  1  0.409499  0.414700  0.250000  1
  O  O10  1  0.841376  0.113737  0.750000  1
  O  O11  1  0.159549  0.880302  0.250000  1
  O  O12  1  0.113146  0.840507  0.750000  1
  O  O13  1  0.888151  0.163063  0.250000  1
  O  O14  1  0.437956  0.183426  0.962727  1
  O  O15  1  0.563354  0.817414  0.462293  1
  O  O16  1  0.182905  0.441490  0.966155  1
  O  O17  1  0.817021  0.559496  0.459933  1
  O  O18  1  0.437956  0.183426  0.537273  1
  O  O19  1  0.563354  0.817414  0.037707  1
  O  O20  1  0.817021  0.559496  0.040067  1
  O  O21  1  0.182905  0.441490  0.533845  1
