# generated using pymatgen
data_ZrSc11(Si3Ru)4
_symmetry_space_group_name_H-M   'P 1'
_cell_length_a   3.99304100
_cell_length_b   10.32273485
_cell_length_c   11.71678279
_cell_angle_alpha   90.04538727
_cell_angle_beta   90.00000000
_cell_angle_gamma   90.00000000
_symmetry_Int_Tables_number   1
_chemical_formula_structural   ZrSc11(Si3Ru)4
_chemical_formula_sum   'Zr1 Sc11 Si12 Ru4'
_cell_volume   482.95513069
_cell_formula_units_Z   1
loop_
 _symmetry_equiv_pos_site_id
 _symmetry_equiv_pos_as_xyz
  1  'x, y, z'
loop_
 _atom_site_type_symbol
 _atom_site_label
 _atom_site_symmetry_multiplicity
 _atom_site_fract_x
 _atom_site_fract_y
 _atom_site_fract_z
 _atom_site_occupancy
  Zr  Zr0  1  0.250000  0.875776  0.019463  1
  Sc  Sc1  1  0.250000  0.622695  0.519794  1
  Sc  Sc2  1  0.750000  0.124803  0.980971  1
  Sc  Sc3  1  0.750000  0.377173  0.480652  1
  Sc  Sc4  1  0.250000  0.921796  0.603928  1
  Sc  Sc5  1  0.250000  0.578245  0.104225  1
  Sc  Sc6  1  0.750000  0.078289  0.395109  1
  Sc  Sc7  1  0.750000  0.421857  0.896287  1
  Sc  Sc8  1  0.250000  0.658246  0.797453  1
  Sc  Sc9  1  0.250000  0.839941  0.299650  1
  Sc  Sc10  1  0.750000  0.340751  0.202201  1
  Sc  Sc11  1  0.750000  0.159178  0.701722  1
  Si  Si12  1  0.250000  0.016353  0.822906  1
  Si  Si13  1  0.250000  0.484481  0.322805  1
  Si  Si14  1  0.750000  0.983526  0.175712  1
  Si  Si15  1  0.750000  0.515686  0.677572  1
  Si  Si16  1  0.250000  0.253026  0.841599  1
  Si  Si17  1  0.250000  0.247377  0.341974  1
  Si  Si18  1  0.750000  0.748021  0.158268  1
  Si  Si19  1  0.750000  0.752813  0.658040  1
  Si  Si20  1  0.250000  0.194188  0.545140  1
  Si  Si21  1  0.250000  0.306819  0.045653  1
  Si  Si22  1  0.750000  0.804904  0.455205  1
  Si  Si23  1  0.750000  0.694181  0.954649  1
  Ru  Ru24  1  0.250000  0.390463  0.676526  1
  Ru  Ru25  1  0.250000  0.109200  0.176007  1
  Ru  Ru26  1  0.750000  0.609959  0.322889  1
  Ru  Ru27  1  0.750000  0.890256  0.823605  1
