# generated using pymatgen
data_Ta12Ga9Co3(CN)2
_symmetry_space_group_name_H-M   'P 1'
_cell_length_a   8.22660842
_cell_length_b   8.20993629
_cell_length_c   8.20993683
_cell_angle_alpha   60.02457764
_cell_angle_beta   60.04794896
_cell_angle_gamma   60.04795223
_symmetry_Int_Tables_number   1
_chemical_formula_structural   Ta12Ga9Co3(CN)2
_chemical_formula_sum   'Ta12 Ga9 Co3 C2 N2'
_cell_volume   392.44656776
_cell_formula_units_Z   1
loop_
 _symmetry_equiv_pos_site_id
 _symmetry_equiv_pos_as_xyz
  1  'x, y, z'
loop_
 _atom_site_type_symbol
 _atom_site_label
 _atom_site_symmetry_multiplicity
 _atom_site_fract_x
 _atom_site_fract_y
 _atom_site_fract_z
 _atom_site_occupancy
  Ta  Ta0  1  0.184485  0.812433  0.187338  1
  Ta  Ta1  1  0.809115  0.196462  0.809037  1
  Ta  Ta2  1  0.065515  0.437567  0.062662  1
  Ta  Ta3  1  0.055159  0.440433  0.440433  1
  Ta  Ta4  1  0.437547  0.063677  0.063677  1
  Ta  Ta5  1  0.440885  0.053538  0.440963  1
  Ta  Ta6  1  0.809115  0.809037  0.196462  1
  Ta  Ta7  1  0.065515  0.062662  0.437567  1
  Ta  Ta8  1  0.184485  0.187338  0.812433  1
  Ta  Ta9  1  0.194841  0.809567  0.809567  1
  Ta  Ta10  1  0.440885  0.440963  0.053538  1
  Ta  Ta11  1  0.812453  0.186323  0.186323  1
  Ga  Ga12  1  0.625000  0.625000  0.625000  1
  Ga  Ga13  1  0.842314  0.842764  0.497304  1
  Ga  Ga14  1  0.495714  0.843071  0.843071  1
  Ga  Ga15  1  0.407686  0.752696  0.407236  1
  Ga  Ga16  1  0.754286  0.406929  0.406929  1
  Ga  Ga17  1  0.414983  0.413564  0.413564  1
  Ga  Ga18  1  0.407686  0.407236  0.752696  1
  Ga  Ga19  1  0.842314  0.497304  0.842764  1
  Ga  Ga20  1  0.835017  0.836436  0.836436  1
  Co  Co21  1  0.125000  0.625000  0.625000  1
  Co  Co22  1  0.625000  0.625000  0.125000  1
  Co  Co23  1  0.625000  0.125000  0.625000  1
  C  C24  1  0.125000  0.125000  0.125000  1
  C  C25  1  0.625000  0.125000  0.125000  1
  N  N26  1  0.125000  0.125000  0.625000  1
  N  N27  1  0.125000  0.625000  0.125000  1
