# generated using pymatgen
data_Ca3Tb(Ru2O7)2
_symmetry_space_group_name_H-M   'P 1'
_cell_length_a   7.26972293
_cell_length_b   7.29142170
_cell_length_c   7.26972300
_cell_angle_alpha   60.09839849
_cell_angle_beta   60.00000421
_cell_angle_gamma   60.09839971
_symmetry_Int_Tables_number   1
_chemical_formula_structural   Ca3Tb(Ru2O7)2
_chemical_formula_sum   'Ca3 Tb1 Ru4 O14'
_cell_volume   272.88350377
_cell_formula_units_Z   1
loop_
 _symmetry_equiv_pos_site_id
 _symmetry_equiv_pos_as_xyz
  1  'x, y, z'
loop_
 _atom_site_type_symbol
 _atom_site_label
 _atom_site_symmetry_multiplicity
 _atom_site_fract_x
 _atom_site_fract_y
 _atom_site_fract_z
 _atom_site_occupancy
  Ca  Ca0  1  0.625000  0.625000  0.125000  1
  Ca  Ca1  1  0.125000  0.625000  0.625000  1
  Ca  Ca2  1  0.625000  0.625000  0.625000  1
  Tb  Tb3  1  0.625000  0.125000  0.625000  1
  Ru  Ru4  1  0.625000  0.125000  0.125000  1
  Ru  Ru5  1  0.125000  0.625000  0.125000  1
  Ru  Ru6  1  0.125000  0.125000  0.625000  1
  Ru  Ru7  1  0.125000  0.125000  0.125000  1
  O  O8  1  0.202383  0.194887  0.801365  1
  O  O9  1  0.194356  0.806828  0.194356  1
  O  O10  1  0.448635  0.055113  0.047617  1
  O  O11  1  0.194356  0.806828  0.804461  1
  O  O12  1  0.055644  0.443172  0.445539  1
  O  O13  1  0.804461  0.806828  0.194356  1
  O  O14  1  0.445539  0.443172  0.055644  1
  O  O15  1  0.502539  0.492384  0.502539  1
  O  O16  1  0.047617  0.055113  0.448635  1
  O  O17  1  0.448635  0.055113  0.448635  1
  O  O18  1  0.055644  0.443172  0.055644  1
  O  O19  1  0.747461  0.757616  0.747461  1
  O  O20  1  0.801365  0.194887  0.801365  1
  O  O21  1  0.801365  0.194887  0.202383  1
