# generated using pymatgen
data_La3Al3Si4Ni3
_symmetry_space_group_name_H-M   'P 1'
_cell_length_a   13.69418061
_cell_length_b   13.69418058
_cell_length_c   4.19313500
_cell_angle_alpha   90.00000000
_cell_angle_beta   90.00000000
_cell_angle_gamma   162.39019026
_symmetry_Int_Tables_number   1
_chemical_formula_structural   La3Al3Si4Ni3
_chemical_formula_sum   'La3 Al3 Si4 Ni3'
_cell_volume   237.89418237
_cell_formula_units_Z   1
loop_
 _symmetry_equiv_pos_site_id
 _symmetry_equiv_pos_as_xyz
  1  'x, y, z'
loop_
 _atom_site_type_symbol
 _atom_site_label
 _atom_site_symmetry_multiplicity
 _atom_site_fract_x
 _atom_site_fract_y
 _atom_site_fract_z
 _atom_site_occupancy
  La  La0  1  0.999958  0.000042  0.000000  1
  La  La1  1  0.690301  0.309699  0.500000  1
  La  La2  1  0.317059  0.682941  0.500000  1
  Al  Al3  1  0.594257  0.405743  0.000000  1
  Al  Al4  1  0.907205  0.092795  0.500000  1
  Al  Al5  1  0.094008  0.905992  0.500000  1
  Si  Si6  1  0.407655  0.592345  0.000000  1
  Si  Si7  1  0.775066  0.224934  0.000000  1
  Si  Si8  1  0.228758  0.771242  0.000000  1
  Si  Si9  1  0.533902  0.466098  0.500000  1
  Ni  Ni10  1  0.861949  0.138051  0.000000  1
  Ni  Ni11  1  0.140289  0.859711  0.000000  1
  Ni  Ni12  1  0.449595  0.550405  0.500000  1
