# generated using pymatgen
data_Ti20(Ga3Se)3
_symmetry_space_group_name_H-M   'P 1'
_cell_length_a   6.74121555
_cell_length_b   7.95760400
_cell_length_c   9.90241155
_cell_angle_alpha   90.00000000
_cell_angle_beta   89.94560441
_cell_angle_gamma   90.00000000
_symmetry_Int_Tables_number   1
_chemical_formula_structural   Ti20(Ga3Se)3
_chemical_formula_sum   'Ti20 Ga9 Se3'
_cell_volume   531.20397205
_cell_formula_units_Z   1
loop_
 _symmetry_equiv_pos_site_id
 _symmetry_equiv_pos_as_xyz
  1  'x, y, z'
loop_
 _atom_site_type_symbol
 _atom_site_label
 _atom_site_symmetry_multiplicity
 _atom_site_fract_x
 _atom_site_fract_y
 _atom_site_fract_z
 _atom_site_occupancy
  Ti  Ti0  1  0.830569  0.750000  0.216679  1
  Ti  Ti1  1  0.664749  0.750000  0.714225  1
  Ti  Ti2  1  0.164759  0.250000  0.783340  1
  Ti  Ti3  1  0.333458  0.250000  0.287038  1
  Ti  Ti4  1  0.330799  0.750000  0.275714  1
  Ti  Ti5  1  0.170614  0.750000  0.772537  1
  Ti  Ti6  1  0.671048  0.250000  0.724706  1
  Ti  Ti7  1  0.827043  0.250000  0.226635  1
  Ti  Ti8  1  0.685088  0.942740  0.438250  1
  Ti  Ti9  1  0.812832  0.559306  0.937799  1
  Ti  Ti10  1  0.314732  0.442305  0.561998  1
  Ti  Ti11  1  0.192225  0.059901  0.061820  1
  Ti  Ti12  1  0.314732  0.057695  0.561998  1
  Ti  Ti13  1  0.192225  0.440099  0.061820  1
  Ti  Ti14  1  0.685088  0.557260  0.438250  1
  Ti  Ti15  1  0.812832  0.940694  0.937799  1
  Ti  Ti16  1  0.013628  0.750000  0.495575  1
  Ti  Ti17  1  0.485174  0.750000  0.997443  1
  Ti  Ti18  1  0.986745  0.250000  0.502533  1
  Ti  Ti19  1  0.518419  0.250000  0.003462  1
  Ga  Ga20  1  0.560871  0.505449  0.175887  1
  Ga  Ga21  1  0.936715  0.994667  0.673065  1
  Ga  Ga22  1  0.434961  0.005095  0.825831  1
  Ga  Ga23  1  0.060959  0.496389  0.322010  1
  Ga  Ga24  1  0.434961  0.494905  0.825831  1
  Ga  Ga25  1  0.060959  0.003611  0.322010  1
  Ga  Ga26  1  0.560871  0.994551  0.175887  1
  Ga  Ga27  1  0.936715  0.505333  0.673065  1
  Ga  Ga28  1  0.104083  0.750000  0.035398  1
  Se  Se29  1  0.398217  0.750000  0.530090  1
  Se  Se30  1  0.901949  0.250000  0.971168  1
  Se  Se31  1  0.601978  0.250000  0.470134  1
