# generated using pymatgen
data_Ti8Al14GaPd2Rh5
_symmetry_space_group_name_H-M   'P 1'
_cell_length_a   8.66761291
_cell_length_b   8.67538055
_cell_length_c   8.66811550
_cell_angle_alpha   119.89396972
_cell_angle_beta   119.97821936
_cell_angle_gamma   90.08628625
_symmetry_Int_Tables_number   1
_chemical_formula_structural   Ti8Al14GaPd2Rh5
_chemical_formula_sum   'Ti8 Al14 Ga1 Pd2 Rh5'
_cell_volume   461.43295839
_cell_formula_units_Z   1
loop_
 _symmetry_equiv_pos_site_id
 _symmetry_equiv_pos_as_xyz
  1  'x, y, z'
loop_
 _atom_site_type_symbol
 _atom_site_label
 _atom_site_symmetry_multiplicity
 _atom_site_fract_x
 _atom_site_fract_y
 _atom_site_fract_z
 _atom_site_occupancy
  Ti  Ti0  1  0.790552  0.291357  0.075774  1
  Ti  Ti1  1  0.215580  0.291350  0.500800  1
  Ti  Ti2  1  0.209377  0.709198  0.499814  1
  Ti  Ti3  1  0.212357  0.713375  0.921361  1
  Ti  Ti4  1  0.792036  0.713371  0.501016  1
  Ti  Ti5  1  0.784922  0.285966  0.501042  1
  Ti  Ti6  1  0.383618  0.127798  0.744220  1
  Ti  Ti7  1  0.379190  0.635801  0.256700  1
  Al  Al8  1  0.154500  0.344342  0.189926  1
  Al  Al9  1  0.155973  0.969359  0.813239  1
  Al  Al10  1  0.152320  0.346194  0.808780  1
  Al  Al11  1  0.537465  0.346278  0.193958  1
  Al  Al12  1  0.843610  0.653678  0.809890  1
  Al  Al13  1  0.846561  0.036112  0.189506  1
  Al  Al14  1  0.841565  0.652663  0.183913  1
  Al  Al15  1  0.468812  0.652653  0.811091  1
  Al  Al16  1  0.376806  0.123434  0.261345  1
  Al  Al17  1  0.862161  0.123390  0.746675  1
  Al  Al18  1  0.618548  0.874906  0.256440  1
  Al  Al19  1  0.621784  0.364957  0.743147  1
  Al  Al20  1  0.622566  0.876487  0.739706  1
  Al  Al21  1  0.136686  0.876500  0.253878  1
  Ga  Ga22  1  0.997149  0.495934  0.498723  1
  Pd  Pd23  1  0.998685  0.998932  0.498699  1
  Pd  Pd24  1  0.500227  0.998931  0.000246  1
  Rh  Rh25  1  0.497746  0.498869  0.001117  1
  Rh  Rh26  1  0.498176  0.499557  0.498051  1
  Rh  Rh27  1  0.001514  0.499570  0.001390  1
  Rh  Rh28  1  0.000249  0.999603  0.999375  1
  Rh  Rh29  1  0.499257  0.999432  0.500174  1
