# generated using pymatgen
data_TbDy15(InIr)4
_symmetry_space_group_name_H-M   'P 1'
_cell_length_a   9.66646928
_cell_length_b   9.66646994
_cell_length_c   9.66646922
_cell_angle_alpha   60.04709094
_cell_angle_beta   60.04709056
_cell_angle_gamma   60.04709450
_symmetry_Int_Tables_number   1
_chemical_formula_structural   TbDy15(InIr)4
_chemical_formula_sum   'Tb1 Dy15 In4 Ir4'
_cell_volume   639.36956997
_cell_formula_units_Z   1
loop_
 _symmetry_equiv_pos_site_id
 _symmetry_equiv_pos_as_xyz
  1  'x, y, z'
loop_
 _atom_site_type_symbol
 _atom_site_label
 _atom_site_symmetry_multiplicity
 _atom_site_fract_x
 _atom_site_fract_y
 _atom_site_fract_z
 _atom_site_occupancy
  Tb  Tb0  1  0.598098  0.598098  0.598098  1
  Dy  Dy1  1  0.600357  0.600357  0.201951  1
  Dy  Dy2  1  0.600357  0.201951  0.600357  1
  Dy  Dy3  1  0.201951  0.600357  0.600357  1
  Dy  Dy4  1  0.058880  0.440188  0.440188  1
  Dy  Dy5  1  0.439317  0.059371  0.059371  1
  Dy  Dy6  1  0.440188  0.058880  0.440188  1
  Dy  Dy7  1  0.059371  0.439317  0.059371  1
  Dy  Dy8  1  0.440188  0.440188  0.058880  1
  Dy  Dy9  1  0.059371  0.059371  0.439317  1
  Dy  Dy10  1  0.189201  0.811212  0.811212  1
  Dy  Dy11  1  0.811060  0.189872  0.189872  1
  Dy  Dy12  1  0.811212  0.189201  0.811212  1
  Dy  Dy13  1  0.189872  0.811060  0.189872  1
  Dy  Dy14  1  0.811212  0.811212  0.189201  1
  Dy  Dy15  1  0.189872  0.189872  0.811060  1
  In  In16  1  0.833123  0.833123  0.833123  1
  In  In17  1  0.832884  0.832884  0.501190  1
  In  In18  1  0.832884  0.501190  0.832884  1
  In  In19  1  0.501190  0.832884  0.832884  1
  Ir  Ir20  1  0.391474  0.391474  0.391474  1
  Ir  Ir21  1  0.390910  0.390910  0.826121  1
  Ir  Ir22  1  0.390910  0.826121  0.390910  1
  Ir  Ir23  1  0.826121  0.390910  0.390910  1
