# generated using pymatgen
data_Ba6Dy3In(WO9)2
_symmetry_space_group_name_H-M   'P 1'
_cell_length_a   10.51620425
_cell_length_b   10.51620458
_cell_length_c   10.51620441
_cell_angle_alpha   146.43132089
_cell_angle_beta   131.80894434
_cell_angle_gamma   60.00843458
_symmetry_Int_Tables_number   1
_chemical_formula_structural   Ba6Dy3In(WO9)2
_chemical_formula_sum   'Ba6 Dy3 In1 W2 O18'
_cell_volume   474.93860774
_cell_formula_units_Z   1
loop_
 _symmetry_equiv_pos_site_id
 _symmetry_equiv_pos_as_xyz
  1  'x, y, z'
loop_
 _atom_site_type_symbol
 _atom_site_label
 _atom_site_symmetry_multiplicity
 _atom_site_fract_x
 _atom_site_fract_y
 _atom_site_fract_z
 _atom_site_occupancy
  Ba  Ba0  1  0.579778  0.840702  0.739076  1
  Ba  Ba1  1  0.269713  0.500000  0.769713  1
  Ba  Ba2  1  0.898373  0.159298  0.739076  1
  Ba  Ba3  1  0.101627  0.840702  0.260924  1
  Ba  Ba4  1  0.730287  0.500000  0.230287  1
  Ba  Ba5  1  0.420222  0.159298  0.260924  1
  Dy  Dy6  1  0.329835  0.329835  0.000000  1
  Dy  Dy7  1  0.000000  0.000000  0.000000  1
  Dy  Dy8  1  0.670165  0.670165  0.000000  1
  In  In9  1  0.500000  0.000000  0.500000  1
  W  W10  1  0.166136  0.666136  0.500000  1
  W  W11  1  0.833864  0.333864  0.500000  1
  O  O12  1  0.601211  0.330845  0.270364  1
  O  O13  1  0.250225  0.000000  0.250225  1
  O  O14  1  0.939519  0.669155  0.270364  1
  O  O15  1  0.909980  0.639408  0.729429  1
  O  O16  1  0.586817  0.336549  0.749732  1
  O  O17  1  0.241551  0.971047  0.729496  1
  O  O18  1  0.758449  0.487946  0.729496  1
  O  O19  1  0.413183  0.162915  0.749732  1
  O  O20  1  0.090020  0.819449  0.729429  1
  O  O21  1  0.060481  0.330845  0.729636  1
  O  O22  1  0.749775  0.000000  0.749775  1
  O  O23  1  0.398789  0.669155  0.729636  1
  O  O24  1  0.758449  0.028953  0.270504  1
  O  O25  1  0.413183  0.663451  0.250268  1
  O  O26  1  0.090020  0.360592  0.270571  1
  O  O27  1  0.909980  0.180551  0.270571  1
  O  O28  1  0.586817  0.837085  0.250268  1
  O  O29  1  0.241551  0.512054  0.270504  1
