# generated using pymatgen
data_VP4SeO14
_symmetry_space_group_name_H-M   'P 1'
_cell_length_a   8.16693547
_cell_length_b   4.89446446
_cell_length_c   7.07818443
_cell_angle_alpha   74.44955941
_cell_angle_beta   90.63569251
_cell_angle_gamma   89.37762535
_symmetry_Int_Tables_number   1
_chemical_formula_structural   VP4SeO14
_chemical_formula_sum   'V1 P4 Se1 O14'
_cell_volume   272.53290745
_cell_formula_units_Z   1
loop_
 _symmetry_equiv_pos_site_id
 _symmetry_equiv_pos_as_xyz
  1  'x, y, z'
loop_
 _atom_site_type_symbol
 _atom_site_label
 _atom_site_symmetry_multiplicity
 _atom_site_fract_x
 _atom_site_fract_y
 _atom_site_fract_z
 _atom_site_occupancy
  V  V0  1  0.500798  0.221596  0.275995  1
  P  P1  1  0.245507  0.226022  0.892339  1
  P  P2  1  0.822937  0.384920  0.480360  1
  P  P3  1  0.722610  0.766384  0.105661  1
  P  P4  1  0.322063  0.616174  0.516780  1
  Se  Se5  1  0.005386  0.756960  0.720925  1
  O  O6  1  0.829372  0.576646  0.627520  1
  O  O7  1  0.811868  0.869798  0.916656  1
  O  O8  1  0.083315  0.401457  0.896426  1
  O  O9  1  0.363517  0.435846  0.736081  1
  O  O10  1  0.215483  0.959993  0.828075  1
  O  O11  1  0.855903  0.592106  0.266338  1
  O  O12  1  0.956575  0.160060  0.514598  1
  O  O13  1  0.332595  0.425039  0.378801  1
  O  O14  1  0.663789  0.016732  0.184617  1
  O  O15  1  0.647244  0.279568  0.485053  1
  O  O16  1  0.335165  0.167523  0.088121  1
  O  O17  1  0.135870  0.707996  0.514498  1
  O  O18  1  0.576791  0.570797  0.100528  1
  O  O19  1  0.435816  0.864383  0.470629  1
