# generated using pymatgen
data_RbEuH9W
_symmetry_space_group_name_H-M   'P 1'
_cell_length_a   9.15944700
_cell_length_b   9.15944657
_cell_length_c   5.57498200
_cell_angle_alpha   90.00000000
_cell_angle_beta   90.00000000
_cell_angle_gamma   120.00000517
_symmetry_Int_Tables_number   1
_chemical_formula_structural   RbEuH9W
_chemical_formula_sum   'Rb3 Eu3 H27 W3'
_cell_volume   405.05366505
_cell_formula_units_Z   3
loop_
 _symmetry_equiv_pos_site_id
 _symmetry_equiv_pos_as_xyz
  1  'x, y, z'
loop_
 _atom_site_type_symbol
 _atom_site_label
 _atom_site_symmetry_multiplicity
 _atom_site_fract_x
 _atom_site_fract_y
 _atom_site_fract_z
 _atom_site_occupancy
  Rb  Rb0  1  0.000000  0.587032  0.000000  1
  Rb  Rb1  1  0.412968  0.412968  0.000000  1
  Rb  Rb2  1  0.587032  0.000000  0.000000  1
  Eu  Eu3  1  0.000000  0.271479  0.500000  1
  Eu  Eu4  1  0.728521  0.728521  0.500000  1
  Eu  Eu5  1  0.271479  0.000000  0.500000  1
  H  H6  1  0.787031  0.304406  0.727364  1
  H  H7  1  0.695594  0.482624  0.727364  1
  H  H8  1  0.517376  0.212969  0.727364  1
  H  H9  1  0.212969  0.517376  0.272636  1
  H  H10  1  0.517376  0.212969  0.272636  1
  H  H11  1  0.787031  0.304406  0.272636  1
  H  H12  1  0.695594  0.482624  0.272636  1
  H  H13  1  0.304406  0.787031  0.727364  1
  H  H14  1  0.482624  0.695594  0.727364  1
  H  H15  1  0.192489  0.000000  0.000000  1
  H  H16  1  0.807511  0.807511  0.000000  1
  H  H17  1  0.000000  0.192489  0.000000  1
  H  H18  1  0.865082  0.000000  0.234603  1
  H  H19  1  0.134918  0.134918  0.765397  1
  H  H20  1  0.000000  0.865082  0.765397  1
  H  H21  1  0.000000  0.865082  0.234603  1
  H  H22  1  0.134918  0.134918  0.234603  1
  H  H23  1  0.865082  0.000000  0.765397  1
  H  H24  1  0.126304  0.628897  0.500000  1
  H  H25  1  0.502593  0.873696  0.500000  1
  H  H26  1  0.371103  0.497407  0.500000  1
  H  H27  1  0.497407  0.371103  0.500000  1
  H  H28  1  0.873696  0.502593  0.500000  1
  H  H29  1  0.628897  0.126304  0.500000  1
  H  H30  1  0.212969  0.517376  0.727364  1
  H  H31  1  0.304406  0.787031  0.272636  1
  H  H32  1  0.482624  0.695594  0.272636  1
  W  W33  1  0.666667  0.333333  0.500000  1
  W  W34  1  0.333333  0.666667  0.500000  1
  W  W35  1  0.000000  0.000000  0.000000  1
