# generated using pymatgen
data_CaY2(GaRh2)3
_symmetry_space_group_name_H-M   'P 1'
_cell_length_a   5.60649600
_cell_length_b   5.60649603
_cell_length_c   15.66916900
_cell_angle_alpha   90.00000000
_cell_angle_beta   90.00000000
_cell_angle_gamma   119.99999981
_symmetry_Int_Tables_number   1
_chemical_formula_structural   CaY2(GaRh2)3
_chemical_formula_sum   'Ca2 Y4 Ga6 Rh12'
_cell_volume   426.53987076
_cell_formula_units_Z   2
loop_
 _symmetry_equiv_pos_site_id
 _symmetry_equiv_pos_as_xyz
  1  'x, y, z'
loop_
 _atom_site_type_symbol
 _atom_site_label
 _atom_site_symmetry_multiplicity
 _atom_site_fract_x
 _atom_site_fract_y
 _atom_site_fract_z
 _atom_site_occupancy
  Ca  Ca0  1  0.333333  0.666667  0.750000  1
  Ca  Ca1  1  0.666667  0.333333  0.250000  1
  Y  Y2  1  0.333333  0.666667  0.541702  1
  Y  Y3  1  0.666667  0.333333  0.458298  1
  Y  Y4  1  0.666667  0.333333  0.041702  1
  Y  Y5  1  0.333333  0.666667  0.958298  1
  Ga  Ga6  1  0.000000  0.000000  0.250000  1
  Ga  Ga7  1  0.000000  0.000000  0.750000  1
  Ga  Ga8  1  0.333333  0.666667  0.250000  1
  Ga  Ga9  1  0.666667  0.333333  0.750000  1
  Ga  Ga10  1  0.000000  0.000000  0.000000  1
  Ga  Ga11  1  0.000000  0.000000  0.500000  1
  Rh  Rh12  1  0.168817  0.337633  0.124978  1
  Rh  Rh13  1  0.831183  0.662367  0.875022  1
  Rh  Rh14  1  0.662367  0.831183  0.124978  1
  Rh  Rh15  1  0.831183  0.662367  0.624978  1
  Rh  Rh16  1  0.337633  0.168817  0.875022  1
  Rh  Rh17  1  0.168817  0.337633  0.375022  1
  Rh  Rh18  1  0.168817  0.831183  0.124978  1
  Rh  Rh19  1  0.337633  0.168817  0.624978  1
  Rh  Rh20  1  0.831183  0.168817  0.875022  1
  Rh  Rh21  1  0.662367  0.831183  0.375022  1
  Rh  Rh22  1  0.831183  0.168817  0.624978  1
  Rh  Rh23  1  0.168817  0.831183  0.375022  1
