# generated using pymatgen
data_Nd4Al17SiIr6
_symmetry_space_group_name_H-M   'P 1'
_cell_length_a   7.59882459
_cell_length_b   7.58660127
_cell_length_c   9.58568187
_cell_angle_alpha   89.97646037
_cell_angle_beta   89.95295618
_cell_angle_gamma   119.57965934
_symmetry_Int_Tables_number   1
_chemical_formula_structural   Nd4Al17SiIr6
_chemical_formula_sum   'Nd4 Al17 Si1 Ir6'
_cell_volume   480.58582412
_cell_formula_units_Z   1
loop_
 _symmetry_equiv_pos_site_id
 _symmetry_equiv_pos_as_xyz
  1  'x, y, z'
loop_
 _atom_site_type_symbol
 _atom_site_label
 _atom_site_symmetry_multiplicity
 _atom_site_fract_x
 _atom_site_fract_y
 _atom_site_fract_z
 _atom_site_occupancy
  Nd  Nd0  1  0.994895  0.664785  0.247222  1
  Nd  Nd1  1  0.005137  0.330240  0.754051  1
  Nd  Nd2  1  0.674577  0.000486  0.247112  1
  Nd  Nd3  1  0.329595  0.005431  0.750827  1
  Al  Al4  1  0.130905  0.130441  0.249734  1
  Al  Al5  1  0.869648  0.871050  0.749840  1
  Al  Al6  1  0.996847  0.669558  0.925008  1
  Al  Al7  1  0.997770  0.665583  0.572393  1
  Al  Al8  1  0.334405  0.001139  0.427384  1
  Al  Al9  1  0.002801  0.334960  0.431672  1
  Al  Al10  1  0.664507  0.997508  0.572392  1
  Al  Al11  1  0.660261  0.992772  0.924841  1
  Al  Al12  1  0.334122  0.001478  0.073699  1
  Al  Al13  1  0.334623  0.333988  0.549404  1
  Al  Al14  1  0.666547  0.666944  0.450854  1
  Al  Al15  1  0.665457  0.665937  0.050485  1
  Al  Al16  1  0.337971  0.334871  0.950409  1
  Al  Al17  1  0.340840  0.546584  0.250424  1
  Al  Al18  1  0.660832  0.453139  0.750463  1
  Al  Al19  1  0.544276  0.339720  0.250016  1
  Al  Al20  1  0.452441  0.658640  0.749663  1
  Si  Si21  1  0.003038  0.334605  0.071722  1
  Ir  Ir22  1  0.679058  0.329144  0.001895  1
  Ir  Ir23  1  0.320354  0.663022  0.000530  1
  Ir  Ir24  1  0.328545  0.670401  0.499507  1
  Ir  Ir25  1  0.671202  0.329102  0.499046  1
  Ir  Ir26  1  0.999491  0.007700  0.000213  1
  Ir  Ir27  1  0.999852  0.000772  0.499197  1
