# generated using pymatgen
data_Y3Th2Sn3Br
_symmetry_space_group_name_H-M   'P 1'
_cell_length_a   9.34936500
_cell_length_b   9.34936546
_cell_length_c   6.65330500
_cell_angle_alpha   90.00000000
_cell_angle_beta   90.00000000
_cell_angle_gamma   119.99998775
_symmetry_Int_Tables_number   1
_chemical_formula_structural   Y3Th2Sn3Br
_chemical_formula_sum   'Y6 Th4 Sn6 Br2'
_cell_volume   503.65409529
_cell_formula_units_Z   2
loop_
 _symmetry_equiv_pos_site_id
 _symmetry_equiv_pos_as_xyz
  1  'x, y, z'
loop_
 _atom_site_type_symbol
 _atom_site_label
 _atom_site_symmetry_multiplicity
 _atom_site_fract_x
 _atom_site_fract_y
 _atom_site_fract_z
 _atom_site_occupancy
  Y  Y0  1  0.727584  0.000000  0.750000  1
  Y  Y1  1  0.727584  0.727584  0.250000  1
  Y  Y2  1  0.000000  0.272416  0.250000  1
  Y  Y3  1  0.000000  0.727584  0.750000  1
  Y  Y4  1  0.272416  0.272416  0.750000  1
  Y  Y5  1  0.272416  0.000000  0.250000  1
  Th  Th6  1  0.666667  0.333333  0.000000  1
  Th  Th7  1  0.333333  0.666667  0.500000  1
  Th  Th8  1  0.666667  0.333333  0.500000  1
  Th  Th9  1  0.333333  0.666667  0.000000  1
  Sn  Sn10  1  0.616028  0.616028  0.750000  1
  Sn  Sn11  1  0.000000  0.616028  0.250000  1
  Sn  Sn12  1  0.616028  0.000000  0.250000  1
  Sn  Sn13  1  0.383972  0.000000  0.750000  1
  Sn  Sn14  1  0.000000  0.383972  0.750000  1
  Sn  Sn15  1  0.383972  0.383972  0.250000  1
  Br  Br16  1  0.000000  0.000000  0.500000  1
  Br  Br17  1  0.000000  0.000000  0.000000  1
