# generated using pymatgen
data_Sc10Ga4BiTe
_symmetry_space_group_name_H-M   'P 1'
_cell_length_a   8.20668406
_cell_length_b   8.20124994
_cell_length_c   6.03797700
_cell_angle_alpha   90.00000000
_cell_angle_beta   90.00000000
_cell_angle_gamma   120.04733438
_symmetry_Int_Tables_number   1
_chemical_formula_structural   Sc10Ga4BiTe
_chemical_formula_sum   'Sc10 Ga4 Bi1 Te1'
_cell_volume   351.77300090
_cell_formula_units_Z   1
loop_
 _symmetry_equiv_pos_site_id
 _symmetry_equiv_pos_as_xyz
  1  'x, y, z'
loop_
 _atom_site_type_symbol
 _atom_site_label
 _atom_site_symmetry_multiplicity
 _atom_site_fract_x
 _atom_site_fract_y
 _atom_site_fract_z
 _atom_site_occupancy
  Sc  Sc0  1  0.312731  0.657579  0.000355  1
  Sc  Sc1  1  0.671470  0.333738  0.499694  1
  Sc  Sc2  1  0.671470  0.333738  0.000306  1
  Sc  Sc3  1  0.312731  0.657579  0.499645  1
  Sc  Sc4  1  0.230104  0.999528  0.250000  1
  Sc  Sc5  1  0.228810  0.230069  0.750000  1
  Sc  Sc6  1  0.016119  0.765717  0.750000  1
  Sc  Sc7  1  0.015211  0.249638  0.250000  1
  Sc  Sc8  1  0.768382  0.751691  0.250000  1
  Sc  Sc9  1  0.767672  0.018242  0.750000  1
  Ga  Ga10  1  0.997109  0.396803  0.750000  1
  Ga  Ga11  1  0.997641  0.600463  0.250000  1
  Ga  Ga12  1  0.398705  0.395301  0.250000  1
  Ga  Ga13  1  0.398450  0.003424  0.750000  1
  Bi  Bi14  1  0.605829  0.611176  0.750000  1
  Te  Te15  1  0.607565  0.995314  0.250000  1
