# generated using pymatgen
data_Tb3Yb5Ga4
_symmetry_space_group_name_H-M   'P 1'
_cell_length_a   5.07630700
_cell_length_b   6.79812133
_cell_length_c   9.21457483
_cell_angle_alpha   90.38418873
_cell_angle_beta   90.00000000
_cell_angle_gamma   90.00000000
_symmetry_Int_Tables_number   1
_chemical_formula_structural   Tb3Yb5Ga4
_chemical_formula_sum   'Tb3 Yb5 Ga4'
_cell_volume   317.98184714
_cell_formula_units_Z   1
loop_
 _symmetry_equiv_pos_site_id
 _symmetry_equiv_pos_as_xyz
  1  'x, y, z'
loop_
 _atom_site_type_symbol
 _atom_site_label
 _atom_site_symmetry_multiplicity
 _atom_site_fract_x
 _atom_site_fract_y
 _atom_site_fract_z
 _atom_site_occupancy
  Tb  Tb0  1  0.750000  0.691502  0.422048  1
  Tb  Tb1  1  0.250000  0.310349  0.577669  1
  Tb  Tb2  1  0.750000  0.178354  0.078295  1
  Yb  Yb3  1  0.250000  0.813757  0.920445  1
  Yb  Yb4  1  0.750000  0.514901  0.797032  1
  Yb  Yb5  1  0.250000  0.488115  0.205987  1
  Yb  Yb6  1  0.750000  0.013509  0.702665  1
  Yb  Yb7  1  0.250000  0.987430  0.296285  1
  Ga  Ga8  1  0.750000  0.237913  0.403113  1
  Ga  Ga9  1  0.250000  0.759667  0.591446  1
  Ga  Ga10  1  0.750000  0.738048  0.102534  1
  Ga  Ga11  1  0.250000  0.266456  0.902483  1
