# generated using pymatgen
data_Tb4MnTc3B16
_symmetry_space_group_name_H-M   'P 1'
_cell_length_a   3.56937500
_cell_length_b   5.96846800
_cell_length_c   11.55310494
_cell_angle_alpha   89.93358673
_cell_angle_beta   90.00000000
_cell_angle_gamma   90.00000000
_symmetry_Int_Tables_number   1
_chemical_formula_structural   Tb4MnTc3B16
_chemical_formula_sum   'Tb4 Mn1 Tc3 B16'
_cell_volume   246.12372187
_cell_formula_units_Z   1
loop_
 _symmetry_equiv_pos_site_id
 _symmetry_equiv_pos_as_xyz
  1  'x, y, z'
loop_
 _atom_site_type_symbol
 _atom_site_label
 _atom_site_symmetry_multiplicity
 _atom_site_fract_x
 _atom_site_fract_y
 _atom_site_fract_z
 _atom_site_occupancy
  Tb  Tb0  1  0.000000  0.626499  0.351809  1
  Tb  Tb1  1  0.000000  0.374944  0.648398  1
  Tb  Tb2  1  0.000000  0.126440  0.151469  1
  Tb  Tb3  1  0.000000  0.873474  0.847118  1
  Mn  Mn4  1  0.000000  0.868905  0.586000  1
  Tc  Tc5  1  0.000000  0.631950  0.086810  1
  Tc  Tc6  1  0.000000  0.367882  0.912453  1
  Tc  Tc7  1  0.000000  0.129191  0.415596  1
  B  B8  1  0.500000  0.784772  0.185775  1
  B  B9  1  0.500000  0.214330  0.813861  1
  B  B10  1  0.500000  0.284648  0.316047  1
  B  B11  1  0.500000  0.718423  0.682358  1
  B  B12  1  0.500000  0.864013  0.031500  1
  B  B13  1  0.500000  0.135834  0.968082  1
  B  B14  1  0.500000  0.363788  0.469051  1
  B  B15  1  0.500000  0.638804  0.532965  1
  B  B16  1  0.500000  0.885849  0.454843  1
  B  B17  1  0.500000  0.111375  0.547716  1
  B  B18  1  0.500000  0.386491  0.046854  1
  B  B19  1  0.500000  0.613771  0.952413  1
  B  B20  1  0.500000  0.974848  0.309100  1
  B  B21  1  0.500000  0.022448  0.690471  1
  B  B22  1  0.500000  0.475493  0.192474  1
  B  B23  1  0.500000  0.525830  0.806837  1
