# generated using pymatgen
data_Y3In3GaPt2
_symmetry_space_group_name_H-M   'P 1'
_cell_length_a   7.68161200
_cell_length_b   7.68161188
_cell_length_c   3.94289000
_cell_angle_alpha   90.00000000
_cell_angle_beta   90.00000000
_cell_angle_gamma   120.00000050
_symmetry_Int_Tables_number   1
_chemical_formula_structural   Y3In3GaPt2
_chemical_formula_sum   'Y3 In3 Ga1 Pt2'
_cell_volume   201.48838611
_cell_formula_units_Z   1
loop_
 _symmetry_equiv_pos_site_id
 _symmetry_equiv_pos_as_xyz
  1  'x, y, z'
loop_
 _atom_site_type_symbol
 _atom_site_label
 _atom_site_symmetry_multiplicity
 _atom_site_fract_x
 _atom_site_fract_y
 _atom_site_fract_z
 _atom_site_occupancy
  Y  Y0  1  0.394234  0.986530  0.500000  1
  Y  Y1  1  0.013470  0.407704  0.500000  1
  Y  Y2  1  0.592296  0.605766  0.500000  1
  In  In3  1  0.740941  0.999527  0.000000  1
  In  In4  1  0.258586  0.259059  0.000000  1
  In  In5  1  0.000473  0.741414  0.000000  1
  Ga  Ga6  1  0.666667  0.333333  0.000000  1
  Pt  Pt7  1  0.000000  0.000000  0.500000  1
  Pt  Pt8  1  0.333333  0.666667  0.000000  1
