# generated using pymatgen
data_Pr8Dy12Si15P
_symmetry_space_group_name_H-M   'P 1'
_cell_length_a   7.53327704
_cell_length_b   7.82371398
_cell_length_c   14.84558500
_cell_angle_alpha   90.00000000
_cell_angle_beta   90.00000000
_cell_angle_gamma   90.41729038
_symmetry_Int_Tables_number   1
_chemical_formula_structural   Pr8Dy12Si15P
_chemical_formula_sum   'Pr8 Dy12 Si15 P1'
_cell_volume   874.94892381
_cell_formula_units_Z   1
loop_
 _symmetry_equiv_pos_site_id
 _symmetry_equiv_pos_as_xyz
  1  'x, y, z'
loop_
 _atom_site_type_symbol
 _atom_site_label
 _atom_site_symmetry_multiplicity
 _atom_site_fract_x
 _atom_site_fract_y
 _atom_site_fract_z
 _atom_site_occupancy
  Pr  Pr0  1  0.020766  0.180246  0.402838  1
  Pr  Pr1  1  0.519643  0.321051  0.403300  1
  Pr  Pr2  1  0.481316  0.678143  0.901560  1
  Pr  Pr3  1  0.481316  0.678143  0.598440  1
  Pr  Pr4  1  0.983285  0.822276  0.601590  1
  Pr  Pr5  1  0.983285  0.822276  0.898410  1
  Pr  Pr6  1  0.519643  0.321051  0.096700  1
  Pr  Pr7  1  0.020766  0.180246  0.097162  1
  Dy  Dy8  1  0.318731  0.172231  0.625981  1
  Dy  Dy9  1  0.676893  0.821588  0.377189  1
  Dy  Dy10  1  0.654465  0.989558  0.750000  1
  Dy  Dy11  1  0.175775  0.680040  0.377185  1
  Dy  Dy12  1  0.819894  0.324114  0.877387  1
  Dy  Dy13  1  0.819894  0.324114  0.622613  1
  Dy  Dy14  1  0.843395  0.488373  0.250000  1
  Dy  Dy15  1  0.345477  0.012318  0.250000  1
  Dy  Dy16  1  0.318731  0.172231  0.874019  1
  Dy  Dy17  1  0.175775  0.680040  0.122815  1
  Dy  Dy18  1  0.676893  0.821588  0.122811  1
  Dy  Dy19  1  0.156185  0.509340  0.750000  1
  Si  Si20  1  0.468489  0.611393  0.250000  1
  Si  Si21  1  0.016743  0.126791  0.750000  1
  Si  Si22  1  0.527511  0.384723  0.750000  1
  Si  Si23  1  0.148258  0.467942  0.540133  1
  Si  Si24  1  0.969684  0.889708  0.250000  1
  Si  Si25  1  0.727230  0.119590  0.250000  1
  Si  Si26  1  0.854575  0.533621  0.039075  1
  Si  Si27  1  0.354230  0.968403  0.038414  1
  Si  Si28  1  0.148258  0.467942  0.959867  1
  Si  Si29  1  0.645046  0.030345  0.540360  1
  Si  Si30  1  0.354230  0.968403  0.461586  1
  Si  Si31  1  0.854575  0.533621  0.460925  1
  Si  Si32  1  0.776286  0.623418  0.750000  1
  Si  Si33  1  0.227077  0.381079  0.250000  1
  Si  Si34  1  0.645046  0.030345  0.959640  1
  P  P35  1  0.290631  0.863712  0.750000  1
