# generated using pymatgen
data_Ba10Sr2Nd4ScFe7O30
_symmetry_space_group_name_H-M   'P 1'
_cell_length_a   11.86432722
_cell_length_b   11.86432724
_cell_length_c   7.09378400
_cell_angle_alpha   89.96495414
_cell_angle_beta   89.96495414
_cell_angle_gamma   119.84777018
_symmetry_Int_Tables_number   1
_chemical_formula_structural   Ba10Sr2Nd4ScFe7O30
_chemical_formula_sum   'Ba10 Sr2 Nd4 Sc1 Fe7 O30'
_cell_volume   866.08128467
_cell_formula_units_Z   1
loop_
 _symmetry_equiv_pos_site_id
 _symmetry_equiv_pos_as_xyz
  1  'x, y, z'
loop_
 _atom_site_type_symbol
 _atom_site_label
 _atom_site_symmetry_multiplicity
 _atom_site_fract_x
 _atom_site_fract_y
 _atom_site_fract_z
 _atom_site_occupancy
  Ba  Ba0  1  0.000198  0.000747  0.496814  1
  Ba  Ba1  1  0.000737  0.000089  0.996889  1
  Ba  Ba2  1  0.334018  0.669469  0.018888  1
  Ba  Ba3  1  0.669873  0.333864  0.517408  1
  Ba  Ba4  1  0.830205  0.654239  0.833997  1
  Ba  Ba5  1  0.344961  0.169869  0.838030  1
  Ba  Ba6  1  0.826713  0.173458  0.835959  1
  Ba  Ba7  1  0.171208  0.346858  0.338655  1
  Ba  Ba8  1  0.653029  0.829074  0.334346  1
  Ba  Ba9  1  0.174263  0.825661  0.336975  1
  Sr  Sr10  1  0.519762  0.041152  0.169206  1
  Sr  Sr11  1  0.044953  0.521718  0.666651  1
  Nd  Nd12  1  0.960073  0.480043  0.168876  1
  Nd  Nd13  1  0.519610  0.479633  0.166641  1
  Nd  Nd14  1  0.478582  0.956603  0.668320  1
  Nd  Nd15  1  0.477922  0.521547  0.665179  1
  Sc  Sc16  1  0.664990  0.331997  0.978409  1
  Fe  Fe17  1  0.332086  0.664993  0.475387  1
  Fe  Fe18  1  0.177646  0.818530  0.836923  1
  Fe  Fe19  1  0.179925  0.359298  0.841555  1
  Fe  Fe20  1  0.643100  0.819317  0.835599  1
  Fe  Fe21  1  0.819600  0.176649  0.338411  1
  Fe  Fe22  1  0.819838  0.644621  0.336406  1
  Fe  Fe23  1  0.357313  0.179178  0.343616  1
  O  O24  1  0.937401  0.330398  0.462715  1
  O  O25  1  0.664237  0.602964  0.469985  1
  O  O26  1  0.391893  0.064802  0.486516  1
  O  O27  1  0.935253  0.603810  0.458312  1
  O  O28  1  0.672221  0.063491  0.486461  1
  O  O29  1  0.395204  0.334418  0.473735  1
  O  O30  1  0.065910  0.673014  0.988952  1
  O  O31  1  0.333766  0.397119  0.974820  1
  O  O32  1  0.602769  0.933842  0.960306  1
  O  O33  1  0.067225  0.393601  0.988521  1
  O  O34  1  0.330285  0.935881  0.963553  1
  O  O35  1  0.601508  0.665247  0.972500  1
  O  O36  1  0.417373  0.581538  0.330824  1
  O  O37  1  0.416395  0.830039  0.338210  1
  O  O38  1  0.170275  0.583662  0.324771  1
  O  O39  1  0.579428  0.419818  0.827340  1
  O  O40  1  0.581614  0.166109  0.819680  1
  O  O41  1  0.835050  0.419181  0.835360  1
  O  O42  1  0.754591  0.254002  0.162488  1
  O  O43  1  0.747849  0.504833  0.157529  1
  O  O44  1  0.495734  0.255678  0.163356  1
  O  O45  1  0.255623  0.753257  0.660700  1
  O  O46  1  0.256889  0.498989  0.661121  1
  O  O47  1  0.502689  0.747405  0.656232  1
  O  O48  1  0.097179  0.195078  0.732865  1
  O  O49  1  0.808465  0.899146  0.731612  1
  O  O50  1  0.091294  0.897032  0.728724  1
  O  O51  1  0.899525  0.809485  0.231457  1
  O  O52  1  0.193676  0.096691  0.232743  1
  O  O53  1  0.897908  0.090703  0.228440  1
