# generated using pymatgen
data_Be8V2TcOs
_symmetry_space_group_name_H-M   'P 1'
_cell_length_a   4.32560500
_cell_length_b   4.32560541
_cell_length_c   7.11259300
_cell_angle_alpha   90.00000000
_cell_angle_beta   90.00000000
_cell_angle_gamma   120.00000452
_symmetry_Int_Tables_number   1
_chemical_formula_structural   Be8V2TcOs
_chemical_formula_sum   'Be8 V2 Tc1 Os1'
_cell_volume   115.25302371
_cell_formula_units_Z   1
loop_
 _symmetry_equiv_pos_site_id
 _symmetry_equiv_pos_as_xyz
  1  'x, y, z'
loop_
 _atom_site_type_symbol
 _atom_site_label
 _atom_site_symmetry_multiplicity
 _atom_site_fract_x
 _atom_site_fract_y
 _atom_site_fract_z
 _atom_site_occupancy
  Be  Be0  1  0.000000  0.000000  0.999859  1
  Be  Be1  1  0.000000  0.000000  0.498844  1
  Be  Be2  1  0.830524  0.661048  0.249082  1
  Be  Be3  1  0.169223  0.830777  0.750776  1
  Be  Be4  1  0.661555  0.830777  0.750776  1
  Be  Be5  1  0.338952  0.169476  0.249082  1
  Be  Be6  1  0.830524  0.169476  0.249082  1
  Be  Be7  1  0.169223  0.338445  0.750776  1
  V  V8  1  0.666667  0.333333  0.938235  1
  V  V9  1  0.333333  0.666667  0.438266  1
  Tc  Tc10  1  0.666667  0.333333  0.562648  1
  Os  Os11  1  0.333333  0.666667  0.062574  1
