# generated using pymatgen
data_Ca3La(Ru2O7)2
_symmetry_space_group_name_H-M   'P 1'
_cell_length_a   7.33528015
_cell_length_b   7.32270236
_cell_length_c   7.33528000
_cell_angle_alpha   59.94316522
_cell_angle_beta   60.00000069
_cell_angle_gamma   59.94316499
_symmetry_Int_Tables_number   1
_chemical_formula_structural   Ca3La(Ru2O7)2
_chemical_formula_sum   'Ca3 La1 Ru4 O14'
_cell_volume   278.36598712
_cell_formula_units_Z   1
loop_
 _symmetry_equiv_pos_site_id
 _symmetry_equiv_pos_as_xyz
  1  'x, y, z'
loop_
 _atom_site_type_symbol
 _atom_site_label
 _atom_site_symmetry_multiplicity
 _atom_site_fract_x
 _atom_site_fract_y
 _atom_site_fract_z
 _atom_site_occupancy
  Ca  Ca0  1  0.625000  0.625000  0.125000  1
  Ca  Ca1  1  0.125000  0.625000  0.625000  1
  Ca  Ca2  1  0.625000  0.625000  0.625000  1
  La  La3  1  0.625000  0.125000  0.625000  1
  Ru  Ru4  1  0.625000  0.125000  0.125000  1
  Ru  Ru5  1  0.125000  0.625000  0.125000  1
  Ru  Ru6  1  0.125000  0.125000  0.625000  1
  Ru  Ru7  1  0.125000  0.125000  0.125000  1
  O  O8  1  0.194119  0.204636  0.800622  1
  O  O9  1  0.190907  0.810586  0.190907  1
  O  O10  1  0.449378  0.045364  0.055881  1
  O  O11  1  0.190907  0.810586  0.807600  1
  O  O12  1  0.059093  0.439414  0.442400  1
  O  O13  1  0.807600  0.810586  0.190907  1
  O  O14  1  0.442400  0.439414  0.059093  1
  O  O15  1  0.498126  0.505623  0.498126  1
  O  O16  1  0.055881  0.045364  0.449378  1
  O  O17  1  0.449378  0.045364  0.449378  1
  O  O18  1  0.059093  0.439414  0.059093  1
  O  O19  1  0.751874  0.744377  0.751874  1
  O  O20  1  0.800622  0.204636  0.800622  1
  O  O21  1  0.800622  0.204636  0.194119  1
