# generated using pymatgen
data_TbDy5HoCoI12
_symmetry_space_group_name_H-M   'P 1'
_cell_length_a   9.75617536
_cell_length_b   9.75197300
_cell_length_c   9.75006604
_cell_angle_alpha   106.75240794
_cell_angle_beta   106.87729478
_cell_angle_gamma   106.81612505
_symmetry_Int_Tables_number   1
_chemical_formula_structural   TbDy5HoCoI12
_chemical_formula_sum   'Tb1 Dy5 Ho1 Co1 I12'
_cell_volume   776.40709578
_cell_formula_units_Z   1
loop_
 _symmetry_equiv_pos_site_id
 _symmetry_equiv_pos_as_xyz
  1  'x, y, z'
loop_
 _atom_site_type_symbol
 _atom_site_label
 _atom_site_symmetry_multiplicity
 _atom_site_fract_x
 _atom_site_fract_y
 _atom_site_fract_z
 _atom_site_occupancy
  Tb  Tb0  1  0.710591  0.978832  0.907667  1
  Dy  Dy1  1  0.500352  0.500004  0.500189  1
  Dy  Dy2  1  0.021265  0.091377  0.286814  1
  Dy  Dy3  1  0.092065  0.286972  0.021083  1
  Dy  Dy4  1  0.286495  0.020915  0.091724  1
  Dy  Dy5  1  0.978432  0.908280  0.713027  1
  Ho  Ho6  1  0.909026  0.713898  0.979120  1
  Co  Co7  1  0.999290  0.999818  0.999758  1
  I  I8  1  0.161345  0.462396  0.385657  1
  I  I9  1  0.462784  0.385643  0.161159  1
  I  I10  1  0.385894  0.161120  0.462755  1
  I  I11  1  0.839254  0.537647  0.614502  1
  I  I12  1  0.537617  0.612561  0.839013  1
  I  I13  1  0.614294  0.838088  0.535369  1
  I  I14  1  0.677170  0.071411  0.226288  1
  I  I15  1  0.070751  0.223818  0.676584  1
  I  I16  1  0.223956  0.676493  0.070562  1
  I  I17  1  0.322161  0.928821  0.775505  1
  I  I18  1  0.929502  0.776109  0.323281  1
  I  I19  1  0.777754  0.325795  0.929944  1
