# generated using pymatgen
data_Yb5Er3(OsC2)4
_symmetry_space_group_name_H-M   'P 1'
_cell_length_a   5.10046000
_cell_length_b   6.41971982
_cell_length_c   10.05715503
_cell_angle_alpha   90.24833654
_cell_angle_beta   90.00000000
_cell_angle_gamma   90.00000000
_symmetry_Int_Tables_number   1
_chemical_formula_structural   Yb5Er3(OsC2)4
_chemical_formula_sum   'Yb5 Er3 Os4 C8'
_cell_volume   329.30360513
_cell_formula_units_Z   1
loop_
 _symmetry_equiv_pos_site_id
 _symmetry_equiv_pos_as_xyz
  1  'x, y, z'
loop_
 _atom_site_type_symbol
 _atom_site_label
 _atom_site_symmetry_multiplicity
 _atom_site_fract_x
 _atom_site_fract_y
 _atom_site_fract_z
 _atom_site_occupancy
  Yb  Yb0  1  0.250000  0.192511  0.947328  1
  Yb  Yb1  1  0.250000  0.532561  0.222803  1
  Yb  Yb2  1  0.750000  0.465092  0.778975  1
  Yb  Yb3  1  0.750000  0.966725  0.723580  1
  Yb  Yb4  1  0.250000  0.033491  0.277197  1
  Er  Er5  1  0.250000  0.683117  0.553582  1
  Er  Er6  1  0.750000  0.317853  0.442041  1
  Er  Er7  1  0.750000  0.816467  0.058855  1
  Os  Os8  1  0.250000  0.725846  0.855970  1
  Os  Os9  1  0.750000  0.275071  0.141610  1
  Os  Os10  1  0.750000  0.776927  0.361330  1
  Os  Os11  1  0.250000  0.224608  0.640948  1
  C  C12  1  0.250000  0.463920  0.754662  1
  C  C13  1  0.750000  0.540735  0.241795  1
  C  C14  1  0.750000  0.039875  0.260259  1
  C  C15  1  0.250000  0.959102  0.736110  1
  C  C16  1  0.250000  0.802757  0.036725  1
  C  C17  1  0.750000  0.182757  0.965696  1
  C  C18  1  0.750000  0.682427  0.539446  1
  C  C19  1  0.250000  0.318160  0.461086  1
