# generated using pymatgen
data_NdH4Pd
_symmetry_space_group_name_H-M   'P 1'
_cell_length_a   3.83035158
_cell_length_b   5.17582700
_cell_length_c   6.45545532
_cell_angle_alpha   90.00000000
_cell_angle_beta   107.20243067
_cell_angle_gamma   90.00000000
_symmetry_Int_Tables_number   1
_chemical_formula_structural   NdH4Pd
_chemical_formula_sum   'Nd2 H8 Pd2'
_cell_volume   122.25580995
_cell_formula_units_Z   2
loop_
 _symmetry_equiv_pos_site_id
 _symmetry_equiv_pos_as_xyz
  1  'x, y, z'
loop_
 _atom_site_type_symbol
 _atom_site_label
 _atom_site_symmetry_multiplicity
 _atom_site_fract_x
 _atom_site_fract_y
 _atom_site_fract_z
 _atom_site_occupancy
  Nd  Nd0  1  0.862594  0.750000  0.223708  1
  Nd  Nd1  1  0.137402  0.249999  0.776284  1
  H  H2  1  0.303384  0.989946  0.106800  1
  H  H3  1  0.303384  0.510053  0.106800  1
  H  H4  1  0.914184  0.249999  0.328106  1
  H  H5  1  0.500000  0.000000  0.500001  1
  H  H6  1  0.500000  0.500001  0.500001  1
  H  H7  1  0.085811  0.750000  0.671889  1
  H  H8  1  0.696619  0.489934  0.893201  1
  H  H9  1  0.696619  0.010065  0.893201  1
  Pd  Pd10  1  0.404982  0.249999  0.311126  1
  Pd  Pd11  1  0.595018  0.750000  0.688883  1
