# generated using pymatgen
data_PaTeCl9
_symmetry_space_group_name_H-M   'P 1'
_cell_length_a   6.94743689
_cell_length_b   10.25147426
_cell_length_c   12.24800397
_cell_angle_alpha   106.85906604
_cell_angle_beta   104.76615539
_cell_angle_gamma   91.07888440
_symmetry_Int_Tables_number   1
_chemical_formula_structural   PaTeCl9
_chemical_formula_sum   'Pa2 Te2 Cl18'
_cell_volume   803.19391228
_cell_formula_units_Z   2
loop_
 _symmetry_equiv_pos_site_id
 _symmetry_equiv_pos_as_xyz
  1  'x, y, z'
loop_
 _atom_site_type_symbol
 _atom_site_label
 _atom_site_symmetry_multiplicity
 _atom_site_fract_x
 _atom_site_fract_y
 _atom_site_fract_z
 _atom_site_occupancy
  Pa  Pa0  1  0.134135  0.274341  0.718071  1
  Pa  Pa1  1  0.865865  0.725659  0.281929  1
  Te  Te2  1  0.304020  0.333215  0.165907  1
  Te  Te3  1  0.695980  0.666785  0.834093  1
  Cl  Cl4  1  0.473122  0.136538  0.158563  1
  Cl  Cl5  1  0.526878  0.863462  0.841437  1
  Cl  Cl6  1  0.277099  0.365460  0.357602  1
  Cl  Cl7  1  0.722901  0.634540  0.642398  1
  Cl  Cl8  1  0.114041  0.745390  0.475589  1
  Cl  Cl9  1  0.885959  0.254610  0.524411  1
  Cl  Cl10  1  0.712091  0.488877  0.282567  1
  Cl  Cl11  1  0.287909  0.511123  0.717433  1
  Cl  Cl12  1  0.011963  0.947058  0.274053  1
  Cl  Cl13  1  0.988037  0.052942  0.725947  1
  Cl  Cl14  1  0.113933  0.593232  0.168936  1
  Cl  Cl15  1  0.886067  0.406768  0.831064  1
  Cl  Cl16  1  0.612714  0.691741  0.073777  1
  Cl  Cl17  1  0.387286  0.308259  0.926223  1
  Cl  Cl18  1  0.619293  0.845742  0.382686  1
  Cl  Cl19  1  0.380707  0.154258  0.617314  1
  Cl  Cl20  1  0.012946  0.786374  0.929325  1
  Cl  Cl21  1  0.987054  0.213626  0.070675  1
