# generated using pymatgen
data_Er16TcHg4Pd3
_symmetry_space_group_name_H-M   'P 1'
_cell_length_a   9.59782880
_cell_length_b   9.59782763
_cell_length_c   9.59782839
_cell_angle_alpha   59.41029333
_cell_angle_beta   59.41030139
_cell_angle_gamma   59.41029888
_symmetry_Int_Tables_number   1
_chemical_formula_structural   Er16TcHg4Pd3
_chemical_formula_sum   'Er16 Tc1 Hg4 Pd3'
_cell_volume   616.78927595
_cell_formula_units_Z   1
loop_
 _symmetry_equiv_pos_site_id
 _symmetry_equiv_pos_as_xyz
  1  'x, y, z'
loop_
 _atom_site_type_symbol
 _atom_site_label
 _atom_site_symmetry_multiplicity
 _atom_site_fract_x
 _atom_site_fract_y
 _atom_site_fract_z
 _atom_site_occupancy
  Er  Er0  1  0.354366  0.354366  0.354366  1
  Er  Er1  1  0.353711  0.353711  0.938403  1
  Er  Er2  1  0.353711  0.938403  0.353711  1
  Er  Er3  1  0.938403  0.353711  0.353711  1
  Er  Er4  1  0.817000  0.187435  0.187435  1
  Er  Er5  1  0.188898  0.810489  0.810489  1
  Er  Er6  1  0.187435  0.817000  0.187435  1
  Er  Er7  1  0.810489  0.188898  0.810489  1
  Er  Er8  1  0.187435  0.187435  0.817000  1
  Er  Er9  1  0.810489  0.810489  0.188898  1
  Er  Er10  1  0.935293  0.565750  0.565750  1
  Er  Er11  1  0.556509  0.937870  0.937870  1
  Er  Er12  1  0.565750  0.935293  0.565750  1
  Er  Er13  1  0.937870  0.556509  0.937870  1
  Er  Er14  1  0.565750  0.565750  0.935293  1
  Er  Er15  1  0.937870  0.937870  0.556509  1
  Tc  Tc16  1  0.145584  0.145584  0.145584  1
  Hg  Hg17  1  0.583145  0.583145  0.583145  1
  Hg  Hg18  1  0.584580  0.584580  0.244007  1
  Hg  Hg19  1  0.584580  0.244007  0.584580  1
  Hg  Hg20  1  0.244007  0.584580  0.584580  1
  Pd  Pd21  1  0.144964  0.144964  0.567194  1
  Pd  Pd22  1  0.144964  0.567194  0.144964  1
  Pd  Pd23  1  0.567194  0.144964  0.144964  1
