# generated using pymatgen
data_YbNb8NiSe16
_symmetry_space_group_name_H-M   'P 1'
_cell_length_a   6.98128000
_cell_length_b   6.98127978
_cell_length_c   13.71165700
_cell_angle_alpha   90.00000000
_cell_angle_beta   90.00000000
_cell_angle_gamma   120.00001052
_symmetry_Int_Tables_number   1
_chemical_formula_structural   YbNb8NiSe16
_chemical_formula_sum   'Yb1 Nb8 Ni1 Se16'
_cell_volume   578.74949649
_cell_formula_units_Z   1
loop_
 _symmetry_equiv_pos_site_id
 _symmetry_equiv_pos_as_xyz
  1  'x, y, z'
loop_
 _atom_site_type_symbol
 _atom_site_label
 _atom_site_symmetry_multiplicity
 _atom_site_fract_x
 _atom_site_fract_y
 _atom_site_fract_z
 _atom_site_occupancy
  Yb  Yb0  1  0.000000  0.000000  0.500000  1
  Nb  Nb1  1  0.000000  0.000000  0.230857  1
  Nb  Nb2  1  0.000000  0.000000  0.769143  1
  Nb  Nb3  1  0.507908  0.015815  0.230013  1
  Nb  Nb4  1  0.984185  0.492092  0.230013  1
  Nb  Nb5  1  0.507908  0.492092  0.230013  1
  Nb  Nb6  1  0.492092  0.984185  0.769987  1
  Nb  Nb7  1  0.015815  0.507908  0.769987  1
  Nb  Nb8  1  0.492092  0.507908  0.769987  1
  Ni  Ni9  1  0.000000  0.000000  0.000000  1
  Se  Se10  1  0.333333  0.666667  0.896012  1
  Se  Se11  1  0.666667  0.333333  0.103988  1
  Se  Se12  1  0.666667  0.333333  0.359138  1
  Se  Se13  1  0.333333  0.666667  0.640862  1
  Se  Se14  1  0.169120  0.830880  0.351878  1
  Se  Se15  1  0.169120  0.338240  0.351878  1
  Se  Se16  1  0.661760  0.830880  0.351878  1
  Se  Se17  1  0.830880  0.169120  0.648122  1
  Se  Se18  1  0.830880  0.661760  0.648122  1
  Se  Se19  1  0.338240  0.169120  0.648122  1
  Se  Se20  1  0.831972  0.168028  0.889951  1
  Se  Se21  1  0.831972  0.663944  0.889951  1
  Se  Se22  1  0.336056  0.168028  0.889951  1
  Se  Se23  1  0.168028  0.831972  0.110049  1
  Se  Se24  1  0.168028  0.336056  0.110049  1
  Se  Se25  1  0.663944  0.831972  0.110049  1
