# generated using pymatgen
data_Dy5CoRhO12
_symmetry_space_group_name_H-M   'P 1'
_cell_length_a   6.79688432
_cell_length_b   6.79688254
_cell_length_c   7.22170601
_cell_angle_alpha   74.46280335
_cell_angle_beta   74.46280828
_cell_angle_gamma   51.06969312
_symmetry_Int_Tables_number   1
_chemical_formula_structural   Dy5CoRhO12
_chemical_formula_sum   'Dy5 Co1 Rh1 O12'
_cell_volume   247.83161818
_cell_formula_units_Z   1
loop_
 _symmetry_equiv_pos_site_id
 _symmetry_equiv_pos_as_xyz
  1  'x, y, z'
loop_
 _atom_site_type_symbol
 _atom_site_label
 _atom_site_symmetry_multiplicity
 _atom_site_fract_x
 _atom_site_fract_y
 _atom_site_fract_z
 _atom_site_occupancy
  Dy  Dy0  1  0.311466  0.296142  0.357817  1
  Dy  Dy1  1  0.703858  0.688534  0.642183  1
  Dy  Dy2  1  0.310703  0.306531  0.832611  1
  Dy  Dy3  1  0.693469  0.689297  0.167389  1
  Dy  Dy4  1  0.997410  0.002590  0.500000  1
  Co  Co5  1  0.747323  0.252677  0.000000  1
  Rh  Rh6  1  0.237723  0.762277  0.000000  1
  O  O7  1  0.901170  0.419473  0.919325  1
  O  O8  1  0.427371  0.902859  0.917673  1
  O  O9  1  0.097141  0.572629  0.082327  1
  O  O10  1  0.580527  0.098830  0.080675  1
  O  O11  1  0.100354  0.597589  0.574581  1
  O  O12  1  0.599106  0.093531  0.575492  1
  O  O13  1  0.906469  0.400894  0.424508  1
  O  O14  1  0.402411  0.899646  0.425419  1
  O  O15  1  0.984575  0.016077  0.823115  1
  O  O16  1  0.983923  0.015425  0.176885  1
  O  O17  1  0.507840  0.492839  0.818919  1
  O  O18  1  0.507161  0.492160  0.181081  1
