# generated using pymatgen
data_TbHo3(Zn14Cu3)2
_symmetry_space_group_name_H-M   'P 1'
_cell_length_a   8.89305300
_cell_length_b   8.89305319
_cell_length_c   8.65276600
_cell_angle_alpha   90.00000000
_cell_angle_beta   90.00000000
_cell_angle_gamma   119.99925887
_symmetry_Int_Tables_number   1
_chemical_formula_structural   TbHo3(Zn14Cu3)2
_chemical_formula_sum   'Tb1 Ho3 Zn28 Cu6'
_cell_volume   592.63951436
_cell_formula_units_Z   1
loop_
 _symmetry_equiv_pos_site_id
 _symmetry_equiv_pos_as_xyz
  1  'x, y, z'
loop_
 _atom_site_type_symbol
 _atom_site_label
 _atom_site_symmetry_multiplicity
 _atom_site_fract_x
 _atom_site_fract_y
 _atom_site_fract_z
 _atom_site_occupancy
  Tb  Tb0  1  0.999991  0.000009  0.750000  1
  Ho  Ho1  1  0.000009  0.999991  0.250000  1
  Ho  Ho2  1  0.666694  0.333306  0.250000  1
  Ho  Ho3  1  0.333306  0.666694  0.750000  1
  Zn  Zn4  1  0.666679  0.333321  0.596231  1
  Zn  Zn5  1  0.333321  0.666679  0.403772  1
  Zn  Zn6  1  0.333321  0.666679  0.096228  1
  Zn  Zn7  1  0.666679  0.333321  0.903769  1
  Zn  Zn8  1  0.666485  0.034739  0.750000  1
  Zn  Zn9  1  0.368259  0.333491  0.750000  1
  Zn  Zn10  1  0.965275  0.631786  0.750000  1
  Zn  Zn11  1  0.368214  0.034725  0.750000  1
  Zn  Zn12  1  0.965261  0.333515  0.750000  1
  Zn  Zn13  1  0.666509  0.631741  0.750000  1
  Zn  Zn14  1  0.333427  0.965292  0.250000  1
  Zn  Zn15  1  0.631859  0.666597  0.250000  1
  Zn  Zn16  1  0.034695  0.368096  0.250000  1
  Zn  Zn17  1  0.631904  0.965305  0.250000  1
  Zn  Zn18  1  0.034708  0.666573  0.250000  1
  Zn  Zn19  1  0.333403  0.368141  0.250000  1
  Zn  Zn20  1  0.835082  0.670177  0.480021  1
  Zn  Zn21  1  0.835111  0.164889  0.480053  1
  Zn  Zn22  1  0.329823  0.164918  0.480021  1
  Zn  Zn23  1  0.164937  0.329862  0.519912  1
  Zn  Zn24  1  0.164908  0.835092  0.519880  1
  Zn  Zn25  1  0.670138  0.835063  0.519912  1
  Zn  Zn26  1  0.164937  0.329862  0.980088  1
  Zn  Zn27  1  0.164908  0.835092  0.980120  1
  Zn  Zn28  1  0.670138  0.835063  0.980088  1
  Zn  Zn29  1  0.835082  0.670177  0.019979  1
  Zn  Zn30  1  0.835111  0.164889  0.019947  1
  Zn  Zn31  1  0.329823  0.164918  0.019979  1
  Cu  Cu32  1  0.500003  0.000006  0.499984  1
  Cu  Cu33  1  0.500002  0.499998  0.499985  1
  Cu  Cu34  1  0.999994  0.499997  0.499984  1
  Cu  Cu35  1  0.500003  0.000006  0.000016  1
  Cu  Cu36  1  0.500002  0.499998  0.000015  1
  Cu  Cu37  1  0.999994  0.499997  0.000016  1
