# generated using pymatgen
data_Sr3Se2(BrO3)2
_symmetry_space_group_name_H-M   'P 1'
_cell_length_a   7.26110243
_cell_length_b   7.26110245
_cell_length_c   7.13166122
_cell_angle_alpha   83.53874388
_cell_angle_beta   83.53874236
_cell_angle_gamma   46.33979595
_symmetry_Int_Tables_number   1
_chemical_formula_structural   Sr3Se2(BrO3)2
_chemical_formula_sum   'Sr3 Se2 Br2 O6'
_cell_volume   269.97550639
_cell_formula_units_Z   1
loop_
 _symmetry_equiv_pos_site_id
 _symmetry_equiv_pos_as_xyz
  1  'x, y, z'
loop_
 _atom_site_type_symbol
 _atom_site_label
 _atom_site_symmetry_multiplicity
 _atom_site_fract_x
 _atom_site_fract_y
 _atom_site_fract_z
 _atom_site_occupancy
  Sr  Sr0  1  0.279375  0.289592  0.200681  1
  Sr  Sr1  1  0.710408  0.720625  0.799319  1
  Sr  Sr2  1  0.949751  0.050249  0.000000  1
  Se  Se3  1  0.403168  0.413807  0.748960  1
  Se  Se4  1  0.586193  0.596832  0.251040  1
  Br  Br5  1  0.167387  0.149986  0.618426  1
  Br  Br6  1  0.850014  0.832613  0.381574  1
  O  O7  1  0.868773  0.432814  0.107922  1
  O  O8  1  0.382876  0.877045  0.109716  1
  O  O9  1  0.122955  0.617124  0.890284  1
  O  O10  1  0.567186  0.131227  0.892078  1
  O  O11  1  0.514520  0.425606  0.212906  1
  O  O12  1  0.574394  0.485480  0.787094  1
