# generated using pymatgen
data_Dy5Ti2Si10P2Ir17
_symmetry_space_group_name_H-M   'P 1'
_cell_length_a   12.88318431
_cell_length_b   12.85388831
_cell_length_c   3.97211900
_cell_angle_alpha   90.00000000
_cell_angle_beta   90.00000000
_cell_angle_gamma   119.85047235
_symmetry_Int_Tables_number   1
_chemical_formula_structural   Dy5Ti2Si10P2Ir17
_chemical_formula_sum   'Dy5 Ti2 Si10 P2 Ir17'
_cell_volume   570.50968748
_cell_formula_units_Z   1
loop_
 _symmetry_equiv_pos_site_id
 _symmetry_equiv_pos_as_xyz
  1  'x, y, z'
loop_
 _atom_site_type_symbol
 _atom_site_label
 _atom_site_symmetry_multiplicity
 _atom_site_fract_x
 _atom_site_fract_y
 _atom_site_fract_z
 _atom_site_occupancy
  Dy  Dy0  1  0.331353  0.664582  0.500000  1
  Dy  Dy1  1  0.666546  0.335516  0.500000  1
  Dy  Dy2  1  0.002307  0.812831  0.000000  1
  Dy  Dy3  1  0.188723  0.186127  0.000000  1
  Dy  Dy4  1  0.814522  0.999423  0.000000  1
  Ti  Ti5  1  0.000255  0.436994  0.500000  1
  Ti  Ti6  1  0.561939  0.560960  0.500000  1
  Si  Si7  1  0.001794  0.635656  0.500000  1
  Si  Si8  1  0.365207  0.363359  0.500000  1
  Si  Si9  1  0.627781  0.000400  0.500000  1
  Si  Si10  1  0.517392  0.687655  0.000000  1
  Si  Si11  1  0.311545  0.831033  0.000000  1
  Si  Si12  1  0.170684  0.477987  0.000000  1
  Si  Si13  1  0.480222  0.168864  0.000000  1
  Si  Si14  1  0.692506  0.522483  0.000000  1
  Si  Si15  1  0.828321  0.311229  0.000000  1
  Si  Si16  1  0.997971  0.178640  0.500000  1
  P  P17  1  0.818378  0.821364  0.500000  1
  P  P18  1  0.180503  0.001037  0.500000  1
  Ir  Ir19  1  0.511506  0.873784  0.000000  1
  Ir  Ir20  1  0.129261  0.638123  0.000000  1
  Ir  Ir21  1  0.363038  0.485693  0.000000  1
  Ir  Ir22  1  0.492244  0.362867  0.000000  1
  Ir  Ir23  1  0.876444  0.514504  0.000000  1
  Ir  Ir24  1  0.636325  0.124632  0.000000  1
  Ir  Ir25  1  0.443171  0.998835  0.500000  1
  Ir  Ir26  1  0.996632  0.277630  0.000000  1
  Ir  Ir27  1  0.722034  0.726119  0.000000  1
  Ir  Ir28  1  0.279453  0.000165  0.000000  1
  Ir  Ir29  1  0.625306  0.809081  0.500000  1
  Ir  Ir30  1  0.192671  0.822042  0.500000  1
  Ir  Ir31  1  0.179784  0.372174  0.500000  1
  Ir  Ir32  1  0.371649  0.178145  0.500000  1
  Ir  Ir33  1  0.808366  0.631075  0.500000  1
  Ir  Ir34  1  0.814622  0.192423  0.500000  1
  Ir  Ir35  1  0.999547  0.996569  0.500000  1
