# generated using pymatgen
data_Pr2Al20OsRh3
_symmetry_space_group_name_H-M   'P 1'
_cell_length_a   6.89668474
_cell_length_b   6.88919697
_cell_length_c   9.22580032
_cell_angle_alpha   90.09893993
_cell_angle_beta   90.14638944
_cell_angle_gamma   97.26043870
_symmetry_Int_Tables_number   1
_chemical_formula_structural   Pr2Al20OsRh3
_chemical_formula_sum   'Pr2 Al20 Os1 Rh3'
_cell_volume   434.82494219
_cell_formula_units_Z   1
loop_
 _symmetry_equiv_pos_site_id
 _symmetry_equiv_pos_as_xyz
  1  'x, y, z'
loop_
 _atom_site_type_symbol
 _atom_site_label
 _atom_site_symmetry_multiplicity
 _atom_site_fract_x
 _atom_site_fract_y
 _atom_site_fract_z
 _atom_site_occupancy
  Pr  Pr0  1  0.871825  0.125540  0.750318  1
  Pr  Pr1  1  0.128175  0.874460  0.249682  1
  Al  Al2  1  0.621066  0.376380  0.547435  1
  Al  Al3  1  0.378934  0.623620  0.452565  1
  Al  Al4  1  0.378387  0.622167  0.049040  1
  Al  Al5  1  0.621613  0.377833  0.950960  1
  Al  Al6  1  0.223115  0.222636  0.499634  1
  Al  Al7  1  0.776885  0.777364  0.500366  1
  Al  Al8  1  0.775068  0.775301  0.999572  1
  Al  Al9  1  0.224932  0.224699  0.000428  1
  Al  Al10  1  0.841644  0.158583  0.104426  1
  Al  Al11  1  0.158356  0.841417  0.895574  1
  Al  Al12  1  0.158270  0.842419  0.603355  1
  Al  Al13  1  0.841730  0.157581  0.396645  1
  Al  Al14  1  0.857153  0.591605  0.749391  1
  Al  Al15  1  0.142847  0.408395  0.250609  1
  Al  Al16  1  0.408108  0.142338  0.749592  1
  Al  Al17  1  0.591892  0.857662  0.250408  1
  Al  Al18  1  0.225665  0.482463  0.749779  1
  Al  Al19  1  0.774335  0.517537  0.250221  1
  Al  Al20  1  0.517104  0.776029  0.746937  1
  Al  Al21  1  0.482896  0.223971  0.253063  1
  Os  Os22  1  0.500000  0.000000  0.500000  1
  Rh  Rh23  1  0.000000  0.500000  0.500000  1
  Rh  Rh24  1  0.000000  0.500000  0.000000  1
  Rh  Rh25  1  0.500000  0.000000  0.000000  1
