# generated using pymatgen
data_Y4Ho4Re3B24Rh
_symmetry_space_group_name_H-M   'P 1'
_cell_length_a   3.67652300
_cell_length_b   9.16196901
_cell_length_c   11.54781803
_cell_angle_alpha   90.15406492
_cell_angle_beta   90.00000000
_cell_angle_gamma   90.00000000
_symmetry_Int_Tables_number   1
_chemical_formula_structural   Y4Ho4Re3B24Rh
_chemical_formula_sum   'Y4 Ho4 Re3 B24 Rh1'
_cell_volume   388.97748790
_cell_formula_units_Z   1
loop_
 _symmetry_equiv_pos_site_id
 _symmetry_equiv_pos_as_xyz
  1  'x, y, z'
loop_
 _atom_site_type_symbol
 _atom_site_label
 _atom_site_symmetry_multiplicity
 _atom_site_fract_x
 _atom_site_fract_y
 _atom_site_fract_z
 _atom_site_occupancy
  Y  Y0  1  0.000000  0.318419  0.415458  1
  Y  Y1  1  0.000000  0.678336  0.590936  1
  Y  Y2  1  0.000000  0.826818  0.081479  1
  Y  Y3  1  0.000000  0.177324  0.912756  1
  Ho  Ho4  1  0.000000  0.943345  0.370047  1
  Ho  Ho5  1  0.000000  0.055800  0.628880  1
  Ho  Ho6  1  0.000000  0.441430  0.129086  1
  Ho  Ho7  1  0.000000  0.556652  0.871598  1
  Re  Re8  1  0.000000  0.362324  0.677772  1
  Re  Re9  1  0.000000  0.138458  0.180051  1
  Re  Re10  1  0.000000  0.861516  0.820836  1
  B  B11  1  0.500000  0.554140  0.433477  1
  B  B12  1  0.500000  0.446530  0.566859  1
  B  B13  1  0.500000  0.053640  0.066785  1
  B  B14  1  0.500000  0.946967  0.932447  1
  B  B15  1  0.500000  0.749166  0.419999  1
  B  B16  1  0.500000  0.250490  0.581225  1
  B  B17  1  0.500000  0.249465  0.081594  1
  B  B18  1  0.500000  0.751608  0.918616  1
  B  B19  1  0.500000  0.791002  0.265262  1
  B  B20  1  0.500000  0.208466  0.733873  1
  B  B21  1  0.500000  0.291723  0.235021  1
  B  B22  1  0.500000  0.708181  0.766044  1
  B  B23  1  0.500000  0.631753  0.184208  1
  B  B24  1  0.500000  0.369540  0.814010  1
  B  B25  1  0.500000  0.130646  0.314767  1
  B  B26  1  0.500000  0.868569  0.685582  1
  B  B27  1  0.500000  0.983196  0.212109  1
  B  B28  1  0.500000  0.017134  0.786822  1
  B  B29  1  0.500000  0.483492  0.287835  1
  B  B30  1  0.500000  0.517931  0.712605  1
  B  B31  1  0.500000  0.603670  0.029377  1
  B  B32  1  0.500000  0.397632  0.972228  1
  B  B33  1  0.500000  0.101597  0.471045  1
  B  B34  1  0.500000  0.895050  0.528185  1
  Rh  Rh35  1  0.000000  0.637993  0.321126  1
