# generated using pymatgen
data_Nd4Tc5B12Os
_symmetry_space_group_name_H-M   'P 1'
_cell_length_a   6.30096533
_cell_length_b   6.31292521
_cell_length_c   7.61034436
_cell_angle_alpha   90.53626014
_cell_angle_beta   90.70891724
_cell_angle_gamma   114.87948606
_symmetry_Int_Tables_number   1
_chemical_formula_structural   Nd4Tc5B12Os
_chemical_formula_sum   'Nd4 Tc5 B12 Os1'
_cell_volume   274.57014852
_cell_formula_units_Z   1
loop_
 _symmetry_equiv_pos_site_id
 _symmetry_equiv_pos_as_xyz
  1  'x, y, z'
loop_
 _atom_site_type_symbol
 _atom_site_label
 _atom_site_symmetry_multiplicity
 _atom_site_fract_x
 _atom_site_fract_y
 _atom_site_fract_z
 _atom_site_occupancy
  Nd  Nd0  1  0.092384  0.437290  0.326019  1
  Nd  Nd1  1  0.561185  0.907069  0.173863  1
  Nd  Nd2  1  0.907158  0.561973  0.673750  1
  Nd  Nd3  1  0.440774  0.093366  0.826460  1
  Tc  Tc4  1  0.585118  0.417806  0.251792  1
  Tc  Tc5  1  0.414964  0.583514  0.749464  1
  Tc  Tc6  1  0.988842  0.802346  0.087548  1
  Tc  Tc7  1  0.200193  0.011342  0.413916  1
  Tc  Tc8  1  0.011036  0.198625  0.911216  1
  B  B9  1  0.239162  0.152330  0.131052  1
  B  B10  1  0.850289  0.760849  0.367901  1
  B  B11  1  0.760917  0.848345  0.868021  1
  B  B12  1  0.149727  0.238334  0.631033  1
  B  B13  1  0.583782  0.158159  0.481095  1
  B  B14  1  0.842165  0.417505  0.017980  1
  B  B15  1  0.414558  0.839377  0.519050  1
  B  B16  1  0.158131  0.582810  0.982881  1
  B  B17  1  0.441542  0.349903  0.533740  1
  B  B18  1  0.650554  0.558979  0.966750  1
  B  B19  1  0.556831  0.649764  0.466627  1
  B  B20  1  0.349670  0.441508  0.033207  1
  Os  Os21  1  0.801021  0.988808  0.586637  1
