# generated using pymatgen
data_Tb10Ho2InGaNi4
_symmetry_space_group_name_H-M   'P 1'
_cell_length_a   8.38654804
_cell_length_b   8.38083643
_cell_length_c   8.38654860
_cell_angle_alpha   113.65368224
_cell_angle_beta   109.45516095
_cell_angle_gamma   105.43695844
_symmetry_Int_Tables_number   1
_chemical_formula_structural   Tb10Ho2InGaNi4
_chemical_formula_sum   'Tb10 Ho2 In1 Ga1 Ni4'
_cell_volume   451.27659430
_cell_formula_units_Z   1
loop_
 _symmetry_equiv_pos_site_id
 _symmetry_equiv_pos_as_xyz
  1  'x, y, z'
loop_
 _atom_site_type_symbol
 _atom_site_label
 _atom_site_symmetry_multiplicity
 _atom_site_fract_x
 _atom_site_fract_y
 _atom_site_fract_z
 _atom_site_occupancy
  Tb  Tb0  1  0.426030  0.229361  0.194624  1
  Tb  Tb1  1  0.573970  0.770639  0.805376  1
  Tb  Tb2  1  0.034738  0.229361  0.803331  1
  Tb  Tb3  1  0.965262  0.770639  0.196669  1
  Tb  Tb4  1  0.180449  0.288633  0.470195  1
  Tb  Tb5  1  0.819551  0.711367  0.529805  1
  Tb  Tb6  1  0.181564  0.711367  0.891817  1
  Tb  Tb7  1  0.818436  0.288633  0.108183  1
  Tb  Tb8  1  0.323833  0.634591  0.310760  1
  Tb  Tb9  1  0.676167  0.365409  0.689240  1
  Ho  Ho10  1  0.325025  0.014344  0.689319  1
  Ho  Ho11  1  0.674975  0.985656  0.310681  1
  In  In12  1  0.500000  0.500000  0.000000  1
  Ga  Ga13  1  0.000000  0.000000  0.000000  1
  Ni  Ni14  1  0.349933  0.000000  0.349933  1
  Ni  Ni15  1  0.650067  0.000000  0.650067  1
  Ni  Ni16  1  0.122634  0.623764  0.501131  1
  Ni  Ni17  1  0.877366  0.376236  0.498869  1
