# generated using pymatgen
data_Sr8Ta3Mn4NbO24
_symmetry_space_group_name_H-M   'P 1'
_cell_length_a   5.76384547
_cell_length_b   9.77076711
_cell_length_c   9.74761159
_cell_angle_alpha   101.19034931
_cell_angle_beta   87.92954940
_cell_angle_gamma   75.47022759
_symmetry_Int_Tables_number   1
_chemical_formula_structural   Sr8Ta3Mn4NbO24
_chemical_formula_sum   'Sr8 Ta3 Mn4 Nb1 O24'
_cell_volume   519.21441923
_cell_formula_units_Z   1
loop_
 _symmetry_equiv_pos_site_id
 _symmetry_equiv_pos_as_xyz
  1  'x, y, z'
loop_
 _atom_site_type_symbol
 _atom_site_label
 _atom_site_symmetry_multiplicity
 _atom_site_fract_x
 _atom_site_fract_y
 _atom_site_fract_z
 _atom_site_occupancy
  Sr  Sr0  1  0.314075  0.376260  0.562006  1
  Sr  Sr1  1  0.564232  0.876108  0.811965  1
  Sr  Sr2  1  0.814306  0.376104  0.061785  1
  Sr  Sr3  1  0.064534  0.876081  0.312030  1
  Sr  Sr4  1  0.685700  0.623863  0.438237  1
  Sr  Sr5  1  0.935731  0.123968  0.688075  1
  Sr  Sr6  1  0.185984  0.623768  0.937996  1
  Sr  Sr7  1  0.435554  0.123823  0.187943  1
  Ta  Ta8  1  0.499985  0.999742  0.499900  1
  Ta  Ta9  1  0.750015  0.500021  0.750002  1
  Ta  Ta10  1  0.000040  0.000257  0.000100  1
  Mn  Mn11  1  0.875238  0.249291  0.375449  1
  Mn  Mn12  1  0.124821  0.750352  0.625629  1
  Mn  Mn13  1  0.375102  0.249707  0.874363  1
  Mn  Mn14  1  0.624897  0.750630  0.124575  1
  Nb  Nb15  1  0.250012  0.499975  0.250000  1
  O  O16  1  0.059364  0.372776  0.313408  1
  O  O17  1  0.310561  0.873914  0.563075  1
  O  O18  1  0.560729  0.373672  0.812961  1
  O  O19  1  0.810607  0.873758  0.062959  1
  O  O20  1  0.689479  0.126188  0.437035  1
  O  O21  1  0.939234  0.626396  0.687062  1
  O  O22  1  0.189312  0.126161  0.936943  1
  O  O23  1  0.440638  0.627175  0.186576  1
  O  O24  1  0.197099  0.137222  0.471385  1
  O  O25  1  0.446994  0.637327  0.721570  1
  O  O26  1  0.696986  0.137189  0.971400  1
  O  O27  1  0.945725  0.637859  0.221361  1
  O  O28  1  0.802934  0.862781  0.528615  1
  O  O29  1  0.053015  0.362702  0.778395  1
  O  O30  1  0.302933  0.862791  0.028576  1
  O  O31  1  0.554215  0.362092  0.278655  1
  O  O32  1  0.762519  0.393738  0.549978  1
  O  O33  1  0.012577  0.893839  0.800077  1
  O  O34  1  0.262501  0.393094  0.048432  1
  O  O35  1  0.512629  0.893968  0.300069  1
  O  O36  1  0.237405  0.606964  0.451538  1
  O  O37  1  0.487367  0.106235  0.699911  1
  O  O38  1  0.737544  0.606235  0.950039  1
  O  O39  1  0.987405  0.105975  0.199929  1
