# generated using pymatgen
data_Ta3Ti9Al8(CoN)4
_symmetry_space_group_name_H-M   'P 1'
_cell_length_a   8.05259592
_cell_length_b   8.08134593
_cell_length_c   8.05851649
_cell_angle_alpha   59.83555837
_cell_angle_beta   60.20361006
_cell_angle_gamma   60.02560207
_symmetry_Int_Tables_number   1
_chemical_formula_structural   Ta3Ti9Al8(CoN)4
_chemical_formula_sum   'Ta3 Ti9 Al8 Co4 N4'
_cell_volume   370.99089902
_cell_formula_units_Z   1
loop_
 _symmetry_equiv_pos_site_id
 _symmetry_equiv_pos_as_xyz
  1  'x, y, z'
loop_
 _atom_site_type_symbol
 _atom_site_label
 _atom_site_symmetry_multiplicity
 _atom_site_fract_x
 _atom_site_fract_y
 _atom_site_fract_z
 _atom_site_occupancy
  Ta  Ta0  1  0.940028  0.939325  0.560526  1
  Ta  Ta1  1  0.687785  0.312694  0.688775  1
  Ta  Ta2  1  0.937533  0.562612  0.938757  1
  Ti  Ti3  1  0.563075  0.936652  0.561811  1
  Ti  Ti4  1  0.312226  0.688459  0.689883  1
  Ti  Ti5  1  0.688676  0.311703  0.310735  1
  Ti  Ti6  1  0.313753  0.687189  0.311080  1
  Ti  Ti7  1  0.688768  0.687785  0.312317  1
  Ti  Ti8  1  0.312725  0.311634  0.688235  1
  Ti  Ti9  1  0.561308  0.560740  0.939406  1
  Ti  Ti10  1  0.939172  0.561277  0.560576  1
  Ti  Ti11  1  0.562122  0.937951  0.939877  1
  Al  Al12  1  0.915798  0.918650  0.919859  1
  Al  Al13  1  0.002008  0.334527  0.330686  1
  Al  Al14  1  0.334378  0.001318  0.332675  1
  Al  Al15  1  0.330313  0.333165  0.003221  1
  Al  Al16  1  0.917133  0.247859  0.916296  1
  Al  Al17  1  0.916926  0.916027  0.246845  1
  Al  Al18  1  0.248463  0.917245  0.917898  1
  Al  Al19  1  0.332888  0.331879  0.332757  1
  Co  Co20  1  0.122911  0.124969  0.126689  1
  Co  Co21  1  0.624255  0.126895  0.123091  1
  Co  Co22  1  0.124808  0.625123  0.123879  1
  Co  Co23  1  0.123416  0.124568  0.624820  1
  N  N24  1  0.625004  0.628189  0.625524  1
  N  N25  1  0.130927  0.622079  0.621446  1
  N  N26  1  0.621691  0.124113  0.625232  1
  N  N27  1  0.621911  0.625372  0.127104  1
