# generated using pymatgen
data_Dy16InHg3(RuRh)2
_symmetry_space_group_name_H-M   'P 1'
_cell_length_a   9.62271948
_cell_length_b   9.60934535
_cell_length_c   9.60934550
_cell_angle_alpha   59.63826140
_cell_angle_beta   59.70622611
_cell_angle_gamma   59.70622978
_symmetry_Int_Tables_number   1
_chemical_formula_structural   Dy16InHg3(RuRh)2
_chemical_formula_sum   'Dy16 In1 Hg3 Ru2 Rh2'
_cell_volume   623.78782371
_cell_formula_units_Z   1
loop_
 _symmetry_equiv_pos_site_id
 _symmetry_equiv_pos_as_xyz
  1  'x, y, z'
loop_
 _atom_site_type_symbol
 _atom_site_label
 _atom_site_symmetry_multiplicity
 _atom_site_fract_x
 _atom_site_fract_y
 _atom_site_fract_z
 _atom_site_occupancy
  Dy  Dy0  1  0.690031  0.310655  0.310655  1
  Dy  Dy1  1  0.692226  0.688897  0.310548  1
  Dy  Dy2  1  0.310559  0.688366  0.310476  1
  Dy  Dy3  1  0.936048  0.939929  0.560441  1
  Dy  Dy4  1  0.149529  0.150747  0.548087  1
  Dy  Dy5  1  0.561024  0.940764  0.561134  1
  Dy  Dy6  1  0.148778  0.149505  0.149505  1
  Dy  Dy7  1  0.310559  0.310476  0.688366  1
  Dy  Dy8  1  0.940300  0.560016  0.560016  1
  Dy  Dy9  1  0.561024  0.561134  0.940764  1
  Dy  Dy10  1  0.561304  0.936425  0.936425  1
  Dy  Dy11  1  0.936048  0.560441  0.939929  1
  Dy  Dy12  1  0.149529  0.548087  0.150747  1
  Dy  Dy13  1  0.308859  0.691474  0.691474  1
  Dy  Dy14  1  0.692226  0.310548  0.688897  1
  Dy  Dy15  1  0.549155  0.149396  0.149396  1
  In  In16  1  0.918646  0.920970  0.920970  1
  Hg  Hg17  1  0.915184  0.915214  0.255944  1
  Hg  Hg18  1  0.255389  0.915337  0.915337  1
  Hg  Hg19  1  0.915184  0.255944  0.915214  1
  Ru  Ru20  1  0.360519  0.358528  0.358528  1
  Ru  Ru21  1  0.924959  0.355727  0.355727  1
  Rh  Rh22  1  0.356459  0.356628  0.924791  1
  Rh  Rh23  1  0.356459  0.924791  0.356628  1
