# generated using pymatgen
data_Tb12Pr4Cd4OsPt3
_symmetry_space_group_name_H-M   'P 1'
_cell_length_a   9.81714828
_cell_length_b   9.81884346
_cell_length_c   9.81884392
_cell_angle_alpha   59.83772258
_cell_angle_beta   59.63492409
_cell_angle_gamma   59.63492009
_symmetry_Int_Tables_number   1
_chemical_formula_structural   Tb12Pr4Cd4OsPt3
_chemical_formula_sum   'Tb12 Pr4 Cd4 Os1 Pt3'
_cell_volume   664.72630064
_cell_formula_units_Z   1
loop_
 _symmetry_equiv_pos_site_id
 _symmetry_equiv_pos_as_xyz
  1  'x, y, z'
loop_
 _atom_site_type_symbol
 _atom_site_label
 _atom_site_symmetry_multiplicity
 _atom_site_fract_x
 _atom_site_fract_y
 _atom_site_fract_z
 _atom_site_occupancy
  Tb  Tb0  1  0.351818  0.350974  0.350974  1
  Tb  Tb1  1  0.347237  0.348914  0.953335  1
  Tb  Tb2  1  0.347237  0.953335  0.348914  1
  Tb  Tb3  1  0.952218  0.347763  0.347763  1
  Tb  Tb4  1  0.817063  0.186804  0.186804  1
  Tb  Tb5  1  0.187036  0.810598  0.810598  1
  Tb  Tb6  1  0.188171  0.815763  0.188112  1
  Tb  Tb7  1  0.810143  0.185135  0.810098  1
  Tb  Tb8  1  0.188171  0.188112  0.815763  1
  Tb  Tb9  1  0.810143  0.810098  0.185135  1
  Tb  Tb10  1  0.941174  0.558594  0.558594  1
  Tb  Tb11  1  0.551785  0.943852  0.943852  1
  Pr  Pr12  1  0.564393  0.936499  0.565250  1
  Pr  Pr13  1  0.938517  0.558499  0.936672  1
  Pr  Pr14  1  0.564393  0.565250  0.936499  1
  Pr  Pr15  1  0.938517  0.936672  0.558499  1
  Cd  Cd16  1  0.582722  0.577971  0.577971  1
  Cd  Cd17  1  0.578069  0.583340  0.258530  1
  Cd  Cd18  1  0.578069  0.258530  0.583340  1
  Cd  Cd19  1  0.258971  0.578447  0.578447  1
  Os  Os20  1  0.145614  0.141288  0.141288  1
  Pt  Pt21  1  0.142662  0.146518  0.573768  1
  Pt  Pt22  1  0.142662  0.573768  0.146518  1
  Pt  Pt23  1  0.573219  0.143282  0.143282  1
