# generated using pymatgen
data_SrAc3Ti4O12
_symmetry_space_group_name_H-M   'P 1'
_cell_length_a   8.04415100
_cell_length_b   5.67369580
_cell_length_c   5.66123792
_cell_angle_alpha   90.01045852
_cell_angle_beta   90.00000000
_cell_angle_gamma   90.00000000
_symmetry_Int_Tables_number   1
_chemical_formula_structural   SrAc3Ti4O12
_chemical_formula_sum   'Sr1 Ac3 Ti4 O12'
_cell_volume   258.37926634
_cell_formula_units_Z   1
loop_
 _symmetry_equiv_pos_site_id
 _symmetry_equiv_pos_as_xyz
  1  'x, y, z'
loop_
 _atom_site_type_symbol
 _atom_site_label
 _atom_site_symmetry_multiplicity
 _atom_site_fract_x
 _atom_site_fract_y
 _atom_site_fract_z
 _atom_site_occupancy
  Sr  Sr0  1  0.500000  0.496853  0.514345  1
  Ac  Ac1  1  0.500000  0.001047  0.013624  1
  Ac  Ac2  1  0.000000  0.501420  0.487003  1
  Ac  Ac3  1  0.000000  0.000434  0.986298  1
  Ti  Ti4  1  0.253010  0.000559  0.499896  1
  Ti  Ti5  1  0.747285  0.499620  0.999867  1
  Ti  Ti6  1  0.746990  0.000559  0.499896  1
  Ti  Ti7  1  0.252715  0.499620  0.999867  1
  O  O8  1  0.267501  0.226833  0.773058  1
  O  O9  1  0.731899  0.269120  0.268932  1
  O  O10  1  0.772037  0.772281  0.227469  1
  O  O11  1  0.226735  0.730816  0.730619  1
  O  O12  1  0.227963  0.772281  0.227469  1
  O  O13  1  0.773265  0.730816  0.730619  1
  O  O14  1  0.732499  0.226833  0.773058  1
  O  O15  1  0.268101  0.269120  0.268932  1
  O  O16  1  0.500000  0.539241  0.995664  1
  O  O17  1  0.500000  0.961325  0.496495  1
  O  O18  1  0.000000  0.460406  0.003884  1
  O  O19  1  0.000000  0.040820  0.503002  1
