# generated using pymatgen
data_Dy6Ho5TmRu4
_symmetry_space_group_name_H-M   'P 1'
_cell_length_a   6.29319308
_cell_length_b   7.29656795
_cell_length_c   9.12773957
_cell_angle_alpha   89.98214542
_cell_angle_beta   90.02726991
_cell_angle_gamma   89.94539828
_symmetry_Int_Tables_number   1
_chemical_formula_structural   Dy6Ho5TmRu4
_chemical_formula_sum   'Dy6 Ho5 Tm1 Ru4'
_cell_volume   419.13377694
_cell_formula_units_Z   1
loop_
 _symmetry_equiv_pos_site_id
 _symmetry_equiv_pos_as_xyz
  1  'x, y, z'
loop_
 _atom_site_type_symbol
 _atom_site_label
 _atom_site_symmetry_multiplicity
 _atom_site_fract_x
 _atom_site_fract_y
 _atom_site_fract_z
 _atom_site_occupancy
  Dy  Dy0  1  0.633370  0.040878  0.250485  1
  Dy  Dy1  1  0.367045  0.959475  0.749586  1
  Dy  Dy2  1  0.132979  0.459027  0.749501  1
  Dy  Dy3  1  0.866561  0.540563  0.250489  1
  Dy  Dy4  1  0.169654  0.176714  0.064287  1
  Dy  Dy5  1  0.830378  0.823474  0.935672  1
  Ho  Ho6  1  0.669188  0.323569  0.935169  1
  Ho  Ho7  1  0.830279  0.823601  0.564099  1
  Ho  Ho8  1  0.330841  0.676278  0.064379  1
  Ho  Ho9  1  0.169530  0.176541  0.436111  1
  Ho  Ho10  1  0.331022  0.676047  0.436038  1
  Tm  Tm11  1  0.669155  0.323891  0.564455  1
  Ru  Ru12  1  0.461663  0.385231  0.250718  1
  Ru  Ru13  1  0.538862  0.614311  0.749554  1
  Ru  Ru14  1  0.960472  0.115230  0.749333  1
  Ru  Ru15  1  0.039003  0.885170  0.250126  1
