# generated using pymatgen
data_Ho16In6FeNi
_symmetry_space_group_name_H-M   'P 1'
_cell_length_a   10.35294000
_cell_length_b   10.35293996
_cell_length_c   6.99145900
_cell_angle_alpha   90.00000000
_cell_angle_beta   90.00000000
_cell_angle_gamma   120.00000012
_symmetry_Int_Tables_number   1
_chemical_formula_structural   Ho16In6FeNi
_chemical_formula_sum   'Ho16 In6 Fe1 Ni1'
_cell_volume   648.97181979
_cell_formula_units_Z   1
loop_
 _symmetry_equiv_pos_site_id
 _symmetry_equiv_pos_as_xyz
  1  'x, y, z'
loop_
 _atom_site_type_symbol
 _atom_site_label
 _atom_site_symmetry_multiplicity
 _atom_site_fract_x
 _atom_site_fract_y
 _atom_site_fract_z
 _atom_site_occupancy
  Ho  Ho0  1  0.535950  0.071899  0.521667  1
  Ho  Ho1  1  0.928101  0.464050  0.521667  1
  Ho  Ho2  1  0.535950  0.464050  0.521667  1
  Ho  Ho3  1  0.466835  0.933671  0.023935  1
  Ho  Ho4  1  0.066329  0.533165  0.023935  1
  Ho  Ho5  1  0.466835  0.533165  0.023935  1
  Ho  Ho6  1  0.177920  0.355840  0.727184  1
  Ho  Ho7  1  0.644160  0.822080  0.727184  1
  Ho  Ho8  1  0.177920  0.822080  0.727184  1
  Ho  Ho9  1  0.821133  0.642266  0.229488  1
  Ho  Ho10  1  0.357734  0.178867  0.229488  1
  Ho  Ho11  1  0.821133  0.178867  0.229488  1
  Ho  Ho12  1  0.666667  0.333333  0.910255  1
  Ho  Ho13  1  0.333333  0.666667  0.409438  1
  Ho  Ho14  1  0.000000  0.000000  0.510245  1
  Ho  Ho15  1  0.000000  0.000000  0.007567  1
  In  In16  1  0.837959  0.675920  0.769712  1
  In  In17  1  0.324080  0.162041  0.769712  1
  In  In18  1  0.837959  0.162041  0.769712  1
  In  In19  1  0.163099  0.326199  0.268824  1
  In  In20  1  0.673801  0.836901  0.268824  1
  In  In21  1  0.163099  0.836901  0.268824  1
  Fe  Fe22  1  0.666667  0.333333  0.298177  1
  Ni  Ni23  1  0.333333  0.666667  0.797570  1
