# generated using pymatgen
data_Gd4MoSe5O24
_symmetry_space_group_name_H-M   'P 1'
_cell_length_a   10.19657968
_cell_length_b   10.13825507
_cell_length_c   10.13829916
_cell_angle_alpha   58.26522499
_cell_angle_beta   57.98879186
_cell_angle_gamma   57.98918653
_symmetry_Int_Tables_number   1
_chemical_formula_structural   Gd4MoSe5O24
_chemical_formula_sum   'Gd4 Mo1 Se5 O24'
_cell_volume   708.46615661
_cell_formula_units_Z   1
loop_
 _symmetry_equiv_pos_site_id
 _symmetry_equiv_pos_as_xyz
  1  'x, y, z'
loop_
 _atom_site_type_symbol
 _atom_site_label
 _atom_site_symmetry_multiplicity
 _atom_site_fract_x
 _atom_site_fract_y
 _atom_site_fract_z
 _atom_site_occupancy
  Gd  Gd0  1  0.640995  0.639151  0.645908  1
  Gd  Gd1  1  0.348081  0.362886  0.355143  1
  Gd  Gd2  1  0.151920  0.144860  0.137108  1
  Gd  Gd3  1  0.859003  0.854095  0.860850  1
  Mo  Mo4  1  0.749999  0.038998  0.461004  1
  Se  Se5  1  0.960703  0.534770  0.252584  1
  Se  Se6  1  0.539296  0.247416  0.965232  1
  Se  Se7  1  0.467045  0.749108  0.034924  1
  Se  Se8  1  0.032955  0.465078  0.750890  1
  Se  Se9  1  0.250002  0.964423  0.535574  1
  O  O10  1  0.928687  0.067637  0.281904  1
  O  O11  1  0.776556  0.005788  0.638304  1
  O  O12  1  0.994401  0.371007  0.223254  1
  O  O13  1  0.707085  0.080938  0.942294  1
  O  O14  1  0.571309  0.218095  0.432362  1
  O  O15  1  0.869259  0.493139  0.727142  1
  O  O16  1  0.505599  0.276749  0.128991  1
  O  O17  1  0.792915  0.557708  0.419063  1
  O  O18  1  0.932966  0.704121  0.089275  1
  O  O19  1  0.567034  0.410725  0.795882  1
  O  O20  1  0.377423  0.222398  0.991222  1
  O  O21  1  0.274803  0.128977  0.506347  1
  O  O22  1  0.723444  0.861698  0.494209  1
  O  O23  1  0.630744  0.772858  0.006856  1
  O  O24  1  0.436303  0.585268  0.202754  1
  O  O25  1  0.063693  0.297245  0.914729  1
  O  O26  1  0.199753  0.439570  0.583836  1
  O  O27  1  0.496038  0.724140  0.870272  1
  O  O28  1  0.122576  0.508780  0.277601  1
  O  O29  1  0.415155  0.796145  0.563318  1
  O  O30  1  0.300248  0.916165  0.060433  1
  O  O31  1  0.003962  0.629728  0.775861  1
  O  O32  1  0.225199  0.993651  0.371021  1
  O  O33  1  0.084850  0.936683  0.703856  1
