# generated using pymatgen
data_Ho12Ga9Si11
_symmetry_space_group_name_H-M   'P 1'
_cell_length_a   5.93750316
_cell_length_b   5.93750269
_cell_length_c   18.59346400
_cell_angle_alpha   90.00000000
_cell_angle_beta   90.00000000
_cell_angle_gamma   102.75028367
_symmetry_Int_Tables_number   1
_chemical_formula_structural   Ho12Ga9Si11
_chemical_formula_sum   'Ho12 Ga9 Si11'
_cell_volume   639.32923250
_cell_formula_units_Z   1
loop_
 _symmetry_equiv_pos_site_id
 _symmetry_equiv_pos_as_xyz
  1  'x, y, z'
loop_
 _atom_site_type_symbol
 _atom_site_label
 _atom_site_symmetry_multiplicity
 _atom_site_fract_x
 _atom_site_fract_y
 _atom_site_fract_z
 _atom_site_occupancy
  Ho  Ho0  1  0.654106  0.654106  0.000000  1
  Ho  Ho1  1  0.660884  0.660884  0.500000  1
  Ho  Ho2  1  0.340328  0.340328  0.249657  1
  Ho  Ho3  1  0.340328  0.340328  0.750343  1
  Ho  Ho4  1  0.201624  0.800394  0.126002  1
  Ho  Ho5  1  0.198820  0.801642  0.625230  1
  Ho  Ho6  1  0.201624  0.800394  0.873998  1
  Ho  Ho7  1  0.198820  0.801642  0.374770  1
  Ho  Ho8  1  0.800394  0.201624  0.126002  1
  Ho  Ho9  1  0.801642  0.198820  0.625230  1
  Ho  Ho10  1  0.801642  0.198820  0.374770  1
  Ho  Ho11  1  0.800394  0.201624  0.873998  1
  Ga  Ga12  1  0.317569  0.317569  0.904010  1
  Ga  Ga13  1  0.323989  0.323989  0.401898  1
  Ga  Ga14  1  0.677053  0.677053  0.347697  1
  Ga  Ga15  1  0.678598  0.678598  0.848025  1
  Ga  Ga16  1  0.317569  0.317569  0.095990  1
  Ga  Ga17  1  0.323989  0.323989  0.598102  1
  Ga  Ga18  1  0.678598  0.678598  0.151975  1
  Ga  Ga19  1  0.677053  0.677053  0.652303  1
  Ga  Ga20  1  0.040496  0.040496  0.000000  1
  Si  Si21  1  0.491267  0.088021  0.000000  1
  Si  Si22  1  0.484219  0.088805  0.500000  1
  Si  Si23  1  0.913181  0.517208  0.250018  1
  Si  Si24  1  0.913181  0.517208  0.749982  1
  Si  Si25  1  0.517208  0.913181  0.250018  1
  Si  Si26  1  0.517208  0.913181  0.749982  1
  Si  Si27  1  0.088021  0.491267  0.000000  1
  Si  Si28  1  0.088805  0.484219  0.500000  1
  Si  Si29  1  0.052533  0.052533  0.500000  1
  Si  Si30  1  0.949429  0.949429  0.249993  1
  Si  Si31  1  0.949429  0.949429  0.750007  1
