# generated using pymatgen
data_U4Mn5FeSi2
_symmetry_space_group_name_H-M   'P 1'
_cell_length_a   5.13175319
_cell_length_b   5.12175973
_cell_length_c   7.77551300
_cell_angle_alpha   90.00000000
_cell_angle_beta   90.00000000
_cell_angle_gamma   60.25242581
_symmetry_Int_Tables_number   1
_chemical_formula_structural   U4Mn5FeSi2
_chemical_formula_sum   'U4 Mn5 Fe1 Si2'
_cell_volume   177.43680576
_cell_formula_units_Z   1
loop_
 _symmetry_equiv_pos_site_id
 _symmetry_equiv_pos_as_xyz
  1  'x, y, z'
loop_
 _atom_site_type_symbol
 _atom_site_label
 _atom_site_symmetry_multiplicity
 _atom_site_fract_x
 _atom_site_fract_y
 _atom_site_fract_z
 _atom_site_occupancy
  U  U0  1  0.334832  0.333354  0.576041  1
  U  U1  1  0.665668  0.667177  0.425171  1
  U  U2  1  0.665668  0.667177  0.074829  1
  U  U3  1  0.334832  0.333354  0.923959  1
  Mn  Mn4  1  0.832841  0.337671  0.750000  1
  Mn  Mn5  1  0.337674  0.832084  0.750000  1
  Mn  Mn6  1  0.831557  0.830689  0.750000  1
  Mn  Mn7  1  0.168191  0.661183  0.250000  1
  Mn  Mn8  1  0.661327  0.168777  0.250000  1
  Fe  Fe9  1  0.166825  0.167940  0.250000  1
  Si  Si10  1  0.000292  0.000297  0.499727  1
  Si  Si11  1  0.000292  0.000297  0.000273  1
