# generated using pymatgen
data_Tb8DyEr(SiB4)4
_symmetry_space_group_name_H-M   'P 1'
_cell_length_a   7.24888900
_cell_length_b   7.24888900
_cell_length_c   8.12554200
_cell_angle_alpha   90.00000000
_cell_angle_beta   90.00000000
_cell_angle_gamma   90.00000000
_symmetry_Int_Tables_number   1
_chemical_formula_structural   Tb8DyEr(SiB4)4
_chemical_formula_sum   'Tb8 Dy1 Er1 Si4 B16'
_cell_volume   426.96791299
_cell_formula_units_Z   1
loop_
 _symmetry_equiv_pos_site_id
 _symmetry_equiv_pos_as_xyz
  1  'x, y, z'
loop_
 _atom_site_type_symbol
 _atom_site_label
 _atom_site_symmetry_multiplicity
 _atom_site_fract_x
 _atom_site_fract_y
 _atom_site_fract_z
 _atom_site_occupancy
  Tb  Tb0  1  0.680374  0.180123  0.224548  1
  Tb  Tb1  1  0.319626  0.819877  0.775452  1
  Tb  Tb2  1  0.319626  0.819877  0.224548  1
  Tb  Tb3  1  0.819877  0.680374  0.224548  1
  Tb  Tb4  1  0.819877  0.680374  0.775452  1
  Tb  Tb5  1  0.680374  0.180123  0.775452  1
  Tb  Tb6  1  0.180123  0.319626  0.775452  1
  Tb  Tb7  1  0.180123  0.319626  0.224548  1
  Dy  Dy8  1  0.500000  0.500000  0.500000  1
  Er  Er9  1  0.000000  0.000000  0.500000  1
  Si  Si10  1  0.114102  0.615828  0.500000  1
  Si  Si11  1  0.885898  0.384172  0.500000  1
  Si  Si12  1  0.384172  0.114102  0.500000  1
  Si  Si13  1  0.615828  0.885898  0.500000  1
  B  B14  1  0.172233  0.039065  0.000000  1
  B  B15  1  0.827767  0.960935  0.000000  1
  B  B16  1  0.960935  0.172233  0.000000  1
  B  B17  1  0.327777  0.539120  0.000000  1
  B  B18  1  0.039065  0.827767  0.000000  1
  B  B19  1  0.672223  0.460880  0.000000  1
  B  B20  1  0.539120  0.672223  0.000000  1
  B  B21  1  0.460880  0.327777  0.000000  1
  B  B22  1  0.089945  0.589897  0.000000  1
  B  B23  1  0.910055  0.410103  0.000000  1
  B  B24  1  0.410103  0.089945  0.000000  1
  B  B25  1  0.589897  0.910055  0.000000  1
  B  B26  1  0.000000  0.000000  0.161829  1
  B  B27  1  0.000000  0.000000  0.838171  1
  B  B28  1  0.500000  0.500000  0.838495  1
  B  B29  1  0.500000  0.500000  0.161505  1
