# generated using pymatgen
data_La2MnAl20Ir2Ru
_symmetry_space_group_name_H-M   'P 1'
_cell_length_a   6.91169974
_cell_length_b   6.90649459
_cell_length_c   9.20153887
_cell_angle_alpha   89.88353039
_cell_angle_beta   89.99606511
_cell_angle_gamma   96.98267678
_symmetry_Int_Tables_number   1
_chemical_formula_structural   La2MnAl20Ir2Ru
_chemical_formula_sum   'La2 Mn1 Al20 Ir2 Ru1'
_cell_volume   435.98233904
_cell_formula_units_Z   1
loop_
 _symmetry_equiv_pos_site_id
 _symmetry_equiv_pos_as_xyz
  1  'x, y, z'
loop_
 _atom_site_type_symbol
 _atom_site_label
 _atom_site_symmetry_multiplicity
 _atom_site_fract_x
 _atom_site_fract_y
 _atom_site_fract_z
 _atom_site_occupancy
  La  La0  1  0.873405  0.120905  0.751908  1
  La  La1  1  0.126595  0.879095  0.248092  1
  Mn  Mn2  1  0.500000  0.000000  0.000000  1
  Al  Al3  1  0.619593  0.376773  0.551662  1
  Al  Al4  1  0.380407  0.623227  0.448338  1
  Al  Al5  1  0.382104  0.627202  0.050281  1
  Al  Al6  1  0.617896  0.372798  0.949719  1
  Al  Al7  1  0.228588  0.224973  0.499680  1
  Al  Al8  1  0.771412  0.775027  0.500320  1
  Al  Al9  1  0.767588  0.777563  0.998272  1
  Al  Al10  1  0.232412  0.222437  0.001728  1
  Al  Al11  1  0.833560  0.157970  0.101394  1
  Al  Al12  1  0.166440  0.842030  0.898606  1
  Al  Al13  1  0.161852  0.839666  0.603473  1
  Al  Al14  1  0.838148  0.160334  0.396527  1
  Al  Al15  1  0.857822  0.590801  0.750628  1
  Al  Al16  1  0.142178  0.409199  0.249372  1
  Al  Al17  1  0.412648  0.138099  0.753303  1
  Al  Al18  1  0.587352  0.861901  0.246697  1
  Al  Al19  1  0.223909  0.482344  0.749775  1
  Al  Al20  1  0.776091  0.517656  0.250225  1
  Al  Al21  1  0.517046  0.779209  0.752648  1
  Al  Al22  1  0.482954  0.220791  0.247352  1
  Ir  Ir23  1  0.000000  0.500000  0.500000  1
  Ir  Ir24  1  0.000000  0.500000  0.000000  1
  Ru  Ru25  1  0.500000  0.000000  0.500000  1
