# generated using pymatgen
data_Ti13Al9ReRh7
_symmetry_space_group_name_H-M   'P 1'
_cell_length_a   8.74668896
_cell_length_b   8.74668929
_cell_length_c   8.74669004
_cell_angle_alpha   59.65835188
_cell_angle_beta   59.65835370
_cell_angle_gamma   59.65836207
_symmetry_Int_Tables_number   1
_chemical_formula_structural   Ti13Al9ReRh7
_chemical_formula_sum   'Ti13 Al9 Re1 Rh7'
_cell_volume   469.49589799
_cell_formula_units_Z   1
loop_
 _symmetry_equiv_pos_site_id
 _symmetry_equiv_pos_as_xyz
  1  'x, y, z'
loop_
 _atom_site_type_symbol
 _atom_site_label
 _atom_site_symmetry_multiplicity
 _atom_site_fract_x
 _atom_site_fract_y
 _atom_site_fract_z
 _atom_site_occupancy
  Ti  Ti0  1  0.214079  0.214079  0.786824  1
  Ti  Ti1  1  0.786824  0.214079  0.214079  1
  Ti  Ti2  1  0.214079  0.786824  0.214079  1
  Ti  Ti3  1  0.797640  0.797640  0.187048  1
  Ti  Ti4  1  0.187048  0.797640  0.797640  1
  Ti  Ti5  1  0.797640  0.187048  0.797640  1
  Ti  Ti6  1  0.377842  0.377842  0.377842  1
  Ti  Ti7  1  0.379013  0.867700  0.379013  1
  Ti  Ti8  1  0.867700  0.379013  0.379013  1
  Ti  Ti9  1  0.379013  0.379013  0.867700  1
  Ti  Ti10  1  0.847251  0.460430  0.847251  1
  Ti  Ti11  1  0.460430  0.847251  0.847251  1
  Ti  Ti12  1  0.847251  0.847251  0.460430  1
  Al  Al13  1  0.150892  0.150892  0.150892  1
  Al  Al14  1  0.155266  0.539589  0.155266  1
  Al  Al15  1  0.539589  0.155266  0.155266  1
  Al  Al16  1  0.155266  0.155266  0.539589  1
  Al  Al17  1  0.619586  0.619586  0.619586  1
  Al  Al18  1  0.620283  0.141628  0.620283  1
  Al  Al19  1  0.141628  0.620283  0.620283  1
  Al  Al20  1  0.620283  0.620283  0.141628  1
  Al  Al21  1  0.830591  0.830591  0.830591  1
  Re  Re22  1  0.004061  0.004061  0.004061  1
  Rh  Rh23  1  0.003911  0.003911  0.497759  1
  Rh  Rh24  1  0.497759  0.003911  0.003911  1
  Rh  Rh25  1  0.003911  0.497759  0.003911  1
  Rh  Rh26  1  0.499737  0.499737  0.001322  1
  Rh  Rh27  1  0.001322  0.499737  0.499737  1
  Rh  Rh28  1  0.499737  0.001322  0.499737  1
  Rh  Rh29  1  0.500370  0.500370  0.500370  1
