# generated using pymatgen
data_Li12Nd7Gd5(WO6)8
_symmetry_space_group_name_H-M   'P 1'
_cell_length_a   10.87820362
_cell_length_b   10.86832091
_cell_length_c   10.86758100
_cell_angle_alpha   109.47124943
_cell_angle_beta   109.45137074
_cell_angle_gamma   109.45025051
_symmetry_Int_Tables_number   1
_chemical_formula_structural   Li12Nd7Gd5(WO6)8
_chemical_formula_sum   'Li12 Nd7 Gd5 W8 O48'
_cell_volume   989.57578114
_cell_formula_units_Z   1
loop_
 _symmetry_equiv_pos_site_id
 _symmetry_equiv_pos_as_xyz
  1  'x, y, z'
loop_
 _atom_site_type_symbol
 _atom_site_label
 _atom_site_symmetry_multiplicity
 _atom_site_fract_x
 _atom_site_fract_y
 _atom_site_fract_z
 _atom_site_occupancy
  Li  Li0  1  0.750086  0.375131  0.125598  1
  Li  Li1  1  0.876490  0.750526  0.126077  1
  Li  Li2  1  0.125365  0.375366  0.249930  1
  Li  Li3  1  0.624352  0.874862  0.249918  1
  Li  Li4  1  0.623868  0.249434  0.373500  1
  Li  Li5  1  0.249557  0.123712  0.373650  1
  Li  Li6  1  0.374130  0.749964  0.623699  1
  Li  Li7  1  0.749528  0.874470  0.624384  1
  Li  Li8  1  0.374629  0.124567  0.749995  1
  Li  Li9  1  0.875664  0.625585  0.750515  1
  Li  Li10  1  0.126233  0.250460  0.876385  1
  Li  Li11  1  0.250094  0.625916  0.876361  1
  Nd  Nd12  1  0.749162  0.624507  0.374040  1
  Nd  Nd13  1  0.874949  0.249526  0.623878  1
  Nd  Nd14  1  0.249167  0.374502  0.624024  1
  Nd  Nd15  1  0.125898  0.875435  0.750697  1
  Nd  Nd16  1  0.624892  0.375067  0.749968  1
  Nd  Nd17  1  0.625417  0.750710  0.876001  1
  Nd  Nd18  1  0.750531  0.125167  0.876066  1
  Gd  Gd19  1  0.250455  0.875044  0.125960  1
  Gd  Gd20  1  0.374716  0.250210  0.125554  1
  Gd  Gd21  1  0.875147  0.125080  0.250200  1
  Gd  Gd22  1  0.374226  0.624933  0.249665  1
  Gd  Gd23  1  0.125719  0.749924  0.374157  1
  W  W24  1  0.002139  0.000919  0.002694  1
  W  W25  1  0.500522  0.001663  0.002644  1
  W  W26  1  0.498628  0.499240  0.000718  1
  W  W27  1  0.002077  0.501920  0.002007  1
  W  W28  1  0.498073  0.997995  0.497944  1
  W  W29  1  0.999563  0.499522  0.497841  1
  W  W30  1  0.000384  0.999153  0.498260  1
  W  W31  1  0.498524  0.499527  0.497901  1
  O  O32  1  0.199164  0.619078  0.027120  1
  O  O33  1  0.327409  0.407872  0.027042  1
  O  O34  1  0.697838  0.173353  0.083400  1
  O  O35  1  0.885511  0.910046  0.083573  1
  O  O36  1  0.975887  0.172229  0.094716  1
  O  O37  1  0.618795  0.922530  0.094682  1
  O  O38  1  0.027223  0.699253  0.119264  1
  O  O39  1  0.589802  0.416992  0.115227  1
  O  O40  1  0.199840  0.080463  0.172994  1
  O  O41  1  0.472962  0.092289  0.172995  1
  O  O42  1  0.119325  0.527059  0.199277  1
  O  O43  1  0.577996  0.671874  0.197272  1
  O  O44  1  0.472889  0.880870  0.300578  1
  O  O45  1  0.327157  0.419575  0.300316  1
  O  O46  1  0.909859  0.525234  0.326171  1
  O  O47  1  0.921526  0.802054  0.327435  1
  O  O48  1  0.300921  0.972959  0.380683  1
  O  O49  1  0.577784  0.406172  0.380604  1
  O  O50  1  0.828188  0.024077  0.405425  1
  O  O51  1  0.078231  0.380653  0.405690  1
  O  O52  1  0.090312  0.115233  0.416546  1
  O  O53  1  0.826837  0.302348  0.416658  1
  O  O54  1  0.380774  0.800809  0.472741  1
  O  O55  1  0.589536  0.672810  0.474461  1
  O  O56  1  0.407420  0.326948  0.522217  1
  O  O57  1  0.614015  0.194624  0.521797  1
  O  O58  1  0.908157  0.885337  0.580209  1
  O  O59  1  0.171858  0.696267  0.577473  1
  O  O60  1  0.918745  0.614376  0.590970  1
  O  O61  1  0.173249  0.975201  0.589647  1
  O  O62  1  0.694522  0.021874  0.613820  1
  O  O63  1  0.418337  0.591546  0.614410  1
  O  O64  1  0.092038  0.477558  0.672031  1
  O  O65  1  0.081000  0.195220  0.672208  1
  O  O66  1  0.522006  0.113968  0.694650  1
  O  O67  1  0.672208  0.580406  0.694163  1
  O  O68  1  0.418549  0.327054  0.804059  1
  O  O69  1  0.886062  0.477985  0.805427  1
  O  O70  1  0.522000  0.908322  0.828127  1
  O  O71  1  0.806362  0.919984  0.828362  1
  O  O72  1  0.407660  0.580698  0.885335  1
  O  O73  1  0.978119  0.305229  0.886127  1
  O  O74  1  0.385548  0.083158  0.910589  1
  O  O75  1  0.025091  0.827332  0.910796  1
  O  O76  1  0.304248  0.828696  0.922971  1
  O  O77  1  0.118844  0.094246  0.923028  1
  O  O78  1  0.672455  0.592080  0.978265  1
  O  O79  1  0.805556  0.386020  0.978218  1
