# generated using pymatgen
data_Li2Pr8Sc10Si15P
_symmetry_space_group_name_H-M   'P 1'
_cell_length_a   7.17202584
_cell_length_b   7.57137489
_cell_length_c   14.24716500
_cell_angle_alpha   90.00000000
_cell_angle_beta   90.00000000
_cell_angle_gamma   90.05545737
_symmetry_Int_Tables_number   1
_chemical_formula_structural   Li2Pr8Sc10Si15P
_chemical_formula_sum   'Li2 Pr8 Sc10 Si15 P1'
_cell_volume   773.65056387
_cell_formula_units_Z   1
loop_
 _symmetry_equiv_pos_site_id
 _symmetry_equiv_pos_as_xyz
  1  'x, y, z'
loop_
 _atom_site_type_symbol
 _atom_site_label
 _atom_site_symmetry_multiplicity
 _atom_site_fract_x
 _atom_site_fract_y
 _atom_site_fract_z
 _atom_site_occupancy
  Li  Li0  1  0.653885  0.003710  0.750000  1
  Li  Li1  1  0.845979  0.504863  0.250000  1
  Pr  Pr2  1  0.009484  0.180928  0.400521  1
  Pr  Pr3  1  0.518474  0.329014  0.399054  1
  Pr  Pr4  1  0.490017  0.682250  0.898696  1
  Pr  Pr5  1  0.490017  0.682250  0.601304  1
  Pr  Pr6  1  0.982539  0.829869  0.602924  1
  Pr  Pr7  1  0.982539  0.829869  0.897076  1
  Pr  Pr8  1  0.518474  0.329014  0.100946  1
  Pr  Pr9  1  0.009484  0.180928  0.099479  1
  Sc  Sc10  1  0.334845  0.171787  0.626118  1
  Sc  Sc11  1  0.673676  0.814439  0.374529  1
  Sc  Sc12  1  0.164631  0.673614  0.375017  1
  Sc  Sc13  1  0.826587  0.314355  0.874359  1
  Sc  Sc14  1  0.826587  0.314355  0.625641  1
  Sc  Sc15  1  0.340811  0.995522  0.250000  1
  Sc  Sc16  1  0.334845  0.171787  0.873882  1
  Sc  Sc17  1  0.164631  0.673614  0.124983  1
  Sc  Sc18  1  0.673676  0.814439  0.125471  1
  Sc  Sc19  1  0.158960  0.494901  0.750000  1
  Si  Si20  1  0.458748  0.623691  0.250000  1
  Si  Si21  1  0.039245  0.128101  0.750000  1
  Si  Si22  1  0.531689  0.382715  0.750000  1
  Si  Si23  1  0.154336  0.465451  0.541159  1
  Si  Si24  1  0.968263  0.883051  0.250000  1
  Si  Si25  1  0.709651  0.098435  0.250000  1
  Si  Si26  1  0.848534  0.540195  0.030915  1
  Si  Si27  1  0.346337  0.965233  0.040413  1
  Si  Si28  1  0.154336  0.465451  0.958841  1
  Si  Si29  1  0.651114  0.038369  0.532217  1
  Si  Si30  1  0.346337  0.965233  0.459587  1
  Si  Si31  1  0.848534  0.540195  0.469085  1
  Si  Si32  1  0.790576  0.599413  0.750000  1
  Si  Si33  1  0.218553  0.386826  0.250000  1
  Si  Si34  1  0.651114  0.038369  0.967783  1
  P  P35  1  0.282495  0.887760  0.750000  1
