# generated using pymatgen
data_Y2Pa(SnRh)3
_symmetry_space_group_name_H-M   'P 1'
_cell_length_a   7.68867100
_cell_length_b   7.56561588
_cell_length_c   3.85253600
_cell_angle_alpha   90.00000000
_cell_angle_beta   90.00000000
_cell_angle_gamma   120.53952243
_symmetry_Int_Tables_number   1
_chemical_formula_structural   Y2Pa(SnRh)3
_chemical_formula_sum   'Y2 Pa1 Sn3 Rh3'
_cell_volume   193.01277613
_cell_formula_units_Z   1
loop_
 _symmetry_equiv_pos_site_id
 _symmetry_equiv_pos_as_xyz
  1  'x, y, z'
loop_
 _atom_site_type_symbol
 _atom_site_label
 _atom_site_symmetry_multiplicity
 _atom_site_fract_x
 _atom_site_fract_y
 _atom_site_fract_z
 _atom_site_occupancy
  Y  Y0  1  0.000000  0.403230  0.500000  1
  Y  Y1  1  0.596770  0.596770  0.500000  1
  Pa  Pa2  1  0.412229  0.000000  0.500000  1
  Sn  Sn3  1  0.755586  0.000000  0.000000  1
  Sn  Sn4  1  0.986898  0.727449  0.000000  1
  Sn  Sn5  1  0.259449  0.272551  0.000000  1
  Rh  Rh6  1  0.336480  0.700751  0.000000  1
  Rh  Rh7  1  0.635730  0.299249  0.000000  1
  Rh  Rh8  1  0.016858  0.000000  0.500000  1
