# generated using pymatgen
data_YbMn(NbSe2)8
_symmetry_space_group_name_H-M   'P 1'
_cell_length_a   7.05440100
_cell_length_b   7.05440171
_cell_length_c   13.74034600
_cell_angle_alpha   90.00000000
_cell_angle_beta   90.00000000
_cell_angle_gamma   120.00000138
_symmetry_Int_Tables_number   1
_chemical_formula_structural   YbMn(NbSe2)8
_chemical_formula_sum   'Yb1 Mn1 Nb8 Se16'
_cell_volume   592.17303023
_cell_formula_units_Z   1
loop_
 _symmetry_equiv_pos_site_id
 _symmetry_equiv_pos_as_xyz
  1  'x, y, z'
loop_
 _atom_site_type_symbol
 _atom_site_label
 _atom_site_symmetry_multiplicity
 _atom_site_fract_x
 _atom_site_fract_y
 _atom_site_fract_z
 _atom_site_occupancy
  Yb  Yb0  1  0.000000  0.000000  0.000000  1
  Mn  Mn1  1  0.000000  0.000000  0.500000  1
  Nb  Nb2  1  0.986588  0.493295  0.268213  1
  Nb  Nb3  1  0.013412  0.506705  0.731787  1
  Nb  Nb4  1  0.493295  0.506705  0.731787  1
  Nb  Nb5  1  0.506705  0.013412  0.268213  1
  Nb  Nb6  1  0.000000  0.000000  0.731253  1
  Nb  Nb7  1  0.000000  0.000000  0.268747  1
  Nb  Nb8  1  0.506705  0.493295  0.268213  1
  Nb  Nb9  1  0.493295  0.986588  0.731787  1
  Se  Se10  1  0.333333  0.666667  0.607898  1
  Se  Se11  1  0.666667  0.333333  0.142505  1
  Se  Se12  1  0.666667  0.333333  0.392102  1
  Se  Se13  1  0.333333  0.666667  0.857495  1
  Se  Se14  1  0.169194  0.338389  0.387226  1
  Se  Se15  1  0.831381  0.168619  0.852024  1
  Se  Se16  1  0.337238  0.168619  0.852024  1
  Se  Se17  1  0.661611  0.830806  0.387226  1
  Se  Se18  1  0.169194  0.830806  0.387226  1
  Se  Se19  1  0.831381  0.662762  0.852024  1
  Se  Se20  1  0.168619  0.337238  0.147976  1
  Se  Se21  1  0.830806  0.169194  0.612774  1
  Se  Se22  1  0.338389  0.169194  0.612774  1
  Se  Se23  1  0.662762  0.831381  0.147976  1
  Se  Se24  1  0.168619  0.831381  0.147976  1
  Se  Se25  1  0.830806  0.661611  0.612774  1
