# generated using pymatgen
data_Ca12Al5Ga3Ir8
_symmetry_space_group_name_H-M   'P 1'
_cell_length_a   5.85648619
_cell_length_b   7.79792537
_cell_length_c   13.81956500
_cell_angle_alpha   90.00000000
_cell_angle_beta   90.00000000
_cell_angle_gamma   89.87952578
_symmetry_Int_Tables_number   1
_chemical_formula_structural   Ca12Al5Ga3Ir8
_chemical_formula_sum   'Ca12 Al5 Ga3 Ir8'
_cell_volume   631.11661099
_cell_formula_units_Z   1
loop_
 _symmetry_equiv_pos_site_id
 _symmetry_equiv_pos_as_xyz
  1  'x, y, z'
loop_
 _atom_site_type_symbol
 _atom_site_label
 _atom_site_symmetry_multiplicity
 _atom_site_fract_x
 _atom_site_fract_y
 _atom_site_fract_z
 _atom_site_occupancy
  Ca  Ca0  1  0.141533  0.606363  0.095441  1
  Ca  Ca1  1  0.140508  0.894744  0.903284  1
  Ca  Ca2  1  0.859662  0.103457  0.404689  1
  Ca  Ca3  1  0.860346  0.394699  0.596272  1
  Ca  Ca4  1  0.860346  0.394699  0.903728  1
  Ca  Ca5  1  0.859662  0.103457  0.095311  1
  Ca  Ca6  1  0.140508  0.894744  0.596716  1
  Ca  Ca7  1  0.141533  0.606363  0.404559  1
  Ca  Ca8  1  0.374672  0.255124  0.250000  1
  Ca  Ca9  1  0.375890  0.243361  0.750000  1
  Ca  Ca10  1  0.622163  0.760029  0.250000  1
  Ca  Ca11  1  0.624424  0.743037  0.750000  1
  Al  Al12  1  0.408984  0.249983  0.000250  1
  Al  Al13  1  0.592084  0.749744  0.500293  1
  Al  Al14  1  0.592084  0.749744  0.999707  1
  Al  Al15  1  0.408984  0.249983  0.499750  1
  Al  Al16  1  0.837819  0.413613  0.250000  1
  Ga  Ga17  1  0.843035  0.089279  0.750000  1
  Ga  Ga18  1  0.155075  0.911239  0.250000  1
  Ga  Ga19  1  0.156387  0.589574  0.750000  1
  Ir  Ir20  1  0.642806  0.473482  0.092903  1
  Ir  Ir21  1  0.640195  0.025815  0.907458  1
  Ir  Ir22  1  0.358911  0.973501  0.408043  1
  Ir  Ir23  1  0.360240  0.525582  0.592673  1
  Ir  Ir24  1  0.360240  0.525582  0.907327  1
  Ir  Ir25  1  0.358911  0.973501  0.091957  1
  Ir  Ir26  1  0.640195  0.025815  0.592542  1
  Ir  Ir27  1  0.642806  0.473482  0.407097  1
