# generated using pymatgen
data_Yb7UP6
_symmetry_space_group_name_H-M   'P 1'
_cell_length_a   7.48095903
_cell_length_b   7.48095845
_cell_length_c   7.41015300
_cell_angle_alpha   109.27960487
_cell_angle_beta   109.27960333
_cell_angle_gamma   109.66215711
_symmetry_Int_Tables_number   1
_chemical_formula_structural   Yb7UP6
_chemical_formula_sum   'Yb7 U1 P6'
_cell_volume   319.99364758
_cell_formula_units_Z   1
loop_
 _symmetry_equiv_pos_site_id
 _symmetry_equiv_pos_as_xyz
  1  'x, y, z'
loop_
 _atom_site_type_symbol
 _atom_site_label
 _atom_site_symmetry_multiplicity
 _atom_site_fract_x
 _atom_site_fract_y
 _atom_site_fract_z
 _atom_site_occupancy
  Yb  Yb0  1  0.640580  0.640137  0.640523  1
  Yb  Yb1  1  0.009784  0.373457  0.507258  1
  Yb  Yb2  1  0.363673  0.490216  0.997473  1
  Yb  Yb3  1  0.999557  0.859420  0.499943  1
  Yb  Yb4  1  0.859863  0.500443  0.000385  1
  Yb  Yb5  1  0.500000  0.000000  0.861642  1
  Yb  Yb6  1  0.126543  0.136327  0.133800  1
  U  U7  1  0.500000  0.000000  0.355460  1
  P  P8  1  0.862384  0.120439  0.736092  1
  P  P9  1  0.379561  0.241946  0.615653  1
  P  P10  1  0.135407  0.758958  0.890809  1
  P  P11  1  0.741042  0.876449  0.131851  1
  P  P12  1  0.258054  0.637616  0.373707  1
  P  P13  1  0.623551  0.364593  0.255403  1
