# generated using pymatgen
data_Ac16Yb4Si15Ru
_symmetry_space_group_name_H-M   'P 1'
_cell_length_a   8.07218030
_cell_length_b   8.29385470
_cell_length_c   16.07623215
_cell_angle_alpha   90.17192549
_cell_angle_beta   90.33417340
_cell_angle_gamma   90.01613488
_symmetry_Int_Tables_number   1
_chemical_formula_structural   Ac16Yb4Si15Ru
_chemical_formula_sum   'Ac16 Yb4 Si15 Ru1'
_cell_volume   1076.27235215
_cell_formula_units_Z   1
loop_
 _symmetry_equiv_pos_site_id
 _symmetry_equiv_pos_as_xyz
  1  'x, y, z'
loop_
 _atom_site_type_symbol
 _atom_site_label
 _atom_site_symmetry_multiplicity
 _atom_site_fract_x
 _atom_site_fract_y
 _atom_site_fract_z
 _atom_site_occupancy
  Ac  Ac0  1  0.308928  0.181652  0.123210  1
  Ac  Ac1  1  0.811200  0.332844  0.386027  1
  Ac  Ac2  1  0.185946  0.685245  0.877555  1
  Ac  Ac3  1  0.698242  0.800087  0.615358  1
  Ac  Ac4  1  0.312049  0.183461  0.376638  1
  Ac  Ac5  1  0.811162  0.314647  0.124373  1
  Ac  Ac6  1  0.181208  0.679149  0.621768  1
  Ac  Ac7  1  0.688376  0.814859  0.877209  1
  Ac  Ac8  1  0.958064  0.809512  0.401356  1
  Ac  Ac9  1  0.457569  0.688641  0.102419  1
  Ac  Ac10  1  0.542902  0.314704  0.601748  1
  Ac  Ac11  1  0.044070  0.188670  0.897414  1
  Ac  Ac12  1  0.037856  0.200353  0.599199  1
  Ac  Ac13  1  0.544076  0.310589  0.897418  1
  Ac  Ac14  1  0.459440  0.687419  0.397944  1
  Ac  Ac15  1  0.955457  0.812186  0.102296  1
  Yb  Yb16  1  0.364898  0.014783  0.742618  1
  Yb  Yb17  1  0.857502  0.480673  0.744081  1
  Yb  Yb18  1  0.139045  0.516610  0.251441  1
  Yb  Yb19  1  0.641008  0.987204  0.253950  1
  Si  Si20  1  0.368747  0.978006  0.961280  1
  Si  Si21  1  0.628832  0.023924  0.460604  1
  Si  Si22  1  0.130261  0.477474  0.039414  1
  Si  Si23  1  0.141924  0.479058  0.459594  1
  Si  Si24  1  0.629841  0.023369  0.038910  1
  Si  Si25  1  0.368755  0.972933  0.538258  1
  Si  Si26  1  0.868117  0.522837  0.963468  1
  Si  Si27  1  0.979661  0.915308  0.750061  1
  Si  Si28  1  0.479247  0.589120  0.752148  1
  Si  Si29  1  0.518712  0.413994  0.249843  1
  Si  Si30  1  0.015114  0.086280  0.251084  1
  Si  Si31  1  0.258599  0.379882  0.751982  1
  Si  Si32  1  0.754699  0.117496  0.750751  1
  Si  Si33  1  0.240762  0.878539  0.249000  1
  Si  Si34  1  0.743346  0.621242  0.249211  1
  Ru  Ru35  1  0.874387  0.517249  0.540371  1
