# generated using pymatgen
data_Ce2TaTcH18
_symmetry_space_group_name_H-M   'P 1'
_cell_length_a   4.83420000
_cell_length_b   4.83420049
_cell_length_c   8.68438500
_cell_angle_alpha   90.00000000
_cell_angle_beta   90.00000000
_cell_angle_gamma   120.00001031
_symmetry_Int_Tables_number   1
_chemical_formula_structural   Ce2TaTcH18
_chemical_formula_sum   'Ce2 Ta1 Tc1 H18'
_cell_volume   175.75954822
_cell_formula_units_Z   1
loop_
 _symmetry_equiv_pos_site_id
 _symmetry_equiv_pos_as_xyz
  1  'x, y, z'
loop_
 _atom_site_type_symbol
 _atom_site_label
 _atom_site_symmetry_multiplicity
 _atom_site_fract_x
 _atom_site_fract_y
 _atom_site_fract_z
 _atom_site_occupancy
  Ce  Ce0  1  0.000000  0.000000  0.983780  1
  Ce  Ce1  1  0.000000  0.000000  0.516220  1
  Ta  Ta2  1  0.666667  0.333333  0.750000  1
  Tc  Tc3  1  0.333333  0.666667  0.250000  1
  H  H4  1  0.477616  0.522384  0.386775  1
  H  H5  1  0.477616  0.955233  0.386775  1
  H  H6  1  0.044767  0.522384  0.386775  1
  H  H7  1  0.979862  0.489931  0.902224  1
  H  H8  1  0.134688  0.269377  0.250000  1
  H  H9  1  0.879444  0.120556  0.750000  1
  H  H10  1  0.241111  0.120556  0.750000  1
  H  H11  1  0.730623  0.865312  0.250000  1
  H  H12  1  0.134688  0.865312  0.250000  1
  H  H13  1  0.879444  0.758889  0.750000  1
  H  H14  1  0.477616  0.955233  0.113225  1
  H  H15  1  0.510069  0.489931  0.597776  1
  H  H16  1  0.979862  0.489931  0.597776  1
  H  H17  1  0.044767  0.522384  0.113225  1
  H  H18  1  0.477616  0.522384  0.113225  1
  H  H19  1  0.510069  0.020138  0.902224  1
  H  H20  1  0.510069  0.489931  0.902224  1
  H  H21  1  0.510069  0.020138  0.597776  1
