# generated using pymatgen
data_LiMoPd6
_symmetry_space_group_name_H-M   'P 1'
_cell_length_a   5.58216996
_cell_length_b   5.58216989
_cell_length_c   3.87273100
_cell_angle_alpha   90.00000000
_cell_angle_beta   90.00000000
_cell_angle_gamma   90.04437543
_symmetry_Int_Tables_number   1
_chemical_formula_structural   LiMoPd6
_chemical_formula_sum   'Li1 Mo1 Pd6'
_cell_volume   120.67666691
_cell_formula_units_Z   1
loop_
 _symmetry_equiv_pos_site_id
 _symmetry_equiv_pos_as_xyz
  1  'x, y, z'
loop_
 _atom_site_type_symbol
 _atom_site_label
 _atom_site_symmetry_multiplicity
 _atom_site_fract_x
 _atom_site_fract_y
 _atom_site_fract_z
 _atom_site_occupancy
  Li  Li0  1  0.624795  0.375205  0.000000  1
  Mo  Mo1  1  0.125336  0.874664  0.000000  1
  Pd  Pd2  1  0.625179  0.876129  0.000000  1
  Pd  Pd3  1  0.123871  0.374821  0.000000  1
  Pd  Pd4  1  0.880569  0.630461  0.500000  1
  Pd  Pd5  1  0.369539  0.119431  0.500000  1
  Pd  Pd6  1  0.879773  0.120227  0.500000  1
  Pd  Pd7  1  0.370942  0.629058  0.500000  1
