# generated using pymatgen
data_Ta3BeNbP3Rh4
_symmetry_space_group_name_H-M   'P 1'
_cell_length_a   3.69288300
_cell_length_b   6.33022940
_cell_length_c   7.25317336
_cell_angle_alpha   90.02422195
_cell_angle_beta   90.00000000
_cell_angle_gamma   90.00000000
_symmetry_Int_Tables_number   1
_chemical_formula_structural   Ta3BeNbP3Rh4
_chemical_formula_sum   'Ta3 Be1 Nb1 P3 Rh4'
_cell_volume   169.55594279
_cell_formula_units_Z   1
loop_
 _symmetry_equiv_pos_site_id
 _symmetry_equiv_pos_as_xyz
  1  'x, y, z'
loop_
 _atom_site_type_symbol
 _atom_site_label
 _atom_site_symmetry_multiplicity
 _atom_site_fract_x
 _atom_site_fract_y
 _atom_site_fract_z
 _atom_site_occupancy
  Ta  Ta0  1  0.250000  0.533474  0.667779  1
  Ta  Ta1  1  0.750000  0.964333  0.177873  1
  Ta  Ta2  1  0.750000  0.482942  0.332293  1
  Be  Be3  1  0.250000  0.766350  0.375615  1
  Nb  Nb4  1  0.250000  0.024042  0.826746  1
  P  P5  1  0.250000  0.258746  0.127228  1
  P  P6  1  0.750000  0.234843  0.624695  1
  P  P7  1  0.750000  0.737695  0.871051  1
  Rh  Rh8  1  0.250000  0.146508  0.435543  1
  Rh  Rh9  1  0.250000  0.645817  0.066548  1
  Rh  Rh10  1  0.750000  0.852078  0.556415  1
  Rh  Rh11  1  0.750000  0.353171  0.938212  1
