# generated using pymatgen
data_Hf4As5PRu7
_symmetry_space_group_name_H-M   'P 1'
_cell_length_a   7.04175066
_cell_length_b   7.04175002
_cell_length_c   7.04175018
_cell_angle_alpha   109.59420334
_cell_angle_beta   109.22555106
_cell_angle_gamma   109.59419459
_symmetry_Int_Tables_number   1
_chemical_formula_structural   Hf4As5PRu7
_chemical_formula_sum   'Hf4 As5 P1 Ru7'
_cell_volume   268.79051592
_cell_formula_units_Z   1
loop_
 _symmetry_equiv_pos_site_id
 _symmetry_equiv_pos_as_xyz
  1  'x, y, z'
loop_
 _atom_site_type_symbol
 _atom_site_label
 _atom_site_symmetry_multiplicity
 _atom_site_fract_x
 _atom_site_fract_y
 _atom_site_fract_z
 _atom_site_occupancy
  Hf  Hf0  1  0.004954  0.000000  0.472092  1
  Hf  Hf1  1  0.472092  0.000000  0.004954  1
  Hf  Hf2  1  0.004954  0.532862  0.004954  1
  Hf  Hf3  1  0.472092  0.467138  0.472092  1
  As  As4  1  0.994019  0.312554  0.306573  1
  As  As5  1  0.994019  0.687446  0.681465  1
  As  As6  1  0.306573  0.312554  0.994019  1
  As  As7  1  0.681465  0.687446  0.994019  1
  As  As8  1  0.700247  0.000000  0.700247  1
  P  P9  1  0.335316  0.000000  0.335316  1
  Ru  Ru10  1  0.749226  0.500000  0.249226  1
  Ru  Ru11  1  0.500019  0.751911  0.251930  1
  Ru  Ru12  1  0.500019  0.248089  0.748107  1
  Ru  Ru13  1  0.748107  0.248089  0.500019  1
  Ru  Ru14  1  0.251930  0.751911  0.500019  1
  Ru  Ru15  1  0.249226  0.500000  0.749226  1
  Ru  Ru16  1  0.035741  0.000000  0.035741  1
