# generated using pymatgen
data_Hf12Zr8Si15Hg
_symmetry_space_group_name_H-M   'P 1'
_cell_length_a   7.16151725
_cell_length_b   7.13127499
_cell_length_c   12.99541957
_cell_angle_alpha   90.05900230
_cell_angle_beta   89.89146549
_cell_angle_gamma   89.98728079
_symmetry_Int_Tables_number   1
_chemical_formula_structural   Hf12Zr8Si15Hg
_chemical_formula_sum   'Hf12 Zr8 Si15 Hg1'
_cell_volume   663.68424952
_cell_formula_units_Z   1
loop_
 _symmetry_equiv_pos_site_id
 _symmetry_equiv_pos_as_xyz
  1  'x, y, z'
loop_
 _atom_site_type_symbol
 _atom_site_label
 _atom_site_symmetry_multiplicity
 _atom_site_fract_x
 _atom_site_fract_y
 _atom_site_fract_z
 _atom_site_occupancy
  Hf  Hf0  1  0.675960  0.325852  0.749206  1
  Hf  Hf1  1  0.324895  0.674735  0.251042  1
  Hf  Hf2  1  0.823925  0.824648  0.500612  1
  Hf  Hf3  1  0.183259  0.173743  0.997685  1
  Hf  Hf4  1  0.491777  0.358551  0.126961  1
  Hf  Hf5  1  0.500204  0.647147  0.626315  1
  Hf  Hf6  1  0.854207  0.001071  0.871087  1
  Hf  Hf7  1  0.147591  0.998670  0.376985  1
  Hf  Hf8  1  0.647558  0.501012  0.374252  1
  Hf  Hf9  1  0.352700  0.499580  0.871295  1
  Hf  Hf10  1  0.011454  0.843656  0.126457  1
  Hf  Hf11  1  0.998647  0.147974  0.623776  1
  Zr  Zr12  1  0.497914  0.152137  0.533458  1
  Zr  Zr13  1  0.493502  0.839132  0.032021  1
  Zr  Zr14  1  0.646767  0.997271  0.290205  1
  Zr  Zr15  1  0.346889  0.996680  0.782158  1
  Zr  Zr16  1  0.851695  0.513758  0.961469  1
  Zr  Zr17  1  0.150557  0.497737  0.466661  1
  Zr  Zr18  1  0.002549  0.652074  0.715622  1
  Zr  Zr19  1  0.007393  0.354474  0.221932  1
  Si  Si20  1  0.204875  0.855758  0.572757  1
  Si  Si21  1  0.641967  0.707558  0.821182  1
  Si  Si22  1  0.357676  0.294232  0.324449  1
  Si  Si23  1  0.855957  0.204369  0.428495  1
  Si  Si24  1  0.143166  0.796066  0.926440  1
  Si  Si25  1  0.705183  0.646066  0.177688  1
  Si  Si26  1  0.295158  0.354523  0.676558  1
  Si  Si27  1  0.545529  0.198995  0.932316  1
  Si  Si28  1  0.448305  0.797602  0.437850  1
  Si  Si29  1  0.698351  0.952448  0.684336  1
  Si  Si30  1  0.302260  0.049813  0.186167  1
  Si  Si31  1  0.799133  0.450490  0.563834  1
  Si  Si32  1  0.199114  0.546413  0.062129  1
  Si  Si33  1  0.949222  0.702612  0.315427  1
  Si  Si34  1  0.048675  0.300876  0.813919  1
  Hg  Hg35  1  0.795986  0.142278  0.077255  1
