# generated using pymatgen
data_Dy3Y7(Bi3C)2
_symmetry_space_group_name_H-M   'P 1'
_cell_length_a   9.15928500
_cell_length_b   9.15928635
_cell_length_c   6.52308200
_cell_angle_alpha   89.99999424
_cell_angle_beta   90.00000240
_cell_angle_gamma   119.99427161
_symmetry_Int_Tables_number   1
_chemical_formula_structural   Dy3Y7(Bi3C)2
_chemical_formula_sum   'Dy3 Y7 Bi6 C2'
_cell_volume   473.94914590
_cell_formula_units_Z   1
loop_
 _symmetry_equiv_pos_site_id
 _symmetry_equiv_pos_as_xyz
  1  'x, y, z'
loop_
 _atom_site_type_symbol
 _atom_site_label
 _atom_site_symmetry_multiplicity
 _atom_site_fract_x
 _atom_site_fract_y
 _atom_site_fract_z
 _atom_site_occupancy
  Dy  Dy0  1  0.792173  0.792173  0.249997  1
  Dy  Dy1  1  0.207666  0.999897  0.249999  1
  Dy  Dy2  1  0.999897  0.207666  0.249999  1
  Y  Y3  1  0.666615  0.333385  0.499987  1
  Y  Y4  1  0.333385  0.666615  0.499987  1
  Y  Y5  1  0.333387  0.666613  0.000017  1
  Y  Y6  1  0.666613  0.333387  0.000017  1
  Y  Y7  1  0.208833  0.208833  0.749998  1
  Y  Y8  1  0.791327  0.000104  0.749997  1
  Y  Y9  1  0.000104  0.791327  0.749997  1
  Bi  Bi10  1  0.402024  0.402024  0.250002  1
  Bi  Bi11  1  0.597749  0.000029  0.250003  1
  Bi  Bi12  1  0.000029  0.597749  0.250003  1
  Bi  Bi13  1  0.597914  0.597914  0.750000  1
  Bi  Bi14  1  0.402316  0.999971  0.750002  1
  Bi  Bi15  1  0.999971  0.402316  0.750002  1
  C  C16  1  0.000000  0.000000  0.498722  1
  C  C17  1  0.999999  0.999999  0.001269  1
