# generated using pymatgen
data_Nd2SbRuO8
_symmetry_space_group_name_H-M   'P 1'
_cell_length_a   5.21711700
_cell_length_b   5.27664804
_cell_length_c   13.55757400
_cell_angle_alpha   69.00341409
_cell_angle_beta   90.00000000
_cell_angle_gamma   90.00000000
_symmetry_Int_Tables_number   1
_chemical_formula_structural   Nd2SbRuO8
_chemical_formula_sum   'Nd4 Sb2 Ru2 O16'
_cell_volume   348.44349234
_cell_formula_units_Z   2
loop_
 _symmetry_equiv_pos_site_id
 _symmetry_equiv_pos_as_xyz
  1  'x, y, z'
loop_
 _atom_site_type_symbol
 _atom_site_label
 _atom_site_symmetry_multiplicity
 _atom_site_fract_x
 _atom_site_fract_y
 _atom_site_fract_z
 _atom_site_occupancy
  Nd  Nd0  1  0.771270  0.657770  0.337060  1
  Nd  Nd1  1  0.728730  0.657770  0.837060  1
  Nd  Nd2  1  0.229680  0.341085  0.663004  1
  Nd  Nd3  1  0.270320  0.341085  0.163004  1
  Sb  Sb4  1  0.248305  0.073832  0.931115  1
  Sb  Sb5  1  0.251695  0.073832  0.431115  1
  Ru  Ru6  1  0.749076  0.923841  0.070424  1
  Ru  Ru7  1  0.750924  0.923841  0.570424  1
  O  O8  1  0.436034  0.747968  0.039991  1
  O  O9  1  0.063966  0.747968  0.539991  1
  O  O10  1  0.559984  0.254685  0.963487  1
  O  O11  1  0.940016  0.254685  0.463487  1
  O  O12  1  0.605328  0.016653  0.181484  1
  O  O13  1  0.894672  0.016653  0.681484  1
  O  O14  1  0.399203  0.983731  0.814915  1
  O  O15  1  0.100797  0.983731  0.314915  1
  O  O16  1  0.062297  0.148411  0.053000  1
  O  O17  1  0.437703  0.148411  0.553000  1
  O  O18  1  0.933432  0.843668  0.949917  1
  O  O19  1  0.566568  0.843668  0.449917  1
  O  O20  1  0.885242  0.600989  0.172210  1
  O  O21  1  0.614758  0.600989  0.672210  1
  O  O22  1  0.110579  0.407363  0.823394  1
  O  O23  1  0.389421  0.407363  0.323394  1
