# generated using pymatgen
data_Mn2AlSiRu4
_symmetry_space_group_name_H-M   'P 1'
_cell_length_a   7.29171942
_cell_length_b   7.29172007
_cell_length_c   7.29171936
_cell_angle_alpha   33.52654469
_cell_angle_beta   33.52655415
_cell_angle_gamma   33.52654923
_symmetry_Int_Tables_number   1
_chemical_formula_structural   Mn2AlSiRu4
_chemical_formula_sum   'Mn2 Al1 Si1 Ru4'
_cell_volume   105.34104566
_cell_formula_units_Z   1
loop_
 _symmetry_equiv_pos_site_id
 _symmetry_equiv_pos_as_xyz
  1  'x, y, z'
loop_
 _atom_site_type_symbol
 _atom_site_label
 _atom_site_symmetry_multiplicity
 _atom_site_fract_x
 _atom_site_fract_y
 _atom_site_fract_z
 _atom_site_occupancy
  Mn  Mn0  1  0.251219  0.251219  0.251219  1
  Mn  Mn1  1  0.748781  0.748781  0.748781  1
  Al  Al2  1  0.000000  0.000000  0.000000  1
  Si  Si3  1  0.500000  0.500000  0.500000  1
  Ru  Ru4  1  0.873118  0.873118  0.873118  1
  Ru  Ru5  1  0.377673  0.377673  0.377673  1
  Ru  Ru6  1  0.126882  0.126882  0.126882  1
  Ru  Ru7  1  0.622327  0.622327  0.622327  1
