# generated using pymatgen
data_Ho7Sc(Si4W3)4
_symmetry_space_group_name_H-M   'P 1'
_cell_length_a   6.74901774
_cell_length_b   6.91795072
_cell_length_c   12.88018634
_cell_angle_alpha   90.09024055
_cell_angle_beta   89.97398349
_cell_angle_gamma   90.04709615
_symmetry_Int_Tables_number   1
_chemical_formula_structural   Ho7Sc(Si4W3)4
_chemical_formula_sum   'Ho7 Sc1 Si16 W12'
_cell_volume   601.36680287
_cell_formula_units_Z   1
loop_
 _symmetry_equiv_pos_site_id
 _symmetry_equiv_pos_as_xyz
  1  'x, y, z'
loop_
 _atom_site_type_symbol
 _atom_site_label
 _atom_site_symmetry_multiplicity
 _atom_site_fract_x
 _atom_site_fract_y
 _atom_site_fract_z
 _atom_site_occupancy
  Ho  Ho0  1  0.495068  0.668324  0.593127  1
  Ho  Ho1  1  0.995385  0.832269  0.906962  1
  Ho  Ho2  1  0.504782  0.332345  0.093292  1
  Ho  Ho3  1  0.004385  0.167208  0.408479  1
  Ho  Ho4  1  0.504245  0.331686  0.407894  1
  Ho  Ho5  1  0.004696  0.167770  0.093241  1
  Ho  Ho6  1  0.495179  0.668347  0.905304  1
  Sc  Sc7  1  0.992738  0.830530  0.594782  1
  Si  Si8  1  0.663751  0.957786  0.454844  1
  Si  Si9  1  0.162432  0.541549  0.046555  1
  Si  Si10  1  0.338530  0.042135  0.952576  1
  Si  Si11  1  0.839595  0.462434  0.547364  1
  Si  Si12  1  0.331634  0.038239  0.547356  1
  Si  Si13  1  0.837518  0.457895  0.952853  1
  Si  Si14  1  0.661964  0.958001  0.046683  1
  Si  Si15  1  0.161691  0.544591  0.455024  1
  Si  Si16  1  0.463710  0.371367  0.749728  1
  Si  Si17  1  0.964492  0.125070  0.747913  1
  Si  Si18  1  0.537094  0.628399  0.250412  1
  Si  Si19  1  0.036710  0.872020  0.250238  1
  Si  Si20  1  0.700665  0.864906  0.748149  1
  Si  Si21  1  0.193832  0.637313  0.747687  1
  Si  Si22  1  0.302904  0.134810  0.250484  1
  Si  Si23  1  0.803551  0.365873  0.250828  1
  W  W24  1  0.668213  0.162674  0.624934  1
  W  W25  1  0.166917  0.335781  0.873457  1
  W  W26  1  0.332406  0.836736  0.125173  1
  W  W27  1  0.833299  0.664931  0.375891  1
  W  W28  1  0.332490  0.836389  0.374733  1
  W  W29  1  0.832623  0.663979  0.125605  1
  W  W30  1  0.669037  0.162538  0.873968  1
  W  W31  1  0.168200  0.336425  0.625167  1
  W  W32  1  0.833544  0.500688  0.749248  1
  W  W33  1  0.333135  0.998611  0.748675  1
  W  W34  1  0.166924  0.500368  0.250432  1
  W  W35  1  0.666658  0.000013  0.250940  1
