# generated using pymatgen
data_Tm10SnBi3Pt2
_symmetry_space_group_name_H-M   'P 1'
_cell_length_a   7.99501400
_cell_length_b   8.99497591
_cell_length_c   12.32003300
_cell_angle_alpha   90.00000000
_cell_angle_beta   90.00000000
_cell_angle_gamma   90.07597844
_symmetry_Int_Tables_number   1
_chemical_formula_structural   Tm10SnBi3Pt2
_chemical_formula_sum   'Tm20 Sn2 Bi6 Pt4'
_cell_volume   885.99388069
_cell_formula_units_Z   2
loop_
 _symmetry_equiv_pos_site_id
 _symmetry_equiv_pos_as_xyz
  1  'x, y, z'
loop_
 _atom_site_type_symbol
 _atom_site_label
 _atom_site_symmetry_multiplicity
 _atom_site_fract_x
 _atom_site_fract_y
 _atom_site_fract_z
 _atom_site_occupancy
  Tm  Tm0  1  0.162270  0.745465  0.211338  1
  Tm  Tm1  1  0.337730  0.754535  0.711338  1
  Tm  Tm2  1  0.832108  0.245465  0.789070  1
  Tm  Tm3  1  0.667892  0.254535  0.289070  1
  Tm  Tm4  1  0.451745  0.754298  0.998441  1
  Tm  Tm5  1  0.048255  0.745702  0.498441  1
  Tm  Tm6  1  0.550199  0.245480  0.996987  1
  Tm  Tm7  1  0.949801  0.254520  0.496987  1
  Tm  Tm8  1  0.631812  0.746077  0.303068  1
  Tm  Tm9  1  0.868188  0.753923  0.803068  1
  Tm  Tm10  1  0.377620  0.245485  0.699680  1
  Tm  Tm11  1  0.122380  0.254515  0.199680  1
  Tm  Tm12  1  0.825246  0.544121  0.070504  1
  Tm  Tm13  1  0.674754  0.955879  0.570504  1
  Tm  Tm14  1  0.180673  0.044265  0.933101  1
  Tm  Tm15  1  0.319327  0.455735  0.433101  1
  Tm  Tm16  1  0.176271  0.454854  0.933717  1
  Tm  Tm17  1  0.323729  0.045146  0.433717  1
  Tm  Tm18  1  0.820967  0.955387  0.063443  1
  Tm  Tm19  1  0.679033  0.544613  0.563443  1
  Sn  Sn20  1  0.933161  0.509877  0.328756  1
  Sn  Sn21  1  0.566839  0.990123  0.828756  1
  Bi  Bi22  1  0.067530  0.010601  0.670262  1
  Bi  Bi23  1  0.432470  0.489399  0.170262  1
  Bi  Bi24  1  0.068617  0.489554  0.674513  1
  Bi  Bi25  1  0.431383  0.010446  0.174513  1
  Bi  Bi26  1  0.932431  0.989660  0.327529  1
  Bi  Bi27  1  0.567569  0.510340  0.827529  1
  Pt  Pt28  1  0.425674  0.749250  0.488494  1
  Pt  Pt29  1  0.074326  0.750750  0.988494  1
  Pt  Pt30  1  0.575039  0.250003  0.511099  1
  Pt  Pt31  1  0.924961  0.249997  0.011099  1
