# generated using pymatgen
data_Nd3Cd2(Sn2Pd)2
_symmetry_space_group_name_H-M   'P 1'
_cell_length_a   8.67049279
_cell_length_b   8.96246864
_cell_length_c   8.96246900
_cell_angle_alpha   149.76315408
_cell_angle_beta   131.44806710
_cell_angle_gamma   58.57978738
_symmetry_Int_Tables_number   1
_chemical_formula_structural   Nd3Cd2(Sn2Pd)2
_chemical_formula_sum   'Nd3 Cd2 Sn4 Pd2'
_cell_volume   260.51590323
_cell_formula_units_Z   1
loop_
 _symmetry_equiv_pos_site_id
 _symmetry_equiv_pos_as_xyz
  1  'x, y, z'
loop_
 _atom_site_type_symbol
 _atom_site_label
 _atom_site_symmetry_multiplicity
 _atom_site_fract_x
 _atom_site_fract_y
 _atom_site_fract_z
 _atom_site_occupancy
  Nd  Nd0  1  0.354709  0.873156  0.481554  1
  Nd  Nd1  1  0.645291  0.126844  0.518446  1
  Nd  Nd2  1  0.000000  0.000000  0.000000  1
  Cd  Cd3  1  0.636575  0.330872  0.305704  1
  Cd  Cd4  1  0.363425  0.669128  0.694296  1
  Sn  Sn5  1  0.188093  0.217491  0.970602  1
  Sn  Sn6  1  0.811907  0.782509  0.029398  1
  Sn  Sn7  1  0.701177  0.504028  0.197150  1
  Sn  Sn8  1  0.298823  0.495972  0.802850  1
  Pd  Pd9  1  0.018072  0.330359  0.687717  1
  Pd  Pd10  1  0.981928  0.669641  0.312283  1
