# generated using pymatgen
data_Ga(TcO4)3
_symmetry_space_group_name_H-M   'P 1'
_cell_length_a   10.41380273
_cell_length_b   10.41380189
_cell_length_c   10.41380173
_cell_angle_alpha   49.19423191
_cell_angle_beta   49.19423632
_cell_angle_gamma   49.19423364
_symmetry_Int_Tables_number   1
_chemical_formula_structural   Ga(TcO4)3
_chemical_formula_sum   'Ga2 Tc6 O24'
_cell_volume   594.37211547
_cell_formula_units_Z   2
loop_
 _symmetry_equiv_pos_site_id
 _symmetry_equiv_pos_as_xyz
  1  'x, y, z'
loop_
 _atom_site_type_symbol
 _atom_site_label
 _atom_site_symmetry_multiplicity
 _atom_site_fract_x
 _atom_site_fract_y
 _atom_site_fract_z
 _atom_site_occupancy
  Ga  Ga0  1  0.500000  0.500000  0.500000  1
  Ga  Ga1  1  0.000000  0.000000  0.000000  1
  Tc  Tc2  1  0.598330  0.901670  0.250000  1
  Tc  Tc3  1  0.250000  0.598330  0.901670  1
  Tc  Tc4  1  0.901670  0.250000  0.598330  1
  Tc  Tc5  1  0.750000  0.401670  0.098330  1
  Tc  Tc6  1  0.098330  0.750000  0.401670  1
  Tc  Tc7  1  0.401670  0.098330  0.750000  1
  O  O8  1  0.818528  0.885807  0.170106  1
  O  O9  1  0.170106  0.818528  0.885807  1
  O  O10  1  0.885807  0.170106  0.818528  1
  O  O11  1  0.670106  0.385807  0.318528  1
  O  O12  1  0.318528  0.670106  0.385807  1
  O  O13  1  0.385807  0.318528  0.670106  1
  O  O14  1  0.181472  0.114193  0.829894  1
  O  O15  1  0.829894  0.181472  0.114193  1
  O  O16  1  0.114193  0.829894  0.181472  1
  O  O17  1  0.329894  0.614193  0.681472  1
  O  O18  1  0.681472  0.329894  0.614193  1
  O  O19  1  0.614193  0.681472  0.329894  1
  O  O20  1  0.442952  0.976987  0.425030  1
  O  O21  1  0.425030  0.442952  0.976987  1
  O  O22  1  0.976987  0.425030  0.442952  1
  O  O23  1  0.925030  0.476987  0.942952  1
  O  O24  1  0.942952  0.925030  0.476987  1
  O  O25  1  0.476987  0.942952  0.925030  1
  O  O26  1  0.557048  0.023013  0.574970  1
  O  O27  1  0.574970  0.557048  0.023013  1
  O  O28  1  0.023013  0.574970  0.557048  1
  O  O29  1  0.074970  0.523013  0.057048  1
  O  O30  1  0.057048  0.074970  0.523013  1
  O  O31  1  0.523013  0.057048  0.074970  1
