# generated using pymatgen
data_Dy7Er13(CoBi5)2
_symmetry_space_group_name_H-M   'P 1'
_cell_length_a   8.04635631
_cell_length_b   9.36608400
_cell_length_c   12.09006047
_cell_angle_alpha   90.00000000
_cell_angle_beta   90.03195434
_cell_angle_gamma   90.00000000
_symmetry_Int_Tables_number   1
_chemical_formula_structural   Dy7Er13(CoBi5)2
_chemical_formula_sum   'Dy7 Er13 Co2 Bi10'
_cell_volume   911.14126136
_cell_formula_units_Z   1
loop_
 _symmetry_equiv_pos_site_id
 _symmetry_equiv_pos_as_xyz
  1  'x, y, z'
loop_
 _atom_site_type_symbol
 _atom_site_label
 _atom_site_symmetry_multiplicity
 _atom_site_fract_x
 _atom_site_fract_y
 _atom_site_fract_z
 _atom_site_occupancy
  Dy  Dy0  1  0.573120  0.500000  0.772416  1
  Dy  Dy1  1  0.426762  0.500000  0.272520  1
  Dy  Dy2  1  0.907981  0.000000  0.201421  1
  Dy  Dy3  1  0.260215  0.500000  0.993886  1
  Dy  Dy4  1  0.739987  0.500000  0.494090  1
  Dy  Dy5  1  0.089801  0.500000  0.717916  1
  Dy  Dy6  1  0.910118  0.500000  0.217986  1
  Er  Er7  1  0.428664  0.176341  0.563301  1
  Er  Er8  1  0.570924  0.823416  0.063008  1
  Er  Er9  1  0.070863  0.729826  0.436569  1
  Er  Er10  1  0.929265  0.270335  0.936293  1
  Er  Er11  1  0.070863  0.270174  0.436569  1
  Er  Er12  1  0.929265  0.729665  0.936293  1
  Er  Er13  1  0.428664  0.823659  0.563301  1
  Er  Er14  1  0.570924  0.176584  0.063008  1
  Er  Er15  1  0.092556  0.000000  0.700739  1
  Er  Er16  1  0.199097  0.000000  0.996367  1
  Er  Er17  1  0.801184  0.000000  0.496765  1
  Er  Er18  1  0.372264  0.000000  0.308743  1
  Er  Er19  1  0.628063  0.000000  0.808712  1
  Co  Co20  1  0.172526  0.000000  0.488137  1
  Co  Co21  1  0.827225  0.000000  0.987912  1
  Bi  Bi22  1  0.813571  0.742802  0.672338  1
  Bi  Bi23  1  0.186758  0.257418  0.172244  1
  Bi  Bi24  1  0.679870  0.240973  0.325425  1
  Bi  Bi25  1  0.319628  0.759446  0.825190  1
  Bi  Bi26  1  0.679870  0.759027  0.325425  1
  Bi  Bi27  1  0.319628  0.240554  0.825190  1
  Bi  Bi28  1  0.813571  0.257198  0.672338  1
  Bi  Bi29  1  0.186758  0.742582  0.172244  1
  Bi  Bi30  1  0.345942  0.500000  0.526880  1
  Bi  Bi31  1  0.654069  0.500000  0.026776  1
