# generated using pymatgen
data_CaNd9(Ga2Sn)2
_symmetry_space_group_name_H-M   'P 1'
_cell_length_a   9.16668129
_cell_length_b   9.16668105
_cell_length_c   9.16668010
_cell_angle_alpha   127.51577693
_cell_angle_beta   127.51578238
_cell_angle_gamma   77.41077326
_symmetry_Int_Tables_number   1
_chemical_formula_structural   CaNd9(Ga2Sn)2
_chemical_formula_sum   'Ca1 Nd9 Ga4 Sn2'
_cell_volume   470.07469533
_cell_formula_units_Z   1
loop_
 _symmetry_equiv_pos_site_id
 _symmetry_equiv_pos_as_xyz
  1  'x, y, z'
loop_
 _atom_site_type_symbol
 _atom_site_label
 _atom_site_symmetry_multiplicity
 _atom_site_fract_x
 _atom_site_fract_y
 _atom_site_fract_z
 _atom_site_occupancy
  Ca  Ca0  1  0.500000  0.500000  0.000000  1
  Nd  Nd1  1  0.000000  0.000000  0.000000  1
  Nd  Nd2  1  0.524400  0.024587  0.839329  1
  Nd  Nd3  1  0.185256  0.685069  0.160671  1
  Nd  Nd4  1  0.024587  0.185256  0.500187  1
  Nd  Nd5  1  0.685069  0.524400  0.499813  1
  Nd  Nd6  1  0.475600  0.975413  0.160671  1
  Nd  Nd7  1  0.814744  0.314931  0.839329  1
  Nd  Nd8  1  0.975413  0.814744  0.499813  1
  Nd  Nd9  1  0.314931  0.475600  0.500187  1
  Ga  Ga10  1  0.880209  0.379274  0.259482  1
  Ga  Ga11  1  0.119791  0.620726  0.740518  1
  Ga  Ga12  1  0.379274  0.119791  0.499064  1
  Ga  Ga13  1  0.620726  0.880209  0.500936  1
  Sn  Sn14  1  0.249585  0.249585  0.000000  1
  Sn  Sn15  1  0.750415  0.750415  0.000000  1
