# generated using pymatgen
data_Tb2Zr6Ti7Si16W5
_symmetry_space_group_name_H-M   'P 1'
_cell_length_a   6.82070598
_cell_length_b   6.83011780
_cell_length_c   12.62724348
_cell_angle_alpha   89.81193103
_cell_angle_beta   90.03977255
_cell_angle_gamma   89.81702508
_symmetry_Int_Tables_number   1
_chemical_formula_structural   Tb2Zr6Ti7Si16W5
_chemical_formula_sum   'Tb2 Zr6 Ti7 Si16 W5'
_cell_volume   588.24929593
_cell_formula_units_Z   1
loop_
 _symmetry_equiv_pos_site_id
 _symmetry_equiv_pos_as_xyz
  1  'x, y, z'
loop_
 _atom_site_type_symbol
 _atom_site_label
 _atom_site_symmetry_multiplicity
 _atom_site_fract_x
 _atom_site_fract_y
 _atom_site_fract_z
 _atom_site_occupancy
  Tb  Tb0  1  0.001429  0.339100  0.530574  1
  Tb  Tb1  1  0.997820  0.661551  0.029726  1
  Zr  Zr2  1  0.342819  0.995740  0.469481  1
  Zr  Zr3  1  0.501901  0.840075  0.720496  1
  Zr  Zr4  1  0.497390  0.159937  0.220450  1
  Zr  Zr5  1  0.840811  0.502386  0.280668  1
  Zr  Zr6  1  0.160559  0.496143  0.781080  1
  Zr  Zr7  1  0.655545  0.002521  0.968317  1
  Ti  Ti8  1  0.494561  0.653177  0.125286  1
  Ti  Ti9  1  0.503130  0.346058  0.625062  1
  Ti  Ti10  1  0.653272  0.492243  0.874329  1
  Ti  Ti11  1  0.346981  0.507717  0.374553  1
  Ti  Ti12  1  0.843910  0.996702  0.373563  1
  Ti  Ti13  1  0.004986  0.152532  0.126456  1
  Ti  Ti14  1  0.995596  0.846999  0.625860  1
  Si  Si15  1  0.209801  0.128142  0.679718  1
  Si  Si16  1  0.373245  0.706151  0.927213  1
  Si  Si17  1  0.627709  0.294012  0.427060  1
  Si  Si18  1  0.702939  0.364249  0.072207  1
  Si  Si19  1  0.297770  0.636211  0.571618  1
  Si  Si20  1  0.790213  0.870760  0.180864  1
  Si  Si21  1  0.133807  0.203911  0.320285  1
  Si  Si22  1  0.867442  0.795728  0.819702  1
  Si  Si23  1  0.296940  0.958181  0.065443  1
  Si  Si24  1  0.543144  0.795501  0.314756  1
  Si  Si25  1  0.455873  0.206197  0.814378  1
  Si  Si26  1  0.793228  0.545861  0.685503  1
  Si  Si27  1  0.205961  0.454090  0.186359  1
  Si  Si28  1  0.703404  0.042584  0.564765  1
  Si  Si29  1  0.957025  0.289394  0.935838  1
  Si  Si30  1  0.043763  0.710794  0.434390  1
  W  W31  1  0.332926  0.329278  0.000264  1
  W  W32  1  0.169401  0.832394  0.249882  1
  W  W33  1  0.829774  0.168685  0.750766  1
  W  W34  1  0.667315  0.672289  0.499999  1
  W  W35  1  0.157613  0.002711  0.873091  1
