# generated using pymatgen
data_Ca4SmU5O18
_symmetry_space_group_name_H-M   'P 1'
_cell_length_a   6.89096426
_cell_length_b   7.54302137
_cell_length_c   8.51632981
_cell_angle_alpha   99.75722661
_cell_angle_beta   98.91038183
_cell_angle_gamma   107.21392190
_symmetry_Int_Tables_number   1
_chemical_formula_structural   Ca4SmU5O18
_chemical_formula_sum   'Ca4 Sm1 U5 O18'
_cell_volume   406.71756725
_cell_formula_units_Z   1
loop_
 _symmetry_equiv_pos_site_id
 _symmetry_equiv_pos_as_xyz
  1  'x, y, z'
loop_
 _atom_site_type_symbol
 _atom_site_label
 _atom_site_symmetry_multiplicity
 _atom_site_fract_x
 _atom_site_fract_y
 _atom_site_fract_z
 _atom_site_occupancy
  Ca  Ca0  1  0.796694  0.104246  0.582106  1
  Ca  Ca1  1  0.594900  0.698694  0.197244  1
  Ca  Ca2  1  0.405100  0.301306  0.802756  1
  Ca  Ca3  1  0.203306  0.895754  0.417894  1
  Sm  Sm4  1  0.000000  0.500000  0.000000  1
  U  U5  1  0.000000  0.000000  0.000000  1
  U  U6  1  0.790184  0.579117  0.587571  1
  U  U7  1  0.623731  0.200204  0.195337  1
  U  U8  1  0.376269  0.799796  0.804663  1
  U  U9  1  0.209816  0.420883  0.412429  1
  O  O10  1  0.819378  0.794083  0.470154  1
  O  O11  1  0.000663  0.251531  0.167119  1
  O  O12  1  0.673961  0.414165  0.065467  1
  O  O13  1  0.459992  0.003593  0.679012  1
  O  O14  1  0.860463  0.340203  0.424829  1
  O  O15  1  0.502194  0.399659  0.345768  1
  O  O16  1  0.246582  0.615898  0.271674  1
  O  O17  1  0.986311  0.819657  0.155990  1
  O  O18  1  0.661309  0.931492  0.000847  1
  O  O19  1  0.338691  0.068508  0.999153  1
  O  O20  1  0.013689  0.180343  0.844010  1
  O  O21  1  0.753418  0.384102  0.728326  1
  O  O22  1  0.497806  0.600341  0.654232  1
  O  O23  1  0.139537  0.659797  0.575171  1
  O  O24  1  0.540008  0.996407  0.320988  1
  O  O25  1  0.326039  0.585835  0.934533  1
  O  O26  1  0.999337  0.748469  0.832881  1
  O  O27  1  0.180622  0.205917  0.529846  1
