# generated using pymatgen
data_Ac3TlInHgPt3
_symmetry_space_group_name_H-M   'P 1'
_cell_length_a   8.09472670
_cell_length_b   8.02173189
_cell_length_c   4.24045600
_cell_angle_alpha   90.00000000
_cell_angle_beta   90.00000000
_cell_angle_gamma   120.48237160
_symmetry_Int_Tables_number   1
_chemical_formula_structural   Ac3TlInHgPt3
_chemical_formula_sum   'Ac3 Tl1 In1 Hg1 Pt3'
_cell_volume   237.29138092
_cell_formula_units_Z   1
loop_
 _symmetry_equiv_pos_site_id
 _symmetry_equiv_pos_as_xyz
  1  'x, y, z'
loop_
 _atom_site_type_symbol
 _atom_site_label
 _atom_site_symmetry_multiplicity
 _atom_site_fract_x
 _atom_site_fract_y
 _atom_site_fract_z
 _atom_site_occupancy
  Ac  Ac0  1  0.414878  0.999422  0.000000  1
  Ac  Ac1  1  0.994773  0.402400  0.000000  1
  Ac  Ac2  1  0.592792  0.597818  0.000000  1
  Tl  Tl3  1  0.001256  0.753987  0.500000  1
  In  In4  1  0.247809  0.246165  0.500000  1
  Hg  Hg5  1  0.750310  0.999870  0.500000  1
  Pt  Pt6  1  0.323201  0.647500  0.500000  1
  Pt  Pt7  1  0.650813  0.335631  0.500000  1
  Pt  Pt8  1  0.024168  0.017206  0.000000  1
