# generated using pymatgen
data_Er4Al2CoRu5
_symmetry_space_group_name_H-M   'P 1'
_cell_length_a   5.29317966
_cell_length_b   5.28296262
_cell_length_c   8.77558000
_cell_angle_alpha   90.00000000
_cell_angle_beta   90.00000000
_cell_angle_gamma   121.30930615
_symmetry_Int_Tables_number   1
_chemical_formula_structural   Er4Al2CoRu5
_chemical_formula_sum   'Er4 Al2 Co1 Ru5'
_cell_volume   209.66128758
_cell_formula_units_Z   1
loop_
 _symmetry_equiv_pos_site_id
 _symmetry_equiv_pos_as_xyz
  1  'x, y, z'
loop_
 _atom_site_type_symbol
 _atom_site_label
 _atom_site_symmetry_multiplicity
 _atom_site_fract_x
 _atom_site_fract_y
 _atom_site_fract_z
 _atom_site_occupancy
  Er  Er0  1  0.335307  0.667876  0.438179  1
  Er  Er1  1  0.662607  0.332318  0.564599  1
  Er  Er2  1  0.662607  0.332318  0.935401  1
  Er  Er3  1  0.335307  0.667876  0.061821  1
  Al  Al4  1  0.173699  0.341845  0.750000  1
  Al  Al5  1  0.329389  0.165420  0.250000  1
  Co  Co6  1  0.177183  0.828799  0.750000  1
  Ru  Ru7  1  0.831410  0.659630  0.250000  1
  Ru  Ru8  1  0.670512  0.836442  0.750000  1
  Ru  Ru9  1  0.996081  0.994740  0.995415  1
  Ru  Ru10  1  0.829815  0.177997  0.250000  1
  Ru  Ru11  1  0.996081  0.994740  0.504585  1
