# generated using pymatgen
data_Cs2Li2H6Os
_symmetry_space_group_name_H-M   'P 1'
_cell_length_a   7.05321619
_cell_length_b   7.70185820
_cell_length_c   7.70185700
_cell_angle_alpha   77.22735625
_cell_angle_beta   117.09900795
_cell_angle_gamma   117.09899897
_symmetry_Int_Tables_number   1
_chemical_formula_structural   Cs2Li2H6Os
_chemical_formula_sum   'Cs4 Li4 H12 Os2'
_cell_volume   331.52007906
_cell_formula_units_Z   2
loop_
 _symmetry_equiv_pos_site_id
 _symmetry_equiv_pos_as_xyz
  1  'x, y, z'
loop_
 _atom_site_type_symbol
 _atom_site_label
 _atom_site_symmetry_multiplicity
 _atom_site_fract_x
 _atom_site_fract_y
 _atom_site_fract_z
 _atom_site_occupancy
  Cs  Cs0  1  0.679996  0.612643  0.166295  1
  Cs  Cs1  1  0.250000  0.832980  0.667020  1
  Cs  Cs2  1  0.820004  0.333705  0.887357  1
  Cs  Cs3  1  0.750000  0.125368  0.374632  1
  Li  Li4  1  0.250000  0.232298  0.267702  1
  Li  Li5  1  0.750000  0.767695  0.732305  1
  Li  Li6  1  0.240975  0.738693  0.226739  1
  Li  Li7  1  0.259025  0.273261  0.761307  1
  H  H8  1  0.118729  0.492519  0.468872  1
  H  H9  1  0.295806  0.257114  0.527689  1
  H  H10  1  0.279977  0.497231  0.247739  1
  H  H11  1  0.023285  0.017319  0.741484  1
  H  H12  1  0.833173  0.959979  0.947423  1
  H  H13  1  0.011597  0.751456  0.970616  1
  H  H14  1  0.666827  0.552577  0.540021  1
  H  H15  1  0.476715  0.758516  0.482681  1
  H  H16  1  0.488403  0.529384  0.748544  1
  H  H17  1  0.204194  0.972311  0.242886  1
  H  H18  1  0.381271  0.031128  0.007481  1
  H  H19  1  0.220023  0.252261  0.002769  1
  Os  Os20  1  0.385114  0.509962  0.498400  1
  Os  Os21  1  0.114886  0.001600  0.990038  1
