# generated using pymatgen
data_Hf2(TaB2)3
_symmetry_space_group_name_H-M   'P 1'
_cell_length_a   11.76519580
_cell_length_b   11.76519658
_cell_length_c   3.36586100
_cell_angle_alpha   90.00000000
_cell_angle_beta   90.00000000
_cell_angle_gamma   164.59148903
_symmetry_Int_Tables_number   1
_chemical_formula_structural   Hf2(TaB2)3
_chemical_formula_sum   'Hf2 Ta3 B6'
_cell_volume   123.78983268
_cell_formula_units_Z   1
loop_
 _symmetry_equiv_pos_site_id
 _symmetry_equiv_pos_as_xyz
  1  'x, y, z'
loop_
 _atom_site_type_symbol
 _atom_site_label
 _atom_site_symmetry_multiplicity
 _atom_site_fract_x
 _atom_site_fract_y
 _atom_site_fract_z
 _atom_site_occupancy
  Hf  Hf0  1  0.194417  0.805583  0.500000  1
  Hf  Hf1  1  0.998979  0.001021  0.000000  1
  Ta  Ta2  1  0.806920  0.193080  0.500000  1
  Ta  Ta3  1  0.385262  0.614738  0.000000  1
  Ta  Ta4  1  0.612790  0.387210  0.000000  1
  B  B5  1  0.458801  0.541199  0.500000  1
  B  B6  1  0.539555  0.460445  0.500000  1
  B  B7  1  0.273374  0.726626  0.000000  1
  B  B8  1  0.731928  0.268072  0.000000  1
  B  B9  1  0.080212  0.919788  0.500000  1
  B  B10  1  0.917763  0.082237  0.500000  1
