# generated using pymatgen
data_Pr3TmIn4
_symmetry_space_group_name_H-M   'P 1'
_cell_length_a   6.75013807
_cell_length_b   6.75013926
_cell_length_c   10.19009900
_cell_angle_alpha   90.00000000
_cell_angle_beta   90.00000000
_cell_angle_gamma   97.88180237
_symmetry_Int_Tables_number   1
_chemical_formula_structural   Pr3TmIn4
_chemical_formula_sum   'Pr6 Tm2 In8'
_cell_volume   459.91919833
_cell_formula_units_Z   2
loop_
 _symmetry_equiv_pos_site_id
 _symmetry_equiv_pos_as_xyz
  1  'x, y, z'
loop_
 _atom_site_type_symbol
 _atom_site_label
 _atom_site_symmetry_multiplicity
 _atom_site_fract_x
 _atom_site_fract_y
 _atom_site_fract_z
 _atom_site_occupancy
  Pr  Pr0  1  0.541890  0.541890  0.250000  1
  Pr  Pr1  1  0.458110  0.458110  0.750000  1
  Pr  Pr2  1  0.243796  0.756204  0.500000  1
  Pr  Pr3  1  0.243796  0.756204  0.000000  1
  Pr  Pr4  1  0.756204  0.243796  0.500000  1
  Pr  Pr5  1  0.756204  0.243796  0.000000  1
  Tm  Tm6  1  0.977452  0.977452  0.250000  1
  Tm  Tm7  1  0.022548  0.022548  0.750000  1
  In  In8  1  0.250005  0.250005  0.026841  1
  In  In9  1  0.749995  0.749995  0.973159  1
  In  In10  1  0.250005  0.250005  0.473159  1
  In  In11  1  0.749995  0.749995  0.526841  1
  In  In12  1  0.476031  0.029998  0.250000  1
  In  In13  1  0.970002  0.523969  0.750000  1
  In  In14  1  0.523969  0.970002  0.750000  1
  In  In15  1  0.029998  0.476031  0.250000  1
