# generated using pymatgen
data_Li(Cd2Pd3)3
_symmetry_space_group_name_H-M   'P 1'
_cell_length_a   7.09212260
_cell_length_b   7.09212188
_cell_length_c   7.09212176
_cell_angle_alpha   105.67655631
_cell_angle_beta   105.67655892
_cell_angle_gamma   117.36045005
_symmetry_Int_Tables_number   1
_chemical_formula_structural   Li(Cd2Pd3)3
_chemical_formula_sum   'Li1 Cd6 Pd9'
_cell_volume   270.64906533
_cell_formula_units_Z   1
loop_
 _symmetry_equiv_pos_site_id
 _symmetry_equiv_pos_as_xyz
  1  'x, y, z'
loop_
 _atom_site_type_symbol
 _atom_site_label
 _atom_site_symmetry_multiplicity
 _atom_site_fract_x
 _atom_site_fract_y
 _atom_site_fract_z
 _atom_site_occupancy
  Li  Li0  1  0.500000  0.500000  0.000000  1
  Cd  Cd1  1  0.500000  0.000000  0.500000  1
  Cd  Cd2  1  0.000000  0.500000  0.500000  1
  Cd  Cd3  1  0.243081  0.243081  0.486164  1
  Cd  Cd4  1  0.756919  0.756919  0.513836  1
  Cd  Cd5  1  0.243081  0.756919  0.000000  1
  Cd  Cd6  1  0.756919  0.243081  0.000000  1
  Pd  Pd7  1  0.504020  0.260123  0.243896  1
  Pd  Pd8  1  0.495980  0.739877  0.756104  1
  Pd  Pd9  1  0.016226  0.260123  0.756104  1
  Pd  Pd10  1  0.260123  0.016226  0.756104  1
  Pd  Pd11  1  0.983774  0.739877  0.243896  1
  Pd  Pd12  1  0.739877  0.983774  0.243896  1
  Pd  Pd13  1  0.260123  0.504020  0.243896  1
  Pd  Pd14  1  0.739877  0.495980  0.756104  1
  Pd  Pd15  1  0.000000  0.000000  0.000000  1
