# generated using pymatgen
data_Tm2Co12Si4P3
_symmetry_space_group_name_H-M   'P 1'
_cell_length_a   9.04773400
_cell_length_b   9.04773344
_cell_length_c   3.57363600
_cell_angle_alpha   90.00000000
_cell_angle_beta   90.00000000
_cell_angle_gamma   119.99998742
_symmetry_Int_Tables_number   1
_chemical_formula_structural   Tm2Co12Si4P3
_chemical_formula_sum   'Tm2 Co12 Si4 P3'
_cell_volume   253.34983304
_cell_formula_units_Z   1
loop_
 _symmetry_equiv_pos_site_id
 _symmetry_equiv_pos_as_xyz
  1  'x, y, z'
loop_
 _atom_site_type_symbol
 _atom_site_label
 _atom_site_symmetry_multiplicity
 _atom_site_fract_x
 _atom_site_fract_y
 _atom_site_fract_z
 _atom_site_occupancy
  Tm  Tm0  1  0.666667  0.333333  0.500000  1
  Tm  Tm1  1  0.333333  0.666667  0.000000  1
  Co  Co2  1  0.129866  0.849590  0.000000  1
  Co  Co3  1  0.379951  0.439116  0.500000  1
  Co  Co4  1  0.719725  0.870134  0.000000  1
  Co  Co5  1  0.560884  0.940835  0.500000  1
  Co  Co6  1  0.234952  0.104146  0.500000  1
  Co  Co7  1  0.869194  0.765048  0.500000  1
  Co  Co8  1  0.895854  0.130806  0.500000  1
  Co  Co9  1  0.945178  0.381397  0.000000  1
  Co  Co10  1  0.618603  0.563782  0.000000  1
  Co  Co11  1  0.436218  0.054822  0.000000  1
  Co  Co12  1  0.059165  0.620049  0.500000  1
  Co  Co13  1  0.150410  0.280275  0.000000  1
  Si  Si14  1  0.000000  0.000000  0.000000  1
  Si  Si15  1  0.713250  0.112810  0.000000  1
  Si  Si16  1  0.887190  0.600440  0.000000  1
  Si  Si17  1  0.399560  0.286750  0.000000  1
  P  P18  1  0.597403  0.707128  0.500000  1
  P  P19  1  0.292872  0.890275  0.500000  1
  P  P20  1  0.109725  0.402597  0.500000  1
