# generated using pymatgen
data_Pr20CoSn8Rh3
_symmetry_space_group_name_H-M   'P 1'
_cell_length_a   8.22939090
_cell_length_b   9.28742100
_cell_length_c   12.79389339
_cell_angle_alpha   90.00000000
_cell_angle_beta   90.05352392
_cell_angle_gamma   90.00000000
_symmetry_Int_Tables_number   1
_chemical_formula_structural   Pr20CoSn8Rh3
_chemical_formula_sum   'Pr20 Co1 Sn8 Rh3'
_cell_volume   977.83451503
_cell_formula_units_Z   1
loop_
 _symmetry_equiv_pos_site_id
 _symmetry_equiv_pos_as_xyz
  1  'x, y, z'
loop_
 _atom_site_type_symbol
 _atom_site_label
 _atom_site_symmetry_multiplicity
 _atom_site_fract_x
 _atom_site_fract_y
 _atom_site_fract_z
 _atom_site_occupancy
  Pr  Pr0  1  0.840018  0.750000  0.791722  1
  Pr  Pr1  1  0.160471  0.250000  0.213162  1
  Pr  Pr2  1  0.337682  0.250000  0.714000  1
  Pr  Pr3  1  0.661410  0.750000  0.286770  1
  Pr  Pr4  1  0.369602  0.750000  0.694977  1
  Pr  Pr5  1  0.633810  0.250000  0.303519  1
  Pr  Pr6  1  0.870226  0.250000  0.803748  1
  Pr  Pr7  1  0.129135  0.750000  0.194701  1
  Pr  Pr8  1  0.949327  0.750000  0.502673  1
  Pr  Pr9  1  0.046986  0.250000  0.499538  1
  Pr  Pr10  1  0.447373  0.250000  0.998552  1
  Pr  Pr11  1  0.552759  0.750000  0.001103  1
  Pr  Pr12  1  0.677773  0.037102  0.574849  1
  Pr  Pr13  1  0.321975  0.966217  0.424207  1
  Pr  Pr14  1  0.177580  0.961098  0.928132  1
  Pr  Pr15  1  0.321975  0.533783  0.424207  1
  Pr  Pr16  1  0.823126  0.027071  0.070258  1
  Pr  Pr17  1  0.677773  0.462898  0.574849  1
  Pr  Pr18  1  0.823126  0.472929  0.070258  1
  Pr  Pr19  1  0.177580  0.538902  0.928132  1
  Co  Co20  1  0.921629  0.750000  0.009203  1
  Sn  Sn21  1  0.565239  0.495099  0.828648  1
  Sn  Sn22  1  0.435127  0.504866  0.171422  1
  Sn  Sn23  1  0.066932  0.505518  0.671506  1
  Sn  Sn24  1  0.435127  0.995134  0.171422  1
  Sn  Sn25  1  0.933953  0.494723  0.329147  1
  Sn  Sn26  1  0.565239  0.004901  0.828648  1
  Sn  Sn27  1  0.933953  0.005277  0.329147  1
  Sn  Sn28  1  0.066932  0.994482  0.671506  1
  Rh  Rh29  1  0.578260  0.750000  0.508486  1
  Rh  Rh30  1  0.419871  0.250000  0.490473  1
  Rh  Rh31  1  0.078031  0.250000  0.991035  1
