# generated using pymatgen
data_TbHo4Pa(Al3Os)8
_symmetry_space_group_name_H-M   'P 1'
_cell_length_a   8.80805300
_cell_length_b   8.84524369
_cell_length_c   9.57149200
_cell_angle_alpha   90.00000000
_cell_angle_beta   90.00000000
_cell_angle_gamma   119.86100650
_symmetry_Int_Tables_number   1
_chemical_formula_structural   TbHo4Pa(Al3Os)8
_chemical_formula_sum   'Tb1 Ho4 Pa1 Al24 Os8'
_cell_volume   646.70550895
_cell_formula_units_Z   1
loop_
 _symmetry_equiv_pos_site_id
 _symmetry_equiv_pos_as_xyz
  1  'x, y, z'
loop_
 _atom_site_type_symbol
 _atom_site_label
 _atom_site_symmetry_multiplicity
 _atom_site_fract_x
 _atom_site_fract_y
 _atom_site_fract_z
 _atom_site_occupancy
  Tb  Tb0  1  0.808170  0.616340  0.750000  1
  Ho  Ho1  1  0.609430  0.802225  0.250000  1
  Ho  Ho2  1  0.388409  0.192267  0.750000  1
  Ho  Ho3  1  0.192795  0.802225  0.250000  1
  Ho  Ho4  1  0.803858  0.192267  0.750000  1
  Pa  Pa5  1  0.197004  0.394008  0.250000  1
  Al  Al6  1  0.336375  0.672752  0.018685  1
  Al  Al7  1  0.667663  0.335325  0.980553  1
  Al  Al8  1  0.667663  0.335325  0.519447  1
  Al  Al9  1  0.336375  0.672752  0.481315  1
  Al  Al10  1  0.163020  0.326041  0.577390  1
  Al  Al11  1  0.836694  0.673389  0.424724  1
  Al  Al12  1  0.672607  0.835617  0.574926  1
  Al  Al13  1  0.836694  0.673389  0.075276  1
  Al  Al14  1  0.326220  0.162078  0.423640  1
  Al  Al15  1  0.163020  0.326041  0.922610  1
  Al  Al16  1  0.163009  0.835617  0.574926  1
  Al  Al17  1  0.326220  0.162078  0.076360  1
  Al  Al18  1  0.835857  0.162078  0.423640  1
  Al  Al19  1  0.672607  0.835617  0.925074  1
  Al  Al20  1  0.835857  0.162078  0.076360  1
  Al  Al21  1  0.163009  0.835617  0.925074  1
  Al  Al22  1  0.559847  0.119694  0.250000  1
  Al  Al23  1  0.437930  0.875859  0.750000  1
  Al  Al24  1  0.872899  0.437387  0.250000  1
  Al  Al25  1  0.120460  0.559422  0.750000  1
  Al  Al26  1  0.564487  0.437387  0.250000  1
  Al  Al27  1  0.438963  0.559422  0.750000  1
  Al  Al28  1  0.000990  0.001981  0.250000  1
  Al  Al29  1  0.000793  0.001587  0.750000  1
  Os  Os30  1  0.501706  0.003410  0.997827  1
  Os  Os31  1  0.003338  0.499520  0.004807  1
  Os  Os32  1  0.501706  0.003410  0.502173  1
  Os  Os33  1  0.496181  0.499520  0.004807  1
  Os  Os34  1  0.003338  0.499520  0.495193  1
  Os  Os35  1  0.496181  0.499520  0.495193  1
  Os  Os36  1  0.999309  0.998620  0.999290  1
  Os  Os37  1  0.999309  0.998620  0.500710  1
