# generated using pymatgen
data_Cs4TaNb3H20
_symmetry_space_group_name_H-M   'P 1'
_cell_length_a   11.67808514
_cell_length_b   7.62271537
_cell_length_c   5.20997240
_cell_angle_alpha   90.04313071
_cell_angle_beta   89.99548493
_cell_angle_gamma   89.94747045
_symmetry_Int_Tables_number   1
_chemical_formula_structural   Cs4TaNb3H20
_chemical_formula_sum   'Cs4 Ta1 Nb3 H20'
_cell_volume   463.78474162
_cell_formula_units_Z   1
loop_
 _symmetry_equiv_pos_site_id
 _symmetry_equiv_pos_as_xyz
  1  'x, y, z'
loop_
 _atom_site_type_symbol
 _atom_site_label
 _atom_site_symmetry_multiplicity
 _atom_site_fract_x
 _atom_site_fract_y
 _atom_site_fract_z
 _atom_site_occupancy
  Cs  Cs0  1  0.670055  0.071415  0.335679  1
  Cs  Cs1  1  0.167446  0.428982  0.338440  1
  Cs  Cs2  1  0.832951  0.571748  0.838554  1
  Cs  Cs3  1  0.330150  0.929603  0.835341  1
  Ta  Ta4  1  0.482954  0.436363  0.808497  1
  Nb  Nb5  1  0.515603  0.558600  0.303644  1
  Nb  Nb6  1  0.016101  0.941089  0.304154  1
  Nb  Nb7  1  0.984199  0.059469  0.804230  1
  H  H8  1  0.345004  0.323410  0.805860  1
  H  H9  1  0.847312  0.175373  0.811574  1
  H  H10  1  0.976899  0.708317  0.318494  1
  H  H11  1  0.474223  0.790655  0.316971  1
  H  H12  1  0.599086  0.408876  0.065504  1
  H  H13  1  0.098002  0.093788  0.068396  1
  H  H14  1  0.386842  0.536295  0.067132  1
  H  H15  1  0.887755  0.961785  0.067080  1
  H  H16  1  0.958137  0.156493  0.457564  1
  H  H17  1  0.461162  0.341910  0.458697  1
  H  H18  1  0.152986  0.825528  0.310885  1
  H  H19  1  0.652614  0.673514  0.303653  1
  H  H20  1  0.526047  0.204779  0.819914  1
  H  H21  1  0.023232  0.292433  0.819215  1
  H  H22  1  0.902270  0.906425  0.567973  1
  H  H23  1  0.405755  0.593588  0.577463  1
  H  H24  1  0.112741  0.038692  0.566733  1
  H  H25  1  0.610453  0.473917  0.581177  1
  H  H26  1  0.537762  0.652832  0.957353  1
  H  H27  1  0.042262  0.844120  0.957823  1
