# generated using pymatgen
data_Li3Gd3Np2O12
_symmetry_space_group_name_H-M   'P 1'
_cell_length_a   11.07391449
_cell_length_b   11.07391412
_cell_length_c   11.07391500
_cell_angle_alpha   109.47122224
_cell_angle_beta   109.47121608
_cell_angle_gamma   109.47122145
_symmetry_Int_Tables_number   1
_chemical_formula_structural   Li3Gd3Np2O12
_chemical_formula_sum   'Li12 Gd12 Np8 O48'
_cell_volume   1045.39789956
_cell_formula_units_Z   4
loop_
 _symmetry_equiv_pos_site_id
 _symmetry_equiv_pos_as_xyz
  1  'x, y, z'
loop_
 _atom_site_type_symbol
 _atom_site_label
 _atom_site_symmetry_multiplicity
 _atom_site_fract_x
 _atom_site_fract_y
 _atom_site_fract_z
 _atom_site_occupancy
  Li  Li0  1  0.875000  0.250000  0.124999  1
  Li  Li1  1  0.750000  0.875001  0.125000  1
  Li  Li2  1  0.125000  0.875000  0.250000  1
  Li  Li3  1  0.624999  0.374998  0.250000  1
  Li  Li4  1  0.625000  0.749999  0.375000  1
  Li  Li5  1  0.250000  0.625000  0.375000  1
  Li  Li6  1  0.374999  0.249999  0.625000  1
  Li  Li7  1  0.750000  0.375000  0.625001  1
  Li  Li8  1  0.875001  0.125000  0.750000  1
  Li  Li9  1  0.375000  0.625000  0.750000  1
  Li  Li10  1  0.124999  0.749999  0.874999  1
  Li  Li11  1  0.250000  0.125000  0.875001  1
  Gd  Gd12  1  0.374999  0.749999  0.124999  1
  Gd  Gd13  1  0.250000  0.375000  0.125000  1
  Gd  Gd14  1  0.375000  0.125000  0.250000  1
  Gd  Gd15  1  0.875001  0.625001  0.250001  1
  Gd  Gd16  1  0.750000  0.124999  0.375000  1
  Gd  Gd17  1  0.124999  0.250000  0.375000  1
  Gd  Gd18  1  0.250000  0.875000  0.625000  1
  Gd  Gd19  1  0.874999  0.750000  0.625000  1
  Gd  Gd20  1  0.125001  0.375000  0.750000  1
  Gd  Gd21  1  0.625001  0.875000  0.750000  1
  Gd  Gd22  1  0.625000  0.250000  0.874999  1
  Gd  Gd23  1  0.750000  0.624999  0.875001  1
  Np  Np24  1  0.000000  0.000000  0.000000  1
  Np  Np25  1  0.500001  0.000000  0.000000  1
  Np  Np26  1  0.000000  0.499999  0.000000  1
  Np  Np27  1  0.500000  0.500000  0.000000  1
  Np  Np28  1  0.499999  0.499999  0.499999  1
  Np  Np29  1  0.000000  0.500000  0.500001  1
  Np  Np30  1  0.500000  0.000000  0.500001  1
  Np  Np31  1  0.000000  0.000000  0.500001  1
  O  O32  1  0.324810  0.907762  0.032263  1
  O  O33  1  0.207455  0.124502  0.032265  1
  O  O34  1  0.875498  0.407763  0.082952  1
  O  O35  1  0.707454  0.675191  0.082953  1
  O  O36  1  0.624502  0.417047  0.092237  1
  O  O37  1  0.967736  0.675190  0.092238  1
  O  O38  1  0.592238  0.917047  0.124502  1
  O  O39  1  0.032265  0.207455  0.124503  1
  O  O40  1  0.207454  0.582952  0.175190  1
  O  O41  1  0.467735  0.592238  0.175191  1
  O  O42  1  0.582953  0.175190  0.207453  1
  O  O43  1  0.124502  0.032264  0.207455  1
  O  O44  1  0.324810  0.917046  0.292545  1
  O  O45  1  0.467736  0.375498  0.292546  1
  O  O46  1  0.917048  0.292546  0.324810  1
  O  O47  1  0.907762  0.032264  0.324810  1
  O  O48  1  0.582953  0.907763  0.375499  1
  O  O49  1  0.292546  0.467735  0.375499  1
  O  O50  1  0.824809  0.532265  0.407763  1
  O  O51  1  0.082953  0.875498  0.407763  1
  O  O52  1  0.092237  0.624502  0.417048  1
  O  O53  1  0.824810  0.792546  0.417048  1
  O  O54  1  0.592237  0.175189  0.467734  1
  O  O55  1  0.375498  0.292545  0.467735  1
  O  O56  1  0.407762  0.824810  0.532263  1
  O  O57  1  0.624503  0.707455  0.532264  1
  O  O58  1  0.175190  0.207454  0.582952  1
  O  O59  1  0.907763  0.375498  0.582952  1
  O  O60  1  0.175190  0.467735  0.592237  1
  O  O61  1  0.917049  0.124502  0.592238  1
  O  O62  1  0.417047  0.092237  0.624501  1
  O  O63  1  0.707454  0.532264  0.624502  1
  O  O64  1  0.092237  0.967736  0.675189  1
  O  O65  1  0.082952  0.707454  0.675190  1
  O  O66  1  0.532265  0.624501  0.707454  1
  O  O67  1  0.675190  0.082952  0.707454  1
  O  O68  1  0.417047  0.824810  0.792545  1
  O  O69  1  0.875499  0.967735  0.792545  1
  O  O70  1  0.792546  0.417048  0.824810  1
  O  O71  1  0.532265  0.407762  0.824810  1
  O  O72  1  0.967735  0.792545  0.875498  1
  O  O73  1  0.407762  0.082953  0.875498  1
  O  O74  1  0.032264  0.324810  0.907762  1
  O  O75  1  0.375499  0.582953  0.907762  1
  O  O76  1  0.124501  0.592238  0.917047  1
  O  O77  1  0.292546  0.324810  0.917048  1
  O  O78  1  0.792546  0.875498  0.967736  1
  O  O79  1  0.675190  0.092238  0.967736  1
