# generated using pymatgen
data_Y2Sc3P12Ir10Ru9
_symmetry_space_group_name_H-M   'P 1'
_cell_length_a   12.58634058
_cell_length_b   12.58634128
_cell_length_c   3.91821000
_cell_angle_alpha   90.00000000
_cell_angle_beta   90.00000000
_cell_angle_gamma   120.03471783
_symmetry_Int_Tables_number   1
_chemical_formula_structural   Y2Sc3P12Ir10Ru9
_chemical_formula_sum   'Y2 Sc3 P12 Ir10 Ru9'
_cell_volume   537.35993557
_cell_formula_units_Z   1
loop_
 _symmetry_equiv_pos_site_id
 _symmetry_equiv_pos_as_xyz
  1  'x, y, z'
loop_
 _atom_site_type_symbol
 _atom_site_label
 _atom_site_symmetry_multiplicity
 _atom_site_fract_x
 _atom_site_fract_y
 _atom_site_fract_z
 _atom_site_occupancy
  Y  Y0  1  0.812870  0.000344  0.500000  1
  Y  Y1  1  0.000344  0.812870  0.500000  1
  Sc  Sc2  1  0.333124  0.666615  0.000000  1
  Sc  Sc3  1  0.666615  0.333124  0.000000  1
  Sc  Sc4  1  0.189135  0.189135  0.500000  1
  P  P5  1  0.182123  0.002080  0.000000  1
  P  P6  1  0.002080  0.182123  0.000000  1
  P  P7  1  0.819297  0.819297  0.000000  1
  P  P8  1  0.174512  0.482350  0.500000  1
  P  P9  1  0.516933  0.691385  0.500000  1
  P  P10  1  0.307971  0.826283  0.500000  1
  P  P11  1  0.691385  0.516933  0.500000  1
  P  P12  1  0.826283  0.307971  0.500000  1
  P  P13  1  0.482350  0.174512  0.500000  1
  P  P14  1  0.636069  0.999978  0.000000  1
  P  P15  1  0.999978  0.636069  0.000000  1
  P  P16  1  0.361065  0.361065  0.000000  1
  Ir  Ir17  1  0.363412  0.494830  0.500000  1
  Ir  Ir18  1  0.503997  0.868356  0.500000  1
  Ir  Ir19  1  0.131800  0.635965  0.500000  1
  Ir  Ir20  1  0.868356  0.503997  0.500000  1
  Ir  Ir21  1  0.635965  0.131800  0.500000  1
  Ir  Ir22  1  0.494830  0.363412  0.500000  1
  Ir  Ir23  1  0.286256  0.001119  0.500000  1
  Ir  Ir24  1  0.001119  0.286256  0.500000  1
  Ir  Ir25  1  0.713098  0.713098  0.500000  1
  Ir  Ir26  1  0.002294  0.002294  0.000000  1
  Ru  Ru27  1  0.452361  0.000732  0.000000  1
  Ru  Ru28  1  0.000732  0.452361  0.000000  1
  Ru  Ru29  1  0.546367  0.546367  0.000000  1
  Ru  Ru30  1  0.183154  0.377036  0.000000  1
  Ru  Ru31  1  0.619588  0.802451  0.000000  1
  Ru  Ru32  1  0.197536  0.817513  0.000000  1
  Ru  Ru33  1  0.802451  0.619588  0.000000  1
  Ru  Ru34  1  0.817513  0.197536  0.000000  1
  Ru  Ru35  1  0.377036  0.183154  0.000000  1
