# generated using pymatgen
data_PrNd4(FeO6)2
_symmetry_space_group_name_H-M   'P 1'
_cell_length_a   7.00820913
_cell_length_b   7.00820918
_cell_length_c   7.58108121
_cell_angle_alpha   74.44498274
_cell_angle_beta   74.44498415
_cell_angle_gamma   50.89357765
_symmetry_Int_Tables_number   1
_chemical_formula_structural   PrNd4(FeO6)2
_chemical_formula_sum   'Pr1 Nd4 Fe2 O12'
_cell_volume   275.89550474
_cell_formula_units_Z   1
loop_
 _symmetry_equiv_pos_site_id
 _symmetry_equiv_pos_as_xyz
  1  'x, y, z'
loop_
 _atom_site_type_symbol
 _atom_site_label
 _atom_site_symmetry_multiplicity
 _atom_site_fract_x
 _atom_site_fract_y
 _atom_site_fract_z
 _atom_site_occupancy
  Pr  Pr0  1  0.000000  0.000000  0.500000  1
  Nd  Nd1  1  0.307787  0.307787  0.356648  1
  Nd  Nd2  1  0.692213  0.692213  0.643352  1
  Nd  Nd3  1  0.694240  0.694240  0.164508  1
  Nd  Nd4  1  0.305760  0.305760  0.835492  1
  Fe  Fe5  1  0.757806  0.242194  0.000000  1
  Fe  Fe6  1  0.242194  0.757806  0.000000  1
  O  O7  1  0.095715  0.593089  0.580170  1
  O  O8  1  0.998626  0.998626  0.174495  1
  O  O9  1  0.406911  0.904285  0.419830  1
  O  O10  1  0.500817  0.500817  0.173487  1
  O  O11  1  0.103419  0.586000  0.075305  1
  O  O12  1  0.904285  0.406911  0.419830  1
  O  O13  1  0.001374  0.001374  0.825505  1
  O  O14  1  0.593089  0.095714  0.580170  1
  O  O15  1  0.499183  0.499183  0.826513  1
  O  O16  1  0.586000  0.103419  0.075305  1
  O  O17  1  0.414000  0.896581  0.924695  1
  O  O18  1  0.896581  0.414000  0.924695  1
