# generated using pymatgen
data_TbCr2(FeTc4)2
_symmetry_space_group_name_H-M   'P 1'
_cell_length_a   6.69947046
_cell_length_b   6.76221190
_cell_length_c   6.75821351
_cell_angle_alpha   98.00053696
_cell_angle_beta   97.32747715
_cell_angle_gamma   137.85030806
_symmetry_Int_Tables_number   1
_chemical_formula_structural   TbCr2(FeTc4)2
_chemical_formula_sum   'Tb1 Cr2 Fe2 Tc8'
_cell_volume   190.80370365
_cell_formula_units_Z   1
loop_
 _symmetry_equiv_pos_site_id
 _symmetry_equiv_pos_as_xyz
  1  'x, y, z'
loop_
 _atom_site_type_symbol
 _atom_site_label
 _atom_site_symmetry_multiplicity
 _atom_site_fract_x
 _atom_site_fract_y
 _atom_site_fract_z
 _atom_site_occupancy
  Tb  Tb0  1  0.000000  0.000000  0.000000  1
  Cr  Cr1  1  0.000000  0.000000  0.500000  1
  Cr  Cr2  1  0.000000  0.500000  0.000000  1
  Fe  Fe3  1  0.500000  0.000000  0.000000  1
  Fe  Fe4  1  0.500000  0.500000  0.500000  1
  Tc  Tc5  1  0.641813  0.997807  0.644157  1
  Tc  Tc6  1  0.000028  0.643488  0.643579  1
  Tc  Tc7  1  0.999972  0.356512  0.356421  1
  Tc  Tc8  1  0.358187  0.002193  0.355843  1
  Tc  Tc9  1  0.717239  0.499553  0.217533  1
  Tc  Tc10  1  0.499874  0.719047  0.218988  1
  Tc  Tc11  1  0.500126  0.280953  0.781012  1
  Tc  Tc12  1  0.282761  0.500447  0.782467  1
