# generated using pymatgen
data_Ho6FeCo5(NiP)12
_symmetry_space_group_name_H-M   'P 1'
_cell_length_a   3.73728300
_cell_length_b   10.47993100
_cell_length_c   12.19333500
_cell_angle_alpha   90.00000000
_cell_angle_beta   90.00000000
_cell_angle_gamma   90.00000000
_symmetry_Int_Tables_number   1
_chemical_formula_structural   Ho6FeCo5(NiP)12
_chemical_formula_sum   'Ho6 Fe1 Co5 Ni12 P12'
_cell_volume   477.56986469
_cell_formula_units_Z   1
loop_
 _symmetry_equiv_pos_site_id
 _symmetry_equiv_pos_as_xyz
  1  'x, y, z'
loop_
 _atom_site_type_symbol
 _atom_site_label
 _atom_site_symmetry_multiplicity
 _atom_site_fract_x
 _atom_site_fract_y
 _atom_site_fract_z
 _atom_site_occupancy
  Ho  Ho0  1  0.000000  0.500000  0.519342  1
  Ho  Ho1  1  0.500000  0.000000  0.479616  1
  Ho  Ho2  1  0.500000  0.816276  0.206413  1
  Ho  Ho3  1  0.500000  0.183724  0.206413  1
  Ho  Ho4  1  0.000000  0.683291  0.794755  1
  Ho  Ho5  1  0.000000  0.316709  0.794755  1
  Fe  Fe6  1  0.000000  0.500000  0.986769  1
  Co  Co7  1  0.500000  0.000000  0.016161  1
  Co  Co8  1  0.500000  0.331658  0.995028  1
  Co  Co9  1  0.500000  0.668342  0.995028  1
  Co  Co10  1  0.000000  0.164014  0.004421  1
  Co  Co11  1  0.000000  0.835986  0.004421  1
  Ni  Ni12  1  0.500000  0.301849  0.429529  1
  Ni  Ni13  1  0.500000  0.698151  0.429529  1
  Ni  Ni14  1  0.000000  0.199248  0.571578  1
  Ni  Ni15  1  0.000000  0.800752  0.571578  1
  Ni  Ni16  1  0.500000  0.878982  0.712606  1
  Ni  Ni17  1  0.500000  0.121018  0.712606  1
  Ni  Ni18  1  0.000000  0.620990  0.285365  1
  Ni  Ni19  1  0.000000  0.379010  0.285365  1
  Ni  Ni20  1  0.500000  0.500000  0.154468  1
  Ni  Ni21  1  0.000000  0.000000  0.841807  1
  Ni  Ni22  1  0.500000  0.500000  0.704245  1
  Ni  Ni23  1  0.000000  0.000000  0.297828  1
  P  P24  1  0.500000  0.313822  0.616431  1
  P  P25  1  0.500000  0.686178  0.616431  1
  P  P26  1  0.000000  0.186738  0.384305  1
  P  P27  1  0.000000  0.813262  0.384305  1
  P  P28  1  0.500000  0.500000  0.885056  1
  P  P29  1  0.000000  0.000000  0.119174  1
  P  P30  1  0.500000  0.846492  0.896798  1
  P  P31  1  0.500000  0.153508  0.896798  1
  P  P32  1  0.000000  0.656626  0.101423  1
  P  P33  1  0.000000  0.343374  0.101423  1
  P  P34  1  0.500000  0.500000  0.341803  1
  P  P35  1  0.000000  0.000000  0.656425  1
