# generated using pymatgen
data_Yb4In7GaO16
_symmetry_space_group_name_H-M   'P 1'
_cell_length_a   3.20983300
_cell_length_b   9.58925337
_cell_length_c   11.31059668
_cell_angle_alpha   89.27498774
_cell_angle_beta   90.00000000
_cell_angle_gamma   90.00000000
_symmetry_Int_Tables_number   1
_chemical_formula_structural   Yb4In7GaO16
_chemical_formula_sum   'Yb4 In7 Ga1 O16'
_cell_volume   348.11118495
_cell_formula_units_Z   1
loop_
 _symmetry_equiv_pos_site_id
 _symmetry_equiv_pos_as_xyz
  1  'x, y, z'
loop_
 _atom_site_type_symbol
 _atom_site_label
 _atom_site_symmetry_multiplicity
 _atom_site_fract_x
 _atom_site_fract_y
 _atom_site_fract_z
 _atom_site_occupancy
  Yb  Yb0  1  0.750000  0.255424  0.848685  1
  Yb  Yb1  1  0.250000  0.736225  0.144809  1
  Yb  Yb2  1  0.750000  0.754583  0.658150  1
  Yb  Yb3  1  0.250000  0.244303  0.346355  1
  In  In4  1  0.250000  0.569812  0.386178  1
  In  In5  1  0.750000  0.433172  0.617712  1
  In  In6  1  0.250000  0.069050  0.114539  1
  In  In7  1  0.750000  0.922502  0.890136  1
  In  In8  1  0.750000  0.914137  0.395817  1
  In  In9  1  0.250000  0.083194  0.606518  1
  In  In10  1  0.750000  0.420902  0.098979  1
  Ga  Ga11  1  0.250000  0.581324  0.889139  1
  O  O12  1  0.250000  0.590431  0.577596  1
  O  O13  1  0.750000  0.410414  0.426229  1
  O  O14  1  0.250000  0.089586  0.925452  1
  O  O15  1  0.750000  0.906737  0.078978  1
  O  O16  1  0.250000  0.477865  0.213409  1
  O  O17  1  0.750000  0.535953  0.789689  1
  O  O18  1  0.250000  0.983097  0.287232  1
  O  O19  1  0.750000  0.017622  0.718704  1
  O  O20  1  0.250000  0.869346  0.530241  1
  O  O21  1  0.750000  0.129710  0.473505  1
  O  O22  1  0.250000  0.384338  0.961648  1
  O  O23  1  0.750000  0.628570  0.015043  1
  O  O24  1  0.750000  0.707234  0.315338  1
  O  O25  1  0.250000  0.293087  0.686295  1
  O  O26  1  0.750000  0.210742  0.177679  1
  O  O27  1  0.250000  0.780638  0.825945  1
