# generated using pymatgen
data_Th2Re(TcB3)2
_symmetry_space_group_name_H-M   'P 1'
_cell_length_a   6.34388514
_cell_length_b   6.34388509
_cell_length_c   7.64268587
_cell_angle_alpha   90.85842700
_cell_angle_beta   90.85843186
_cell_angle_gamma   115.05261065
_symmetry_Int_Tables_number   1
_chemical_formula_structural   Th2Re(TcB3)2
_chemical_formula_sum   'Th4 Re2 Tc4 B12'
_cell_volume   278.53323405
_cell_formula_units_Z   2
loop_
 _symmetry_equiv_pos_site_id
 _symmetry_equiv_pos_as_xyz
  1  'x, y, z'
loop_
 _atom_site_type_symbol
 _atom_site_label
 _atom_site_symmetry_multiplicity
 _atom_site_fract_x
 _atom_site_fract_y
 _atom_site_fract_z
 _atom_site_occupancy
  Th  Th0  1  0.096291  0.439101  0.326132  1
  Th  Th1  1  0.560899  0.903709  0.173868  1
  Th  Th2  1  0.904213  0.560332  0.673872  1
  Th  Th3  1  0.439668  0.095787  0.826128  1
  Re  Re4  1  0.007762  0.195463  0.912862  1
  Re  Re5  1  0.804537  0.992238  0.587138  1
  Tc  Tc6  1  0.588542  0.411458  0.250000  1
  Tc  Tc7  1  0.411292  0.588708  0.750000  1
  Tc  Tc8  1  0.991684  0.804762  0.086268  1
  Tc  Tc9  1  0.195238  0.008316  0.413732  1
  B  B10  1  0.244777  0.154349  0.132501  1
  B  B11  1  0.845651  0.755223  0.367499  1
  B  B12  1  0.753620  0.845934  0.865698  1
  B  B13  1  0.154066  0.246380  0.634302  1
  B  B14  1  0.582979  0.160284  0.482315  1
  B  B15  1  0.839716  0.417021  0.017685  1
  B  B16  1  0.416502  0.838339  0.517205  1
  B  B17  1  0.161661  0.583498  0.982795  1
  B  B18  1  0.443876  0.349244  0.533432  1
  B  B19  1  0.650756  0.556124  0.966568  1
  B  B20  1  0.555800  0.649531  0.466482  1
  B  B21  1  0.350469  0.444200  0.033518  1
