# generated using pymatgen
data_Ca12Tb7YSn16
_symmetry_space_group_name_H-M   'P 1'
_cell_length_a   7.86252508
_cell_length_b   8.43658309
_cell_length_c   16.09852300
_cell_angle_alpha   90.00569115
_cell_angle_beta   90.00830012
_cell_angle_gamma   90.00613855
_symmetry_Int_Tables_number   1
_chemical_formula_structural   Ca12Tb7YSn16
_chemical_formula_sum   'Ca12 Tb7 Y1 Sn16'
_cell_volume   1067.86082690
_cell_formula_units_Z   1
loop_
 _symmetry_equiv_pos_site_id
 _symmetry_equiv_pos_as_xyz
  1  'x, y, z'
loop_
 _atom_site_type_symbol
 _atom_site_label
 _atom_site_symmetry_multiplicity
 _atom_site_fract_x
 _atom_site_fract_y
 _atom_site_fract_z
 _atom_site_occupancy
  Ca  Ca0  1  0.502257  0.687183  0.593059  1
  Ca  Ca1  1  0.002146  0.812870  0.906924  1
  Ca  Ca2  1  0.497819  0.312859  0.093071  1
  Ca  Ca3  1  0.997803  0.187114  0.406923  1
  Ca  Ca4  1  0.497840  0.312843  0.406955  1
  Ca  Ca5  1  0.997829  0.187130  0.093078  1
  Ca  Ca6  1  0.502191  0.687119  0.906918  1
  Ca  Ca7  1  0.002144  0.812856  0.593091  1
  Ca  Ca8  1  0.832610  0.510872  0.749972  1
  Ca  Ca9  1  0.332606  0.989093  0.749993  1
  Ca  Ca10  1  0.167389  0.489095  0.249990  1
  Ca  Ca11  1  0.667396  0.010926  0.250016  1
  Tb  Tb12  1  0.170188  0.332686  0.877879  1
  Tb  Tb13  1  0.329847  0.832707  0.122085  1
  Tb  Tb14  1  0.829846  0.667309  0.377958  1
  Tb  Tb15  1  0.329860  0.832641  0.377933  1
  Tb  Tb16  1  0.829873  0.667302  0.122083  1
  Tb  Tb17  1  0.670063  0.167341  0.877845  1
  Tb  Tb18  1  0.170084  0.332598  0.622125  1
  Y  Y19  1  0.670269  0.167218  0.622103  1
  Sn  Sn20  1  0.671544  0.964471  0.459858  1
  Sn  Sn21  1  0.171571  0.535702  0.040314  1
  Sn  Sn22  1  0.328398  0.035726  0.959707  1
  Sn  Sn23  1  0.828237  0.464329  0.540317  1
  Sn  Sn24  1  0.328718  0.035772  0.540315  1
  Sn  Sn25  1  0.828471  0.464298  0.959676  1
  Sn  Sn26  1  0.671554  0.964305  0.040292  1
  Sn  Sn27  1  0.171533  0.535650  0.459712  1
  Sn  Sn28  1  0.467405  0.376557  0.750054  1
  Sn  Sn29  1  0.967245  0.123374  0.749867  1
  Sn  Sn30  1  0.532658  0.623358  0.250004  1
  Sn  Sn31  1  0.032646  0.876678  0.249990  1
  Sn  Sn32  1  0.712810  0.872824  0.749955  1
  Sn  Sn33  1  0.212933  0.627158  0.749951  1
  Sn  Sn34  1  0.287110  0.127197  0.249998  1
  Sn  Sn35  1  0.787106  0.372837  0.249990  1
