# generated using pymatgen
data_La16Mg3CdTc3Pd
_symmetry_space_group_name_H-M   'P 1'
_cell_length_a   10.07507895
_cell_length_b   10.22870491
_cell_length_c   10.22870500
_cell_angle_alpha   60.00000295
_cell_angle_beta   59.49430441
_cell_angle_gamma   59.49430673
_symmetry_Int_Tables_number   1
_chemical_formula_structural   La16Mg3CdTc3Pd
_chemical_formula_sum   'La16 Mg3 Cd1 Tc3 Pd1'
_cell_volume   739.62669090
_cell_formula_units_Z   1
loop_
 _symmetry_equiv_pos_site_id
 _symmetry_equiv_pos_as_xyz
  1  'x, y, z'
loop_
 _atom_site_type_symbol
 _atom_site_label
 _atom_site_symmetry_multiplicity
 _atom_site_fract_x
 _atom_site_fract_y
 _atom_site_fract_z
 _atom_site_occupancy
  La  La0  1  0.339739  0.349781  0.349781  1
  La  La1  1  0.339739  0.349781  0.960698  1
  La  La2  1  0.339739  0.960698  0.349781  1
  La  La3  1  0.969800  0.343400  0.343400  1
  La  La4  1  0.823124  0.186897  0.186897  1
  La  La5  1  0.188295  0.812968  0.812968  1
  La  La6  1  0.188295  0.812968  0.185768  1
  La  La7  1  0.823124  0.186897  0.803082  1
  La  La8  1  0.188295  0.185768  0.812968  1
  La  La9  1  0.823124  0.803082  0.186897  1
  La  La10  1  0.942965  0.558011  0.558011  1
  La  La11  1  0.555810  0.940789  0.940789  1
  La  La12  1  0.555810  0.940789  0.562611  1
  La  La13  1  0.942965  0.558011  0.941012  1
  La  La14  1  0.555810  0.562611  0.940789  1
  La  La15  1  0.942965  0.941012  0.558011  1
  Mg  Mg16  1  0.576620  0.577818  0.577818  1
  Mg  Mg17  1  0.576620  0.577818  0.267747  1
  Mg  Mg18  1  0.576620  0.267747  0.577818  1
  Cd  Cd19  1  0.262384  0.579205  0.579205  1
  Tc  Tc20  1  0.135827  0.135291  0.135291  1
  Tc  Tc21  1  0.135827  0.135291  0.593591  1
  Tc  Tc22  1  0.135827  0.593591  0.135291  1
  Pd  Pd23  1  0.580676  0.139775  0.139775  1
