# generated using pymatgen
data_Ti2V2GaC2N
_symmetry_space_group_name_H-M   'P 1'
_cell_length_a   2.97032800
_cell_length_b   2.97032793
_cell_length_c   22.94711500
_cell_angle_alpha   90.00000000
_cell_angle_beta   90.00000000
_cell_angle_gamma   119.99997853
_symmetry_Int_Tables_number   1
_chemical_formula_structural   Ti2V2GaC2N
_chemical_formula_sum   'Ti4 V4 Ga2 C4 N2'
_cell_volume   175.33459947
_cell_formula_units_Z   2
loop_
 _symmetry_equiv_pos_site_id
 _symmetry_equiv_pos_as_xyz
  1  'x, y, z'
loop_
 _atom_site_type_symbol
 _atom_site_label
 _atom_site_symmetry_multiplicity
 _atom_site_fract_x
 _atom_site_fract_y
 _atom_site_fract_z
 _atom_site_occupancy
  Ti  Ti0  1  0.333333  0.666667  0.444088  1
  Ti  Ti1  1  0.666667  0.333333  0.555912  1
  Ti  Ti2  1  0.666667  0.333333  0.944088  1
  Ti  Ti3  1  0.333333  0.666667  0.055912  1
  V  V4  1  0.000000  0.000000  0.341609  1
  V  V5  1  0.000000  0.000000  0.658391  1
  V  V6  1  0.000000  0.000000  0.841609  1
  V  V7  1  0.000000  0.000000  0.158391  1
  Ga  Ga8  1  0.333333  0.666667  0.250000  1
  Ga  Ga9  1  0.666667  0.333333  0.750000  1
  C  C10  1  0.666667  0.333333  0.388495  1
  C  C11  1  0.333333  0.666667  0.611505  1
  C  C12  1  0.333333  0.666667  0.888495  1
  C  C13  1  0.666667  0.333333  0.111505  1
  N  N14  1  0.000000  0.000000  0.500000  1
  N  N15  1  0.000000  0.000000  0.000000  1
