# generated using pymatgen
data_Pr19SmSi15P
_symmetry_space_group_name_H-M   'P 1'
_cell_length_a   7.90402709
_cell_length_b   7.90874052
_cell_length_c   15.36266509
_cell_angle_alpha   89.89157810
_cell_angle_beta   89.87276074
_cell_angle_gamma   90.12034462
_symmetry_Int_Tables_number   1
_chemical_formula_structural   Pr19SmSi15P
_chemical_formula_sum   'Pr19 Sm1 Si15 P1'
_cell_volume   960.32779650
_cell_formula_units_Z   1
loop_
 _symmetry_equiv_pos_site_id
 _symmetry_equiv_pos_as_xyz
  1  'x, y, z'
loop_
 _atom_site_type_symbol
 _atom_site_label
 _atom_site_symmetry_multiplicity
 _atom_site_fract_x
 _atom_site_fract_y
 _atom_site_fract_z
 _atom_site_occupancy
  Pr  Pr0  1  0.189285  0.809043  0.249976  1
  Pr  Pr1  1  0.807665  0.191035  0.750041  1
  Pr  Pr2  1  0.689795  0.689404  0.499589  1
  Pr  Pr3  1  0.380926  0.008819  0.444455  1
  Pr  Pr4  1  0.488087  0.879159  0.697472  1
  Pr  Pr5  1  0.511229  0.122273  0.196462  1
  Pr  Pr6  1  0.877664  0.487982  0.302752  1
  Pr  Pr7  1  0.123498  0.508279  0.802752  1
  Pr  Pr8  1  0.622837  0.988546  0.946557  1
  Pr  Pr9  1  0.010078  0.376783  0.553938  1
  Pr  Pr10  1  0.988970  0.620918  0.052605  1
  Pr  Pr11  1  0.129128  0.984276  0.875152  1
  Pr  Pr12  1  0.518907  0.627492  0.125644  1
  Pr  Pr13  1  0.476250  0.368309  0.627878  1
  Pr  Pr14  1  0.627348  0.518390  0.872875  1
  Pr  Pr15  1  0.371795  0.479888  0.374433  1
  Pr  Pr16  1  0.873974  0.019053  0.377116  1
  Pr  Pr17  1  0.981379  0.127535  0.123182  1
  Pr  Pr18  1  0.022817  0.878557  0.624436  1
  Sm  Sm19  1  0.311690  0.310404  0.999766  1
  Si  Si20  1  0.330332  0.694605  0.952166  1
  Si  Si21  1  0.668541  0.304685  0.453944  1
  Si  Si22  1  0.695041  0.331659  0.046677  1
  Si  Si23  1  0.303539  0.667779  0.548657  1
  Si  Si24  1  0.804217  0.832095  0.202721  1
  Si  Si25  1  0.168799  0.195692  0.296414  1
  Si  Si26  1  0.833829  0.804046  0.796675  1
  Si  Si27  1  0.287908  0.922512  0.058686  1
  Si  Si28  1  0.578489  0.787353  0.309244  1
  Si  Si29  1  0.423772  0.211738  0.812891  1
  Si  Si30  1  0.788635  0.579763  0.689203  1
  Si  Si31  1  0.212613  0.421396  0.189078  1
  Si  Si32  1  0.709624  0.076844  0.560240  1
  Si  Si33  1  0.924289  0.288637  0.940337  1
  Si  Si34  1  0.078110  0.711120  0.441402  1
  P  P35  1  0.188939  0.173931  0.704586  1
