# generated using pymatgen
data_Hf16CdFe4Os3
_symmetry_space_group_name_H-M   'P 1'
_cell_length_a   8.64731463
_cell_length_b   8.64731455
_cell_length_c   8.64731600
_cell_angle_alpha   60.14345945
_cell_angle_beta   60.14346740
_cell_angle_gamma   60.14346325
_symmetry_Int_Tables_number   1
_chemical_formula_structural   Hf16CdFe4Os3
_chemical_formula_sum   'Hf16 Cd1 Fe4 Os3'
_cell_volume   458.70967077
_cell_formula_units_Z   1
loop_
 _symmetry_equiv_pos_site_id
 _symmetry_equiv_pos_as_xyz
  1  'x, y, z'
loop_
 _atom_site_type_symbol
 _atom_site_label
 _atom_site_symmetry_multiplicity
 _atom_site_fract_x
 _atom_site_fract_y
 _atom_site_fract_z
 _atom_site_occupancy
  Hf  Hf0  1  0.698915  0.098375  0.098375  1
  Hf  Hf1  1  0.098375  0.698915  0.098375  1
  Hf  Hf2  1  0.098375  0.098375  0.698915  1
  Hf  Hf3  1  0.101281  0.101281  0.101281  1
  Hf  Hf4  1  0.312435  0.312435  0.701761  1
  Hf  Hf5  1  0.688094  0.688094  0.312693  1
  Hf  Hf6  1  0.312435  0.701761  0.312435  1
  Hf  Hf7  1  0.688094  0.312693  0.688094  1
  Hf  Hf8  1  0.701761  0.312435  0.312435  1
  Hf  Hf9  1  0.312693  0.688094  0.688094  1
  Hf  Hf10  1  0.951029  0.951029  0.549068  1
  Hf  Hf11  1  0.554629  0.554629  0.938898  1
  Hf  Hf12  1  0.951029  0.549068  0.951029  1
  Hf  Hf13  1  0.554629  0.938898  0.554629  1
  Hf  Hf14  1  0.549068  0.951029  0.951029  1
  Hf  Hf15  1  0.938898  0.554629  0.554629  1
  Cd  Cd16  1  0.329902  0.329902  0.329902  1
  Fe  Fe17  1  0.330968  0.888993  0.888993  1
  Fe  Fe18  1  0.888993  0.330968  0.888993  1
  Fe  Fe19  1  0.888993  0.888993  0.330968  1
  Fe  Fe20  1  0.889237  0.889237  0.889237  1
  Os  Os21  1  0.995606  0.332280  0.332280  1
  Os  Os22  1  0.332280  0.995606  0.332280  1
  Os  Os23  1  0.332280  0.332280  0.995606  1
