# generated using pymatgen
data_Th2AlGa(SiAu2)2
_symmetry_space_group_name_H-M   'P 1'
_cell_length_a   4.34614700
_cell_length_b   4.34614700
_cell_length_c   10.56747800
_cell_angle_alpha   90.00000000
_cell_angle_beta   90.00000000
_cell_angle_gamma   90.00000000
_symmetry_Int_Tables_number   1
_chemical_formula_structural   Th2AlGa(SiAu2)2
_chemical_formula_sum   'Th2 Al1 Ga1 Si2 Au4'
_cell_volume   199.60902585
_cell_formula_units_Z   1
loop_
 _symmetry_equiv_pos_site_id
 _symmetry_equiv_pos_as_xyz
  1  'x, y, z'
loop_
 _atom_site_type_symbol
 _atom_site_label
 _atom_site_symmetry_multiplicity
 _atom_site_fract_x
 _atom_site_fract_y
 _atom_site_fract_z
 _atom_site_occupancy
  Th  Th0  1  0.000000  0.500000  0.242488  1
  Th  Th1  1  0.500000  0.000000  0.757512  1
  Al  Al2  1  0.500000  0.500000  0.500000  1
  Ga  Ga3  1  0.000000  0.000000  0.500000  1
  Si  Si4  1  0.000000  0.500000  0.867143  1
  Si  Si5  1  0.500000  0.000000  0.132857  1
  Au  Au6  1  0.000000  0.000000  0.000000  1
  Au  Au7  1  0.500000  0.500000  0.000000  1
  Au  Au8  1  0.000000  0.500000  0.636606  1
  Au  Au9  1  0.500000  0.000000  0.363394  1
