# generated using pymatgen
data_Tb15DyCd4(PdRu)2
_symmetry_space_group_name_H-M   'P 1'
_cell_length_a   9.75077992
_cell_length_b   9.73207670
_cell_length_c   9.72818749
_cell_angle_alpha   59.59354117
_cell_angle_beta   59.48921778
_cell_angle_gamma   59.44203441
_symmetry_Int_Tables_number   1
_chemical_formula_structural   Tb15DyCd4(PdRu)2
_chemical_formula_sum   'Tb15 Dy1 Cd4 Pd2 Ru2'
_cell_volume   645.47020172
_cell_formula_units_Z   1
loop_
 _symmetry_equiv_pos_site_id
 _symmetry_equiv_pos_as_xyz
  1  'x, y, z'
loop_
 _atom_site_type_symbol
 _atom_site_label
 _atom_site_symmetry_multiplicity
 _atom_site_fract_x
 _atom_site_fract_y
 _atom_site_fract_z
 _atom_site_occupancy
  Tb  Tb0  1  0.606133  0.597879  0.598169  1
  Tb  Tb1  1  0.186965  0.814218  0.814392  1
  Tb  Tb2  1  0.055404  0.066857  0.436325  1
  Tb  Tb3  1  0.441364  0.059160  0.059106  1
  Tb  Tb4  1  0.817627  0.186858  0.810062  1
  Tb  Tb5  1  0.439123  0.066608  0.437911  1
  Tb  Tb6  1  0.600887  0.203709  0.595456  1
  Tb  Tb7  1  0.817676  0.809999  0.187094  1
  Tb  Tb8  1  0.197180  0.599526  0.599880  1
  Tb  Tb9  1  0.812740  0.188012  0.187576  1
  Tb  Tb10  1  0.061204  0.437584  0.437279  1
  Tb  Tb11  1  0.187633  0.809132  0.185915  1
  Tb  Tb12  1  0.600987  0.595397  0.203270  1
  Tb  Tb13  1  0.187452  0.185826  0.809259  1
  Tb  Tb14  1  0.055666  0.436719  0.066765  1
  Dy  Dy15  1  0.438876  0.438590  0.066389  1
  Cd  Cd16  1  0.830552  0.831456  0.505124  1
  Cd  Cd17  1  0.829800  0.830061  0.830035  1
  Cd  Cd18  1  0.507152  0.830530  0.830700  1
  Cd  Cd19  1  0.830475  0.505058  0.831547  1
  Pd  Pd20  1  0.392026  0.821578  0.396012  1
  Pd  Pd21  1  0.392108  0.395869  0.822248  1
  Ru  Ru22  1  0.388549  0.394133  0.394075  1
  Ru  Ru23  1  0.822418  0.395238  0.395412  1
