# generated using pymatgen
data_Rb2Ho10Fe2Br17
_symmetry_space_group_name_H-M   'P 1'
_cell_length_a   9.07646622
_cell_length_b   10.68999799
_cell_length_c   10.69068400
_cell_angle_alpha   107.61356015
_cell_angle_beta   93.40043446
_cell_angle_gamma   93.40716028
_symmetry_Int_Tables_number   1
_chemical_formula_structural   Rb2Ho10Fe2Br17
_chemical_formula_sum   'Rb2 Ho10 Fe2 Br17'
_cell_volume   983.65028078
_cell_formula_units_Z   1
loop_
 _symmetry_equiv_pos_site_id
 _symmetry_equiv_pos_as_xyz
  1  'x, y, z'
loop_
 _atom_site_type_symbol
 _atom_site_label
 _atom_site_symmetry_multiplicity
 _atom_site_fract_x
 _atom_site_fract_y
 _atom_site_fract_z
 _atom_site_occupancy
  Rb  Rb0  1  0.997838  0.818068  0.179634  1
  Rb  Rb1  1  0.997841  0.179640  0.818073  1
  Ho  Ho2  1  0.441129  0.170545  0.170538  1
  Ho  Ho3  1  0.572594  0.504837  0.209279  1
  Ho  Ho4  1  0.821208  0.291810  0.291812  1
  Ho  Ho5  1  0.312902  0.439994  0.439989  1
  Ho  Ho6  1  0.427415  0.798552  0.490887  1
  Ho  Ho7  1  0.572555  0.209274  0.504839  1
  Ho  Ho8  1  0.685616  0.567633  0.567645  1
  Ho  Ho9  1  0.185578  0.705848  0.705870  1
  Ho  Ho10  1  0.427436  0.490896  0.798588  1
  Ho  Ho11  1  0.557248  0.826620  0.826630  1
  Fe  Fe12  1  0.568491  0.361910  0.361924  1
  Fe  Fe13  1  0.432994  0.638757  0.638779  1
  Br  Br14  1  0.581239  0.684769  0.024461  1
  Br  Br15  1  0.712721  0.064383  0.064333  1
  Br  Br16  1  0.857379  0.448652  0.119463  1
  Br  Br17  1  0.130682  0.209732  0.209703  1
  Br  Br18  1  0.281467  0.605555  0.254266  1
  Br  Br19  1  0.419547  0.978619  0.312525  1
  Br  Br20  1  0.718995  0.745444  0.394705  1
  Br  Br21  1  0.857306  0.119436  0.448617  1
  Br  Br22  1  0.999926  0.500642  0.500660  1
  Br  Br23  1  0.141246  0.880383  0.549293  1
  Br  Br24  1  0.281406  0.254252  0.605571  1
  Br  Br25  1  0.581187  0.024452  0.684748  1
  Br  Br26  1  0.718975  0.394702  0.745381  1
  Br  Br27  1  0.868877  0.789587  0.789524  1
  Br  Br28  1  0.141245  0.549317  0.880464  1
  Br  Br29  1  0.287368  0.933134  0.933156  1
  Br  Br30  1  0.419593  0.312554  0.978647  1
