# generated using pymatgen
data_La18Tm2(Ir3Ru)3
_symmetry_space_group_name_H-M   'P 1'
_cell_length_a   11.35745088
_cell_length_b   11.34072589
_cell_length_c   6.61451400
_cell_angle_alpha   90.00000000
_cell_angle_beta   90.00000000
_cell_angle_gamma   89.95473013
_symmetry_Int_Tables_number   1
_chemical_formula_structural   La18Tm2(Ir3Ru)3
_chemical_formula_sum   'La18 Tm2 Ir9 Ru3'
_cell_volume   851.96062836
_cell_formula_units_Z   1
loop_
 _symmetry_equiv_pos_site_id
 _symmetry_equiv_pos_as_xyz
  1  'x, y, z'
loop_
 _atom_site_type_symbol
 _atom_site_label
 _atom_site_symmetry_multiplicity
 _atom_site_fract_x
 _atom_site_fract_y
 _atom_site_fract_z
 _atom_site_occupancy
  La  La0  1  0.295872  0.087316  0.386066  1
  La  La1  1  0.296054  0.913583  0.886186  1
  La  La2  1  0.703946  0.086417  0.886186  1
  La  La3  1  0.704128  0.912684  0.386066  1
  La  La4  1  0.586530  0.788533  0.887848  1
  La  La5  1  0.587215  0.211609  0.386680  1
  La  La6  1  0.412785  0.788391  0.386680  1
  La  La7  1  0.413470  0.211467  0.887848  1
  La  La8  1  0.213761  0.411759  0.615402  1
  La  La9  1  0.213405  0.588591  0.112453  1
  La  La10  1  0.786595  0.411409  0.112453  1
  La  La11  1  0.786239  0.588241  0.615402  1
  La  La12  1  0.911382  0.705669  0.112623  1
  La  La13  1  0.911566  0.293755  0.617158  1
  La  La14  1  0.088434  0.706245  0.617158  1
  La  La15  1  0.088618  0.294331  0.112623  1
  La  La16  1  0.000000  0.000000  0.497265  1
  La  La17  1  0.000000  0.000000  0.997973  1
  Tm  Tm18  1  0.500000  0.500000  0.997244  1
  Tm  Tm19  1  0.500000  0.500000  0.496963  1
  Ir  Ir20  1  0.846145  0.155221  0.250100  1
  Ir  Ir21  1  0.845798  0.845307  0.750203  1
  Ir  Ir22  1  0.154202  0.154693  0.750203  1
  Ir  Ir23  1  0.153855  0.844779  0.250100  1
  Ir  Ir24  1  0.645803  0.354593  0.748918  1
  Ir  Ir25  1  0.646150  0.644904  0.249233  1
  Ir  Ir26  1  0.353850  0.355096  0.249233  1
  Ir  Ir27  1  0.354197  0.645407  0.748918  1
  Ir  Ir28  1  0.000000  0.500000  0.382555  1
  Ru  Ru29  1  0.500000  0.000000  0.119225  1
  Ru  Ru30  1  0.500000  0.000000  0.618435  1
  Ru  Ru31  1  0.000000  0.500000  0.884593  1
