# generated using pymatgen
data_AsIr2RhSe7
_symmetry_space_group_name_H-M   'P 1'
_cell_length_a   6.04063285
_cell_length_b   6.03756168
_cell_length_c   6.04205340
_cell_angle_alpha   90.49520075
_cell_angle_beta   90.49012204
_cell_angle_gamma   90.54507220
_symmetry_Int_Tables_number   1
_chemical_formula_structural   AsIr2RhSe7
_chemical_formula_sum   'As1 Ir2 Rh1 Se7'
_cell_volume   220.33145701
_cell_formula_units_Z   1
loop_
 _symmetry_equiv_pos_site_id
 _symmetry_equiv_pos_as_xyz
  1  'x, y, z'
loop_
 _atom_site_type_symbol
 _atom_site_label
 _atom_site_symmetry_multiplicity
 _atom_site_fract_x
 _atom_site_fract_y
 _atom_site_fract_z
 _atom_site_occupancy
  As  As0  1  0.621869  0.621266  0.621566  1
  Ir  Ir1  1  0.994995  0.500916  0.500635  1
  Ir  Ir2  1  0.500732  0.500869  0.995081  1
  Rh  Rh3  1  0.500823  0.995135  0.500750  1
  Se  Se4  1  0.615806  0.882979  0.118723  1
  Se  Se5  1  0.884272  0.119034  0.616242  1
  Se  Se6  1  0.119355  0.616509  0.883097  1
  Se  Se7  1  0.382362  0.383222  0.382550  1
  Se  Se8  1  0.879879  0.384735  0.115462  1
  Se  Se9  1  0.114423  0.879959  0.385195  1
  Se  Se10  1  0.385484  0.115376  0.880700  1
