# generated using pymatgen
data_ScUB6W
_symmetry_space_group_name_H-M   'P 1'
_cell_length_a   3.62149400
_cell_length_b   9.01431700
_cell_length_c   11.36434700
_cell_angle_alpha   90.00000000
_cell_angle_beta   90.00000000
_cell_angle_gamma   90.00000000
_symmetry_Int_Tables_number   1
_chemical_formula_structural   ScUB6W
_chemical_formula_sum   'Sc4 U4 B24 W4'
_cell_volume   370.99245950
_cell_formula_units_Z   4
loop_
 _symmetry_equiv_pos_site_id
 _symmetry_equiv_pos_as_xyz
  1  'x, y, z'
loop_
 _atom_site_type_symbol
 _atom_site_label
 _atom_site_symmetry_multiplicity
 _atom_site_fract_x
 _atom_site_fract_y
 _atom_site_fract_z
 _atom_site_occupancy
  Sc  Sc0  1  0.000000  0.946077  0.374559  1
  Sc  Sc1  1  0.000000  0.053923  0.625441  1
  Sc  Sc2  1  0.000000  0.446077  0.125441  1
  Sc  Sc3  1  0.000000  0.553923  0.874559  1
  U  U4  1  0.000000  0.320684  0.413674  1
  U  U5  1  0.000000  0.679316  0.586326  1
  U  U6  1  0.000000  0.820684  0.086326  1
  U  U7  1  0.000000  0.179316  0.913674  1
  B  B8  1  0.500000  0.552992  0.434498  1
  B  B9  1  0.500000  0.447008  0.565502  1
  B  B10  1  0.500000  0.052992  0.065502  1
  B  B11  1  0.500000  0.947008  0.934498  1
  B  B12  1  0.500000  0.753682  0.421101  1
  B  B13  1  0.500000  0.246318  0.578899  1
  B  B14  1  0.500000  0.253682  0.078899  1
  B  B15  1  0.500000  0.746318  0.921101  1
  B  B16  1  0.500000  0.796051  0.263547  1
  B  B17  1  0.500000  0.203949  0.736453  1
  B  B18  1  0.500000  0.296051  0.236453  1
  B  B19  1  0.500000  0.703949  0.763547  1
  B  B20  1  0.500000  0.631166  0.181622  1
  B  B21  1  0.500000  0.368834  0.818378  1
  B  B22  1  0.500000  0.131166  0.318378  1
  B  B23  1  0.500000  0.868834  0.681622  1
  B  B24  1  0.500000  0.979569  0.213705  1
  B  B25  1  0.500000  0.020431  0.786295  1
  B  B26  1  0.500000  0.479569  0.286295  1
  B  B27  1  0.500000  0.520431  0.713705  1
  B  B28  1  0.500000  0.601717  0.028002  1
  B  B29  1  0.500000  0.398283  0.971998  1
  B  B30  1  0.500000  0.101717  0.471998  1
  B  B31  1  0.500000  0.898283  0.528002  1
  W  W32  1  0.000000  0.640507  0.320027  1
  W  W33  1  0.000000  0.359493  0.679973  1
  W  W34  1  0.000000  0.140507  0.179973  1
  W  W35  1  0.000000  0.859493  0.820027  1
