# generated using pymatgen
data_CaEr(Si7Ir3)2
_symmetry_space_group_name_H-M   'P 1'
_cell_length_a   8.02132276
_cell_length_b   8.02132312
_cell_length_c   8.02132303
_cell_angle_alpha   56.75150493
_cell_angle_beta   56.75150620
_cell_angle_gamma   56.75150406
_symmetry_Int_Tables_number   1
_chemical_formula_structural   CaEr(Si7Ir3)2
_chemical_formula_sum   'Ca1 Er1 Si14 Ir6'
_cell_volume   337.57289483
_cell_formula_units_Z   1
loop_
 _symmetry_equiv_pos_site_id
 _symmetry_equiv_pos_as_xyz
  1  'x, y, z'
loop_
 _atom_site_type_symbol
 _atom_site_label
 _atom_site_symmetry_multiplicity
 _atom_site_fract_x
 _atom_site_fract_y
 _atom_site_fract_z
 _atom_site_occupancy
  Ca  Ca0  1  0.000000  0.000000  0.000000  1
  Er  Er1  1  0.500000  0.500000  0.500000  1
  Si  Si2  1  0.065249  0.851066  0.673234  1
  Si  Si3  1  0.673234  0.065249  0.851066  1
  Si  Si4  1  0.851066  0.673234  0.065249  1
  Si  Si5  1  0.172448  0.349677  0.565761  1
  Si  Si6  1  0.565761  0.172448  0.349677  1
  Si  Si7  1  0.349677  0.565761  0.172448  1
  Si  Si8  1  0.934751  0.148934  0.326766  1
  Si  Si9  1  0.326766  0.934751  0.148934  1
  Si  Si10  1  0.148934  0.326766  0.934751  1
  Si  Si11  1  0.827552  0.650323  0.434239  1
  Si  Si12  1  0.434239  0.827552  0.650323  1
  Si  Si13  1  0.650323  0.434239  0.827552  1
  Si  Si14  1  0.749882  0.749882  0.749882  1
  Si  Si15  1  0.250118  0.250118  0.250118  1
  Ir  Ir16  1  0.072752  0.747908  0.431217  1
  Ir  Ir17  1  0.431217  0.072752  0.747908  1
  Ir  Ir18  1  0.747908  0.431217  0.072752  1
  Ir  Ir19  1  0.927248  0.252092  0.568783  1
  Ir  Ir20  1  0.568783  0.927248  0.252092  1
  Ir  Ir21  1  0.252092  0.568783  0.927248  1
