# generated using pymatgen
data_Tm3Lu7(In2Sb)2
_symmetry_space_group_name_H-M   'P 1'
_cell_length_a   6.45326500
_cell_length_b   8.81341208
_cell_length_c   8.79419817
_cell_angle_alpha   119.77110332
_cell_angle_beta   90.00071067
_cell_angle_gamma   89.99956135
_symmetry_Int_Tables_number   1
_chemical_formula_structural   Tm3Lu7(In2Sb)2
_chemical_formula_sum   'Tm3 Lu7 In4 Sb2'
_cell_volume   434.15774034
_cell_formula_units_Z   1
loop_
 _symmetry_equiv_pos_site_id
 _symmetry_equiv_pos_as_xyz
  1  'x, y, z'
loop_
 _atom_site_type_symbol
 _atom_site_label
 _atom_site_symmetry_multiplicity
 _atom_site_fract_x
 _atom_site_fract_y
 _atom_site_fract_z
 _atom_site_occupancy
  Tm  Tm0  1  0.749989  0.232332  0.995405  1
  Tm  Tm1  1  0.750016  0.767076  0.761653  1
  Tm  Tm2  1  0.250005  0.764671  0.000741  1
  Lu  Lu3  1  0.495385  0.333644  0.668030  1
  Lu  Lu4  1  0.495700  0.666142  0.334494  1
  Lu  Lu5  1  0.004283  0.666199  0.334535  1
  Lu  Lu6  1  0.004594  0.333610  0.668028  1
  Lu  Lu7  1  0.750055  0.000084  0.236942  1
  Lu  Lu8  1  0.250009  0.235164  0.235944  1
  Lu  Lu9  1  0.249979  0.000167  0.764234  1
  In  In10  1  0.749971  0.000217  0.596066  1
  In  In11  1  0.250019  0.396486  0.001649  1
  In  In12  1  0.250023  0.603228  0.604662  1
  In  In13  1  0.249985  0.000111  0.400010  1
  Sb  Sb14  1  0.749992  0.605763  0.001326  1
  Sb  Sb15  1  0.749994  0.395109  0.396280  1
