# generated using pymatgen
data_Dy4Co3SiI2
_symmetry_space_group_name_H-M   'P 1'
_cell_length_a   4.00230800
_cell_length_b   4.00230852
_cell_length_c   16.91127400
_cell_angle_alpha   90.00000000
_cell_angle_beta   90.00000000
_cell_angle_gamma   119.99999572
_symmetry_Int_Tables_number   1
_chemical_formula_structural   Dy4Co3SiI2
_chemical_formula_sum   'Dy4 Co3 Si1 I2'
_cell_volume   234.60002104
_cell_formula_units_Z   1
loop_
 _symmetry_equiv_pos_site_id
 _symmetry_equiv_pos_as_xyz
  1  'x, y, z'
loop_
 _atom_site_type_symbol
 _atom_site_label
 _atom_site_symmetry_multiplicity
 _atom_site_fract_x
 _atom_site_fract_y
 _atom_site_fract_z
 _atom_site_occupancy
  Dy  Dy0  1  0.000000  0.000000  0.102547  1
  Dy  Dy1  1  0.000000  0.000000  0.897500  1
  Dy  Dy2  1  0.000000  0.000000  0.605185  1
  Dy  Dy3  1  0.000000  0.000000  0.397325  1
  Co  Co4  1  0.666667  0.333333  0.494712  1
  Co  Co5  1  0.666667  0.333333  0.001324  1
  Co  Co6  1  0.333333  0.666667  0.998470  1
  Si  Si7  1  0.333333  0.666667  0.504031  1
  I  I8  1  0.333333  0.666667  0.249978  1
  I  I9  1  0.666667  0.333333  0.748927  1
