# generated using pymatgen
data_PrV(FeSi)2
_symmetry_space_group_name_H-M   'P 1'
_cell_length_a   3.96824100
_cell_length_b   3.96824117
_cell_length_c   13.82769400
_cell_angle_alpha   90.00000000
_cell_angle_beta   90.00000000
_cell_angle_gamma   119.99999024
_symmetry_Int_Tables_number   1
_chemical_formula_structural   PrV(FeSi)2
_chemical_formula_sum   'Pr2 V2 Fe4 Si4'
_cell_volume   188.57170734
_cell_formula_units_Z   2
loop_
 _symmetry_equiv_pos_site_id
 _symmetry_equiv_pos_as_xyz
  1  'x, y, z'
loop_
 _atom_site_type_symbol
 _atom_site_label
 _atom_site_symmetry_multiplicity
 _atom_site_fract_x
 _atom_site_fract_y
 _atom_site_fract_z
 _atom_site_occupancy
  Pr  Pr0  1  0.000000  0.000000  0.250000  1
  Pr  Pr1  1  0.000000  0.000000  0.750000  1
  V  V2  1  0.000000  0.000000  0.000000  1
  V  V3  1  0.000000  0.000000  0.500000  1
  Fe  Fe4  1  0.666667  0.333334  0.059160  1
  Fe  Fe5  1  0.666667  0.333334  0.440841  1
  Fe  Fe6  1  0.333334  0.666667  0.559160  1
  Fe  Fe7  1  0.333334  0.666667  0.940840  1
  Si  Si8  1  0.333334  0.666667  0.107844  1
  Si  Si9  1  0.333334  0.666667  0.392156  1
  Si  Si10  1  0.666667  0.333334  0.607844  1
  Si  Si11  1  0.666667  0.333334  0.892156  1
