# generated using pymatgen
data_Ac2MnSi2Tc
_symmetry_space_group_name_H-M   'P 1'
_cell_length_a   4.22486500
_cell_length_b   4.22486500
_cell_length_c   7.80070100
_cell_angle_alpha   90.00000000
_cell_angle_beta   90.00000000
_cell_angle_gamma   90.00000000
_symmetry_Int_Tables_number   1
_chemical_formula_structural   Ac2MnSi2Tc
_chemical_formula_sum   'Ac2 Mn1 Si2 Tc1'
_cell_volume   139.23848978
_cell_formula_units_Z   1
loop_
 _symmetry_equiv_pos_site_id
 _symmetry_equiv_pos_as_xyz
  1  'x, y, z'
loop_
 _atom_site_type_symbol
 _atom_site_label
 _atom_site_symmetry_multiplicity
 _atom_site_fract_x
 _atom_site_fract_y
 _atom_site_fract_z
 _atom_site_occupancy
  Ac  Ac0  1  0.000000  0.500000  0.319186  1
  Ac  Ac1  1  0.500000  0.000000  0.680814  1
  Mn  Mn2  1  0.500000  0.500000  0.000000  1
  Si  Si3  1  0.000000  0.500000  0.834939  1
  Si  Si4  1  0.500000  0.000000  0.165061  1
  Tc  Tc5  1  0.000000  0.000000  0.000000  1
