# generated using pymatgen
data_LiZr6CBr15
_symmetry_space_group_name_H-M   'P 1'
_cell_length_a   10.21917800
_cell_length_b   14.57216700
_cell_length_c   19.40355400
_cell_angle_alpha   90.00000000
_cell_angle_beta   90.00000000
_cell_angle_gamma   90.00000000
_symmetry_Int_Tables_number   1
_chemical_formula_structural   LiZr6CBr15
_chemical_formula_sum   'Li4 Zr24 C4 Br60'
_cell_volume   2889.49127325
_cell_formula_units_Z   4
loop_
 _symmetry_equiv_pos_site_id
 _symmetry_equiv_pos_as_xyz
  1  'x, y, z'
loop_
 _atom_site_type_symbol
 _atom_site_label
 _atom_site_symmetry_multiplicity
 _atom_site_fract_x
 _atom_site_fract_y
 _atom_site_fract_z
 _atom_site_occupancy
  Li  Li0  1  0.326326  0.747713  0.250000  1
  Li  Li1  1  0.673674  0.747713  0.750000  1
  Li  Li2  1  0.326326  0.252287  0.250000  1
  Li  Li3  1  0.673674  0.252287  0.750000  1
  Zr  Zr4  1  0.348551  0.612750  0.529001  1
  Zr  Zr5  1  0.614416  0.000000  0.250000  1
  Zr  Zr6  1  0.419142  0.500000  0.110669  1
  Zr  Zr7  1  0.348551  0.387250  0.529001  1
  Zr  Zr8  1  0.163257  0.113292  0.834944  1
  Zr  Zr9  1  0.836743  0.113292  0.165056  1
  Zr  Zr10  1  0.163257  0.886708  0.834944  1
  Zr  Zr11  1  0.163257  0.886708  0.665056  1
  Zr  Zr12  1  0.163257  0.113292  0.665056  1
  Zr  Zr13  1  0.651449  0.387250  0.029001  1
  Zr  Zr14  1  0.651449  0.387250  0.470999  1
  Zr  Zr15  1  0.836743  0.113292  0.334944  1
  Zr  Zr16  1  0.061728  0.000000  0.250000  1
  Zr  Zr17  1  0.419142  0.500000  0.389331  1
  Zr  Zr18  1  0.580858  0.500000  0.610669  1
  Zr  Zr19  1  0.385584  0.000000  0.750000  1
  Zr  Zr20  1  0.348551  0.612750  0.970999  1
  Zr  Zr21  1  0.938272  0.000000  0.750000  1
  Zr  Zr22  1  0.651449  0.612750  0.470999  1
  Zr  Zr23  1  0.580858  0.500000  0.889331  1
  Zr  Zr24  1  0.836743  0.886708  0.334944  1
  Zr  Zr25  1  0.836743  0.886708  0.165056  1
  Zr  Zr26  1  0.651449  0.612750  0.029001  1
  Zr  Zr27  1  0.348551  0.387250  0.970999  1
  C  C28  1  0.500000  0.500000  0.000000  1
  C  C29  1  0.838101  0.000000  0.250000  1
  C  C30  1  0.161899  0.000000  0.750000  1
  C  C31  1  0.500000  0.500000  0.500000  1
  Br  Br32  1  0.500000  0.757432  0.000000  1
  Br  Br33  1  0.425991  0.872457  0.846295  1
  Br  Br34  1  0.500000  0.757432  0.500000  1
  Br  Br35  1  0.100802  0.870223  0.152397  1
  Br  Br36  1  0.500000  0.242568  0.000000  1
  Br  Br37  1  0.663467  0.000000  0.750000  1
  Br  Br38  1  0.425991  0.127543  0.653705  1
  Br  Br39  1  0.336533  0.000000  0.250000  1
  Br  Br40  1  0.840715  0.250390  0.438738  1
  Br  Br41  1  0.579395  0.372598  0.161578  1
  Br  Br42  1  0.899198  0.870223  0.847603  1
  Br  Br43  1  0.420605  0.627402  0.661578  1
  Br  Br44  1  0.420605  0.627402  0.838422  1
  Br  Br45  1  0.845670  0.500000  0.432147  1
  Br  Br46  1  0.100802  0.129777  0.347603  1
  Br  Br47  1  0.420605  0.372598  0.838422  1
  Br  Br48  1  0.840715  0.749610  0.061262  1
  Br  Br49  1  0.420605  0.372598  0.661578  1
  Br  Br50  1  0.766250  0.630615  0.596921  1
  Br  Br51  1  0.153458  0.741489  0.750000  1
  Br  Br52  1  0.425991  0.872457  0.653705  1
  Br  Br53  1  0.899198  0.129777  0.847603  1
  Br  Br54  1  0.233750  0.630615  0.403079  1
  Br  Br55  1  0.500000  0.242568  0.500000  1
  Br  Br56  1  0.840715  0.749610  0.438738  1
  Br  Br57  1  0.574009  0.127543  0.153705  1
  Br  Br58  1  0.100802  0.129777  0.152397  1
  Br  Br59  1  0.845670  0.500000  0.067853  1
  Br  Br60  1  0.846542  0.258511  0.250000  1
  Br  Br61  1  0.579395  0.372598  0.338422  1
  Br  Br62  1  0.309563  0.500000  0.250000  1
  Br  Br63  1  0.840715  0.250390  0.061262  1
  Br  Br64  1  0.154330  0.500000  0.567853  1
  Br  Br65  1  0.100802  0.870223  0.347603  1
  Br  Br66  1  0.846542  0.741489  0.250000  1
  Br  Br67  1  0.154330  0.500000  0.932147  1
  Br  Br68  1  0.766250  0.369385  0.596921  1
  Br  Br69  1  0.836584  0.000000  0.055927  1
  Br  Br70  1  0.159285  0.749610  0.938738  1
  Br  Br71  1  0.159285  0.250390  0.561262  1
  Br  Br72  1  0.163416  0.000000  0.944073  1
  Br  Br73  1  0.579395  0.627402  0.161578  1
  Br  Br74  1  0.153458  0.258511  0.750000  1
  Br  Br75  1  0.574009  0.872457  0.153705  1
  Br  Br76  1  0.766250  0.630615  0.903079  1
  Br  Br77  1  0.233750  0.630615  0.096921  1
  Br  Br78  1  0.899198  0.870223  0.652397  1
  Br  Br79  1  0.233750  0.369385  0.403079  1
  Br  Br80  1  0.425991  0.127543  0.846295  1
  Br  Br81  1  0.163416  0.000000  0.555927  1
  Br  Br82  1  0.690437  0.500000  0.750000  1
  Br  Br83  1  0.899198  0.129777  0.652397  1
  Br  Br84  1  0.233750  0.369385  0.096921  1
  Br  Br85  1  0.574009  0.872457  0.346295  1
  Br  Br86  1  0.579395  0.627402  0.338422  1
  Br  Br87  1  0.159285  0.749610  0.561262  1
  Br  Br88  1  0.159285  0.250390  0.938738  1
  Br  Br89  1  0.836584  0.000000  0.444073  1
  Br  Br90  1  0.766250  0.369385  0.903079  1
  Br  Br91  1  0.574009  0.127543  0.346295  1
