# generated using pymatgen
data_Ba2TmAg5S6
_symmetry_space_group_name_H-M   'P 1'
_cell_length_a   4.20824300
_cell_length_b   7.32768374
_cell_length_c   11.24764407
_cell_angle_alpha   94.86795668
_cell_angle_beta   90.00000000
_cell_angle_gamma   106.68722464
_symmetry_Int_Tables_number   1
_chemical_formula_structural   Ba2TmAg5S6
_chemical_formula_sum   'Ba2 Tm1 Ag5 S6'
_cell_volume   330.92700430
_cell_formula_units_Z   1
loop_
 _symmetry_equiv_pos_site_id
 _symmetry_equiv_pos_as_xyz
  1  'x, y, z'
loop_
 _atom_site_type_symbol
 _atom_site_label
 _atom_site_symmetry_multiplicity
 _atom_site_fract_x
 _atom_site_fract_y
 _atom_site_fract_z
 _atom_site_occupancy
  Ba  Ba0  1  0.252277  0.504554  0.702991  1
  Ba  Ba1  1  0.747723  0.495446  0.297009  1
  Tm  Tm2  1  0.500000  0.000000  0.500000  1
  Ag  Ag3  1  0.018714  0.037427  0.256196  1
  Ag  Ag4  1  0.981286  0.962573  0.743804  1
  Ag  Ag5  1  0.352111  0.704224  0.038942  1
  Ag  Ag6  1  0.647889  0.295776  0.961058  1
  Ag  Ag7  1  0.000000  0.000000  0.000000  1
  S  S8  1  0.123912  0.247824  0.455360  1
  S  S9  1  0.876088  0.752176  0.544640  1
  S  S10  1  0.158393  0.316787  0.102424  1
  S  S11  1  0.841607  0.683213  0.897576  1
  S  S12  1  0.413580  0.827160  0.267647  1
  S  S13  1  0.586420  0.172840  0.732353  1
