# generated using pymatgen
data_Nd2GaSiPb
_symmetry_space_group_name_H-M   'P 1'
_cell_length_a   7.72136034
_cell_length_b   7.72136107
_cell_length_c   4.27129600
_cell_angle_alpha   90.00000000
_cell_angle_beta   90.00000000
_cell_angle_gamma   149.56112684
_symmetry_Int_Tables_number   1
_chemical_formula_structural   Nd2GaSiPb
_chemical_formula_sum   'Nd2 Ga1 Si1 Pb1'
_cell_volume   129.01157608
_cell_formula_units_Z   1
loop_
 _symmetry_equiv_pos_site_id
 _symmetry_equiv_pos_as_xyz
  1  'x, y, z'
loop_
 _atom_site_type_symbol
 _atom_site_label
 _atom_site_symmetry_multiplicity
 _atom_site_fract_x
 _atom_site_fract_y
 _atom_site_fract_z
 _atom_site_occupancy
  Nd  Nd0  1  0.363547  0.636453  0.500000  1
  Nd  Nd1  1  0.636344  0.363656  0.500000  1
  Ga  Ga2  1  0.203358  0.796642  0.000000  1
  Si  Si3  1  0.796312  0.203688  0.000000  1
  Pb  Pb4  1  0.000439  0.999561  0.000000  1
