# generated using pymatgen
data_YbDy4(Y5Ir4)3
_symmetry_space_group_name_H-M   'P 1'
_cell_length_a   10.90669572
_cell_length_b   10.93100438
_cell_length_c   6.40840885
_cell_angle_alpha   89.97921113
_cell_angle_beta   90.12455661
_cell_angle_gamma   89.91229026
_symmetry_Int_Tables_number   1
_chemical_formula_structural   YbDy4(Y5Ir4)3
_chemical_formula_sum   'Yb1 Dy4 Y15 Ir12'
_cell_volume   764.01504816
_cell_formula_units_Z   1
loop_
 _symmetry_equiv_pos_site_id
 _symmetry_equiv_pos_as_xyz
  1  'x, y, z'
loop_
 _atom_site_type_symbol
 _atom_site_label
 _atom_site_symmetry_multiplicity
 _atom_site_fract_x
 _atom_site_fract_y
 _atom_site_fract_z
 _atom_site_occupancy
  Yb  Yb0  1  0.290119  0.088778  0.377269  1
  Dy  Dy1  1  0.002728  0.000335  0.499356  1
  Dy  Dy2  1  0.999008  0.000167  0.999070  1
  Dy  Dy3  1  0.500554  0.500792  0.998504  1
  Dy  Dy4  1  0.499732  0.501173  0.497950  1
  Y  Y5  1  0.291444  0.911819  0.880525  1
  Y  Y6  1  0.708119  0.086560  0.880020  1
  Y  Y7  1  0.709232  0.912285  0.380316  1
  Y  Y8  1  0.588806  0.792447  0.879622  1
  Y  Y9  1  0.585831  0.208562  0.379576  1
  Y  Y10  1  0.410743  0.793494  0.379957  1
  Y  Y11  1  0.412093  0.208108  0.880898  1
  Y  Y12  1  0.208702  0.411900  0.621844  1
  Y  Y13  1  0.209686  0.587673  0.120499  1
  Y  Y14  1  0.791364  0.410955  0.120360  1
  Y  Y15  1  0.791706  0.587956  0.620066  1
  Y  Y16  1  0.912227  0.708387  0.120791  1
  Y  Y17  1  0.911077  0.290700  0.622018  1
  Y  Y18  1  0.088002  0.708381  0.620611  1
  Y  Y19  1  0.089265  0.290938  0.120805  1
  Ir  Ir20  1  0.848229  0.152568  0.250920  1
  Ir  Ir21  1  0.849179  0.847487  0.748223  1
  Ir  Ir22  1  0.151535  0.153115  0.756651  1
  Ir  Ir23  1  0.149108  0.842120  0.245070  1
  Ir  Ir24  1  0.651379  0.346849  0.749803  1
  Ir  Ir25  1  0.652094  0.653102  0.250446  1
  Ir  Ir26  1  0.348097  0.352352  0.247290  1
  Ir  Ir27  1  0.347189  0.653540  0.748809  1
  Ir  Ir28  1  0.501092  0.999630  0.125440  1
  Ir  Ir29  1  0.501511  0.999408  0.625964  1
  Ir  Ir30  1  0.000071  0.499415  0.875864  1
  Ir  Ir31  1  0.000078  0.499001  0.375464  1
