# generated using pymatgen
data_Hf6Mn3Ga12Fe
_symmetry_space_group_name_H-M   'P 1'
_cell_length_a   5.36143399
_cell_length_b   7.70080346
_cell_length_c   8.73719033
_cell_angle_alpha   90.05949951
_cell_angle_beta   90.07140708
_cell_angle_gamma   89.97254508
_symmetry_Int_Tables_number   1
_chemical_formula_structural   Hf6Mn3Ga12Fe
_chemical_formula_sum   'Hf6 Mn3 Ga12 Fe1'
_cell_volume   360.73491408
_cell_formula_units_Z   1
loop_
 _symmetry_equiv_pos_site_id
 _symmetry_equiv_pos_as_xyz
  1  'x, y, z'
loop_
 _atom_site_type_symbol
 _atom_site_label
 _atom_site_symmetry_multiplicity
 _atom_site_fract_x
 _atom_site_fract_y
 _atom_site_fract_z
 _atom_site_occupancy
  Hf  Hf0  1  0.999184  0.842846  0.718974  1
  Hf  Hf1  1  0.499377  0.156537  0.219673  1
  Hf  Hf2  1  0.000093  0.283248  0.000154  1
  Hf  Hf3  1  0.000623  0.843463  0.280327  1
  Hf  Hf4  1  0.500816  0.157154  0.781026  1
  Hf  Hf5  1  0.499907  0.716752  0.499846  1
  Mn  Mn6  1  0.750000  0.500000  0.750000  1
  Mn  Mn7  1  0.250000  0.500000  0.750000  1
  Mn  Mn8  1  0.250000  0.500000  0.250000  1
  Ga  Ga9  1  0.998490  0.562311  0.499862  1
  Ga  Ga10  1  0.996257  0.633204  0.999752  1
  Ga  Ga11  1  0.760166  0.960124  0.000169  1
  Ga  Ga12  1  0.998833  0.234543  0.311329  1
  Ga  Ga13  1  0.501510  0.437689  0.000138  1
  Ga  Ga14  1  0.501167  0.765457  0.188671  1
  Ga  Ga15  1  0.260762  0.040391  0.500272  1
  Ga  Ga16  1  0.503743  0.366796  0.500248  1
  Ga  Ga17  1  0.999744  0.234494  0.687875  1
  Ga  Ga18  1  0.500256  0.765506  0.812125  1
  Ga  Ga19  1  0.739834  0.039876  0.499831  1
  Ga  Ga20  1  0.239238  0.959609  0.999728  1
  Fe  Fe21  1  0.750000  0.500000  0.250000  1
