# generated using pymatgen
data_Hf6Ti2Al15Ru7
_symmetry_space_group_name_H-M   'P 1'
_cell_length_a   8.80231211
_cell_length_b   8.80249542
_cell_length_c   8.80233313
_cell_angle_alpha   120.19984875
_cell_angle_beta   119.81942826
_cell_angle_gamma   89.98629892
_symmetry_Int_Tables_number   1
_chemical_formula_structural   Hf6Ti2Al15Ru7
_chemical_formula_sum   'Hf6 Ti2 Al15 Ru7'
_cell_volume   482.17640211
_cell_formula_units_Z   1
loop_
 _symmetry_equiv_pos_site_id
 _symmetry_equiv_pos_as_xyz
  1  'x, y, z'
loop_
 _atom_site_type_symbol
 _atom_site_label
 _atom_site_symmetry_multiplicity
 _atom_site_fract_x
 _atom_site_fract_y
 _atom_site_fract_z
 _atom_site_occupancy
  Hf  Hf0  1  0.790915  0.284368  0.067938  1
  Hf  Hf1  1  0.216428  0.284420  0.493482  1
  Hf  Hf2  1  0.211237  0.711230  0.500006  1
  Hf  Hf3  1  0.216401  0.722954  0.932038  1
  Hf  Hf4  1  0.790925  0.722947  0.506532  1
  Hf  Hf5  1  0.778837  0.278809  0.500024  1
  Ti  Ti6  1  0.379458  0.121542  0.742009  1
  Ti  Ti7  1  0.379499  0.637460  0.257951  1
  Al  Al8  1  0.994266  0.494269  0.499993  1
  Al  Al9  1  0.162944  0.338621  0.175644  1
  Al  Al10  1  0.162987  0.987298  0.824364  1
  Al  Al11  1  0.159109  0.341205  0.817948  1
  Al  Al12  1  0.523207  0.341136  0.182032  1
  Al  Al13  1  0.839961  0.659249  0.819289  1
  Al  Al14  1  0.839957  0.020664  0.180692  1
  Al  Al15  1  0.837172  0.660422  0.176760  1
  Al  Al16  1  0.483725  0.660440  0.823286  1
  Al  Al17  1  0.380075  0.122004  0.258048  1
  Al  Al18  1  0.863999  0.122033  0.742014  1
  Al  Al19  1  0.618950  0.875092  0.256096  1
  Al  Al20  1  0.618983  0.362843  0.743874  1
  Al  Al21  1  0.618583  0.877880  0.740738  1
  Al  Al22  1  0.137119  0.877849  0.259243  1
  Ru  Ru23  1  0.000005  0.999428  0.500629  1
  Ru  Ru24  1  0.498817  0.999384  0.999416  1
  Ru  Ru25  1  0.498283  0.498282  0.999984  1
  Ru  Ru26  1  0.498764  0.499376  0.499373  1
  Ru  Ru27  1  0.999956  0.499387  0.000568  1
  Ru  Ru28  1  0.001079  0.001069  0.999997  1
  Ru  Ru29  1  0.498350  0.998335  0.500032  1
