# generated using pymatgen
data_TmTa3(PO4)6
_symmetry_space_group_name_H-M   'P 1'
_cell_length_a   8.85402037
_cell_length_b   9.13295537
_cell_length_c   8.85394500
_cell_angle_alpha   89.99730224
_cell_angle_beta   59.99955912
_cell_angle_gamma   118.99253613
_symmetry_Int_Tables_number   1
_chemical_formula_structural   TmTa3(PO4)6
_chemical_formula_sum   'Tm1 Ta3 P6 O24'
_cell_volume   513.81811131
_cell_formula_units_Z   1
loop_
 _symmetry_equiv_pos_site_id
 _symmetry_equiv_pos_as_xyz
  1  'x, y, z'
loop_
 _atom_site_type_symbol
 _atom_site_label
 _atom_site_symmetry_multiplicity
 _atom_site_fract_x
 _atom_site_fract_y
 _atom_site_fract_z
 _atom_site_occupancy
  Tm  Tm0  1  0.721730  0.082536  0.639077  1
  Ta  Ta1  1  0.284718  0.926958  0.357632  1
  Ta  Ta2  1  0.286441  0.429541  0.856772  1
  Ta  Ta3  1  0.715344  0.572937  0.142277  1
  P  P4  1  0.786491  0.749092  0.748373  1
  P  P5  1  0.485751  0.250804  0.535535  1
  P  P6  1  0.497674  0.749157  0.465028  1
  P  P7  1  0.229616  0.250886  0.234848  1
  P  P8  1  0.786459  0.250836  0.978654  1
  P  P9  1  0.214322  0.749129  0.037222  1
  O  O10  1  0.652547  0.909584  0.477699  1
  O  O11  1  0.996413  0.708033  0.095118  1
  O  O12  1  0.220965  0.583777  0.004529  1
  O  O13  1  0.225553  0.779371  0.206463  1
  O  O14  1  0.987844  0.277296  0.950219  1
  O  O15  1  0.790516  0.416102  0.020897  1
  O  O16  1  0.788644  0.236876  0.809142  1
  O  O17  1  0.803399  0.708198  0.908380  1
  O  O18  1  0.985932  0.779260  0.567911  1
  O  O19  1  0.639295  0.237073  0.551593  1
  O  O20  1  0.779139  0.909405  0.742873  1
  O  O21  1  0.588408  0.583655  0.774576  1
  O  O22  1  0.590554  0.085096  0.150395  1
  O  O23  1  0.604498  0.416003  0.374328  1
  O  O24  1  0.227481  0.277163  0.061952  1
  O  O25  1  0.339206  0.277201  0.710495  1
  O  O26  1  0.616732  0.708154  0.288193  1
  O  O27  1  0.344261  0.084968  0.505426  1
  O  O28  1  0.387335  0.909471  0.869558  1
  O  O29  1  0.358512  0.583817  0.637007  1
  O  O30  1  0.235642  0.085179  0.259125  1
  O  O31  1  0.437188  0.416232  0.188336  1
  O  O32  1  0.347310  0.779207  0.446049  1
  O  O33  1  0.046214  0.237006  0.402186  1
