# generated using pymatgen
data_Y4Os5Ru3
_symmetry_space_group_name_H-M   'P 1'
_cell_length_a   5.35108003
_cell_length_b   5.19749366
_cell_length_c   9.02175300
_cell_angle_alpha   90.00000000
_cell_angle_beta   90.00000000
_cell_angle_gamma   119.71994843
_symmetry_Int_Tables_number   1
_chemical_formula_structural   Y4Os5Ru3
_chemical_formula_sum   'Y4 Os5 Ru3'
_cell_volume   217.90924082
_cell_formula_units_Z   1
loop_
 _symmetry_equiv_pos_site_id
 _symmetry_equiv_pos_as_xyz
  1  'x, y, z'
loop_
 _atom_site_type_symbol
 _atom_site_label
 _atom_site_symmetry_multiplicity
 _atom_site_fract_x
 _atom_site_fract_y
 _atom_site_fract_z
 _atom_site_occupancy
  Y  Y0  1  0.668221  0.334842  0.566178  1
  Y  Y1  1  0.330373  0.664539  0.433300  1
  Y  Y2  1  0.330373  0.664539  0.066700  1
  Y  Y3  1  0.668221  0.334842  0.933822  1
  Os  Os4  1  0.169316  0.337373  0.750000  1
  Os  Os5  1  0.173106  0.830785  0.750000  1
  Os  Os6  1  0.656996  0.828703  0.750000  1
  Os  Os7  1  0.836556  0.664838  0.250000  1
  Os  Os8  1  0.832647  0.171128  0.250000  1
  Ru  Ru9  1  0.992624  0.996958  0.499498  1
  Ru  Ru10  1  0.992624  0.996958  0.000502  1
  Ru  Ru11  1  0.348940  0.174497  0.250000  1
