# generated using pymatgen
data_LiYb3Sb2H
_symmetry_space_group_name_H-M   'P 1'
_cell_length_a   4.53889900
_cell_length_b   12.12603400
_cell_length_c   12.15557900
_cell_angle_alpha   90.00000000
_cell_angle_beta   90.00000000
_cell_angle_gamma   90.00000000
_symmetry_Int_Tables_number   1
_chemical_formula_structural   LiYb3Sb2H
_chemical_formula_sum   'Li4 Yb12 Sb8 H4'
_cell_volume   669.02901141
_cell_formula_units_Z   4
loop_
 _symmetry_equiv_pos_site_id
 _symmetry_equiv_pos_as_xyz
  1  'x, y, z'
loop_
 _atom_site_type_symbol
 _atom_site_label
 _atom_site_symmetry_multiplicity
 _atom_site_fract_x
 _atom_site_fract_y
 _atom_site_fract_z
 _atom_site_occupancy
  Li  Li0  1  0.250000  0.134430  0.860399  1
  Li  Li1  1  0.250000  0.634430  0.639601  1
  Li  Li2  1  0.750000  0.865570  0.139601  1
  Li  Li3  1  0.750000  0.365570  0.360399  1
  Yb  Yb4  1  0.250000  0.059812  0.624416  1
  Yb  Yb5  1  0.250000  0.559812  0.875584  1
  Yb  Yb6  1  0.750000  0.940188  0.375584  1
  Yb  Yb7  1  0.750000  0.440188  0.124416  1
  Yb  Yb8  1  0.250000  0.361164  0.564531  1
  Yb  Yb9  1  0.250000  0.861164  0.935469  1
  Yb  Yb10  1  0.750000  0.638836  0.435469  1
  Yb  Yb11  1  0.750000  0.138836  0.064531  1
  Yb  Yb12  1  0.250000  0.217979  0.288565  1
  Yb  Yb13  1  0.250000  0.717979  0.211435  1
  Yb  Yb14  1  0.750000  0.782021  0.711435  1
  Yb  Yb15  1  0.750000  0.282021  0.788565  1
  Sb  Sb16  1  0.250000  0.483373  0.322676  1
  Sb  Sb17  1  0.250000  0.983373  0.177324  1
  Sb  Sb18  1  0.750000  0.516627  0.677324  1
  Sb  Sb19  1  0.750000  0.016627  0.822676  1
  Sb  Sb20  1  0.250000  0.315431  0.990119  1
  Sb  Sb21  1  0.250000  0.815431  0.509881  1
  Sb  Sb22  1  0.750000  0.684569  0.009881  1
  Sb  Sb23  1  0.750000  0.184569  0.490119  1
  H  H24  1  0.250000  0.234006  0.721802  1
  H  H25  1  0.250000  0.734006  0.778198  1
  H  H26  1  0.750000  0.765994  0.278198  1
  H  H27  1  0.750000  0.265994  0.221802  1
