# generated using pymatgen
data_Y9Er(GaSb2)2
_symmetry_space_group_name_H-M   'P 1'
_cell_length_a   8.84925366
_cell_length_b   8.82981340
_cell_length_c   6.45447609
_cell_angle_alpha   89.98130888
_cell_angle_beta   90.00932075
_cell_angle_gamma   119.92734725
_symmetry_Int_Tables_number   1
_chemical_formula_structural   Y9Er(GaSb2)2
_chemical_formula_sum   'Y9 Er1 Ga2 Sb4'
_cell_volume   437.08636107
_cell_formula_units_Z   1
loop_
 _symmetry_equiv_pos_site_id
 _symmetry_equiv_pos_as_xyz
  1  'x, y, z'
loop_
 _atom_site_type_symbol
 _atom_site_label
 _atom_site_symmetry_multiplicity
 _atom_site_fract_x
 _atom_site_fract_y
 _atom_site_fract_z
 _atom_site_occupancy
  Y  Y0  1  0.011087  0.766230  0.750125  1
  Y  Y1  1  0.011087  0.244856  0.249875  1
  Y  Y2  1  0.752417  0.753285  0.249891  1
  Y  Y3  1  0.752417  0.999133  0.750109  1
  Y  Y4  1  0.244535  0.233817  0.750139  1
  Y  Y5  1  0.244535  0.010718  0.249861  1
  Y  Y6  1  0.335737  0.667869  0.500000  1
  Y  Y7  1  0.653633  0.326816  0.000000  1
  Y  Y8  1  0.653403  0.326702  0.500000  1
  Er  Er9  1  0.335822  0.667912  0.000000  1
  Ga  Ga10  1  0.393852  0.996473  0.750635  1
  Ga  Ga11  1  0.393852  0.397379  0.249365  1
  Sb  Sb12  1  0.999396  0.608142  0.249527  1
  Sb  Sb13  1  0.999396  0.391254  0.750473  1
  Sb  Sb14  1  0.609416  0.608513  0.750666  1
  Sb  Sb15  1  0.609416  0.000903  0.249334  1
