# generated using pymatgen
data_Dy5Ge10P2Ir10Rh9
_symmetry_space_group_name_H-M   'P 1'
_cell_length_a   13.10461459
_cell_length_b   13.07566651
_cell_length_c   3.99499000
_cell_angle_alpha   90.00000000
_cell_angle_beta   90.00000000
_cell_angle_gamma   119.89315239
_symmetry_Int_Tables_number   1
_chemical_formula_structural   Dy5Ge10P2Ir10Rh9
_chemical_formula_sum   'Dy5 Ge10 P2 Ir10 Rh9'
_cell_volume   593.47304846
_cell_formula_units_Z   1
loop_
 _symmetry_equiv_pos_site_id
 _symmetry_equiv_pos_as_xyz
  1  'x, y, z'
loop_
 _atom_site_type_symbol
 _atom_site_label
 _atom_site_symmetry_multiplicity
 _atom_site_fract_x
 _atom_site_fract_y
 _atom_site_fract_z
 _atom_site_occupancy
  Dy  Dy0  1  0.333409  0.666073  0.500000  1
  Dy  Dy1  1  0.665953  0.331575  0.500000  1
  Dy  Dy2  1  0.000084  0.815061  0.000000  1
  Dy  Dy3  1  0.185198  0.184686  0.000000  1
  Dy  Dy4  1  0.815825  0.000029  0.000000  1
  Ge  Ge5  1  0.000177  0.634967  0.500000  1
  Ge  Ge6  1  0.365832  0.366262  0.500000  1
  Ge  Ge7  1  0.633574  0.999337  0.500000  1
  Ge  Ge8  1  0.519329  0.682840  0.000000  1
  Ge  Ge9  1  0.318333  0.835320  0.000000  1
  Ge  Ge10  1  0.166099  0.483897  0.000000  1
  Ge  Ge11  1  0.480878  0.164420  0.000000  1
  Ge  Ge12  1  0.681251  0.517336  0.000000  1
  Ge  Ge13  1  0.834394  0.318448  0.000000  1
  Ge  Ge14  1  0.000163  0.173820  0.500000  1
  P  P15  1  0.819874  0.819107  0.500000  1
  P  P16  1  0.179895  0.999316  0.500000  1
  Ir  Ir17  1  0.642617  0.126882  0.000000  1
  Ir  Ir18  1  0.999916  0.280494  0.000000  1
  Ir  Ir19  1  0.727330  0.727731  0.000000  1
  Ir  Ir20  1  0.272570  0.999850  0.000000  1
  Ir  Ir21  1  0.193326  0.824143  0.500000  1
  Ir  Ir22  1  0.180473  0.374598  0.500000  1
  Ir  Ir23  1  0.367166  0.175790  0.500000  1
  Ir  Ir24  1  0.807002  0.631206  0.500000  1
  Ir  Ir25  1  0.819664  0.193127  0.500000  1
  Ir  Ir26  1  0.999825  0.988459  0.500000  1
  Rh  Rh27  1  0.518262  0.872893  0.000000  1
  Rh  Rh28  1  0.127014  0.645601  0.000000  1
  Rh  Rh29  1  0.357658  0.484038  0.000000  1
  Rh  Rh30  1  0.482139  0.354782  0.000000  1
  Rh  Rh31  1  0.872509  0.518613  0.000000  1
  Rh  Rh32  1  0.000023  0.446410  0.500000  1
  Rh  Rh33  1  0.555154  0.554855  0.500000  1
  Rh  Rh34  1  0.444848  0.000120  0.500000  1
  Rh  Rh35  1  0.632239  0.807913  0.500000  1
