# generated using pymatgen
data_Zr6TiNb3Al12Co7
_symmetry_space_group_name_H-M   'P 1'
_cell_length_a   8.64143577
_cell_length_b   8.64143437
_cell_length_c   8.64143495
_cell_angle_alpha   59.99239732
_cell_angle_beta   59.99240606
_cell_angle_gamma   59.99240167
_symmetry_Int_Tables_number   1
_chemical_formula_structural   Zr6TiNb3Al12Co7
_chemical_formula_sum   'Zr6 Ti1 Nb3 Al12 Co7'
_cell_volume   456.21313214
_cell_formula_units_Z   1
loop_
 _symmetry_equiv_pos_site_id
 _symmetry_equiv_pos_as_xyz
  1  'x, y, z'
loop_
 _atom_site_type_symbol
 _atom_site_label
 _atom_site_symmetry_multiplicity
 _atom_site_fract_x
 _atom_site_fract_y
 _atom_site_fract_z
 _atom_site_occupancy
  Zr  Zr0  1  0.691981  0.308309  0.308309  1
  Zr  Zr1  1  0.691320  0.308805  0.691320  1
  Zr  Zr2  1  0.691320  0.691320  0.308805  1
  Zr  Zr3  1  0.308805  0.691320  0.691320  1
  Zr  Zr4  1  0.308309  0.691981  0.308309  1
  Zr  Zr5  1  0.308309  0.308309  0.691981  1
  Ti  Ti6  1  0.118007  0.118007  0.118007  1
  Nb  Nb7  1  0.644056  0.118556  0.118556  1
  Nb  Nb8  1  0.118556  0.644056  0.118556  1
  Nb  Nb9  1  0.118556  0.118556  0.644056  1
  Al  Al10  1  0.362166  0.880658  0.880658  1
  Al  Al11  1  0.880658  0.362166  0.880658  1
  Al  Al12  1  0.880658  0.880658  0.362166  1
  Al  Al13  1  0.879022  0.879022  0.879022  1
  Al  Al14  1  0.994627  0.333641  0.333641  1
  Al  Al15  1  0.333641  0.994627  0.333641  1
  Al  Al16  1  0.333641  0.333641  0.994627  1
  Al  Al17  1  0.335926  0.335926  0.335926  1
  Al  Al18  1  0.003823  0.665144  0.665144  1
  Al  Al19  1  0.665144  0.003823  0.665144  1
  Al  Al20  1  0.665144  0.665144  0.003823  1
  Al  Al21  1  0.665599  0.665599  0.665599  1
  Co  Co22  1  0.000426  0.000426  0.000426  1
  Co  Co23  1  0.498575  0.003228  0.003228  1
  Co  Co24  1  0.495839  0.003598  0.495839  1
  Co  Co25  1  0.495839  0.495839  0.003598  1
  Co  Co26  1  0.003598  0.495839  0.495839  1
  Co  Co27  1  0.003228  0.498575  0.003228  1
  Co  Co28  1  0.003228  0.003228  0.498575  1
