# generated using pymatgen
data_ScU3O10
_symmetry_space_group_name_H-M   'P 1'
_cell_length_a   5.64379263
_cell_length_b   5.61854577
_cell_length_c   7.75399940
_cell_angle_alpha   70.32280161
_cell_angle_beta   70.43220002
_cell_angle_gamma   72.63072192
_symmetry_Int_Tables_number   1
_chemical_formula_structural   ScU3O10
_chemical_formula_sum   'Sc1 U3 O10'
_cell_volume   213.31441406
_cell_formula_units_Z   1
loop_
 _symmetry_equiv_pos_site_id
 _symmetry_equiv_pos_as_xyz
  1  'x, y, z'
loop_
 _atom_site_type_symbol
 _atom_site_label
 _atom_site_symmetry_multiplicity
 _atom_site_fract_x
 _atom_site_fract_y
 _atom_site_fract_z
 _atom_site_occupancy
  Sc  Sc0  1  0.000000  0.000000  0.500000  1
  U  U1  1  0.000000  0.000000  0.000000  1
  U  U2  1  0.544757  0.470213  0.731904  1
  U  U3  1  0.455243  0.529787  0.268096  1
  O  O4  1  0.691432  0.758466  0.146471  1
  O  O5  1  0.899591  0.098482  0.752957  1
  O  O6  1  0.100409  0.901518  0.247043  1
  O  O7  1  0.229796  0.296523  0.369887  1
  O  O8  1  0.319267  0.697939  0.535129  1
  O  O9  1  0.294149  0.688935  0.959509  1
  O  O10  1  0.308568  0.241534  0.853529  1
  O  O11  1  0.680733  0.302061  0.464871  1
  O  O12  1  0.770204  0.703477  0.630113  1
  O  O13  1  0.705851  0.311065  0.040491  1
