# generated using pymatgen
data_HoEr3InIr
_symmetry_space_group_name_H-M   'P 1'
_cell_length_a   9.59751319
_cell_length_b   9.59407419
_cell_length_c   9.59407262
_cell_angle_alpha   60.02371907
_cell_angle_beta   59.98813823
_cell_angle_gamma   59.98813651
_symmetry_Int_Tables_number   1
_chemical_formula_structural   HoEr3InIr
_chemical_formula_sum   'Ho4 Er12 In4 Ir4'
_cell_volume   624.66857922
_cell_formula_units_Z   4
loop_
 _symmetry_equiv_pos_site_id
 _symmetry_equiv_pos_as_xyz
  1  'x, y, z'
loop_
 _atom_site_type_symbol
 _atom_site_label
 _atom_site_symmetry_multiplicity
 _atom_site_fract_x
 _atom_site_fract_y
 _atom_site_fract_z
 _atom_site_occupancy
  Ho  Ho0  1  0.560165  0.939835  0.560165  1
  Ho  Ho1  1  0.560165  0.560165  0.939835  1
  Ho  Ho2  1  0.939835  0.560165  0.939835  1
  Ho  Ho3  1  0.939835  0.939835  0.560165  1
  Er  Er4  1  0.809806  0.190193  0.190193  1
  Er  Er5  1  0.190192  0.809808  0.809808  1
  Er  Er6  1  0.190329  0.809670  0.190329  1
  Er  Er7  1  0.190329  0.190329  0.809670  1
  Er  Er8  1  0.809672  0.190328  0.809672  1
  Er  Er9  1  0.809672  0.809672  0.190328  1
  Er  Er10  1  0.348950  0.349162  0.349162  1
  Er  Er11  1  0.349162  0.348950  0.952724  1
  Er  Er12  1  0.952724  0.349162  0.349162  1
  Er  Er13  1  0.349162  0.952724  0.348950  1
  Er  Er14  1  0.940029  0.559971  0.559971  1
  Er  Er15  1  0.559971  0.940029  0.940029  1
  In  In16  1  0.583511  0.583278  0.583278  1
  In  In17  1  0.583278  0.583511  0.249933  1
  In  In18  1  0.249933  0.583278  0.583278  1
  In  In19  1  0.583278  0.249933  0.583511  1
  Ir  Ir20  1  0.141549  0.141304  0.141304  1
  Ir  Ir21  1  0.141304  0.141549  0.575843  1
  Ir  Ir22  1  0.575843  0.141304  0.141304  1
  Ir  Ir23  1  0.141304  0.575843  0.141549  1
