# generated using pymatgen
data_PrTm4Si12Rh19
_symmetry_space_group_name_H-M   'P 1'
_cell_length_a   12.76761200
_cell_length_b   12.77277183
_cell_length_c   3.96482600
_cell_angle_alpha   90.00000000
_cell_angle_beta   90.00000000
_cell_angle_gamma   119.98663763
_symmetry_Int_Tables_number   1
_chemical_formula_structural   PrTm4Si12Rh19
_chemical_formula_sum   'Pr1 Tm4 Si12 Rh19'
_cell_volume   560.02582698
_cell_formula_units_Z   1
loop_
 _symmetry_equiv_pos_site_id
 _symmetry_equiv_pos_as_xyz
  1  'x, y, z'
loop_
 _atom_site_type_symbol
 _atom_site_label
 _atom_site_symmetry_multiplicity
 _atom_site_fract_x
 _atom_site_fract_y
 _atom_site_fract_z
 _atom_site_occupancy
  Pr  Pr0  1  0.186690  0.000000  0.500000  1
  Tm  Tm1  1  0.999520  0.187176  0.500000  1
  Tm  Tm2  1  0.812343  0.812824  0.500000  1
  Tm  Tm3  1  0.666774  0.332617  0.000000  1
  Tm  Tm4  1  0.334156  0.667383  0.000000  1
  Si  Si5  1  0.478537  0.313715  0.500000  1
  Si  Si6  1  0.817905  0.000000  0.000000  1
  Si  Si7  1  0.181218  0.185070  0.000000  1
  Si  Si8  1  0.996148  0.814930  0.000000  1
  Si  Si9  1  0.374547  0.000000  0.000000  1
  Si  Si10  1  0.687365  0.164854  0.500000  1
  Si  Si11  1  0.833530  0.519679  0.500000  1
  Si  Si12  1  0.522512  0.835146  0.500000  1
  Si  Si13  1  0.164821  0.686285  0.500000  1
  Si  Si14  1  0.313851  0.480321  0.500000  1
  Si  Si15  1  0.999800  0.371076  0.000000  1
  Si  Si16  1  0.628724  0.628924  0.000000  1
  Rh  Rh17  1  0.808033  0.183039  0.000000  1
  Rh  Rh18  1  0.378377  0.196244  0.000000  1
  Rh  Rh19  1  0.639565  0.512319  0.500000  1
  Rh  Rh20  1  0.872750  0.359330  0.500000  1
  Rh  Rh21  1  0.360970  0.872031  0.500000  1
  Rh  Rh22  1  0.513420  0.640670  0.500000  1
  Rh  Rh23  1  0.127246  0.487681  0.500000  1
  Rh  Rh24  1  0.815345  0.622742  0.000000  1
  Rh  Rh25  1  0.624993  0.816961  0.000000  1
  Rh  Rh26  1  0.182134  0.803756  0.000000  1
  Rh  Rh27  1  0.192603  0.377258  0.000000  1
  Rh  Rh28  1  0.997609  0.718123  0.500000  1
  Rh  Rh29  1  0.279486  0.281877  0.500000  1
  Rh  Rh30  1  0.722123  0.000000  0.500000  1
  Rh  Rh31  1  0.998419  0.553627  0.000000  1
  Rh  Rh32  1  0.444793  0.446373  0.000000  1
  Rh  Rh33  1  0.556678  0.000000  0.000000  1
  Rh  Rh34  1  0.998074  0.000000  0.000000  1
  Rh  Rh35  1  0.488940  0.127969  0.500000  1
