# generated using pymatgen
data_Ta2V2Te8C
_symmetry_space_group_name_H-M   'P 1'
_cell_length_a   3.50633400
_cell_length_b   11.43711500
_cell_length_c   16.96669800
_cell_angle_alpha   90.00000000
_cell_angle_beta   90.00000000
_cell_angle_gamma   90.00000000
_symmetry_Int_Tables_number   1
_chemical_formula_structural   Ta2V2Te8C
_chemical_formula_sum   'Ta4 V4 Te16 C2'
_cell_volume   680.40437987
_cell_formula_units_Z   2
loop_
 _symmetry_equiv_pos_site_id
 _symmetry_equiv_pos_as_xyz
  1  'x, y, z'
loop_
 _atom_site_type_symbol
 _atom_site_label
 _atom_site_symmetry_multiplicity
 _atom_site_fract_x
 _atom_site_fract_y
 _atom_site_fract_z
 _atom_site_occupancy
  Ta  Ta0  1  0.500000  0.078482  0.066251  1
  Ta  Ta1  1  0.500000  0.921517  0.933749  1
  Ta  Ta2  1  0.500000  0.578483  0.433749  1
  Ta  Ta3  1  0.500000  0.421517  0.566251  1
  V  V4  1  0.000000  0.358902  0.422591  1
  V  V5  1  0.000000  0.641098  0.577409  1
  V  V6  1  0.000000  0.858902  0.077409  1
  V  V7  1  0.000000  0.141098  0.922591  1
  Te  Te8  1  0.500000  0.293430  0.991151  1
  Te  Te9  1  0.500000  0.706570  0.008849  1
  Te  Te10  1  0.500000  0.793430  0.508849  1
  Te  Te11  1  0.500000  0.206570  0.491151  1
  Te  Te12  1  0.500000  0.426679  0.310309  1
  Te  Te13  1  0.500000  0.573321  0.689691  1
  Te  Te14  1  0.500000  0.926679  0.189691  1
  Te  Te15  1  0.500000  0.073321  0.810309  1
  Te  Te16  1  0.000000  0.151814  0.323581  1
  Te  Te17  1  0.000000  0.848186  0.676419  1
  Te  Te18  1  0.000000  0.651814  0.176419  1
  Te  Te19  1  0.000000  0.348186  0.823581  1
  Te  Te20  1  0.000000  0.221767  0.163005  1
  Te  Te21  1  0.000000  0.778233  0.836995  1
  Te  Te22  1  0.000000  0.721767  0.336995  1
  Te  Te23  1  0.000000  0.278233  0.663005  1
  C  C24  1  0.000000  0.000000  0.000000  1
  C  C25  1  0.000000  0.500000  0.500000  1
