# generated using pymatgen
data_Sm4Sc6Ga3Sn5
_symmetry_space_group_name_H-M   'P 1'
_cell_length_a   7.56582800
_cell_length_b   7.90524100
_cell_length_c   14.88318500
_cell_angle_alpha   90.00000000
_cell_angle_beta   90.00000000
_cell_angle_gamma   90.00000000
_symmetry_Int_Tables_number   1
_chemical_formula_structural   Sm4Sc6Ga3Sn5
_chemical_formula_sum   'Sm8 Sc12 Ga6 Sn10'
_cell_volume   890.15873620
_cell_formula_units_Z   2
loop_
 _symmetry_equiv_pos_site_id
 _symmetry_equiv_pos_as_xyz
  1  'x, y, z'
loop_
 _atom_site_type_symbol
 _atom_site_label
 _atom_site_symmetry_multiplicity
 _atom_site_fract_x
 _atom_site_fract_y
 _atom_site_fract_z
 _atom_site_occupancy
  Sm  Sm0  1  0.504321  0.320058  0.897451  1
  Sm  Sm1  1  0.004321  0.179942  0.602549  1
  Sm  Sm2  1  0.495391  0.673271  0.405098  1
  Sm  Sm3  1  0.995391  0.826729  0.094902  1
  Sm  Sm4  1  0.495391  0.673271  0.094902  1
  Sm  Sm5  1  0.995391  0.826729  0.405098  1
  Sm  Sm6  1  0.504321  0.320058  0.602549  1
  Sm  Sm7  1  0.004321  0.179942  0.897451  1
  Sc  Sc8  1  0.342919  0.832938  0.866064  1
  Sc  Sc9  1  0.842919  0.667062  0.633936  1
  Sc  Sc10  1  0.657313  0.171775  0.370164  1
  Sc  Sc11  1  0.157313  0.328225  0.129836  1
  Sc  Sc12  1  0.657313  0.171775  0.129836  1
  Sc  Sc13  1  0.157313  0.328225  0.370164  1
  Sc  Sc14  1  0.342919  0.832938  0.633936  1
  Sc  Sc15  1  0.842919  0.667062  0.866064  1
  Sc  Sc16  1  0.184458  0.500084  0.750000  1
  Sc  Sc17  1  0.684458  0.999916  0.750000  1
  Sc  Sc18  1  0.812559  0.489691  0.250000  1
  Sc  Sc19  1  0.312559  0.010309  0.250000  1
  Ga  Ga20  1  0.544841  0.618555  0.750000  1
  Ga  Ga21  1  0.044841  0.881445  0.750000  1
  Ga  Ga22  1  0.458110  0.372691  0.250000  1
  Ga  Ga23  1  0.958110  0.127309  0.250000  1
  Ga  Ga24  1  0.302090  0.127149  0.750000  1
  Ga  Ga25  1  0.802090  0.372851  0.750000  1
  Sn  Sn26  1  0.323062  0.042870  0.038157  1
  Sn  Sn27  1  0.823062  0.457130  0.461843  1
  Sn  Sn28  1  0.679354  0.956454  0.541243  1
  Sn  Sn29  1  0.179354  0.543546  0.958757  1
  Sn  Sn30  1  0.679354  0.956454  0.958757  1
  Sn  Sn31  1  0.179354  0.543546  0.541243  1
  Sn  Sn32  1  0.323062  0.042870  0.461843  1
  Sn  Sn33  1  0.823062  0.457130  0.038157  1
  Sn  Sn34  1  0.693221  0.866043  0.250000  1
  Sn  Sn35  1  0.193221  0.633957  0.250000  1
