# generated using pymatgen
data_HfBe9Nb2
_symmetry_space_group_name_H-M   'P 1'
_cell_length_a   7.59080827
_cell_length_b   7.59080839
_cell_length_c   7.59080800
_cell_angle_alpha   35.43521068
_cell_angle_beta   35.43521156
_cell_angle_gamma   35.43521138
_symmetry_Int_Tables_number   1
_chemical_formula_structural   HfBe9Nb2
_chemical_formula_sum   'Hf1 Be9 Nb2'
_cell_volume   131.37468653
_cell_formula_units_Z   1
loop_
 _symmetry_equiv_pos_site_id
 _symmetry_equiv_pos_as_xyz
  1  'x, y, z'
loop_
 _atom_site_type_symbol
 _atom_site_label
 _atom_site_symmetry_multiplicity
 _atom_site_fract_x
 _atom_site_fract_y
 _atom_site_fract_z
 _atom_site_occupancy
  Hf  Hf0  1  0.000000  0.000000  0.000000  1
  Be  Be1  1  0.335013  0.335013  0.335012  1
  Be  Be2  1  0.664988  0.664988  0.664987  1
  Be  Be3  1  0.585063  0.076125  0.585064  1
  Be  Be4  1  0.585063  0.585063  0.076126  1
  Be  Be5  1  0.076125  0.585063  0.585064  1
  Be  Be6  1  0.923875  0.414937  0.414935  1
  Be  Be7  1  0.414936  0.414936  0.923874  1
  Be  Be8  1  0.414937  0.923875  0.414935  1
  Be  Be9  1  0.500000  0.500000  0.500000  1
  Nb  Nb10  1  0.142661  0.142661  0.142661  1
  Nb  Nb11  1  0.857339  0.857339  0.857338  1
