# generated using pymatgen
data_SrPr2Nd(Si5Pt3)2
_symmetry_space_group_name_H-M   'P 1'
_cell_length_a   8.30105953
_cell_length_b   8.30989350
_cell_length_c   8.30989317
_cell_angle_alpha   136.75412989
_cell_angle_beta   105.51273563
_cell_angle_gamma   90.25301951
_symmetry_Int_Tables_number   1
_chemical_formula_structural   SrPr2Nd(Si5Pt3)2
_chemical_formula_sum   'Sr1 Pr2 Nd1 Si10 Pt6'
_cell_volume   360.78196112
_cell_formula_units_Z   1
loop_
 _symmetry_equiv_pos_site_id
 _symmetry_equiv_pos_as_xyz
  1  'x, y, z'
loop_
 _atom_site_type_symbol
 _atom_site_label
 _atom_site_symmetry_multiplicity
 _atom_site_fract_x
 _atom_site_fract_y
 _atom_site_fract_z
 _atom_site_occupancy
  Sr  Sr0  1  0.863167  0.628074  0.235093  1
  Pr  Pr1  1  0.394855  0.127831  0.267025  1
  Pr  Pr2  1  0.605576  0.872239  0.733337  1
  Nd  Nd3  1  0.138971  0.371984  0.766986  1
  Si  Si4  1  0.499148  0.748456  0.249139  1
  Si  Si5  1  0.499148  0.250009  0.750693  1
  Si  Si6  1  0.230071  0.981016  0.750421  1
  Si  Si7  1  0.771030  0.521158  0.750299  1
  Si  Si8  1  0.771030  0.020732  0.249873  1
  Si  Si9  1  0.230071  0.479651  0.249056  1
  Si  Si10  1  0.036367  0.887813  0.148554  1
  Si  Si11  1  0.963160  0.112592  0.850568  1
  Si  Si12  1  0.737508  0.386226  0.351282  1
  Si  Si13  1  0.260910  0.612179  0.648731  1
  Pt  Pt14  1  0.000871  0.749822  0.750730  1
  Pt  Pt15  1  0.000871  0.250142  0.251048  1
  Pt  Pt16  1  0.253111  0.863929  0.389183  1
  Pt  Pt17  1  0.745272  0.136260  0.609011  1
  Pt  Pt18  1  0.474062  0.363836  0.110226  1
  Pt  Pt19  1  0.524796  0.636053  0.888744  1
