# generated using pymatgen
data_Ba3LaB24
_symmetry_space_group_name_H-M   'P 1'
_cell_length_a   4.24396000
_cell_length_b   4.24396000
_cell_length_c   16.99542400
_cell_angle_alpha   90.00000000
_cell_angle_beta   90.00000000
_cell_angle_gamma   90.00000000
_symmetry_Int_Tables_number   1
_chemical_formula_structural   Ba3LaB24
_chemical_formula_sum   'Ba3 La1 B24'
_cell_volume   306.10792095
_cell_formula_units_Z   1
loop_
 _symmetry_equiv_pos_site_id
 _symmetry_equiv_pos_as_xyz
  1  'x, y, z'
loop_
 _atom_site_type_symbol
 _atom_site_label
 _atom_site_symmetry_multiplicity
 _atom_site_fract_x
 _atom_site_fract_y
 _atom_site_fract_z
 _atom_site_occupancy
  Ba  Ba0  1  0.000000  0.000000  0.249633  1
  Ba  Ba1  1  0.000000  0.000000  0.500000  1
  Ba  Ba2  1  0.000000  0.000000  0.750367  1
  La  La3  1  0.000000  0.000000  0.000000  1
  B  B4  1  0.202853  0.500000  0.121842  1
  B  B5  1  0.204537  0.500000  0.373901  1
  B  B6  1  0.204537  0.500000  0.626099  1
  B  B7  1  0.202853  0.500000  0.878158  1
  B  B8  1  0.500000  0.500000  0.196657  1
  B  B9  1  0.500000  0.500000  0.448136  1
  B  B10  1  0.500000  0.500000  0.700257  1
  B  B11  1  0.500000  0.500000  0.950940  1
  B  B12  1  0.500000  0.202853  0.121842  1
  B  B13  1  0.500000  0.204537  0.373901  1
  B  B14  1  0.500000  0.204537  0.626099  1
  B  B15  1  0.500000  0.202853  0.878158  1
  B  B16  1  0.500000  0.500000  0.049060  1
  B  B17  1  0.500000  0.500000  0.299743  1
  B  B18  1  0.500000  0.500000  0.551864  1
  B  B19  1  0.500000  0.500000  0.803343  1
  B  B20  1  0.500000  0.797147  0.121842  1
  B  B21  1  0.500000  0.795463  0.373901  1
  B  B22  1  0.500000  0.795463  0.626099  1
  B  B23  1  0.500000  0.797147  0.878158  1
  B  B24  1  0.797147  0.500000  0.121842  1
  B  B25  1  0.795463  0.500000  0.373901  1
  B  B26  1  0.795463  0.500000  0.626099  1
  B  B27  1  0.797147  0.500000  0.878158  1
