# generated using pymatgen
data_Sm4Dy2Cd23P
_symmetry_space_group_name_H-M   'P 1'
_cell_length_a   9.97947760
_cell_length_b   9.97520754
_cell_length_c   9.97520703
_cell_angle_alpha   60.03163457
_cell_angle_beta   59.98583680
_cell_angle_gamma   59.98583890
_symmetry_Int_Tables_number   1
_chemical_formula_structural   Sm4Dy2Cd23P
_chemical_formula_sum   'Sm4 Dy2 Cd23 P1'
_cell_volume   702.17820850
_cell_formula_units_Z   1
loop_
 _symmetry_equiv_pos_site_id
 _symmetry_equiv_pos_as_xyz
  1  'x, y, z'
loop_
 _atom_site_type_symbol
 _atom_site_label
 _atom_site_symmetry_multiplicity
 _atom_site_fract_x
 _atom_site_fract_y
 _atom_site_fract_z
 _atom_site_occupancy
  Sm  Sm0  1  0.799710  0.199837  0.200743  1
  Sm  Sm1  1  0.199856  0.199391  0.800609  1
  Sm  Sm2  1  0.800144  0.199391  0.800609  1
  Sm  Sm3  1  0.200290  0.799257  0.800163  1
  Dy  Dy4  1  0.802480  0.802057  0.197943  1
  Dy  Dy5  1  0.197520  0.802057  0.197943  1
  Cd  Cd6  1  0.836142  0.834827  0.492889  1
  Cd  Cd7  1  0.834693  0.495859  0.834753  1
  Cd  Cd8  1  0.494375  0.834727  0.836097  1
  Cd  Cd9  1  0.834800  0.834727  0.836097  1
  Cd  Cd10  1  0.165307  0.165247  0.504141  1
  Cd  Cd11  1  0.163858  0.507111  0.165173  1
  Cd  Cd12  1  0.505625  0.163903  0.165273  1
  Cd  Cd13  1  0.165200  0.163903  0.165273  1
  Cd  Cd14  1  0.620512  0.622185  0.136792  1
  Cd  Cd15  1  0.621614  0.135325  0.621449  1
  Cd  Cd16  1  0.136072  0.621968  0.620130  1
  Cd  Cd17  1  0.621831  0.621968  0.620130  1
  Cd  Cd18  1  0.378386  0.378551  0.864675  1
  Cd  Cd19  1  0.379488  0.863208  0.377815  1
  Cd  Cd20  1  0.863928  0.379870  0.378032  1
  Cd  Cd21  1  0.378169  0.379870  0.378032  1
  Cd  Cd22  1  0.999907  0.999425  0.500094  1
  Cd  Cd23  1  0.500575  0.999425  0.500094  1
  Cd  Cd24  1  0.000000  0.500479  0.499521  1
  Cd  Cd25  1  0.499425  0.499906  0.000575  1
  Cd  Cd26  1  0.000093  0.499906  0.000575  1
  Cd  Cd27  1  0.500000  0.999539  0.000461  1
  Cd  Cd28  1  0.500000  0.499597  0.500403  1
  P  P29  1  0.000000  0.996484  0.003516  1
