# generated using pymatgen
data_TbBi3Ir2(RhO7)2
_symmetry_space_group_name_H-M   'P 1'
_cell_length_a   7.31038586
_cell_length_b   7.33350559
_cell_length_c   7.31038614
_cell_angle_alpha   60.29391700
_cell_angle_beta   60.28751875
_cell_angle_gamma   60.29392278
_symmetry_Int_Tables_number   1
_chemical_formula_structural   TbBi3Ir2(RhO7)2
_chemical_formula_sum   'Tb1 Bi3 Ir2 Rh2 O14'
_cell_volume   278.95591175
_cell_formula_units_Z   1
loop_
 _symmetry_equiv_pos_site_id
 _symmetry_equiv_pos_as_xyz
  1  'x, y, z'
loop_
 _atom_site_type_symbol
 _atom_site_label
 _atom_site_symmetry_multiplicity
 _atom_site_fract_x
 _atom_site_fract_y
 _atom_site_fract_z
 _atom_site_occupancy
  Tb  Tb0  1  0.125000  0.125000  0.125000  1
  Bi  Bi1  1  0.125000  0.625000  0.125000  1
  Bi  Bi2  1  0.625000  0.125000  0.125000  1
  Bi  Bi3  1  0.125000  0.125000  0.625000  1
  Ir  Ir4  1  0.625000  0.625000  0.125000  1
  Ir  Ir5  1  0.125000  0.625000  0.625000  1
  Rh  Rh6  1  0.625000  0.625000  0.625000  1
  Rh  Rh7  1  0.625000  0.125000  0.625000  1
  O  O8  1  0.247612  0.249426  0.247612  1
  O  O9  1  0.291188  0.713698  0.291188  1
  O  O10  1  0.962853  0.957846  0.533647  1
  O  O11  1  0.541630  0.958116  0.541630  1
  O  O12  1  0.707534  0.705397  0.290901  1
  O  O13  1  0.959099  0.544603  0.542466  1
  O  O14  1  0.708370  0.291884  0.708370  1
  O  O15  1  0.287147  0.292154  0.716353  1
  O  O16  1  0.716353  0.292154  0.287147  1
  O  O17  1  0.290901  0.705397  0.707534  1
  O  O18  1  0.958812  0.536302  0.958812  1
  O  O19  1  0.542466  0.544603  0.959099  1
  O  O20  1  0.002388  0.000574  0.002388  1
  O  O21  1  0.533647  0.957846  0.962853  1
