# generated using pymatgen
data_Ca3Dy(NiH6)2
_symmetry_space_group_name_H-M   'P 1'
_cell_length_a   6.95609800
_cell_length_b   6.95609959
_cell_length_c   5.00773200
_cell_angle_alpha   90.00171325
_cell_angle_beta   90.00172148
_cell_angle_gamma   137.71597921
_symmetry_Int_Tables_number   1
_chemical_formula_structural   Ca3Dy(NiH6)2
_chemical_formula_sum   'Ca3 Dy1 Ni2 H12'
_cell_volume   163.02813216
_cell_formula_units_Z   1
loop_
 _symmetry_equiv_pos_site_id
 _symmetry_equiv_pos_as_xyz
  1  'x, y, z'
loop_
 _atom_site_type_symbol
 _atom_site_label
 _atom_site_symmetry_multiplicity
 _atom_site_fract_x
 _atom_site_fract_y
 _atom_site_fract_z
 _atom_site_occupancy
  Ca  Ca0  1  0.644152  0.355848  0.999995  1
  Ca  Ca1  1  0.854488  0.145511  0.499998  1
  Ca  Ca2  1  0.355468  0.644531  0.000004  1
  Dy  Dy3  1  0.142000  0.857997  0.500014  1
  Ni  Ni4  1  0.503190  0.496809  0.499998  1
  Ni  Ni5  1  0.002014  0.997994  0.000000  1
  H  H6  1  0.003414  0.514230  0.742107  1
  H  H7  1  0.485832  0.996662  0.257900  1
  H  H8  1  0.003292  0.514108  0.257940  1
  H  H9  1  0.485827  0.996629  0.742068  1
  H  H10  1  0.381465  0.618534  0.500010  1
  H  H11  1  0.879147  0.120853  0.000001  1
  H  H12  1  0.624216  0.375781  0.500013  1
  H  H13  1  0.123107  0.876895  0.999958  1
  H  H14  1  0.250065  0.243877  0.745593  1
  H  H15  1  0.756114  0.749924  0.254404  1
  H  H16  1  0.249333  0.243137  0.253440  1
  H  H17  1  0.756874  0.750680  0.746557  1
