# generated using pymatgen
data_Li3Ni2IrO6
_symmetry_space_group_name_H-M   'P 1'
_cell_length_a   5.10474871
_cell_length_b   5.20956266
_cell_length_c   5.20956271
_cell_angle_alpha   119.90897095
_cell_angle_beta   99.98191152
_cell_angle_gamma   99.98191730
_symmetry_Int_Tables_number   1
_chemical_formula_structural   Li3Ni2IrO6
_chemical_formula_sum   'Li3 Ni2 Ir1 O6'
_cell_volume   112.66335897
_cell_formula_units_Z   1
loop_
 _symmetry_equiv_pos_site_id
 _symmetry_equiv_pos_as_xyz
  1  'x, y, z'
loop_
 _atom_site_type_symbol
 _atom_site_label
 _atom_site_symmetry_multiplicity
 _atom_site_fract_x
 _atom_site_fract_y
 _atom_site_fract_z
 _atom_site_occupancy
  Li  Li0  1  0.500000  0.831219  0.168781  1
  Li  Li1  1  0.500000  0.168781  0.831219  1
  Li  Li2  1  0.500000  0.500000  0.500000  1
  Ni  Ni3  1  0.000000  0.666894  0.333106  1
  Ni  Ni4  1  0.000000  0.333106  0.666894  1
  Ir  Ir5  1  0.000000  0.000000  0.000000  1
  O  O6  1  0.228321  0.756642  0.756642  1
  O  O7  1  0.771679  0.243358  0.243358  1
  O  O8  1  0.232794  0.078038  0.399330  1
  O  O9  1  0.232794  0.399330  0.078038  1
  O  O10  1  0.767206  0.921962  0.600670  1
  O  O11  1  0.767206  0.600670  0.921962  1
