# generated using pymatgen
data_Ce8Co(CuSi4)3
_symmetry_space_group_name_H-M   'P 1'
_cell_length_a   8.05761100
_cell_length_b   8.05761177
_cell_length_c   8.38933200
_cell_angle_alpha   90.00000000
_cell_angle_beta   90.00000000
_cell_angle_gamma   119.99999272
_symmetry_Int_Tables_number   1
_chemical_formula_structural   Ce8Co(CuSi4)3
_chemical_formula_sum   'Ce8 Co1 Cu3 Si12'
_cell_volume   471.70521822
_cell_formula_units_Z   1
loop_
 _symmetry_equiv_pos_site_id
 _symmetry_equiv_pos_as_xyz
  1  'x, y, z'
loop_
 _atom_site_type_symbol
 _atom_site_label
 _atom_site_symmetry_multiplicity
 _atom_site_fract_x
 _atom_site_fract_y
 _atom_site_fract_z
 _atom_site_occupancy
  Ce  Ce0  1  0.000000  0.000000  0.249897  1
  Ce  Ce1  1  0.000000  0.000000  0.750051  1
  Ce  Ce2  1  0.497344  0.502656  0.246374  1
  Ce  Ce3  1  0.497344  0.994689  0.246374  1
  Ce  Ce4  1  0.005311  0.502656  0.246374  1
  Ce  Ce5  1  0.496758  0.503242  0.753657  1
  Ce  Ce6  1  0.496758  0.993515  0.753657  1
  Ce  Ce7  1  0.006485  0.503242  0.753657  1
  Co  Co8  1  0.333333  0.666667  0.000036  1
  Cu  Cu9  1  0.333333  0.666667  0.499219  1
  Cu  Cu10  1  0.666667  0.333333  0.502588  1
  Cu  Cu11  1  0.666667  0.333333  0.998145  1
  Si  Si12  1  0.168103  0.831897  0.499786  1
  Si  Si13  1  0.168103  0.336207  0.499786  1
  Si  Si14  1  0.663793  0.831897  0.499786  1
  Si  Si15  1  0.831147  0.168853  0.500370  1
  Si  Si16  1  0.831147  0.662293  0.500370  1
  Si  Si17  1  0.337707  0.168853  0.500370  1
  Si  Si18  1  0.832799  0.167201  0.999508  1
  Si  Si19  1  0.832799  0.665596  0.999508  1
  Si  Si20  1  0.334404  0.167201  0.999508  1
  Si  Si21  1  0.170720  0.829280  0.000327  1
  Si  Si22  1  0.170720  0.341441  0.000327  1
  Si  Si23  1  0.658559  0.829280  0.000327  1
