# generated using pymatgen
data_Rb3Sm3(PS4)4
_symmetry_space_group_name_H-M   'P 1'
_cell_length_a   10.03222969
_cell_length_b   10.03222995
_cell_length_c   14.74725900
_cell_angle_alpha   89.22925425
_cell_angle_beta   89.22925423
_cell_angle_gamma   72.01230047
_symmetry_Int_Tables_number   1
_chemical_formula_structural   Rb3Sm3(PS4)4
_chemical_formula_sum   'Rb6 Sm6 P8 S32'
_cell_volume   1411.50626732
_cell_formula_units_Z   2
loop_
 _symmetry_equiv_pos_site_id
 _symmetry_equiv_pos_as_xyz
  1  'x, y, z'
loop_
 _atom_site_type_symbol
 _atom_site_label
 _atom_site_symmetry_multiplicity
 _atom_site_fract_x
 _atom_site_fract_y
 _atom_site_fract_z
 _atom_site_occupancy
  Rb  Rb0  1  0.618644  0.972385  0.835314  1
  Rb  Rb1  1  0.027615  0.381356  0.664686  1
  Rb  Rb2  1  0.972385  0.618644  0.335314  1
  Rb  Rb3  1  0.000000  0.000000  0.000000  1
  Rb  Rb4  1  0.381356  0.027615  0.164686  1
  Rb  Rb5  1  0.000000  0.000000  0.500000  1
  Sm  Sm6  1  0.512211  0.748080  0.487400  1
  Sm  Sm7  1  0.487789  0.251920  0.512600  1
  Sm  Sm8  1  0.748080  0.512211  0.987400  1
  Sm  Sm9  1  0.255712  0.744288  0.750000  1
  Sm  Sm10  1  0.744288  0.255712  0.250000  1
  Sm  Sm11  1  0.251920  0.487789  0.012600  1
  P  P12  1  0.400994  0.760439  0.975916  1
  P  P13  1  0.599006  0.239561  0.024084  1
  P  P14  1  0.239561  0.599006  0.524084  1
  P  P15  1  0.333656  0.035412  0.639406  1
  P  P16  1  0.035412  0.333656  0.139406  1
  P  P17  1  0.760439  0.400994  0.475916  1
  P  P18  1  0.666344  0.964588  0.360594  1
  P  P19  1  0.964588  0.666344  0.860594  1
  S  S20  1  0.259732  0.726951  0.418088  1
  S  S21  1  0.947079  0.679228  0.999455  1
  S  S22  1  0.523926  0.159437  0.329755  1
  S  S23  1  0.679228  0.947079  0.499455  1
  S  S24  1  0.740268  0.273049  0.581912  1
  S  S25  1  0.965125  0.852119  0.802330  1
  S  S26  1  0.840563  0.476074  0.170245  1
  S  S27  1  0.078878  0.699727  0.608227  1
  S  S28  1  0.147881  0.034875  0.697670  1
  S  S29  1  0.476074  0.840563  0.670245  1
  S  S30  1  0.806104  0.600203  0.812752  1
  S  S31  1  0.456590  0.580749  0.896130  1
  S  S32  1  0.419251  0.543410  0.603870  1
  S  S33  1  0.034875  0.147881  0.197670  1
  S  S34  1  0.273049  0.740268  0.081912  1
  S  S35  1  0.921122  0.300273  0.391773  1
  S  S36  1  0.320772  0.052921  0.500545  1
  S  S37  1  0.052921  0.320772  0.000545  1
  S  S38  1  0.699727  0.078878  0.108227  1
  S  S39  1  0.399797  0.193896  0.687248  1
  S  S40  1  0.580736  0.784848  0.025987  1
  S  S41  1  0.215152  0.419264  0.474013  1
  S  S42  1  0.300273  0.921122  0.891773  1
  S  S43  1  0.784848  0.580736  0.525987  1
  S  S44  1  0.852119  0.965125  0.302330  1
  S  S45  1  0.193896  0.399797  0.187248  1
  S  S46  1  0.543410  0.419251  0.103870  1
  S  S47  1  0.580749  0.456590  0.396130  1
  S  S48  1  0.159437  0.523926  0.829755  1
  S  S49  1  0.726951  0.259732  0.918088  1
  S  S50  1  0.419264  0.215152  0.974013  1
  S  S51  1  0.600203  0.806104  0.312752  1
