# generated using pymatgen
data_Er9Sc(Si3O)2
_symmetry_space_group_name_H-M   'P 1'
_cell_length_a   8.29125200
_cell_length_b   8.29125262
_cell_length_c   6.09637600
_cell_angle_alpha   90.00000000
_cell_angle_beta   90.00000000
_cell_angle_gamma   120.00000550
_symmetry_Int_Tables_number   1
_chemical_formula_structural   Er9Sc(Si3O)2
_chemical_formula_sum   'Er9 Sc1 Si6 O2'
_cell_volume   362.94650183
_cell_formula_units_Z   1
loop_
 _symmetry_equiv_pos_site_id
 _symmetry_equiv_pos_as_xyz
  1  'x, y, z'
loop_
 _atom_site_type_symbol
 _atom_site_label
 _atom_site_symmetry_multiplicity
 _atom_site_fract_x
 _atom_site_fract_y
 _atom_site_fract_z
 _atom_site_occupancy
  Er  Er0  1  0.232293  0.999257  0.251215  1
  Er  Er1  1  0.766964  0.999257  0.748785  1
  Er  Er2  1  0.000743  0.233036  0.251215  1
  Er  Er3  1  0.000743  0.767707  0.748785  1
  Er  Er4  1  0.766964  0.767707  0.251215  1
  Er  Er5  1  0.232293  0.233036  0.748785  1
  Er  Er6  1  0.333333  0.666667  0.000000  1
  Er  Er7  1  0.666667  0.333333  0.000000  1
  Er  Er8  1  0.666667  0.333333  0.500000  1
  Sc  Sc9  1  0.333333  0.666667  0.500000  1
  Si  Si10  1  0.598329  0.996750  0.254991  1
  Si  Si11  1  0.398422  0.996750  0.745009  1
  Si  Si12  1  0.003250  0.601578  0.254991  1
  Si  Si13  1  0.003250  0.401671  0.745009  1
  Si  Si14  1  0.398422  0.401671  0.254991  1
  Si  Si15  1  0.598329  0.601578  0.745009  1
  O  O16  1  0.000000  0.000000  0.000000  1
  O  O17  1  0.000000  0.000000  0.500000  1
