# generated using pymatgen
data_Mg6NbReN8
_symmetry_space_group_name_H-M   'P 1'
_cell_length_a   6.82755600
_cell_length_b   5.89394920
_cell_length_c   5.30775017
_cell_angle_alpha   90.02950555
_cell_angle_beta   90.00000000
_cell_angle_gamma   90.00000000
_symmetry_Int_Tables_number   1
_chemical_formula_structural   Mg6NbReN8
_chemical_formula_sum   'Mg6 Nb1 Re1 N8'
_cell_volume   213.59057001
_cell_formula_units_Z   1
loop_
 _symmetry_equiv_pos_site_id
 _symmetry_equiv_pos_as_xyz
  1  'x, y, z'
loop_
 _atom_site_type_symbol
 _atom_site_label
 _atom_site_symmetry_multiplicity
 _atom_site_fract_x
 _atom_site_fract_y
 _atom_site_fract_z
 _atom_site_occupancy
  Mg  Mg0  1  0.248021  0.171501  0.851105  1
  Mg  Mg1  1  0.751979  0.171501  0.851105  1
  Mg  Mg2  1  0.243745  0.835674  0.363044  1
  Mg  Mg3  1  0.756255  0.835674  0.363044  1
  Mg  Mg4  1  0.000000  0.652961  0.852284  1
  Mg  Mg5  1  0.500000  0.330184  0.363155  1
  Nb  Nb6  1  0.000000  0.330063  0.351633  1
  Re  Re7  1  0.500000  0.670360  0.849214  1
  N  N8  1  0.000000  0.650423  0.458389  1
  N  N9  1  0.500000  0.373383  0.955367  1
  N  N10  1  0.000000  0.324630  0.984039  1
  N  N11  1  0.500000  0.671804  0.505028  1
  N  N12  1  0.758327  0.172644  0.459114  1
  N  N13  1  0.241673  0.172644  0.459114  1
  N  N14  1  0.722854  0.818276  0.956801  1
  N  N15  1  0.277146  0.818276  0.956801  1
