# generated using pymatgen
data_Tb3Y3(CoSn6)2
_symmetry_space_group_name_H-M   'P 1'
_cell_length_a   8.51700227
_cell_length_b   8.51700151
_cell_length_c   13.13929017
_cell_angle_alpha   90.01755133
_cell_angle_beta   89.98244788
_cell_angle_gamma   148.89583839
_symmetry_Int_Tables_number   1
_chemical_formula_structural   Tb3Y3(CoSn6)2
_chemical_formula_sum   'Tb3 Y3 Co2 Sn12'
_cell_volume   492.37501356
_cell_formula_units_Z   1
loop_
 _symmetry_equiv_pos_site_id
 _symmetry_equiv_pos_as_xyz
  1  'x, y, z'
loop_
 _atom_site_type_symbol
 _atom_site_label
 _atom_site_symmetry_multiplicity
 _atom_site_fract_x
 _atom_site_fract_y
 _atom_site_fract_z
 _atom_site_occupancy
  Tb  Tb0  1  0.899035  0.100965  0.092878  1
  Tb  Tb1  1  0.900145  0.099855  0.750016  1
  Tb  Tb2  1  0.099897  0.900103  0.249977  1
  Y  Y3  1  0.101016  0.898984  0.592767  1
  Y  Y4  1  0.101023  0.898977  0.907196  1
  Y  Y5  1  0.898992  0.101008  0.407280  1
  Co  Co6  1  0.299919  0.700081  0.250106  1
  Co  Co7  1  0.700037  0.299963  0.749922  1
  Sn  Sn8  1  0.755485  0.244515  0.571477  1
  Sn  Sn9  1  0.428301  0.571699  0.576399  1
  Sn  Sn10  1  0.571735  0.428265  0.423656  1
  Sn  Sn11  1  0.734363  0.265637  0.249873  1
  Sn  Sn12  1  0.265628  0.734372  0.750038  1
  Sn  Sn13  1  0.244680  0.755320  0.071457  1
  Sn  Sn14  1  0.244513  0.755487  0.428524  1
  Sn  Sn15  1  0.571597  0.428403  0.076361  1
  Sn  Sn16  1  0.453178  0.546822  0.250063  1
  Sn  Sn17  1  0.546816  0.453184  0.749978  1
  Sn  Sn18  1  0.755431  0.244569  0.928448  1
  Sn  Sn19  1  0.428207  0.571793  0.923584  1
