# generated using pymatgen
data_TeRh3F24
_symmetry_space_group_name_H-M   'P 1'
_cell_length_a   5.28953800
_cell_length_b   9.07849100
_cell_length_c   10.12589000
_cell_angle_alpha   90.00000000
_cell_angle_beta   90.00028227
_cell_angle_gamma   90.00000000
_symmetry_Int_Tables_number   1
_chemical_formula_structural   TeRh3F24
_chemical_formula_sum   'Te1 Rh3 F24'
_cell_volume   486.25559787
_cell_formula_units_Z   1
loop_
 _symmetry_equiv_pos_site_id
 _symmetry_equiv_pos_as_xyz
  1  'x, y, z'
loop_
 _atom_site_type_symbol
 _atom_site_label
 _atom_site_symmetry_multiplicity
 _atom_site_fract_x
 _atom_site_fract_y
 _atom_site_fract_z
 _atom_site_occupancy
  Te  Te0  1  0.902857  0.750000  0.127690  1
  Rh  Rh1  1  0.597175  0.750000  0.627709  1
  Rh  Rh2  1  0.097189  0.250000  0.872298  1
  Rh  Rh3  1  0.402789  0.250000  0.372293  1
  F  F4  1  0.555128  0.395656  0.268525  1
  F  F5  1  0.054751  0.604707  0.231203  1
  F  F6  1  0.444848  0.895661  0.731480  1
  F  F7  1  0.944863  0.104330  0.768536  1
  F  F8  1  0.182392  0.750000  0.015095  1
  F  F9  1  0.683085  0.250000  0.485169  1
  F  F10  1  0.816913  0.250000  0.985181  1
  F  F11  1  0.316930  0.750000  0.514830  1
  F  F12  1  0.622710  0.750000  0.240033  1
  F  F13  1  0.121972  0.250000  0.259661  1
  F  F14  1  0.378019  0.250000  0.759674  1
  F  F15  1  0.878034  0.750000  0.740303  1
  F  F16  1  0.750066  0.895426  0.024547  1
  F  F17  1  0.249722  0.104210  0.475728  1
  F  F18  1  0.250311  0.395775  0.975731  1
  F  F19  1  0.750278  0.604212  0.524283  1
  F  F20  1  0.250311  0.104225  0.975731  1
  F  F21  1  0.750278  0.895788  0.524283  1
  F  F22  1  0.750066  0.604574  0.024547  1
  F  F23  1  0.249722  0.395790  0.475728  1
  F  F24  1  0.054751  0.895293  0.231203  1
  F  F25  1  0.555128  0.104344  0.268525  1
  F  F26  1  0.944863  0.395670  0.768536  1
  F  F27  1  0.444848  0.604339  0.731480  1
