# generated using pymatgen
data_Ti10Be2Sn5Sb
_symmetry_space_group_name_H-M   'P 1'
_cell_length_a   8.15839300
_cell_length_b   8.15767481
_cell_length_c   5.45613300
_cell_angle_alpha   90.00000000
_cell_angle_beta   90.00000000
_cell_angle_gamma   120.00291638
_symmetry_Int_Tables_number   1
_chemical_formula_structural   Ti10Be2Sn5Sb
_chemical_formula_sum   'Ti10 Be2 Sn5 Sb1'
_cell_volume   314.46609491
_cell_formula_units_Z   1
loop_
 _symmetry_equiv_pos_site_id
 _symmetry_equiv_pos_as_xyz
  1  'x, y, z'
loop_
 _atom_site_type_symbol
 _atom_site_label
 _atom_site_symmetry_multiplicity
 _atom_site_fract_x
 _atom_site_fract_y
 _atom_site_fract_z
 _atom_site_occupancy
  Ti  Ti0  1  0.252720  0.000000  0.750000  1
  Ti  Ti1  1  0.747247  0.000000  0.250000  1
  Ti  Ti2  1  0.998304  0.249391  0.750000  1
  Ti  Ti3  1  0.999232  0.747159  0.250000  1
  Ti  Ti4  1  0.748913  0.750609  0.750000  1
  Ti  Ti5  1  0.252073  0.252841  0.250000  1
  Ti  Ti6  1  0.334642  0.668315  0.499826  1
  Ti  Ti7  1  0.666329  0.331685  0.499826  1
  Ti  Ti8  1  0.666329  0.331685  0.000174  1
  Ti  Ti9  1  0.334642  0.668315  0.000174  1
  Be  Be10  1  0.001906  0.000000  0.497874  1
  Be  Be11  1  0.001906  0.000000  0.002126  1
  Sn  Sn12  1  0.385175  0.000000  0.250000  1
  Sn  Sn13  1  0.999251  0.611674  0.750000  1
  Sn  Sn14  1  0.000868  0.388857  0.250000  1
  Sn  Sn15  1  0.387576  0.388326  0.750000  1
  Sn  Sn16  1  0.612010  0.611143  0.250000  1
  Sb  Sb17  1  0.610877  0.000000  0.750000  1
