# generated using pymatgen
data_Tb6Al23VOs8
_symmetry_space_group_name_H-M   'P 1'
_cell_length_a   8.86509000
_cell_length_b   8.86509024
_cell_length_c   9.57122600
_cell_angle_alpha   90.00000000
_cell_angle_beta   90.00000000
_cell_angle_gamma   119.99999165
_symmetry_Int_Tables_number   1
_chemical_formula_structural   Tb6Al23VOs8
_chemical_formula_sum   'Tb6 Al23 V1 Os8'
_cell_volume   651.42519111
_cell_formula_units_Z   1
loop_
 _symmetry_equiv_pos_site_id
 _symmetry_equiv_pos_as_xyz
  1  'x, y, z'
loop_
 _atom_site_type_symbol
 _atom_site_label
 _atom_site_symmetry_multiplicity
 _atom_site_fract_x
 _atom_site_fract_y
 _atom_site_fract_z
 _atom_site_occupancy
  Tb  Tb0  1  0.195164  0.390329  0.246857  1
  Tb  Tb1  1  0.807219  0.614439  0.750218  1
  Tb  Tb2  1  0.609671  0.804836  0.246857  1
  Tb  Tb3  1  0.385561  0.192781  0.750218  1
  Tb  Tb4  1  0.195164  0.804836  0.246857  1
  Tb  Tb5  1  0.807219  0.192781  0.750218  1
  Al  Al6  1  0.666667  0.333333  0.978887  1
  Al  Al7  1  0.666667  0.333333  0.517766  1
  Al  Al8  1  0.333333  0.666667  0.483617  1
  Al  Al9  1  0.162204  0.324407  0.575449  1
  Al  Al10  1  0.837211  0.674423  0.424905  1
  Al  Al11  1  0.675593  0.837796  0.575449  1
  Al  Al12  1  0.835671  0.671343  0.076220  1
  Al  Al13  1  0.325577  0.162789  0.424905  1
  Al  Al14  1  0.160551  0.321102  0.925890  1
  Al  Al15  1  0.162204  0.837796  0.575449  1
  Al  Al16  1  0.328657  0.164329  0.076220  1
  Al  Al17  1  0.837211  0.162789  0.424905  1
  Al  Al18  1  0.678898  0.839449  0.925890  1
  Al  Al19  1  0.835671  0.164329  0.076220  1
  Al  Al20  1  0.160551  0.839449  0.925890  1
  Al  Al21  1  0.562129  0.124258  0.253140  1
  Al  Al22  1  0.441358  0.882715  0.750922  1
  Al  Al23  1  0.875742  0.437871  0.253140  1
  Al  Al24  1  0.117285  0.558642  0.750922  1
  Al  Al25  1  0.562129  0.437871  0.253140  1
  Al  Al26  1  0.441358  0.558642  0.750922  1
  Al  Al27  1  0.000000  0.000000  0.250419  1
  Al  Al28  1  0.000000  0.000000  0.749734  1
  V  V29  1  0.333333  0.666667  0.981753  1
  Os  Os30  1  0.495265  0.990530  0.005455  1
  Os  Os31  1  0.009470  0.504735  0.005455  1
  Os  Os32  1  0.499396  0.998791  0.503402  1
  Os  Os33  1  0.495265  0.504735  0.005455  1
  Os  Os34  1  0.001209  0.500604  0.503402  1
  Os  Os35  1  0.499396  0.500604  0.503402  1
  Os  Os36  1  0.000000  0.000000  0.000943  1
  Os  Os37  1  0.000000  0.000000  0.499505  1
