# generated using pymatgen
data_Tb7Ho9In4(PdRh)2
_symmetry_space_group_name_H-M   'P 1'
_cell_length_a   9.69119245
_cell_length_b   9.68883898
_cell_length_c   9.69239045
_cell_angle_alpha   60.00394007
_cell_angle_beta   60.12906801
_cell_angle_gamma   60.01622029
_symmetry_Int_Tables_number   1
_chemical_formula_structural   Tb7Ho9In4(PdRh)2
_chemical_formula_sum   'Tb7 Ho9 In4 Pd2 Rh2'
_cell_volume   644.24783279
_cell_formula_units_Z   1
loop_
 _symmetry_equiv_pos_site_id
 _symmetry_equiv_pos_as_xyz
  1  'x, y, z'
loop_
 _atom_site_type_symbol
 _atom_site_label
 _atom_site_symmetry_multiplicity
 _atom_site_fract_x
 _atom_site_fract_y
 _atom_site_fract_z
 _atom_site_occupancy
  Tb  Tb0  1  0.056434  0.650077  0.643605  1
  Tb  Tb1  1  0.435313  0.063738  0.062235  1
  Tb  Tb2  1  0.436418  0.063582  0.436418  1
  Tb  Tb3  1  0.062305  0.437695  0.062305  1
  Tb  Tb4  1  0.643605  0.649883  0.056434  1
  Tb  Tb5  1  0.188673  0.811327  0.188673  1
  Tb  Tb6  1  0.062235  0.438715  0.435313  1
  Ho  Ho7  1  0.809680  0.810880  0.194147  1
  Ho  Ho8  1  0.809653  0.190347  0.809653  1
  Ho  Ho9  1  0.194147  0.185292  0.809680  1
  Ho  Ho10  1  0.648188  0.048953  0.648143  1
  Ho  Ho11  1  0.061236  0.062949  0.436120  1
  Ho  Ho12  1  0.436120  0.439696  0.061236  1
  Ho  Ho13  1  0.648143  0.654716  0.648188  1
  Ho  Ho14  1  0.809484  0.185486  0.194204  1
  Ho  Ho15  1  0.194204  0.810824  0.809484  1
  In  In16  1  0.417686  0.415972  0.417355  1
  In  In17  1  0.418981  0.416783  0.747988  1
  In  In18  1  0.417355  0.748984  0.417686  1
  In  In19  1  0.747988  0.416246  0.418981  1
  Pd  Pd20  1  0.857324  0.428775  0.858018  1
  Pd  Pd21  1  0.858018  0.855884  0.857324  1
  Rh  Rh22  1  0.858025  0.856927  0.428780  1
  Rh  Rh23  1  0.428780  0.856268  0.858025  1
