# generated using pymatgen
data_Ag5(BiO3)2
_symmetry_space_group_name_H-M   'P 1'
_cell_length_a   6.17104300
_cell_length_b   6.17104461
_cell_length_c   6.52308200
_cell_angle_alpha   90.00000000
_cell_angle_beta   90.00000000
_cell_angle_gamma   120.00000745
_symmetry_Int_Tables_number   1
_chemical_formula_structural   Ag5(BiO3)2
_chemical_formula_sum   'Ag5 Bi2 O6'
_cell_volume   215.12986052
_cell_formula_units_Z   1
loop_
 _symmetry_equiv_pos_site_id
 _symmetry_equiv_pos_as_xyz
  1  'x, y, z'
loop_
 _atom_site_type_symbol
 _atom_site_label
 _atom_site_symmetry_multiplicity
 _atom_site_fract_x
 _atom_site_fract_y
 _atom_site_fract_z
 _atom_site_occupancy
  Ag  Ag0  1  0.000000  0.000000  0.236328  1
  Ag  Ag1  1  0.000000  0.500000  0.000000  1
  Ag  Ag2  1  0.500000  0.000000  0.000000  1
  Ag  Ag3  1  0.000000  0.000000  0.763672  1
  Ag  Ag4  1  0.500000  0.500000  0.000000  1
  Bi  Bi5  1  0.666667  0.333333  0.500000  1
  Bi  Bi6  1  0.333333  0.666667  0.500000  1
  O  O7  1  0.624286  0.624286  0.302623  1
  O  O8  1  0.375714  0.375714  0.697377  1
  O  O9  1  0.000000  0.624286  0.697377  1
  O  O10  1  0.624286  0.000000  0.697377  1
  O  O11  1  0.000000  0.375714  0.302623  1
  O  O12  1  0.375714  0.000000  0.302623  1
