# generated using pymatgen
data_Yb5ErPa2(Pt2Pb)4
_symmetry_space_group_name_H-M   'P 1'
_cell_length_a   7.92204821
_cell_length_b   7.92204865
_cell_length_c   7.30099600
_cell_angle_alpha   90.00000000
_cell_angle_beta   90.00000000
_cell_angle_gamma   92.53013238
_symmetry_Int_Tables_number   1
_chemical_formula_structural   Yb5ErPa2(Pt2Pb)4
_chemical_formula_sum   'Yb5 Er1 Pa2 Pt8 Pb4'
_cell_volume   457.75544098
_cell_formula_units_Z   1
loop_
 _symmetry_equiv_pos_site_id
 _symmetry_equiv_pos_as_xyz
  1  'x, y, z'
loop_
 _atom_site_type_symbol
 _atom_site_label
 _atom_site_symmetry_multiplicity
 _atom_site_fract_x
 _atom_site_fract_y
 _atom_site_fract_z
 _atom_site_occupancy
  Yb  Yb0  1  0.664778  0.665320  0.000000  1
  Yb  Yb1  1  0.334680  0.335222  0.000000  1
  Yb  Yb2  1  0.167868  0.832132  0.500000  1
  Yb  Yb3  1  0.831657  0.168343  0.000000  1
  Yb  Yb4  1  0.169006  0.830994  0.000000  1
  Er  Er5  1  0.832747  0.167253  0.500000  1
  Pa  Pa6  1  0.326427  0.328457  0.500000  1
  Pa  Pa7  1  0.671543  0.673573  0.500000  1
  Pt  Pt8  1  0.866680  0.868518  0.737188  1
  Pt  Pt9  1  0.131482  0.133320  0.737188  1
  Pt  Pt10  1  0.627075  0.372925  0.728613  1
  Pt  Pt11  1  0.627075  0.372925  0.271387  1
  Pt  Pt12  1  0.376759  0.623241  0.269449  1
  Pt  Pt13  1  0.131482  0.133320  0.262812  1
  Pt  Pt14  1  0.866680  0.868518  0.262812  1
  Pt  Pt15  1  0.376759  0.623241  0.730551  1
  Pb  Pb16  1  0.498393  0.999741  0.756949  1
  Pb  Pb17  1  0.498393  0.999741  0.243051  1
  Pb  Pb18  1  0.000259  0.501607  0.756949  1
  Pb  Pb19  1  0.000259  0.501607  0.243051  1
