# generated using pymatgen
data_Th3U(B4Ir)4
_symmetry_space_group_name_H-M   'P 1'
_cell_length_a   7.09076905
_cell_length_b   7.09077017
_cell_length_c   7.09076935
_cell_angle_alpha   111.85558307
_cell_angle_beta   111.85559435
_cell_angle_gamma   104.80102922
_symmetry_Int_Tables_number   1
_chemical_formula_structural   Th3U(B4Ir)4
_chemical_formula_sum   'Th3 U1 B16 Ir4'
_cell_volume   273.09399202
_cell_formula_units_Z   1
loop_
 _symmetry_equiv_pos_site_id
 _symmetry_equiv_pos_as_xyz
  1  'x, y, z'
loop_
 _atom_site_type_symbol
 _atom_site_label
 _atom_site_symmetry_multiplicity
 _atom_site_fract_x
 _atom_site_fract_y
 _atom_site_fract_z
 _atom_site_occupancy
  Th  Th0  1  0.210004  0.210004  0.000000  1
  Th  Th1  1  0.789996  0.789996  0.000000  1
  Th  Th2  1  0.750000  0.250000  0.500000  1
  U  U3  1  0.250000  0.750000  0.500000  1
  B  B4  1  0.106814  0.264421  0.371084  1
  B  B5  1  0.893337  0.735730  0.628916  1
  B  B6  1  0.893337  0.264421  0.157607  1
  B  B7  1  0.106814  0.735730  0.842393  1
  B  B8  1  0.735579  0.893186  0.628916  1
  B  B9  1  0.264270  0.106663  0.371084  1
  B  B10  1  0.735579  0.106663  0.842393  1
  B  B11  1  0.264270  0.893186  0.157607  1
  B  B12  1  0.412636  0.417127  0.525843  1
  B  B13  1  0.891284  0.886794  0.474157  1
  B  B14  1  0.582873  0.108716  0.995509  1
  B  B15  1  0.113206  0.587364  0.004491  1
  B  B16  1  0.582873  0.587364  0.474157  1
  B  B17  1  0.113206  0.108716  0.525843  1
  B  B18  1  0.891284  0.417127  0.004491  1
  B  B19  1  0.412636  0.886794  0.995509  1
  Ir  Ir20  1  0.497362  0.255403  0.758040  1
  Ir  Ir21  1  0.497362  0.739321  0.241960  1
  Ir  Ir22  1  0.744597  0.502638  0.241960  1
  Ir  Ir23  1  0.260679  0.502638  0.758040  1
