# generated using pymatgen
data_TmSc9(Al2Ni)4
_symmetry_space_group_name_H-M   'P 1'
_cell_length_a   3.27537400
_cell_length_b   7.34573002
_cell_length_c   16.62016306
_cell_angle_alpha   90.00945021
_cell_angle_beta   90.00000000
_cell_angle_gamma   90.00000000
_symmetry_Int_Tables_number   1
_chemical_formula_structural   TmSc9(Al2Ni)4
_chemical_formula_sum   'Tm1 Sc9 Al8 Ni4'
_cell_volume   399.88133601
_cell_formula_units_Z   1
loop_
 _symmetry_equiv_pos_site_id
 _symmetry_equiv_pos_as_xyz
  1  'x, y, z'
loop_
 _atom_site_type_symbol
 _atom_site_label
 _atom_site_symmetry_multiplicity
 _atom_site_fract_x
 _atom_site_fract_y
 _atom_site_fract_z
 _atom_site_occupancy
  Tm  Tm0  1  0.000000  0.000000  0.000000  1
  Sc  Sc1  1  0.000000  0.500000  0.500000  1
  Sc  Sc2  1  0.000000  0.742140  0.279952  1
  Sc  Sc3  1  0.000000  0.257860  0.720048  1
  Sc  Sc4  1  0.000000  0.757073  0.777774  1
  Sc  Sc5  1  0.000000  0.242927  0.222226  1
  Sc  Sc6  1  0.000000  0.621634  0.083494  1
  Sc  Sc7  1  0.000000  0.378366  0.916506  1
  Sc  Sc8  1  0.000000  0.879271  0.582119  1
  Sc  Sc9  1  0.000000  0.120729  0.417881  1
  Al  Al10  1  0.500000  0.700728  0.926475  1
  Al  Al11  1  0.500000  0.299272  0.073525  1
  Al  Al12  1  0.500000  0.792249  0.428828  1
  Al  Al13  1  0.500000  0.207751  0.571172  1
  Al  Al14  1  0.500000  0.573258  0.650881  1
  Al  Al15  1  0.500000  0.426742  0.349119  1
  Al  Al16  1  0.500000  0.924773  0.155107  1
  Al  Al17  1  0.500000  0.075227  0.844893  1
  Ni  Ni18  1  0.500000  0.525155  0.195370  1
  Ni  Ni19  1  0.500000  0.474845  0.804630  1
  Ni  Ni20  1  0.500000  0.975248  0.693483  1
  Ni  Ni21  1  0.500000  0.024752  0.306517  1
