# generated using pymatgen
data_Nd2Tm3Tl4
_symmetry_space_group_name_H-M   'P 1'
_cell_length_a   8.32465600
_cell_length_b   8.32465600
_cell_length_c   15.20192300
_cell_angle_alpha   90.00000000
_cell_angle_beta   90.00000000
_cell_angle_gamma   90.00000000
_symmetry_Int_Tables_number   1
_chemical_formula_structural   Nd2Tm3Tl4
_chemical_formula_sum   'Nd8 Tm12 Tl16'
_cell_volume   1053.49170598
_cell_formula_units_Z   4
loop_
 _symmetry_equiv_pos_site_id
 _symmetry_equiv_pos_as_xyz
  1  'x, y, z'
loop_
 _atom_site_type_symbol
 _atom_site_label
 _atom_site_symmetry_multiplicity
 _atom_site_fract_x
 _atom_site_fract_y
 _atom_site_fract_z
 _atom_site_occupancy
  Nd  Nd0  1  0.644956  0.999900  0.465586  1
  Nd  Nd1  1  0.355044  0.000100  0.965586  1
  Nd  Nd2  1  0.999900  0.644956  0.534414  1
  Nd  Nd3  1  0.499900  0.855044  0.215586  1
  Nd  Nd4  1  0.500100  0.144956  0.715586  1
  Nd  Nd5  1  0.855044  0.499900  0.784414  1
  Nd  Nd6  1  0.144956  0.500100  0.284414  1
  Nd  Nd7  1  0.000100  0.355044  0.034414  1
  Tm  Tm8  1  0.501900  0.341813  0.122570  1
  Tm  Tm9  1  0.001900  0.158187  0.627430  1
  Tm  Tm10  1  0.841813  0.998100  0.872570  1
  Tm  Tm11  1  0.158187  0.001900  0.372570  1
  Tm  Tm12  1  0.498100  0.658187  0.622570  1
  Tm  Tm13  1  0.341813  0.501900  0.877430  1
  Tm  Tm14  1  0.658187  0.498100  0.377430  1
  Tm  Tm15  1  0.998100  0.841813  0.127430  1
  Tm  Tm16  1  0.325533  0.325533  0.500000  1
  Tm  Tm17  1  0.174467  0.825533  0.750000  1
  Tm  Tm18  1  0.825533  0.174467  0.250000  1
  Tm  Tm19  1  0.674467  0.674467  0.000000  1
  Tl  Tl20  1  0.289030  0.952979  0.566282  1
  Tl  Tl21  1  0.710970  0.047021  0.066282  1
  Tl  Tl22  1  0.952979  0.289030  0.433718  1
  Tl  Tl23  1  0.452979  0.210970  0.316282  1
  Tl  Tl24  1  0.547021  0.789030  0.816282  1
  Tl  Tl25  1  0.210970  0.452979  0.683718  1
  Tl  Tl26  1  0.789030  0.547021  0.183718  1
  Tl  Tl27  1  0.047021  0.710970  0.933718  1
  Tl  Tl28  1  0.801982  0.858004  0.673355  1
  Tl  Tl29  1  0.198018  0.141996  0.173355  1
  Tl  Tl30  1  0.858004  0.801982  0.326645  1
  Tl  Tl31  1  0.358004  0.698018  0.423355  1
  Tl  Tl32  1  0.641996  0.301982  0.923355  1
  Tl  Tl33  1  0.698018  0.358004  0.576645  1
  Tl  Tl34  1  0.301982  0.641996  0.076645  1
  Tl  Tl35  1  0.141996  0.198018  0.826645  1
