# generated using pymatgen
data_Er8ReB24Ir2Ru
_symmetry_space_group_name_H-M   'P 1'
_cell_length_a   3.64120900
_cell_length_b   9.11730373
_cell_length_c   11.47534589
_cell_angle_alpha   90.20477626
_cell_angle_beta   90.00000000
_cell_angle_gamma   90.00000000
_symmetry_Int_Tables_number   1
_chemical_formula_structural   Er8ReB24Ir2Ru
_chemical_formula_sum   'Er8 Re1 B24 Ir2 Ru1'
_cell_volume   380.95619616
_cell_formula_units_Z   1
loop_
 _symmetry_equiv_pos_site_id
 _symmetry_equiv_pos_as_xyz
  1  'x, y, z'
loop_
 _atom_site_type_symbol
 _atom_site_label
 _atom_site_symmetry_multiplicity
 _atom_site_fract_x
 _atom_site_fract_y
 _atom_site_fract_z
 _atom_site_occupancy
  Er  Er0  1  0.000000  0.316705  0.409161  1
  Er  Er1  1  0.000000  0.680982  0.587669  1
  Er  Er2  1  0.000000  0.825050  0.085174  1
  Er  Er3  1  0.000000  0.176376  0.917651  1
  Er  Er4  1  0.000000  0.946442  0.373540  1
  Er  Er5  1  0.000000  0.054267  0.627704  1
  Er  Er6  1  0.000000  0.442609  0.124918  1
  Er  Er7  1  0.000000  0.558196  0.874310  1
  Re  Re8  1  0.000000  0.138038  0.179253  1
  B  B9  1  0.500000  0.553269  0.433914  1
  B  B10  1  0.500000  0.446213  0.565956  1
  B  B11  1  0.500000  0.053102  0.066422  1
  B  B12  1  0.500000  0.946057  0.932771  1
  B  B13  1  0.500000  0.749504  0.421533  1
  B  B14  1  0.500000  0.250117  0.578697  1
  B  B15  1  0.500000  0.248040  0.079662  1
  B  B16  1  0.500000  0.752342  0.920392  1
  B  B17  1  0.500000  0.792178  0.265876  1
  B  B18  1  0.500000  0.208125  0.734855  1
  B  B19  1  0.500000  0.292767  0.234017  1
  B  B20  1  0.500000  0.707818  0.765716  1
  B  B21  1  0.500000  0.632431  0.183810  1
  B  B22  1  0.500000  0.368155  0.816357  1
  B  B23  1  0.500000  0.131917  0.314769  1
  B  B24  1  0.500000  0.867538  0.684933  1
  B  B25  1  0.500000  0.982456  0.213197  1
  B  B26  1  0.500000  0.016710  0.786942  1
  B  B27  1  0.500000  0.482090  0.286749  1
  B  B28  1  0.500000  0.518054  0.713056  1
  B  B29  1  0.500000  0.610035  0.030094  1
  B  B30  1  0.500000  0.391468  0.969089  1
  B  B31  1  0.500000  0.108824  0.471212  1
  B  B32  1  0.500000  0.890515  0.530195  1
  Ir  Ir33  1  0.000000  0.637569  0.322222  1
  Ir  Ir34  1  0.000000  0.362843  0.677916  1
  Ru  Ru35  1  0.000000  0.861199  0.820269  1
