# generated using pymatgen
data_Na3(AsPd)2
_symmetry_space_group_name_H-M   'P 1'
_cell_length_a   5.82672100
_cell_length_b   7.94165800
_cell_length_c   13.11727700
_cell_angle_alpha   90.00000000
_cell_angle_beta   90.00000000
_cell_angle_gamma   90.00000000
_symmetry_Int_Tables_number   1
_chemical_formula_structural   Na3(AsPd)2
_chemical_formula_sum   'Na12 As8 Pd8'
_cell_volume   606.98658619
_cell_formula_units_Z   4
loop_
 _symmetry_equiv_pos_site_id
 _symmetry_equiv_pos_as_xyz
  1  'x, y, z'
loop_
 _atom_site_type_symbol
 _atom_site_label
 _atom_site_symmetry_multiplicity
 _atom_site_fract_x
 _atom_site_fract_y
 _atom_site_fract_z
 _atom_site_occupancy
  Na  Na0  1  0.649561  0.226645  0.250000  1
  Na  Na1  1  0.350439  0.773355  0.750000  1
  Na  Na2  1  0.350439  0.726645  0.250000  1
  Na  Na3  1  0.649561  0.273355  0.750000  1
  Na  Na4  1  0.124705  0.377730  0.106390  1
  Na  Na5  1  0.875295  0.622270  0.893610  1
  Na  Na6  1  0.875295  0.622270  0.606390  1
  Na  Na7  1  0.875295  0.877730  0.393610  1
  Na  Na8  1  0.124705  0.377730  0.393610  1
  Na  Na9  1  0.124705  0.122270  0.606390  1
  Na  Na10  1  0.124705  0.122270  0.893610  1
  Na  Na11  1  0.875295  0.877730  0.106390  1
  As  As12  1  0.156715  0.078320  0.250000  1
  As  As13  1  0.843285  0.921680  0.750000  1
  As  As14  1  0.843285  0.578320  0.250000  1
  As  As15  1  0.156715  0.421680  0.750000  1
  As  As16  1  0.596420  0.250000  0.000000  1
  As  As17  1  0.403580  0.750000  0.000000  1
  As  As18  1  0.403580  0.750000  0.500000  1
  As  As19  1  0.596420  0.250000  0.500000  1
  Pd  Pd20  1  0.374916  0.026918  0.090640  1
  Pd  Pd21  1  0.625084  0.973082  0.909360  1
  Pd  Pd22  1  0.625084  0.973082  0.590640  1
  Pd  Pd23  1  0.625084  0.526918  0.409360  1
  Pd  Pd24  1  0.374916  0.026918  0.409360  1
  Pd  Pd25  1  0.374916  0.473082  0.590640  1
  Pd  Pd26  1  0.374916  0.473082  0.909360  1
  Pd  Pd27  1  0.625084  0.526918  0.090640  1
