# generated using pymatgen
data_SrErTh(Si3Pd10)2
_symmetry_space_group_name_H-M   'P 1'
_cell_length_a   8.77553677
_cell_length_b   8.77553751
_cell_length_c   8.77553700
_cell_angle_alpha   60.00000569
_cell_angle_beta   60.00000291
_cell_angle_gamma   60.00000689
_symmetry_Int_Tables_number   1
_chemical_formula_structural   SrErTh(Si3Pd10)2
_chemical_formula_sum   'Sr1 Er1 Th1 Si6 Pd20'
_cell_volume   477.86604422
_cell_formula_units_Z   1
loop_
 _symmetry_equiv_pos_site_id
 _symmetry_equiv_pos_as_xyz
  1  'x, y, z'
loop_
 _atom_site_type_symbol
 _atom_site_label
 _atom_site_symmetry_multiplicity
 _atom_site_fract_x
 _atom_site_fract_y
 _atom_site_fract_z
 _atom_site_occupancy
  Sr  Sr0  1  0.250000  0.250000  0.250000  1
  Er  Er1  1  0.000000  0.000000  0.000000  1
  Th  Th2  1  0.750000  0.750000  0.750000  1
  Si  Si3  1  0.733635  0.266365  0.266365  1
  Si  Si4  1  0.266365  0.733635  0.733635  1
  Si  Si5  1  0.266365  0.733635  0.266365  1
  Si  Si6  1  0.733635  0.266365  0.733635  1
  Si  Si7  1  0.266365  0.266365  0.733635  1
  Si  Si8  1  0.733635  0.733635  0.266365  1
  Pd  Pd9  1  0.348283  0.996760  0.996760  1
  Pd  Pd10  1  0.658198  0.996760  0.996760  1
  Pd  Pd11  1  0.996760  0.348283  0.658198  1
  Pd  Pd12  1  0.996760  0.658198  0.348283  1
  Pd  Pd13  1  0.996760  0.348283  0.996760  1
  Pd  Pd14  1  0.658198  0.996760  0.348283  1
  Pd  Pd15  1  0.996760  0.658198  0.996760  1
  Pd  Pd16  1  0.348283  0.996760  0.658198  1
  Pd  Pd17  1  0.996760  0.996760  0.348283  1
  Pd  Pd18  1  0.996760  0.996760  0.658198  1
  Pd  Pd19  1  0.658198  0.348283  0.996760  1
  Pd  Pd20  1  0.348283  0.658198  0.996760  1
  Pd  Pd21  1  0.387734  0.387734  0.387734  1
  Pd  Pd22  1  0.616577  0.616577  0.616577  1
  Pd  Pd23  1  0.387734  0.387734  0.836799  1
  Pd  Pd24  1  0.387734  0.836799  0.387734  1
  Pd  Pd25  1  0.616577  0.616577  0.150268  1
  Pd  Pd26  1  0.616577  0.150268  0.616577  1
  Pd  Pd27  1  0.836799  0.387734  0.387734  1
  Pd  Pd28  1  0.150268  0.616577  0.616577  1
