# generated using pymatgen
data_Pu(BIr)2
_symmetry_space_group_name_H-M   'P 1'
_cell_length_a   7.10250686
_cell_length_b   6.14039939
_cell_length_c   5.54702053
_cell_angle_alpha   74.65394073
_cell_angle_beta   56.48221946
_cell_angle_gamma   48.86383593
_symmetry_Int_Tables_number   1
_chemical_formula_structural   Pu(BIr)2
_chemical_formula_sum   'Pu2 B4 Ir4'
_cell_volume   150.01780929
_cell_formula_units_Z   2
loop_
 _symmetry_equiv_pos_site_id
 _symmetry_equiv_pos_as_xyz
  1  'x, y, z'
loop_
 _atom_site_type_symbol
 _atom_site_label
 _atom_site_symmetry_multiplicity
 _atom_site_fract_x
 _atom_site_fract_y
 _atom_site_fract_z
 _atom_site_occupancy
  Pu  Pu0  1  0.500000  0.500000  0.500000  1
  Pu  Pu1  1  0.750000  0.750000  0.750000  1
  B  B2  1  0.180869  0.819131  0.180869  1
  B  B3  1  0.069131  0.430869  0.069131  1
  B  B4  1  0.819131  0.180868  0.819131  1
  B  B5  1  0.430869  0.069131  0.430869  1
  Ir  Ir6  1  0.870872  0.870872  0.129128  1
  Ir  Ir7  1  0.129128  0.129128  0.870872  1
  Ir  Ir8  1  0.379128  0.379128  0.120872  1
  Ir  Ir9  1  0.120872  0.120872  0.379128  1
