# generated using pymatgen
data_Tb5Sc5(Pb3S)2
_symmetry_space_group_name_H-M   'P 1'
_cell_length_a   8.95165200
_cell_length_b   8.95172934
_cell_length_c   6.57330500
_cell_angle_alpha   90.00000000
_cell_angle_beta   90.00000000
_cell_angle_gamma   120.01937533
_symmetry_Int_Tables_number   1
_chemical_formula_structural   Tb5Sc5(Pb3S)2
_chemical_formula_sum   'Tb5 Sc5 Pb6 S2'
_cell_volume   456.07863109
_cell_formula_units_Z   1
loop_
 _symmetry_equiv_pos_site_id
 _symmetry_equiv_pos_as_xyz
  1  'x, y, z'
loop_
 _atom_site_type_symbol
 _atom_site_label
 _atom_site_symmetry_multiplicity
 _atom_site_fract_x
 _atom_site_fract_y
 _atom_site_fract_z
 _atom_site_occupancy
  Tb  Tb0  1  0.246720  0.000435  0.750000  1
  Tb  Tb1  1  0.000423  0.246719  0.750000  1
  Tb  Tb2  1  0.244904  0.244879  0.250000  1
  Tb  Tb3  1  0.753394  0.998899  0.250000  1
  Tb  Tb4  1  0.998893  0.753246  0.250000  1
  Sc  Sc5  1  0.760073  0.760165  0.750000  1
  Sc  Sc6  1  0.667067  0.333901  0.999549  1
  Sc  Sc7  1  0.333672  0.666959  0.999632  1
  Sc  Sc8  1  0.333672  0.666959  0.500368  1
  Sc  Sc9  1  0.667067  0.333901  0.500451  1
  Pb  Pb10  1  0.407222  0.407160  0.750000  1
  Pb  Pb11  1  0.600479  0.995886  0.750000  1
  Pb  Pb12  1  0.995783  0.600480  0.750000  1
  Pb  Pb13  1  0.598509  0.598715  0.250000  1
  Pb  Pb14  1  0.400979  0.000051  0.250000  1
  Pb  Pb15  1  0.999886  0.400710  0.250000  1
  S  S16  1  0.995632  0.995468  0.996411  1
  S  S17  1  0.995632  0.995468  0.503589  1
