# generated using pymatgen
data_La2As4O9
_symmetry_space_group_name_H-M   'P 1'
_cell_length_a   7.08083532
_cell_length_b   7.86995569
_cell_length_c   9.92459754
_cell_angle_alpha   96.25094474
_cell_angle_beta   103.62419414
_cell_angle_gamma   104.65234775
_symmetry_Int_Tables_number   1
_chemical_formula_structural   La2As4O9
_chemical_formula_sum   'La4 As8 O18'
_cell_volume   511.59950218
_cell_formula_units_Z   2
loop_
 _symmetry_equiv_pos_site_id
 _symmetry_equiv_pos_as_xyz
  1  'x, y, z'
loop_
 _atom_site_type_symbol
 _atom_site_label
 _atom_site_symmetry_multiplicity
 _atom_site_fract_x
 _atom_site_fract_y
 _atom_site_fract_z
 _atom_site_occupancy
  La  La0  1  0.749675  0.943033  0.120157  1
  La  La1  1  0.782111  0.468114  0.097963  1
  La  La2  1  0.250325  0.056967  0.879843  1
  La  La3  1  0.217889  0.531886  0.902037  1
  As  As4  1  0.824666  0.224747  0.438006  1
  As  As5  1  0.317116  0.238625  0.579721  1
  As  As6  1  0.682884  0.761375  0.420279  1
  As  As7  1  0.175334  0.775253  0.561994  1
  As  As8  1  0.695257  0.650777  0.797205  1
  As  As9  1  0.304743  0.349223  0.202795  1
  As  As10  1  0.247216  0.922188  0.211233  1
  As  As11  1  0.752784  0.077812  0.788767  1
  O  O12  1  0.862502  0.895502  0.855573  1
  O  O13  1  0.125544  0.454468  0.125850  1
  O  O14  1  0.634797  0.663696  0.243694  1
  O  O15  1  0.660514  0.129300  0.938919  1
  O  O16  1  0.101436  0.314750  0.493172  1
  O  O17  1  0.874456  0.545532  0.874150  1
  O  O18  1  0.000353  0.222315  0.828436  1
  O  O19  1  0.137498  0.104498  0.144427  1
  O  O20  1  0.592482  0.666922  0.948122  1
  O  O21  1  0.814380  0.984846  0.386460  1
  O  O22  1  0.365203  0.336304  0.756306  1
  O  O23  1  0.999647  0.777685  0.171564  1
  O  O24  1  0.221968  0.749465  0.740348  1
  O  O25  1  0.407518  0.333078  0.051878  1
  O  O26  1  0.185620  0.015154  0.613540  1
  O  O27  1  0.339486  0.870700  0.061081  1
  O  O28  1  0.778032  0.250535  0.259652  1
  O  O29  1  0.898564  0.685250  0.506828  1
