# generated using pymatgen
data_TbY2Ho7(In2Pd)4
_symmetry_space_group_name_H-M   'P 1'
_cell_length_a   3.61194800
_cell_length_b   8.16497465
_cell_length_c   18.26883845
_cell_angle_alpha   89.95435269
_cell_angle_beta   90.00000000
_cell_angle_gamma   90.00000000
_symmetry_Int_Tables_number   1
_chemical_formula_structural   TbY2Ho7(In2Pd)4
_chemical_formula_sum   'Tb1 Y2 Ho7 In8 Pd4'
_cell_volume   538.77461771
_cell_formula_units_Z   1
loop_
 _symmetry_equiv_pos_site_id
 _symmetry_equiv_pos_as_xyz
  1  'x, y, z'
loop_
 _atom_site_type_symbol
 _atom_site_label
 _atom_site_symmetry_multiplicity
 _atom_site_fract_x
 _atom_site_fract_y
 _atom_site_fract_z
 _atom_site_occupancy
  Tb  Tb0  1  0.000000  0.739078  0.280765  1
  Y  Y1  1  0.000000  0.500009  0.500002  1
  Y  Y2  1  0.000000  0.000011  0.999977  1
  Ho  Ho3  1  0.000000  0.260804  0.719339  1
  Ho  Ho4  1  0.000000  0.760832  0.780660  1
  Ho  Ho5  1  0.000000  0.239155  0.219343  1
  Ho  Ho6  1  0.000000  0.617274  0.083325  1
  Ho  Ho7  1  0.000000  0.382717  0.916580  1
  Ho  Ho8  1  0.000000  0.882691  0.583418  1
  Ho  Ho9  1  0.000000  0.117396  0.416636  1
  In  In10  1  0.500000  0.708323  0.932194  1
  In  In11  1  0.500000  0.291564  0.067813  1
  In  In12  1  0.500000  0.791766  0.432379  1
  In  In13  1  0.500000  0.208327  0.567816  1
  In  In14  1  0.500000  0.580753  0.650336  1
  In  In15  1  0.500000  0.418966  0.349743  1
  In  In16  1  0.500000  0.919464  0.150145  1
  In  In17  1  0.500000  0.080745  0.849695  1
  Pd  Pd18  1  0.500000  0.522237  0.195753  1
  Pd  Pd19  1  0.500000  0.477095  0.804006  1
  Pd  Pd20  1  0.500000  0.977106  0.695993  1
  Pd  Pd21  1  0.500000  0.023687  0.304080  1
