# generated using pymatgen
data_Y6Cd23Si
_symmetry_space_group_name_H-M   'P 1'
_cell_length_a   9.95877152
_cell_length_b   9.96363930
_cell_length_c   9.95955363
_cell_angle_alpha   60.05437312
_cell_angle_beta   60.00905614
_cell_angle_gamma   60.05635979
_symmetry_Int_Tables_number   1
_chemical_formula_structural   Y6Cd23Si
_chemical_formula_sum   'Y6 Cd23 Si1'
_cell_volume   699.42531243
_cell_formula_units_Z   1
loop_
 _symmetry_equiv_pos_site_id
 _symmetry_equiv_pos_as_xyz
  1  'x, y, z'
loop_
 _atom_site_type_symbol
 _atom_site_label
 _atom_site_symmetry_multiplicity
 _atom_site_fract_x
 _atom_site_fract_y
 _atom_site_fract_z
 _atom_site_occupancy
  Y  Y0  1  0.702027  0.297991  0.297949  1
  Y  Y1  1  0.702400  0.298425  0.701603  1
  Y  Y2  1  0.702420  0.701640  0.298373  1
  Y  Y3  1  0.297973  0.702009  0.702051  1
  Y  Y4  1  0.297600  0.701575  0.298397  1
  Y  Y5  1  0.297580  0.298360  0.701627  1
  Cd  Cd6  1  0.634327  0.122025  0.121993  1
  Cd  Cd7  1  0.122220  0.633368  0.122403  1
  Cd  Cd8  1  0.122071  0.122448  0.633451  1
  Cd  Cd9  1  0.121620  0.121971  0.121944  1
  Cd  Cd10  1  0.365673  0.877975  0.878007  1
  Cd  Cd11  1  0.877780  0.366632  0.877597  1
  Cd  Cd12  1  0.877929  0.877552  0.366549  1
  Cd  Cd13  1  0.878380  0.878029  0.878056  1
  Cd  Cd14  1  0.500000  0.000000  0.000000  1
  Cd  Cd15  1  0.500000  0.000000  0.500000  1
  Cd  Cd16  1  0.500000  0.500000  0.000000  1
  Cd  Cd17  1  0.000000  0.500000  0.500000  1
  Cd  Cd18  1  0.000000  0.500000  0.000000  1
  Cd  Cd19  1  0.000000  0.000000  0.500000  1
  Cd  Cd20  1  0.000000  0.000000  0.000000  1
  Cd  Cd21  1  0.987013  0.337398  0.337476  1
  Cd  Cd22  1  0.337442  0.988533  0.336687  1
  Cd  Cd23  1  0.337390  0.336748  0.988563  1
  Cd  Cd24  1  0.338106  0.337505  0.337399  1
  Cd  Cd25  1  0.012987  0.662602  0.662524  1
  Cd  Cd26  1  0.662558  0.011467  0.663313  1
  Cd  Cd27  1  0.662610  0.663252  0.011437  1
  Cd  Cd28  1  0.661894  0.662495  0.662601  1
  Si  Si29  1  0.500000  0.500000  0.500000  1
