# generated using pymatgen
data_LiTa3(SiRu3)2
_symmetry_space_group_name_H-M   'P 1'
_cell_length_a   4.35521100
_cell_length_b   6.12346600
_cell_length_c   12.98496900
_cell_angle_alpha   90.00000000
_cell_angle_beta   90.00031672
_cell_angle_gamma   90.00000000
_symmetry_Int_Tables_number   1
_chemical_formula_structural   LiTa3(SiRu3)2
_chemical_formula_sum   'Li2 Ta6 Si4 Ru12'
_cell_volume   346.29596272
_cell_formula_units_Z   2
loop_
 _symmetry_equiv_pos_site_id
 _symmetry_equiv_pos_as_xyz
  1  'x, y, z'
loop_
 _atom_site_type_symbol
 _atom_site_label
 _atom_site_symmetry_multiplicity
 _atom_site_fract_x
 _atom_site_fract_y
 _atom_site_fract_z
 _atom_site_occupancy
  Li  Li0  1  0.000174  0.500000  0.667126  1
  Li  Li1  1  0.500176  0.000000  0.832870  1
  Ta  Ta2  1  0.999997  0.000000  0.993601  1
  Ta  Ta3  1  0.499851  0.500000  0.165006  1
  Ta  Ta4  1  0.999850  0.000000  0.334995  1
  Ta  Ta5  1  0.499995  0.500000  0.506402  1
  Ta  Ta6  1  0.000125  0.000000  0.671183  1
  Ta  Ta7  1  0.500124  0.500000  0.828818  1
  Si  Si8  1  0.999986  0.500000  0.994499  1
  Si  Si9  1  0.499855  0.000000  0.164675  1
  Si  Si10  1  0.999855  0.500000  0.335325  1
  Si  Si11  1  0.499985  0.000000  0.505503  1
  Ru  Ru12  1  0.499990  0.250761  0.004966  1
  Ru  Ru13  1  0.499990  0.749238  0.004966  1
  Ru  Ru14  1  0.999869  0.251561  0.168586  1
  Ru  Ru15  1  0.999869  0.748439  0.168586  1
  Ru  Ru16  1  0.499868  0.248442  0.331412  1
  Ru  Ru17  1  0.499868  0.751558  0.331412  1
  Ru  Ru18  1  0.999995  0.249235  0.495031  1
  Ru  Ru19  1  0.999995  0.750764  0.495031  1
  Ru  Ru20  1  0.500145  0.247925  0.663803  1
  Ru  Ru21  1  0.500145  0.752075  0.663803  1
  Ru  Ru22  1  0.000147  0.252074  0.836200  1
  Ru  Ru23  1  0.000147  0.747926  0.836200  1
