# generated using pymatgen
data_LuTaB6Os
_symmetry_space_group_name_H-M   'P 1'
_cell_length_a   3.49573600
_cell_length_b   8.92079300
_cell_length_c   11.26373800
_cell_angle_alpha   90.00000000
_cell_angle_beta   90.00000000
_cell_angle_gamma   90.00000000
_symmetry_Int_Tables_number   1
_chemical_formula_structural   LuTaB6Os
_chemical_formula_sum   'Lu4 Ta4 B24 Os4'
_cell_volume   351.25670985
_cell_formula_units_Z   4
loop_
 _symmetry_equiv_pos_site_id
 _symmetry_equiv_pos_as_xyz
  1  'x, y, z'
loop_
 _atom_site_type_symbol
 _atom_site_label
 _atom_site_symmetry_multiplicity
 _atom_site_fract_x
 _atom_site_fract_y
 _atom_site_fract_z
 _atom_site_occupancy
  Lu  Lu0  1  0.000000  0.324031  0.413490  1
  Lu  Lu1  1  0.000000  0.675969  0.586510  1
  Lu  Lu2  1  0.000000  0.824031  0.086510  1
  Lu  Lu3  1  0.000000  0.175969  0.913490  1
  Ta  Ta4  1  0.000000  0.947488  0.377314  1
  Ta  Ta5  1  0.000000  0.052512  0.622687  1
  Ta  Ta6  1  0.000000  0.447488  0.122686  1
  Ta  Ta7  1  0.000000  0.552512  0.877313  1
  B  B8  1  0.500000  0.554596  0.434792  1
  B  B9  1  0.500000  0.445404  0.565208  1
  B  B10  1  0.500000  0.054596  0.065208  1
  B  B11  1  0.500000  0.945404  0.934792  1
  B  B12  1  0.500000  0.754152  0.419435  1
  B  B13  1  0.500000  0.245848  0.580565  1
  B  B14  1  0.500000  0.254152  0.080565  1
  B  B15  1  0.500000  0.745848  0.919435  1
  B  B16  1  0.500000  0.798564  0.261767  1
  B  B17  1  0.500000  0.201436  0.738233  1
  B  B18  1  0.500000  0.298563  0.238233  1
  B  B19  1  0.500000  0.701436  0.761767  1
  B  B20  1  0.500000  0.630550  0.180437  1
  B  B21  1  0.500000  0.369450  0.819563  1
  B  B22  1  0.500000  0.130550  0.319563  1
  B  B23  1  0.500000  0.869450  0.680437  1
  B  B24  1  0.500000  0.980848  0.213077  1
  B  B25  1  0.500000  0.019152  0.786923  1
  B  B26  1  0.500000  0.480848  0.286923  1
  B  B27  1  0.500000  0.519152  0.713077  1
  B  B28  1  0.500000  0.601400  0.026833  1
  B  B29  1  0.500000  0.398600  0.973167  1
  B  B30  1  0.500000  0.101400  0.473167  1
  B  B31  1  0.500000  0.898600  0.526833  1
  Os  Os32  1  0.000000  0.643876  0.317646  1
  Os  Os33  1  0.000000  0.356124  0.682354  1
  Os  Os34  1  0.000000  0.143876  0.182354  1
  Os  Os35  1  0.000000  0.856124  0.817646  1
