# generated using pymatgen
data_Sr8Li(In5Au4)3
_symmetry_space_group_name_H-M   'P 1'
_cell_length_a   15.29800500
_cell_length_b   15.29038749
_cell_length_c   4.62448100
_cell_angle_alpha   90.00000000
_cell_angle_beta   90.00000000
_cell_angle_gamma   120.01648350
_symmetry_Int_Tables_number   1
_chemical_formula_structural   Sr8Li(In5Au4)3
_chemical_formula_sum   'Sr8 Li1 In15 Au12'
_cell_volume   936.64444458
_cell_formula_units_Z   1
loop_
 _symmetry_equiv_pos_site_id
 _symmetry_equiv_pos_as_xyz
  1  'x, y, z'
loop_
 _atom_site_type_symbol
 _atom_site_label
 _atom_site_symmetry_multiplicity
 _atom_site_fract_x
 _atom_site_fract_y
 _atom_site_fract_z
 _atom_site_occupancy
  Sr  Sr0  1  0.450371  0.000000  0.000000  1
  Sr  Sr1  1  0.999958  0.453085  0.000000  1
  Sr  Sr2  1  0.546874  0.546915  0.000000  1
  Sr  Sr3  1  0.332683  0.666628  0.000000  1
  Sr  Sr4  1  0.666056  0.333372  0.000000  1
  Sr  Sr5  1  0.822087  0.000000  0.500000  1
  Sr  Sr6  1  0.003905  0.822905  0.500000  1
  Sr  Sr7  1  0.181001  0.177095  0.500000  1
  Li  Li8  1  0.278933  0.000000  0.500000  1
  In  In9  1  0.183936  0.381073  0.000000  1
  In  In10  1  0.619622  0.802222  0.000000  1
  In  In11  1  0.376814  0.174768  0.000000  1
  In  In12  1  0.202043  0.825232  0.000000  1
  In  In13  1  0.802863  0.618927  0.000000  1
  In  In14  1  0.817402  0.197778  0.000000  1
  In  In15  1  0.001401  0.280272  0.500000  1
  In  In16  1  0.721130  0.719728  0.500000  1
  In  In17  1  0.347005  0.471207  0.500000  1
  In  In18  1  0.527056  0.877943  0.500000  1
  In  In19  1  0.469526  0.348130  0.500000  1
  In  In20  1  0.121396  0.651870  0.500000  1
  In  In21  1  0.875799  0.528793  0.500000  1
  In  In22  1  0.649113  0.122057  0.500000  1
  In  In23  1  0.003120  0.000000  0.000000  1
  Au  Au24  1  0.172271  0.493254  0.500000  1
  Au  Au25  1  0.506079  0.681110  0.500000  1
  Au  Au26  1  0.492599  0.174101  0.500000  1
  Au  Au27  1  0.318498  0.825899  0.500000  1
  Au  Au28  1  0.679017  0.506746  0.500000  1
  Au  Au29  1  0.824970  0.318890  0.500000  1
  Au  Au30  1  0.181017  0.000000  0.000000  1
  Au  Au31  1  0.999966  0.177271  0.000000  1
  Au  Au32  1  0.822696  0.822729  0.000000  1
  Au  Au33  1  0.658639  0.000000  0.000000  1
  Au  Au34  1  0.002972  0.661787  0.000000  1
  Au  Au35  1  0.341185  0.338213  0.000000  1
