# generated using pymatgen
data_NiSb2Br2O3
_symmetry_space_group_name_H-M   'P 1'
_cell_length_a   8.24486722
_cell_length_b   8.94343314
_cell_length_c   10.73494033
_cell_angle_alpha   65.87930875
_cell_angle_beta   82.54644335
_cell_angle_gamma   93.31703704
_symmetry_Int_Tables_number   1
_chemical_formula_structural   NiSb2Br2O3
_chemical_formula_sum   'Ni4 Sb8 Br8 O12'
_cell_volume   710.95144755
_cell_formula_units_Z   4
loop_
 _symmetry_equiv_pos_site_id
 _symmetry_equiv_pos_as_xyz
  1  'x, y, z'
loop_
 _atom_site_type_symbol
 _atom_site_label
 _atom_site_symmetry_multiplicity
 _atom_site_fract_x
 _atom_site_fract_y
 _atom_site_fract_z
 _atom_site_occupancy
  Ni  Ni0  1  0.517934  0.608919  0.089767  1
  Ni  Ni1  1  0.481619  0.891021  0.410325  1
  Ni  Ni2  1  0.519347  0.109205  0.589331  1
  Ni  Ni3  1  0.481557  0.391018  0.910349  1
  Sb  Sb4  1  0.688656  0.041201  0.926820  1
  Sb  Sb5  1  0.688643  0.541455  0.426666  1
  Sb  Sb6  1  0.311226  0.958771  0.073229  1
  Sb  Sb7  1  0.311313  0.458585  0.573357  1
  Sb  Sb8  1  0.700817  0.795642  0.733872  1
  Sb  Sb9  1  0.700725  0.295950  0.233623  1
  Sb  Sb10  1  0.299134  0.204106  0.266302  1
  Sb  Sb11  1  0.299261  0.704397  0.766120  1
  Br  Br12  1  0.778147  0.934579  0.283010  1
  Br  Br13  1  0.778109  0.434494  0.783071  1
  Br  Br14  1  0.222422  0.065564  0.716767  1
  Br  Br15  1  0.221564  0.565407  0.216979  1
  Br  Br16  1  0.849677  0.210191  0.473311  1
  Br  Br17  1  0.849641  0.710252  0.973289  1
  Br  Br18  1  0.150227  0.789689  0.526814  1
  Br  Br19  1  0.150210  0.289622  0.026864  1
  O  O20  1  0.481410  0.653366  0.438621  1
  O  O21  1  0.481503  0.153356  0.938659  1
  O  O22  1  0.518638  0.346741  0.561373  1
  O  O23  1  0.518336  0.846599  0.061424  1
  O  O24  1  0.369687  0.004985  0.232999  1
  O  O25  1  0.369681  0.505022  0.733022  1
  O  O26  1  0.630342  0.994920  0.767068  1
  O  O27  1  0.630083  0.494977  0.267046  1
  O  O28  1  0.502329  0.145274  0.381577  1
  O  O29  1  0.502136  0.645203  0.881708  1
  O  O30  1  0.497969  0.854733  0.618267  1
  O  O31  1  0.497651  0.354751  0.118364  1
