# generated using pymatgen
data_NdHo15Cd4Ru3Pt
_symmetry_space_group_name_H-M   'P 1'
_cell_length_a   9.60191928
_cell_length_b   9.65027966
_cell_length_c   9.66592000
_cell_angle_alpha   59.94637272
_cell_angle_beta   59.77926399
_cell_angle_gamma   59.53692372
_symmetry_Int_Tables_number   1
_chemical_formula_structural   NdHo15Cd4Ru3Pt
_chemical_formula_sum   'Nd1 Ho15 Cd4 Ru3 Pt1'
_cell_volume   629.77286255
_cell_formula_units_Z   1
loop_
 _symmetry_equiv_pos_site_id
 _symmetry_equiv_pos_as_xyz
  1  'x, y, z'
loop_
 _atom_site_type_symbol
 _atom_site_label
 _atom_site_symmetry_multiplicity
 _atom_site_fract_x
 _atom_site_fract_y
 _atom_site_fract_z
 _atom_site_occupancy
  Nd  Nd0  1  0.935697  0.937863  0.563220  1
  Ho  Ho1  1  0.346872  0.351088  0.348279  1
  Ho  Ho2  1  0.346872  0.351088  0.953761  1
  Ho  Ho3  1  0.346897  0.955286  0.348908  1
  Ho  Ho4  1  0.964040  0.346103  0.344929  1
  Ho  Ho5  1  0.814395  0.190546  0.187996  1
  Ho  Ho6  1  0.187343  0.811047  0.813227  1
  Ho  Ho7  1  0.187343  0.811047  0.188383  1
  Ho  Ho8  1  0.814395  0.190546  0.807063  1
  Ho  Ho9  1  0.188204  0.188896  0.811450  1
  Ho  Ho10  1  0.814126  0.805150  0.190362  1
  Ho  Ho11  1  0.937181  0.559522  0.562042  1
  Ho  Ho12  1  0.554497  0.938139  0.940719  1
  Ho  Ho13  1  0.554497  0.938139  0.566645  1
  Ho  Ho14  1  0.937181  0.559522  0.941255  1
  Ho  Ho15  1  0.558374  0.567090  0.937268  1
  Cd  Cd16  1  0.581051  0.580743  0.581358  1
  Cd  Cd17  1  0.581051  0.580743  0.256849  1
  Cd  Cd18  1  0.577141  0.259623  0.581618  1
  Cd  Cd19  1  0.256711  0.578409  0.582441  1
  Ru  Ru20  1  0.147358  0.139807  0.134185  1
  Ru  Ru21  1  0.147358  0.139807  0.578651  1
  Ru  Ru22  1  0.145065  0.578101  0.138417  1
  Pt  Pt23  1  0.576351  0.141699  0.140975  1
