# generated using pymatgen
data_Rb2LiLuBi2
_symmetry_space_group_name_H-M   'P 1'
_cell_length_a   11.31305826
_cell_length_b   11.31305747
_cell_length_c   7.30219000
_cell_angle_alpha   90.00000000
_cell_angle_beta   90.00000000
_cell_angle_gamma   99.84893954
_symmetry_Int_Tables_number   1
_chemical_formula_structural   Rb2LiLuBi2
_chemical_formula_sum   'Rb8 Li4 Lu4 Bi8'
_cell_volume   920.79922843
_cell_formula_units_Z   4
loop_
 _symmetry_equiv_pos_site_id
 _symmetry_equiv_pos_as_xyz
  1  'x, y, z'
loop_
 _atom_site_type_symbol
 _atom_site_label
 _atom_site_symmetry_multiplicity
 _atom_site_fract_x
 _atom_site_fract_y
 _atom_site_fract_z
 _atom_site_occupancy
  Rb  Rb0  1  0.572171  0.927829  0.750000  1
  Rb  Rb1  1  0.927829  0.572171  0.250000  1
  Rb  Rb2  1  0.427829  0.072171  0.250000  1
  Rb  Rb3  1  0.072171  0.427829  0.750000  1
  Rb  Rb4  1  0.674598  0.325402  0.781570  1
  Rb  Rb5  1  0.825402  0.174598  0.281570  1
  Rb  Rb6  1  0.325402  0.674598  0.218430  1
  Rb  Rb7  1  0.174598  0.825402  0.718430  1
  Li  Li8  1  0.621146  0.621146  0.000000  1
  Li  Li9  1  0.878854  0.878854  0.500000  1
  Li  Li10  1  0.378854  0.378854  0.000000  1
  Li  Li11  1  0.121146  0.121146  0.500000  1
  Lu  Lu12  1  0.871085  0.871085  0.000000  1
  Lu  Lu13  1  0.628915  0.628915  0.500000  1
  Lu  Lu14  1  0.128915  0.128915  0.000000  1
  Lu  Lu15  1  0.371085  0.371085  0.500000  1
  Bi  Bi16  1  0.346054  0.153946  0.750000  1
  Bi  Bi17  1  0.153946  0.346054  0.250000  1
  Bi  Bi18  1  0.653946  0.846054  0.250000  1
  Bi  Bi19  1  0.846054  0.653946  0.750000  1
  Bi  Bi20  1  0.903918  0.096082  0.761695  1
  Bi  Bi21  1  0.596082  0.403918  0.261695  1
  Bi  Bi22  1  0.096082  0.903918  0.238305  1
  Bi  Bi23  1  0.403918  0.596082  0.738305  1
