# generated using pymatgen
data_Tm2Hf2(Al8Pt3)3
_symmetry_space_group_name_H-M   'P 1'
_cell_length_a   7.49580959
_cell_length_b   7.50417691
_cell_length_c   13.00434116
_cell_angle_alpha   84.53441958
_cell_angle_beta   78.96131596
_cell_angle_gamma   59.94592048
_symmetry_Int_Tables_number   1
_chemical_formula_structural   Tm2Hf2(Al8Pt3)3
_chemical_formula_sum   'Tm2 Hf2 Al24 Pt9'
_cell_volume   621.43115924
_cell_formula_units_Z   1
loop_
 _symmetry_equiv_pos_site_id
 _symmetry_equiv_pos_as_xyz
  1  'x, y, z'
loop_
 _atom_site_type_symbol
 _atom_site_label
 _atom_site_symmetry_multiplicity
 _atom_site_fract_x
 _atom_site_fract_y
 _atom_site_fract_z
 _atom_site_occupancy
  Tm  Tm0  1  0.733696  0.498614  0.807518  1
  Tm  Tm1  1  0.266304  0.501386  0.192482  1
  Hf  Hf2  1  0.393920  0.167833  0.809156  1
  Hf  Hf3  1  0.606080  0.832167  0.190844  1
  Al  Al4  1  0.681326  0.835954  0.942823  1
  Al  Al5  1  0.318674  0.164046  0.057177  1
  Al  Al6  1  0.146045  0.832960  0.563098  1
  Al  Al7  1  0.853955  0.167040  0.436902  1
  Al  Al8  1  0.479880  0.166813  0.560964  1
  Al  Al9  1  0.520120  0.833187  0.439036  1
  Al  Al10  1  0.220907  0.163439  0.326197  1
  Al  Al11  1  0.779093  0.836561  0.673803  1
  Al  Al12  1  0.436400  0.504227  0.673923  1
  Al  Al13  1  0.563600  0.495773  0.326077  1
  Al  Al14  1  0.110781  0.160375  0.672703  1
  Al  Al15  1  0.889219  0.839625  0.327297  1
  Al  Al16  1  0.354027  0.496612  0.941762  1
  Al  Al17  1  0.645973  0.503388  0.058238  1
  Al  Al18  1  0.018781  0.168189  0.950054  1
  Al  Al19  1  0.981219  0.831811  0.049946  1
  Al  Al20  1  0.186689  0.499632  0.440573  1
  Al  Al21  1  0.813311  0.500368  0.559427  1
  Al  Al22  1  0.733492  0.158766  0.183468  1
  Al  Al23  1  0.266508  0.841234  0.816532  1
  Al  Al24  1  0.065813  0.626416  0.815445  1
  Al  Al25  1  0.934187  0.373584  0.184555  1
  Al  Al26  1  0.850388  0.041272  0.815936  1
  Al  Al27  1  0.149612  0.958728  0.184064  1
  Pt  Pt28  1  0.120039  0.490219  0.639731  1
  Pt  Pt29  1  0.879961  0.509781  0.360269  1
  Pt  Pt30  1  0.656376  0.173079  0.999599  1
  Pt  Pt31  1  0.343624  0.826921  0.000401  1
  Pt  Pt32  1  0.536725  0.166629  0.360905  1
  Pt  Pt33  1  0.463275  0.833371  0.639095  1
  Pt  Pt34  1  0.777690  0.176492  0.637994  1
  Pt  Pt35  1  0.222310  0.823508  0.362006  1
  Pt  Pt36  1  0.000000  0.500000  0.000000  1
