# generated using pymatgen
data_Th2FeCoC4
_symmetry_space_group_name_H-M   'P 1'
_cell_length_a   3.82446244
_cell_length_b   3.78320108
_cell_length_c   7.41382700
_cell_angle_alpha   81.83482309
_cell_angle_beta   81.66838447
_cell_angle_gamma   90.06855552
_symmetry_Int_Tables_number   1
_chemical_formula_structural   Th2FeCoC4
_chemical_formula_sum   'Th2 Fe1 Co1 C4'
_cell_volume   105.03449743
_cell_formula_units_Z   1
loop_
 _symmetry_equiv_pos_site_id
 _symmetry_equiv_pos_as_xyz
  1  'x, y, z'
loop_
 _atom_site_type_symbol
 _atom_site_label
 _atom_site_symmetry_multiplicity
 _atom_site_fract_x
 _atom_site_fract_y
 _atom_site_fract_z
 _atom_site_occupancy
  Th  Th0  1  0.072595  0.928249  0.997103  1
  Th  Th1  1  0.930352  0.071866  0.499324  1
  Fe  Fe2  1  0.372946  0.509910  0.696878  1
  Co  Co3  1  0.517527  0.373222  0.196328  1
  C  C4  1  0.438401  0.596306  0.430567  1
  C  C5  1  0.590032  0.440845  0.928353  1
  C  C6  1  0.489419  0.854662  0.272822  1
  C  C7  1  0.855730  0.491937  0.772425  1
