# generated using pymatgen
data_Yb3HoEr2(Si3Ru)8
_symmetry_space_group_name_H-M   'P 1'
_cell_length_a   10.14554768
_cell_length_b   10.14554668
_cell_length_c   8.11422504
_cell_angle_alpha   89.96151949
_cell_angle_beta   90.03847906
_cell_angle_gamma   132.84640539
_symmetry_Int_Tables_number   1
_chemical_formula_structural   Yb3HoEr2(Si3Ru)8
_chemical_formula_sum   'Yb3 Ho1 Er2 Si24 Ru8'
_cell_volume   612.36180131
_cell_formula_units_Z   1
loop_
 _symmetry_equiv_pos_site_id
 _symmetry_equiv_pos_as_xyz
  1  'x, y, z'
loop_
 _atom_site_type_symbol
 _atom_site_label
 _atom_site_symmetry_multiplicity
 _atom_site_fract_x
 _atom_site_fract_y
 _atom_site_fract_z
 _atom_site_occupancy
  Yb  Yb0  1  0.500266  0.500221  0.499868  1
  Yb  Yb1  1  0.000221  0.000266  0.000132  1
  Yb  Yb2  1  0.501875  0.001875  0.750000  1
  Ho  Ho3  1  0.001184  0.501184  0.750000  1
  Er  Er4  1  0.999429  0.499429  0.250000  1
  Er  Er5  1  0.498440  0.998440  0.250000  1
  Si  Si6  1  0.795358  0.203573  0.500169  1
  Si  Si7  1  0.296779  0.705455  0.998927  1
  Si  Si8  1  0.205455  0.796779  0.501073  1
  Si  Si9  1  0.703573  0.295358  0.999831  1
  Si  Si10  1  0.332498  0.334755  0.832374  1
  Si  Si11  1  0.665351  0.668771  0.167442  1
  Si  Si12  1  0.168771  0.165351  0.332558  1
  Si  Si13  1  0.834755  0.832498  0.667626  1
  Si  Si14  1  0.123072  0.890265  0.730994  1
  Si  Si15  1  0.108560  0.876046  0.270115  1
  Si  Si16  1  0.608461  0.375971  0.229766  1
  Si  Si17  1  0.623715  0.390889  0.769014  1
  Si  Si18  1  0.875971  0.108461  0.270234  1
  Si  Si19  1  0.890889  0.123715  0.730986  1
  Si  Si20  1  0.390265  0.623072  0.769006  1
  Si  Si21  1  0.376046  0.608560  0.229885  1
  Si  Si22  1  0.347037  0.113879  0.505797  1
  Si  Si23  1  0.886173  0.653534  0.493132  1
  Si  Si24  1  0.386072  0.152856  0.006606  1
  Si  Si25  1  0.846243  0.614072  0.992312  1
  Si  Si26  1  0.652856  0.886072  0.493394  1
  Si  Si27  1  0.114072  0.346243  0.507688  1
  Si  Si28  1  0.613879  0.847037  0.994203  1
  Si  Si29  1  0.153534  0.386173  0.006868  1
  Ru  Ru30  1  0.672761  0.329169  0.497851  1
  Ru  Ru31  1  0.169823  0.827010  0.001990  1
  Ru  Ru32  1  0.327010  0.669823  0.498010  1
  Ru  Ru33  1  0.829169  0.172761  0.002149  1
  Ru  Ru34  1  0.126305  0.126635  0.625803  1
  Ru  Ru35  1  0.873370  0.874125  0.374545  1
  Ru  Ru36  1  0.374125  0.373370  0.125455  1
  Ru  Ru37  1  0.626635  0.626305  0.874197  1
