# generated using pymatgen
data_Zr6Al6Pt2RhAu3
_symmetry_space_group_name_H-M   'P 1'
_cell_length_a   6.84859200
_cell_length_b   6.84859367
_cell_length_c   8.15482600
_cell_angle_alpha   90.00000000
_cell_angle_beta   90.00000000
_cell_angle_gamma   120.00000161
_symmetry_Int_Tables_number   1
_chemical_formula_structural   Zr6Al6Pt2RhAu3
_chemical_formula_sum   'Zr6 Al6 Pt2 Rh1 Au3'
_cell_volume   331.24399793
_cell_formula_units_Z   1
loop_
 _symmetry_equiv_pos_site_id
 _symmetry_equiv_pos_as_xyz
  1  'x, y, z'
loop_
 _atom_site_type_symbol
 _atom_site_label
 _atom_site_symmetry_multiplicity
 _atom_site_fract_x
 _atom_site_fract_y
 _atom_site_fract_z
 _atom_site_occupancy
  Zr  Zr0  1  0.004968  0.588888  0.754713  1
  Zr  Zr1  1  0.004437  0.594032  0.244944  1
  Zr  Zr2  1  0.589595  0.995563  0.244944  1
  Zr  Zr3  1  0.583919  0.995032  0.754713  1
  Zr  Zr4  1  0.405968  0.410405  0.244944  1
  Zr  Zr5  1  0.411112  0.416081  0.754713  1
  Al  Al6  1  0.998577  0.241694  0.497353  1
  Al  Al7  1  0.753865  0.759366  0.002954  1
  Al  Al8  1  0.005500  0.246135  0.002954  1
  Al  Al9  1  0.243117  0.001423  0.497353  1
  Al  Al10  1  0.240634  0.994500  0.002954  1
  Al  Al11  1  0.758306  0.756883  0.497353  1
  Pt  Pt12  1  0.000000  0.000000  0.750242  1
  Pt  Pt13  1  0.333333  0.666667  0.999492  1
  Rh  Rh14  1  0.000000  0.000000  0.250119  1
  Au  Au15  1  0.333333  0.666667  0.500273  1
  Au  Au16  1  0.666667  0.333333  0.500814  1
  Au  Au17  1  0.666667  0.333333  0.999161  1
