# generated using pymatgen
data_K2U(SeO5)2
_symmetry_space_group_name_H-M   'P 1'
_cell_length_a   7.09154518
_cell_length_b   7.76732604
_cell_length_c   11.46808904
_cell_angle_alpha   76.12011446
_cell_angle_beta   73.67424795
_cell_angle_gamma   75.39702518
_symmetry_Int_Tables_number   1
_chemical_formula_structural   K2U(SeO5)2
_chemical_formula_sum   'K4 U2 Se4 O20'
_cell_volume   576.83826803
_cell_formula_units_Z   2
loop_
 _symmetry_equiv_pos_site_id
 _symmetry_equiv_pos_as_xyz
  1  'x, y, z'
loop_
 _atom_site_type_symbol
 _atom_site_label
 _atom_site_symmetry_multiplicity
 _atom_site_fract_x
 _atom_site_fract_y
 _atom_site_fract_z
 _atom_site_occupancy
  K  K0  1  0.200810  0.279380  0.085170  1
  K  K1  1  0.799190  0.720620  0.914830  1
  K  K2  1  0.717841  0.279333  0.574632  1
  K  K3  1  0.282159  0.720667  0.425368  1
  U  U4  1  0.246093  0.009379  0.749258  1
  U  U5  1  0.753907  0.990621  0.250742  1
  Se  Se6  1  0.725556  0.763912  0.578761  1
  Se  Se7  1  0.274444  0.236088  0.421239  1
  Se  Se8  1  0.234074  0.765708  0.072378  1
  Se  Se9  1  0.765926  0.234292  0.927622  1
  O  O10  1  0.088874  0.650762  0.046389  1
  O  O11  1  0.911126  0.349238  0.953611  1
  O  O12  1  0.578268  0.651831  0.551934  1
  O  O13  1  0.421732  0.348169  0.448066  1
  O  O14  1  0.291580  0.934810  0.947639  1
  O  O15  1  0.708420  0.065190  0.052361  1
  O  O16  1  0.807673  0.915915  0.448886  1
  O  O17  1  0.192327  0.084085  0.551114  1
  O  O18  1  0.100287  0.892208  0.183904  1
  O  O19  1  0.899713  0.107792  0.816096  1
  O  O20  1  0.590959  0.908287  0.678917  1
  O  O21  1  0.409041  0.091713  0.321083  1
  O  O22  1  0.441836  0.646859  0.109817  1
  O  O23  1  0.558164  0.353141  0.890183  1
  O  O24  1  0.920197  0.638715  0.629769  1
  O  O25  1  0.079803  0.361285  0.370231  1
  O  O26  1  0.186004  0.792648  0.760585  1
  O  O27  1  0.813996  0.207352  0.239415  1
  O  O28  1  0.691245  0.774859  0.263019  1
  O  O29  1  0.308755  0.225141  0.736981  1
