# generated using pymatgen
data_Pa6Sb8(IrRh)3
_symmetry_space_group_name_H-M   'P 1'
_cell_length_a   8.36569616
_cell_length_b   8.36526173
_cell_length_c   8.36526095
_cell_angle_alpha   109.46837526
_cell_angle_beta   109.63938132
_cell_angle_gamma   109.30397063
_symmetry_Int_Tables_number   1
_chemical_formula_structural   Pa6Sb8(IrRh)3
_chemical_formula_sum   'Pa6 Sb8 Ir3 Rh3'
_cell_volume   450.65770533
_cell_formula_units_Z   1
loop_
 _symmetry_equiv_pos_site_id
 _symmetry_equiv_pos_as_xyz
  1  'x, y, z'
loop_
 _atom_site_type_symbol
 _atom_site_label
 _atom_site_symmetry_multiplicity
 _atom_site_fract_x
 _atom_site_fract_y
 _atom_site_fract_z
 _atom_site_occupancy
  Pa  Pa0  1  0.874621  0.249918  0.124826  1
  Pa  Pa1  1  0.625379  0.750205  0.375297  1
  Pa  Pa2  1  0.250000  0.125512  0.875512  1
  Pa  Pa3  1  0.750000  0.374533  0.624533  1
  Pa  Pa4  1  0.124537  0.874761  0.249801  1
  Pa  Pa5  1  0.375463  0.625263  0.750223  1
  Sb  Sb6  1  0.674095  0.499739  0.998339  1
  Sb  Sb7  1  0.498154  0.998729  0.673315  1
  Sb  Sb8  1  0.001846  0.675161  0.500576  1
  Sb  Sb9  1  0.825905  0.824243  0.825644  1
  Sb  Sb10  1  0.498125  0.999403  0.173908  1
  Sb  Sb11  1  0.174961  0.501623  0.000173  1
  Sb  Sb12  1  0.001875  0.175783  0.501278  1
  Sb  Sb13  1  0.325039  0.325212  0.326662  1
  Ir  Ir14  1  0.750000  0.875337  0.125337  1
  Ir  Ir15  1  0.624974  0.374917  0.249524  1
  Ir  Ir16  1  0.875026  0.124549  0.749942  1
  Rh  Rh17  1  0.374963  0.250032  0.625379  1
  Rh  Rh18  1  0.125037  0.750416  0.875069  1
  Rh  Rh19  1  0.250000  0.624665  0.374665  1
