# generated using pymatgen
data_TmLu2ZnSn3Rh2
_symmetry_space_group_name_H-M   'P 1'
_cell_length_a   7.51792944
_cell_length_b   7.53590098
_cell_length_c   3.85058600
_cell_angle_alpha   90.00000000
_cell_angle_beta   90.00000000
_cell_angle_gamma   119.99182452
_symmetry_Int_Tables_number   1
_chemical_formula_structural   TmLu2ZnSn3Rh2
_chemical_formula_sum   'Tm1 Lu2 Zn1 Sn3 Rh2'
_cell_volume   188.94119575
_cell_formula_units_Z   1
loop_
 _symmetry_equiv_pos_site_id
 _symmetry_equiv_pos_as_xyz
  1  'x, y, z'
loop_
 _atom_site_type_symbol
 _atom_site_label
 _atom_site_symmetry_multiplicity
 _atom_site_fract_x
 _atom_site_fract_y
 _atom_site_fract_z
 _atom_site_occupancy
  Tm  Tm0  1  0.391390  0.982861  0.000000  1
  Lu  Lu1  1  0.018875  0.408768  0.000000  1
  Lu  Lu2  1  0.591253  0.609767  0.000000  1
  Zn  Zn3  1  0.667176  0.334139  0.500000  1
  Sn  Sn4  1  0.263770  0.259779  0.500000  1
  Sn  Sn5  1  0.995635  0.736125  0.500000  1
  Sn  Sn6  1  0.740085  0.003526  0.500000  1
  Rh  Rh7  1  0.332849  0.665053  0.500000  1
  Rh  Rh8  1  0.998967  0.999980  0.000000  1
