# generated using pymatgen
data_Rb2Zr3(NiSe4)2
_symmetry_space_group_name_H-M   'P 1'
_cell_length_a   3.81786973
_cell_length_b   8.28142508
_cell_length_c   13.36132658
_cell_angle_alpha   93.88696735
_cell_angle_beta   98.21394883
_cell_angle_gamma   103.32697677
_symmetry_Int_Tables_number   1
_chemical_formula_structural   Rb2Zr3(NiSe4)2
_chemical_formula_sum   'Rb2 Zr3 Ni2 Se8'
_cell_volume   404.62595852
_cell_formula_units_Z   1
loop_
 _symmetry_equiv_pos_site_id
 _symmetry_equiv_pos_as_xyz
  1  'x, y, z'
loop_
 _atom_site_type_symbol
 _atom_site_label
 _atom_site_symmetry_multiplicity
 _atom_site_fract_x
 _atom_site_fract_y
 _atom_site_fract_z
 _atom_site_occupancy
  Rb  Rb0  1  0.866404  0.529217  0.203589  1
  Rb  Rb1  1  0.133596  0.470783  0.796410  1
  Zr  Zr2  1  0.500000  0.000000  0.000000  1
  Zr  Zr3  1  0.711573  0.048003  0.375143  1
  Zr  Zr4  1  0.288426  0.951997  0.624856  1
  Ni  Ni5  1  0.129486  0.067573  0.191400  1
  Ni  Ni6  1  0.870513  0.932428  0.808599  1
  Se  Se7  1  0.144529  0.235487  0.053572  1
  Se  Se8  1  0.536146  0.886261  0.186030  1
  Se  Se9  1  0.303871  0.269093  0.338648  1
  Se  Se10  1  0.125316  0.824957  0.425678  1
  Se  Se11  1  0.874684  0.175044  0.574321  1
  Se  Se12  1  0.696130  0.730908  0.661353  1
  Se  Se13  1  0.463854  0.113739  0.813970  1
  Se  Se14  1  0.855470  0.764512  0.946427  1
