# generated using pymatgen
data_Er2AlB2IrRh4
_symmetry_space_group_name_H-M   'P 1'
_cell_length_a   9.50650983
_cell_length_b   9.50306658
_cell_length_c   3.16433800
_cell_angle_alpha   90.00000000
_cell_angle_beta   90.00000000
_cell_angle_gamma   90.33947266
_symmetry_Int_Tables_number   1
_chemical_formula_structural   Er2AlB2IrRh4
_chemical_formula_sum   'Er4 Al2 B4 Ir2 Rh8'
_cell_volume   285.86442867
_cell_formula_units_Z   2
loop_
 _symmetry_equiv_pos_site_id
 _symmetry_equiv_pos_as_xyz
  1  'x, y, z'
loop_
 _atom_site_type_symbol
 _atom_site_label
 _atom_site_symmetry_multiplicity
 _atom_site_fract_x
 _atom_site_fract_y
 _atom_site_fract_z
 _atom_site_occupancy
  Er  Er0  1  0.823462  0.324862  0.000000  1
  Er  Er1  1  0.323906  0.177080  0.000000  1
  Er  Er2  1  0.677698  0.822144  0.000000  1
  Er  Er3  1  0.175351  0.675240  0.000000  1
  Al  Al4  1  0.000169  0.999636  0.000000  1
  Al  Al5  1  0.499490  0.500272  0.000000  1
  B  B6  1  0.621979  0.121566  0.000000  1
  B  B7  1  0.119986  0.375918  0.000000  1
  B  B8  1  0.879306  0.621234  0.000000  1
  B  B9  1  0.378479  0.878680  0.000000  1
  Ir  Ir10  1  0.068646  0.219207  0.500000  1
  Ir  Ir11  1  0.501041  0.999631  0.500000  1
  Rh  Rh12  1  0.218816  0.930462  0.500000  1
  Rh  Rh13  1  0.782114  0.070379  0.500000  1
  Rh  Rh14  1  0.931073  0.781346  0.500000  1
  Rh  Rh15  1  0.429702  0.718510  0.500000  1
  Rh  Rh16  1  0.569889  0.282130  0.500000  1
  Rh  Rh17  1  0.718428  0.569260  0.500000  1
  Rh  Rh18  1  0.281126  0.432003  0.500000  1
  Rh  Rh19  1  0.999340  0.500440  0.500000  1
