# generated using pymatgen
data_Nd3BiPt4F28
_symmetry_space_group_name_H-M   'P 1'
_cell_length_a   5.66640132
_cell_length_b   9.19369511
_cell_length_c   12.29104353
_cell_angle_alpha   61.79922441
_cell_angle_beta   90.09595594
_cell_angle_gamma   89.89946491
_symmetry_Int_Tables_number   1
_chemical_formula_structural   Nd3BiPt4F28
_chemical_formula_sum   'Nd3 Bi1 Pt4 F28'
_cell_volume   564.29484252
_cell_formula_units_Z   1
loop_
 _symmetry_equiv_pos_site_id
 _symmetry_equiv_pos_as_xyz
  1  'x, y, z'
loop_
 _atom_site_type_symbol
 _atom_site_label
 _atom_site_symmetry_multiplicity
 _atom_site_fract_x
 _atom_site_fract_y
 _atom_site_fract_z
 _atom_site_occupancy
  Nd  Nd0  1  0.260312  0.190087  0.736321  1
  Nd  Nd1  1  0.239169  0.188258  0.235597  1
  Nd  Nd2  1  0.740083  0.811992  0.264057  1
  Bi  Bi3  1  0.765258  0.816591  0.762393  1
  Pt  Pt4  1  0.756802  0.273475  0.957297  1
  Pt  Pt5  1  0.257529  0.727157  0.543133  1
  Pt  Pt6  1  0.242752  0.727207  0.041366  1
  Pt  Pt7  1  0.743542  0.272240  0.458542  1
  F  F8  1  0.431684  0.707114  0.915160  1
  F  F9  1  0.933323  0.292138  0.585336  1
  F  F10  1  0.567797  0.293122  0.083975  1
  F  F11  1  0.066867  0.707209  0.416196  1
  F  F12  1  0.449268  0.280182  0.541459  1
  F  F13  1  0.946065  0.719512  0.959016  1
  F  F14  1  0.551368  0.718006  0.460159  1
  F  F15  1  0.051427  0.282288  0.039512  1
  F  F16  1  0.765526  0.514902  0.860951  1
  F  F17  1  0.266524  0.484039  0.639324  1
  F  F18  1  0.233066  0.484767  0.138269  1
  F  F19  1  0.733522  0.514314  0.361524  1
  F  F20  1  0.757794  0.029897  0.049952  1
  F  F21  1  0.257954  0.969730  0.450950  1
  F  F22  1  0.243459  0.970131  0.948617  1
  F  F23  1  0.743085  0.028713  0.550494  1
  F  F24  1  0.967335  0.728678  0.630371  1
  F  F25  1  0.467358  0.271229  0.869019  1
  F  F26  1  0.032611  0.271290  0.370525  1
  F  F27  1  0.531742  0.727570  0.130386  1
  F  F28  1  0.056970  0.741843  0.171763  1
  F  F29  1  0.558160  0.257691  0.328422  1
  F  F30  1  0.941733  0.258166  0.827151  1
  F  F31  1  0.441979  0.742343  0.673292  1
  F  F32  1  0.405178  0.967156  0.230643  1
  F  F33  1  0.905241  0.033955  0.268975  1
  F  F34  1  0.598596  0.029934  0.769122  1
  F  F35  1  0.088920  0.967075  0.730731  1
