# generated using pymatgen
data_Tb6Gd6Ni6Pb
_symmetry_space_group_name_H-M   'P 1'
_cell_length_a   8.46196573
_cell_length_b   8.46135317
_cell_length_c   8.46196601
_cell_angle_alpha   109.47146480
_cell_angle_beta   109.46686265
_cell_angle_gamma   109.47826813
_symmetry_Int_Tables_number   1
_chemical_formula_structural   Tb6Gd6Ni6Pb
_chemical_formula_sum   'Tb6 Gd6 Ni6 Pb1'
_cell_volume   466.38518054
_cell_formula_units_Z   1
loop_
 _symmetry_equiv_pos_site_id
 _symmetry_equiv_pos_as_xyz
  1  'x, y, z'
loop_
 _atom_site_type_symbol
 _atom_site_label
 _atom_site_symmetry_multiplicity
 _atom_site_fract_x
 _atom_site_fract_y
 _atom_site_fract_z
 _atom_site_occupancy
  Tb  Tb0  1  0.694954  0.882514  0.187561  1
  Tb  Tb1  1  0.305046  0.117486  0.812439  1
  Tb  Tb2  1  0.507424  0.812485  0.694964  1
  Tb  Tb3  1  0.492576  0.187515  0.305036  1
  Tb  Tb4  1  0.117522  0.812485  0.305061  1
  Tb  Tb5  1  0.882478  0.187515  0.694939  1
  Gd  Gd6  1  0.812208  0.694915  0.507192  1
  Gd  Gd7  1  0.187792  0.305085  0.492808  1
  Gd  Gd8  1  0.187723  0.694915  0.882706  1
  Gd  Gd9  1  0.812277  0.305085  0.117294  1
  Gd  Gd10  1  0.694882  0.507403  0.812520  1
  Gd  Gd11  1  0.305118  0.492597  0.187480  1
  Ni  Ni12  1  0.875970  0.375926  0.499957  1
  Ni  Ni13  1  0.124030  0.624074  0.500043  1
  Ni  Ni14  1  0.375994  0.500000  0.875994  1
  Ni  Ni15  1  0.624006  0.500000  0.124006  1
  Ni  Ni16  1  0.500046  0.876167  0.376121  1
  Ni  Ni17  1  0.499954  0.123833  0.623879  1
  Pb  Pb18  1  0.000000  0.000000  0.000000  1
