# generated using pymatgen
data_YbSi2TcIr
_symmetry_space_group_name_H-M   'P 1'
_cell_length_a   5.65553241
_cell_length_b   5.65553256
_cell_length_c   5.65553207
_cell_angle_alpha   136.08734922
_cell_angle_beta   136.08735887
_cell_angle_gamma   63.84532359
_symmetry_Int_Tables_number   1
_chemical_formula_structural   YbSi2TcIr
_chemical_formula_sum   'Yb1 Si2 Tc1 Ir1'
_cell_volume   85.85723597
_cell_formula_units_Z   1
loop_
 _symmetry_equiv_pos_site_id
 _symmetry_equiv_pos_as_xyz
  1  'x, y, z'
loop_
 _atom_site_type_symbol
 _atom_site_label
 _atom_site_symmetry_multiplicity
 _atom_site_fract_x
 _atom_site_fract_y
 _atom_site_fract_z
 _atom_site_occupancy
  Yb  Yb0  1  0.000000  0.000000  0.000000  1
  Si  Si1  1  0.630998  0.630998  0.000000  1
  Si  Si2  1  0.369002  0.369002  0.000000  1
  Tc  Tc3  1  0.750000  0.250000  0.500000  1
  Ir  Ir4  1  0.250000  0.750000  0.500000  1
