# generated using pymatgen
data_Li3La4AgSn4
_symmetry_space_group_name_H-M   'P 1'
_cell_length_a   7.85712836
_cell_length_b   4.84729600
_cell_length_c   8.51019100
_cell_angle_alpha   90.00000000
_cell_angle_beta   89.56411891
_cell_angle_gamma   90.00000000
_symmetry_Int_Tables_number   1
_chemical_formula_structural   Li3La4AgSn4
_chemical_formula_sum   'Li3 La4 Ag1 Sn4'
_cell_volume   324.10828214
_cell_formula_units_Z   1
loop_
 _symmetry_equiv_pos_site_id
 _symmetry_equiv_pos_as_xyz
  1  'x, y, z'
loop_
 _atom_site_type_symbol
 _atom_site_label
 _atom_site_symmetry_multiplicity
 _atom_site_fract_x
 _atom_site_fract_y
 _atom_site_fract_z
 _atom_site_occupancy
  Li  Li0  1  0.827169  0.749999  0.076119  1
  Li  Li1  1  0.330216  0.749999  0.426071  1
  Li  Li2  1  0.669864  0.249999  0.575486  1
  La  La3  1  0.503837  0.249999  0.213024  1
  La  La4  1  0.001890  0.249999  0.282705  1
  La  La5  1  0.997189  0.749999  0.714147  1
  La  La6  1  0.492644  0.749999  0.787396  1
  Ag  Ag7  1  0.173459  0.249999  0.922737  1
  Sn  Sn8  1  0.228572  0.749999  0.099922  1
  Sn  Sn9  1  0.724071  0.749999  0.406717  1
  Sn  Sn10  1  0.275683  0.249999  0.590069  1
  Sn  Sn11  1  0.775407  0.249999  0.905608  1
