# generated using pymatgen
data_La8Co(Si4Ir)3
_symmetry_space_group_name_H-M   'P 1'
_cell_length_a   8.25417200
_cell_length_b   8.25417368
_cell_length_c   8.54547100
_cell_angle_alpha   90.00000000
_cell_angle_beta   90.00000000
_cell_angle_gamma   120.00000129
_symmetry_Int_Tables_number   1
_chemical_formula_structural   La8Co(Si4Ir)3
_chemical_formula_sum   'La8 Co1 Si12 Ir3'
_cell_volume   504.21266232
_cell_formula_units_Z   1
loop_
 _symmetry_equiv_pos_site_id
 _symmetry_equiv_pos_as_xyz
  1  'x, y, z'
loop_
 _atom_site_type_symbol
 _atom_site_label
 _atom_site_symmetry_multiplicity
 _atom_site_fract_x
 _atom_site_fract_y
 _atom_site_fract_z
 _atom_site_occupancy
  La  La0  1  0.500164  0.499836  0.749002  1
  La  La1  1  0.500422  0.499578  0.250678  1
  La  La2  1  0.999672  0.499836  0.749002  1
  La  La3  1  0.999157  0.499578  0.250678  1
  La  La4  1  0.500164  0.000328  0.749002  1
  La  La5  1  0.500422  0.000843  0.250678  1
  La  La6  1  0.000000  0.000000  0.749044  1
  La  La7  1  0.000000  0.000000  0.251308  1
  Co  Co8  1  0.666667  0.333333  0.501926  1
  Si  Si9  1  0.833990  0.166010  0.999637  1
  Si  Si10  1  0.166235  0.833765  0.000356  1
  Si  Si11  1  0.332020  0.166010  0.999637  1
  Si  Si12  1  0.165387  0.834613  0.499655  1
  Si  Si13  1  0.667530  0.833765  0.000356  1
  Si  Si14  1  0.829092  0.170908  0.500325  1
  Si  Si15  1  0.833990  0.667980  0.999637  1
  Si  Si16  1  0.669226  0.834613  0.499655  1
  Si  Si17  1  0.166235  0.332470  0.000356  1
  Si  Si18  1  0.341814  0.170908  0.500325  1
  Si  Si19  1  0.165387  0.330774  0.499655  1
  Si  Si20  1  0.829092  0.658186  0.500325  1
  Ir  Ir21  1  0.666667  0.333333  0.000290  1
  Ir  Ir22  1  0.333333  0.666667  0.999178  1
  Ir  Ir23  1  0.333333  0.666667  0.499292  1
