# generated using pymatgen
data_TmFe2SiP
_symmetry_space_group_name_H-M   'P 1'
_cell_length_a   5.42110271
_cell_length_b   5.42110303
_cell_length_c   5.42110242
_cell_angle_alpha   138.15132412
_cell_angle_beta   138.15133520
_cell_angle_gamma   60.67131162
_symmetry_Int_Tables_number   1
_chemical_formula_structural   TmFe2SiP
_chemical_formula_sum   'Tm1 Fe2 Si1 P1'
_cell_volume   70.15181052
_cell_formula_units_Z   1
loop_
 _symmetry_equiv_pos_site_id
 _symmetry_equiv_pos_as_xyz
  1  'x, y, z'
loop_
 _atom_site_type_symbol
 _atom_site_label
 _atom_site_symmetry_multiplicity
 _atom_site_fract_x
 _atom_site_fract_y
 _atom_site_fract_z
 _atom_site_occupancy
  Tm  Tm0  1  0.001389  0.001389  0.000000  1
  Fe  Fe1  1  0.246922  0.746922  0.500000  1
  Fe  Fe2  1  0.746922  0.246922  0.500000  1
  Si  Si3  1  0.371214  0.371214  0.000000  1
  P  P4  1  0.633552  0.633552  0.000000  1
