# generated using pymatgen
data_PrNd9Sn20(PdRh)4
_symmetry_space_group_name_H-M   'P 1'
_cell_length_a   14.27340900
_cell_length_b   14.26231100
_cell_length_c   4.65932800
_cell_angle_alpha   90.00000000
_cell_angle_beta   90.00000000
_cell_angle_gamma   89.99978315
_symmetry_Int_Tables_number   1
_chemical_formula_structural   PrNd9Sn20(PdRh)4
_chemical_formula_sum   'Pr1 Nd9 Sn20 Pd4 Rh4'
_cell_volume   948.50777931
_cell_formula_units_Z   1
loop_
 _symmetry_equiv_pos_site_id
 _symmetry_equiv_pos_as_xyz
  1  'x, y, z'
loop_
 _atom_site_type_symbol
 _atom_site_label
 _atom_site_symmetry_multiplicity
 _atom_site_fract_x
 _atom_site_fract_y
 _atom_site_fract_z
 _atom_site_occupancy
  Pr  Pr0  1  0.607635  0.890507  0.500000  1
  Nd  Nd1  1  0.499991  0.499985  0.000000  1
  Nd  Nd2  1  0.000012  0.000014  0.000000  1
  Nd  Nd3  1  0.677925  0.179842  0.500000  1
  Nd  Nd4  1  0.322044  0.820175  0.500000  1
  Nd  Nd5  1  0.177928  0.320179  0.500000  1
  Nd  Nd6  1  0.822117  0.679779  0.500000  1
  Nd  Nd7  1  0.892477  0.390529  0.500000  1
  Nd  Nd8  1  0.107527  0.609469  0.500000  1
  Nd  Nd9  1  0.392445  0.109505  0.500000  1
  Sn  Sn10  1  0.566888  0.071567  0.000000  1
  Sn  Sn11  1  0.432895  0.928609  0.000000  1
  Sn  Sn12  1  0.066936  0.428560  0.000000  1
  Sn  Sn13  1  0.933065  0.571446  0.000000  1
  Sn  Sn14  1  0.652194  0.702328  0.000000  1
  Sn  Sn15  1  0.347825  0.297549  0.000000  1
  Sn  Sn16  1  0.152171  0.797546  0.000000  1
  Sn  Sn17  1  0.847839  0.202454  0.000000  1
  Sn  Sn18  1  0.301482  0.653394  0.000000  1
  Sn  Sn19  1  0.698507  0.346597  0.000000  1
  Sn  Sn20  1  0.198505  0.153403  0.000000  1
  Sn  Sn21  1  0.801592  0.846582  0.000000  1
  Sn  Sn22  1  0.662760  0.502922  0.500000  1
  Sn  Sn23  1  0.337242  0.497093  0.500000  1
  Sn  Sn24  1  0.162759  0.997090  0.500000  1
  Sn  Sn25  1  0.837301  0.002922  0.500000  1
  Sn  Sn26  1  0.496189  0.663646  0.500000  1
  Sn  Sn27  1  0.503773  0.336295  0.500000  1
  Sn  Sn28  1  0.003777  0.163704  0.500000  1
  Sn  Sn29  1  0.996214  0.836297  0.500000  1
  Pd  Pd30  1  0.746258  0.530565  0.000000  1
  Pd  Pd31  1  0.253740  0.469429  0.000000  1
  Pd  Pd32  1  0.246238  0.969442  0.000000  1
  Pd  Pd33  1  0.753818  0.030645  0.000000  1
  Rh  Rh34  1  0.468901  0.742883  0.000000  1
  Rh  Rh35  1  0.530994  0.257005  0.000000  1
  Rh  Rh36  1  0.031023  0.243021  0.000000  1
  Rh  Rh37  1  0.969008  0.757021  0.000000  1
