# generated using pymatgen
data_Ac(GeAu)2
_symmetry_space_group_name_H-M   'P 1'
_cell_length_a   6.23707987
_cell_length_b   6.23708012
_cell_length_c   6.23707935
_cell_angle_alpha   136.64317108
_cell_angle_beta   136.64317365
_cell_angle_gamma   62.98753394
_symmetry_Int_Tables_number   1
_chemical_formula_structural   Ac(GeAu)2
_chemical_formula_sum   'Ac1 Ge2 Au2'
_cell_volume   112.92357036
_cell_formula_units_Z   1
loop_
 _symmetry_equiv_pos_site_id
 _symmetry_equiv_pos_as_xyz
  1  'x, y, z'
loop_
 _atom_site_type_symbol
 _atom_site_label
 _atom_site_symmetry_multiplicity
 _atom_site_fract_x
 _atom_site_fract_y
 _atom_site_fract_z
 _atom_site_occupancy
  Ac  Ac0  1  0.000000  0.000000  0.000000  1
  Ge  Ge1  1  0.380437  0.380437  0.000000  1
  Ge  Ge2  1  0.619563  0.619563  0.000000  1
  Au  Au3  1  0.750000  0.250000  0.500000  1
  Au  Au4  1  0.250000  0.750000  0.500000  1
