# generated using pymatgen
data_HoEr(Lu5Os2)2
_symmetry_space_group_name_H-M   'P 1'
_cell_length_a   6.18040241
_cell_length_b   7.35035711
_cell_length_c   8.81928000
_cell_angle_alpha   90.00000000
_cell_angle_beta   90.00000000
_cell_angle_gamma   90.05872575
_symmetry_Int_Tables_number   1
_chemical_formula_structural   HoEr(Lu5Os2)2
_chemical_formula_sum   'Ho1 Er1 Lu10 Os4'
_cell_volume   400.64349507
_cell_formula_units_Z   1
loop_
 _symmetry_equiv_pos_site_id
 _symmetry_equiv_pos_as_xyz
  1  'x, y, z'
loop_
 _atom_site_type_symbol
 _atom_site_label
 _atom_site_symmetry_multiplicity
 _atom_site_fract_x
 _atom_site_fract_y
 _atom_site_fract_z
 _atom_site_occupancy
  Ho  Ho0  1  0.373195  0.960902  0.750000  1
  Er  Er1  1  0.126568  0.460736  0.750000  1
  Lu  Lu2  1  0.334857  0.673189  0.062615  1
  Lu  Lu3  1  0.164022  0.175499  0.437176  1
  Lu  Lu4  1  0.665545  0.326460  0.561321  1
  Lu  Lu5  1  0.836279  0.825501  0.938643  1
  Lu  Lu6  1  0.665545  0.326460  0.938679  1
  Lu  Lu7  1  0.836279  0.825501  0.561357  1
  Lu  Lu8  1  0.334857  0.673189  0.437385  1
  Lu  Lu9  1  0.164022  0.175499  0.062824  1
  Lu  Lu10  1  0.872773  0.540019  0.250000  1
  Lu  Lu11  1  0.626477  0.038768  0.250000  1
  Os  Os12  1  0.038229  0.881988  0.250000  1
  Os  Os13  1  0.462612  0.381461  0.250000  1
  Os  Os14  1  0.958206  0.117931  0.750000  1
  Os  Os15  1  0.540534  0.616893  0.750000  1
