# generated using pymatgen
data_K2Dy3Ho3F20
_symmetry_space_group_name_H-M   'P 1'
_cell_length_a   8.23220687
_cell_length_b   8.23441328
_cell_length_c   8.23660130
_cell_angle_alpha   59.97347403
_cell_angle_beta   60.00006916
_cell_angle_gamma   60.02644412
_symmetry_Int_Tables_number   1
_chemical_formula_structural   K2Dy3Ho3F20
_chemical_formula_sum   'K2 Dy3 Ho3 F20'
_cell_volume   394.80419127
_cell_formula_units_Z   1
loop_
 _symmetry_equiv_pos_site_id
 _symmetry_equiv_pos_as_xyz
  1  'x, y, z'
loop_
 _atom_site_type_symbol
 _atom_site_label
 _atom_site_symmetry_multiplicity
 _atom_site_fract_x
 _atom_site_fract_y
 _atom_site_fract_z
 _atom_site_occupancy
  K  K0  1  0.250031  0.249969  0.250031  1
  K  K1  1  0.750031  0.749969  0.750031  1
  Dy  Dy2  1  0.759603  0.240397  0.240437  1
  Dy  Dy3  1  0.240437  0.759563  0.759603  1
  Dy  Dy4  1  0.240442  0.759558  0.240442  1
  Ho  Ho5  1  0.759401  0.240599  0.759401  1
  Ho  Ho6  1  0.240642  0.240584  0.759416  1
  Ho  Ho7  1  0.759416  0.759358  0.240642  1
  F  F8  1  0.830107  0.499997  0.500003  1
  F  F9  1  0.169543  0.498975  0.501025  1
  F  F10  1  0.501025  0.830457  0.169543  1
  F  F11  1  0.500003  0.169893  0.830107  1
  F  F12  1  0.501033  0.830489  0.498982  1
  F  F13  1  0.169511  0.498967  0.830504  1
  F  F14  1  0.498982  0.169496  0.501033  1
  F  F15  1  0.830504  0.501018  0.169511  1
  F  F16  1  0.501027  0.498973  0.830531  1
  F  F17  1  0.500002  0.499998  0.169113  1
  F  F18  1  0.169113  0.830887  0.500002  1
  F  F19  1  0.830531  0.169469  0.501027  1
  F  F20  1  0.112173  0.112250  0.110991  1
  F  F21  1  0.887495  0.888729  0.888651  1
  F  F22  1  0.111271  0.112505  0.664876  1
  F  F23  1  0.110991  0.664587  0.112173  1
  F  F24  1  0.887750  0.887827  0.335413  1
  F  F25  1  0.888651  0.335124  0.887495  1
  F  F26  1  0.664876  0.111349  0.111271  1
  F  F27  1  0.335413  0.889009  0.887750  1
