# generated using pymatgen
data_Er8Zr12Si15Hg
_symmetry_space_group_name_H-M   'P 1'
_cell_length_a   7.14893852
_cell_length_b   7.29366745
_cell_length_c   13.98795578
_cell_angle_alpha   89.92278600
_cell_angle_beta   89.45610019
_cell_angle_gamma   90.16052227
_symmetry_Int_Tables_number   1
_chemical_formula_structural   Er8Zr12Si15Hg
_chemical_formula_sum   'Er8 Zr12 Si15 Hg1'
_cell_volume   729.32329955
_cell_formula_units_Z   1
loop_
 _symmetry_equiv_pos_site_id
 _symmetry_equiv_pos_as_xyz
  1  'x, y, z'
loop_
 _atom_site_type_symbol
 _atom_site_label
 _atom_site_symmetry_multiplicity
 _atom_site_fract_x
 _atom_site_fract_y
 _atom_site_fract_z
 _atom_site_occupancy
  Er  Er0  1  0.014128  0.176983  0.096594  1
  Er  Er1  1  0.985850  0.824438  0.904503  1
  Er  Er2  1  0.488005  0.676602  0.904649  1
  Er  Er3  1  0.987777  0.832939  0.598232  1
  Er  Er4  1  0.512393  0.323140  0.096384  1
  Er  Er5  1  0.005918  0.171352  0.398268  1
  Er  Er6  1  0.513762  0.321558  0.399666  1
  Er  Er7  1  0.498201  0.683409  0.600221  1
  Zr  Zr8  1  0.159795  0.500609  0.756711  1
  Zr  Zr9  1  0.840888  0.500486  0.248386  1
  Zr  Zr10  1  0.340319  0.998658  0.249009  1
  Zr  Zr11  1  0.659735  0.001040  0.751146  1
  Zr  Zr12  1  0.348098  0.166435  0.630928  1
  Zr  Zr13  1  0.664907  0.823852  0.372573  1
  Zr  Zr14  1  0.162795  0.681408  0.370416  1
  Zr  Zr15  1  0.669154  0.822120  0.123719  1
  Zr  Zr16  1  0.821305  0.323710  0.625550  1
  Zr  Zr17  1  0.329496  0.175666  0.875974  1
  Zr  Zr18  1  0.830516  0.323017  0.876491  1
  Zr  Zr19  1  0.168439  0.676676  0.124220  1
  Si  Si20  1  0.034931  0.119257  0.750736  1
  Si  Si21  1  0.962866  0.885863  0.246827  1
  Si  Si22  1  0.463699  0.614469  0.248691  1
  Si  Si23  1  0.535260  0.387103  0.752928  1
  Si  Si24  1  0.283778  0.868217  0.752500  1
  Si  Si25  1  0.713276  0.128264  0.247626  1
  Si  Si26  1  0.213679  0.369681  0.248640  1
  Si  Si27  1  0.789585  0.630220  0.751390  1
  Si  Si28  1  0.831194  0.535530  0.458412  1
  Si  Si29  1  0.338639  0.966225  0.459859  1
  Si  Si30  1  0.842601  0.530591  0.040804  1
  Si  Si31  1  0.662054  0.034593  0.536634  1
  Si  Si32  1  0.156291  0.467594  0.960750  1
  Si  Si33  1  0.654414  0.031518  0.959605  1
  Si  Si34  1  0.344793  0.968280  0.041041  1
  Hg  Hg35  1  0.171456  0.458499  0.539919  1
