# generated using pymatgen
data_La2Tb4BiSbO14
_symmetry_space_group_name_H-M   'P 1'
_cell_length_a   6.61815483
_cell_length_b   6.61815567
_cell_length_c   7.75399503
_cell_angle_alpha   89.53752378
_cell_angle_beta   90.46247550
_cell_angle_gamma   108.91862112
_symmetry_Int_Tables_number   1
_chemical_formula_structural   La2Tb4BiSbO14
_chemical_formula_sum   'La2 Tb4 Bi1 Sb1 O14'
_cell_volume   321.26249082
_cell_formula_units_Z   1
loop_
 _symmetry_equiv_pos_site_id
 _symmetry_equiv_pos_as_xyz
  1  'x, y, z'
loop_
 _atom_site_type_symbol
 _atom_site_label
 _atom_site_symmetry_multiplicity
 _atom_site_fract_x
 _atom_site_fract_y
 _atom_site_fract_z
 _atom_site_occupancy
  La  La0  1  0.500000  0.500000  0.500000  1
  La  La1  1  0.500000  0.500000  0.000000  1
  Tb  Tb2  1  0.531327  0.001656  0.753664  1
  Tb  Tb3  1  0.001656  0.531327  0.246336  1
  Tb  Tb4  1  0.468673  0.998344  0.246336  1
  Tb  Tb5  1  0.998344  0.468673  0.753664  1
  Bi  Bi6  1  0.000000  0.000000  0.500000  1
  Sb  Sb7  1  0.000000  0.000000  0.000000  1
  O  O8  1  0.665500  0.927098  0.474535  1
  O  O9  1  0.927098  0.665500  0.525465  1
  O  O10  1  0.683845  0.933758  0.033944  1
  O  O11  1  0.933758  0.683845  0.966056  1
  O  O12  1  0.334500  0.072902  0.525465  1
  O  O13  1  0.072902  0.334500  0.474535  1
  O  O14  1  0.316155  0.066242  0.966056  1
  O  O15  1  0.066242  0.316155  0.033944  1
  O  O16  1  0.924907  0.075093  0.758640  1
  O  O17  1  0.075093  0.924907  0.241360  1
  O  O18  1  0.362926  0.637074  0.751880  1
  O  O19  1  0.637074  0.362926  0.248120  1
  O  O20  1  0.642193  0.357807  0.752918  1
  O  O21  1  0.357807  0.642193  0.247082  1
