# generated using pymatgen
data_Tm8CdInRh2
_symmetry_space_group_name_H-M   'P 1'
_cell_length_a   9.54508351
_cell_length_b   9.52663164
_cell_length_c   9.52663123
_cell_angle_alpha   59.78469454
_cell_angle_beta   59.93590562
_cell_angle_gamma   59.93590789
_symmetry_Int_Tables_number   1
_chemical_formula_structural   Tm8CdInRh2
_chemical_formula_sum   'Tm16 Cd2 In2 Rh4'
_cell_volume   610.95856831
_cell_formula_units_Z   2
loop_
 _symmetry_equiv_pos_site_id
 _symmetry_equiv_pos_as_xyz
  1  'x, y, z'
loop_
 _atom_site_type_symbol
 _atom_site_label
 _atom_site_symmetry_multiplicity
 _atom_site_fract_x
 _atom_site_fract_y
 _atom_site_fract_z
 _atom_site_occupancy
  Tm  Tm0  1  0.062102  0.063947  0.437589  1
  Tm  Tm1  1  0.436361  0.063947  0.437589  1
  Tm  Tm2  1  0.062102  0.437589  0.063947  1
  Tm  Tm3  1  0.049124  0.650127  0.650127  1
  Tm  Tm4  1  0.436361  0.437589  0.063947  1
  Tm  Tm5  1  0.649984  0.050581  0.649452  1
  Tm  Tm6  1  0.189321  0.811319  0.189956  1
  Tm  Tm7  1  0.189321  0.189956  0.811319  1
  Tm  Tm8  1  0.809405  0.811319  0.189956  1
  Tm  Tm9  1  0.437078  0.062922  0.062922  1
  Tm  Tm10  1  0.811776  0.188224  0.188224  1
  Tm  Tm11  1  0.063381  0.436619  0.436619  1
  Tm  Tm12  1  0.809405  0.189956  0.811319  1
  Tm  Tm13  1  0.190939  0.809061  0.809061  1
  Tm  Tm14  1  0.649984  0.649452  0.050581  1
  Tm  Tm15  1  0.650623  0.650127  0.650127  1
  Cd  Cd16  1  0.417513  0.417032  0.417032  1
  Cd  Cd17  1  0.748424  0.417032  0.417032  1
  In  In18  1  0.418171  0.746827  0.416829  1
  In  In19  1  0.418171  0.416829  0.746827  1
  Rh  Rh20  1  0.857542  0.857193  0.427722  1
  Rh  Rh21  1  0.857382  0.857315  0.857315  1
  Rh  Rh22  1  0.427989  0.857315  0.857315  1
  Rh  Rh23  1  0.857542  0.427722  0.857193  1
