# generated using pymatgen
data_PrY5Cr2(Co4P3)4
_symmetry_space_group_name_H-M   'P 1'
_cell_length_a   3.69595100
_cell_length_b   10.53239600
_cell_length_c   12.19936000
_cell_angle_alpha   90.00000000
_cell_angle_beta   90.00000000
_cell_angle_gamma   90.00000000
_symmetry_Int_Tables_number   1
_chemical_formula_structural   PrY5Cr2(Co4P3)4
_chemical_formula_sum   'Pr1 Y5 Cr2 Co16 P12'
_cell_volume   474.88716483
_cell_formula_units_Z   1
loop_
 _symmetry_equiv_pos_site_id
 _symmetry_equiv_pos_as_xyz
  1  'x, y, z'
loop_
 _atom_site_type_symbol
 _atom_site_label
 _atom_site_symmetry_multiplicity
 _atom_site_fract_x
 _atom_site_fract_y
 _atom_site_fract_z
 _atom_site_occupancy
  Pr  Pr0  1  0.500000  0.000000  0.477568  1
  Y  Y1  1  0.000000  0.500000  0.521953  1
  Y  Y2  1  0.500000  0.817478  0.203562  1
  Y  Y3  1  0.500000  0.182522  0.203562  1
  Y  Y4  1  0.000000  0.681980  0.795707  1
  Y  Y5  1  0.000000  0.318020  0.795707  1
  Cr  Cr6  1  0.500000  0.500000  0.153671  1
  Cr  Cr7  1  0.000000  0.000000  0.847572  1
  Co  Co8  1  0.500000  0.500000  0.702678  1
  Co  Co9  1  0.000000  0.000000  0.295619  1
  Co  Co10  1  0.000000  0.500000  0.986537  1
  Co  Co11  1  0.500000  0.000000  0.013079  1
  Co  Co12  1  0.500000  0.332791  0.992278  1
  Co  Co13  1  0.500000  0.667209  0.992278  1
  Co  Co14  1  0.000000  0.167695  0.007930  1
  Co  Co15  1  0.000000  0.832305  0.007930  1
  Co  Co16  1  0.500000  0.299001  0.429768  1
  Co  Co17  1  0.500000  0.700999  0.429768  1
  Co  Co18  1  0.000000  0.207272  0.570184  1
  Co  Co19  1  0.000000  0.792728  0.570184  1
  Co  Co20  1  0.500000  0.879099  0.711066  1
  Co  Co21  1  0.500000  0.120901  0.711066  1
  Co  Co22  1  0.000000  0.619516  0.289448  1
  Co  Co23  1  0.000000  0.380484  0.289448  1
  P  P24  1  0.500000  0.500000  0.882019  1
  P  P25  1  0.000000  0.000000  0.117404  1
  P  P26  1  0.500000  0.500000  0.341763  1
  P  P27  1  0.000000  0.000000  0.662352  1
  P  P28  1  0.500000  0.311921  0.616153  1
  P  P29  1  0.500000  0.688079  0.616153  1
  P  P30  1  0.000000  0.192850  0.382569  1
  P  P31  1  0.000000  0.807150  0.382569  1
  P  P32  1  0.500000  0.847798  0.893148  1
  P  P33  1  0.500000  0.152202  0.893148  1
  P  P34  1  0.000000  0.651385  0.107079  1
  P  P35  1  0.000000  0.348615  0.107079  1
