# generated using pymatgen
data_Th8Fe(Si4Pd)3
_symmetry_space_group_name_H-M   'P 1'
_cell_length_a   8.22789200
_cell_length_b   8.22789331
_cell_length_c   8.47996300
_cell_angle_alpha   90.00000000
_cell_angle_beta   90.00000000
_cell_angle_gamma   119.99999475
_symmetry_Int_Tables_number   1
_chemical_formula_structural   Th8Fe(Si4Pd)3
_chemical_formula_sum   'Th8 Fe1 Si12 Pd3'
_cell_volume   497.16648687
_cell_formula_units_Z   1
loop_
 _symmetry_equiv_pos_site_id
 _symmetry_equiv_pos_as_xyz
  1  'x, y, z'
loop_
 _atom_site_type_symbol
 _atom_site_label
 _atom_site_symmetry_multiplicity
 _atom_site_fract_x
 _atom_site_fract_y
 _atom_site_fract_z
 _atom_site_occupancy
  Th  Th0  1  0.503747  0.496253  0.755976  1
  Th  Th1  1  0.503986  0.496014  0.243997  1
  Th  Th2  1  0.992505  0.496253  0.755976  1
  Th  Th3  1  0.992029  0.496014  0.243997  1
  Th  Th4  1  0.503747  0.007495  0.755976  1
  Th  Th5  1  0.503986  0.007971  0.243997  1
  Th  Th6  1  0.000000  0.000000  0.750930  1
  Th  Th7  1  0.000000  0.000000  0.249103  1
  Fe  Fe8  1  0.666667  0.333333  0.999868  1
  Si  Si9  1  0.827826  0.172174  0.999774  1
  Si  Si10  1  0.163849  0.836151  0.000190  1
  Si  Si11  1  0.344349  0.172174  0.999774  1
  Si  Si12  1  0.166215  0.833785  0.499801  1
  Si  Si13  1  0.672301  0.836151  0.000190  1
  Si  Si14  1  0.834802  0.165198  0.500176  1
  Si  Si15  1  0.827826  0.655651  0.999774  1
  Si  Si16  1  0.667568  0.833785  0.499801  1
  Si  Si17  1  0.163849  0.327699  0.000190  1
  Si  Si18  1  0.330398  0.165198  0.500176  1
  Si  Si19  1  0.166215  0.332432  0.499801  1
  Si  Si20  1  0.834802  0.669602  0.500176  1
  Pd  Pd21  1  0.333333  0.666667  0.000290  1
  Pd  Pd22  1  0.333333  0.666667  0.499728  1
  Pd  Pd23  1  0.666667  0.333333  0.500338  1
