# generated using pymatgen
data_Ta4Nb11Co8ReN4
_symmetry_space_group_name_H-M   'P 1'
_cell_length_a   8.24213498
_cell_length_b   8.24213579
_cell_length_c   8.23269525
_cell_angle_alpha   59.50486908
_cell_angle_beta   59.50487763
_cell_angle_gamma   59.50265102
_symmetry_Int_Tables_number   1
_chemical_formula_structural   Ta4Nb11Co8ReN4
_chemical_formula_sum   'Ta4 Nb11 Co8 Re1 N4'
_cell_volume   391.00394000
_cell_formula_units_Z   1
loop_
 _symmetry_equiv_pos_site_id
 _symmetry_equiv_pos_as_xyz
  1  'x, y, z'
loop_
 _atom_site_type_symbol
 _atom_site_label
 _atom_site_symmetry_multiplicity
 _atom_site_fract_x
 _atom_site_fract_y
 _atom_site_fract_z
 _atom_site_occupancy
  Ta  Ta0  1  0.125264  0.625760  0.624750  1
  Ta  Ta1  1  0.625760  0.125264  0.624750  1
  Ta  Ta2  1  0.624666  0.624666  0.124747  1
  Ta  Ta3  1  0.807806  0.807806  0.194833  1
  Nb  Nb4  1  0.185262  0.185262  0.814244  1
  Nb  Nb5  1  0.808169  0.194252  0.808283  1
  Nb  Nb6  1  0.185009  0.814837  0.184714  1
  Nb  Nb7  1  0.194252  0.808169  0.808283  1
  Nb  Nb8  1  0.814837  0.185009  0.184714  1
  Nb  Nb9  1  0.441048  0.441048  0.056344  1
  Nb  Nb10  1  0.065479  0.065479  0.434960  1
  Nb  Nb11  1  0.441823  0.055276  0.442966  1
  Nb  Nb12  1  0.064608  0.435310  0.064781  1
  Nb  Nb13  1  0.055276  0.441823  0.442966  1
  Nb  Nb14  1  0.435310  0.064608  0.064781  1
  Co  Co15  1  0.733324  0.425262  0.422935  1
  Co  Co16  1  0.425262  0.733324  0.422935  1
  Co  Co17  1  0.424214  0.424214  0.732793  1
  Co  Co18  1  0.420081  0.420081  0.420330  1
  Co  Co19  1  0.517150  0.826239  0.825432  1
  Co  Co20  1  0.826239  0.517150  0.825432  1
  Co  Co21  1  0.826158  0.826158  0.515612  1
  Co  Co22  1  0.829936  0.829936  0.832133  1
  Re  Re23  1  0.625093  0.625093  0.624276  1
  N  N24  1  0.626184  0.122104  0.125920  1
  N  N25  1  0.122104  0.626184  0.125920  1
  N  N26  1  0.124834  0.124834  0.625231  1
  N  N27  1  0.124851  0.124851  0.124939  1
