# generated using pymatgen
data_Y2Er2Al4Pd3Rh
_symmetry_space_group_name_H-M   'P 1'
_cell_length_a   4.41719300
_cell_length_b   6.82837362
_cell_length_c   7.83528297
_cell_angle_alpha   89.81913536
_cell_angle_beta   90.00000000
_cell_angle_gamma   90.00000000
_symmetry_Int_Tables_number   1
_chemical_formula_structural   Y2Er2Al4Pd3Rh
_chemical_formula_sum   'Y2 Er2 Al4 Pd3 Rh1'
_cell_volume   236.32854044
_cell_formula_units_Z   1
loop_
 _symmetry_equiv_pos_site_id
 _symmetry_equiv_pos_as_xyz
  1  'x, y, z'
loop_
 _atom_site_type_symbol
 _atom_site_label
 _atom_site_symmetry_multiplicity
 _atom_site_fract_x
 _atom_site_fract_y
 _atom_site_fract_z
 _atom_site_occupancy
  Y  Y0  1  0.250000  0.036431  0.323414  1
  Y  Y1  1  0.250000  0.534303  0.179220  1
  Er  Er2  1  0.750000  0.972576  0.679432  1
  Er  Er3  1  0.750000  0.462687  0.817403  1
  Al  Al4  1  0.250000  0.144192  0.937492  1
  Al  Al5  1  0.250000  0.635461  0.561940  1
  Al  Al6  1  0.750000  0.858067  0.059245  1
  Al  Al7  1  0.750000  0.357198  0.441854  1
  Pd  Pd8  1  0.250000  0.771430  0.877152  1
  Pd  Pd9  1  0.750000  0.731498  0.380728  1
  Pd  Pd10  1  0.750000  0.231551  0.120518  1
  Rh  Rh11  1  0.250000  0.264606  0.621603  1
