# generated using pymatgen
data_Ce3Ho16ZrIr12
_symmetry_space_group_name_H-M   'P 1'
_cell_length_a   10.94083356
_cell_length_b   10.86848945
_cell_length_c   6.27658731
_cell_angle_alpha   89.81557445
_cell_angle_beta   90.09531109
_cell_angle_gamma   90.18125964
_symmetry_Int_Tables_number   1
_chemical_formula_structural   Ce3Ho16ZrIr12
_chemical_formula_sum   'Ce3 Ho16 Zr1 Ir12'
_cell_volume   746.34247199
_cell_formula_units_Z   1
loop_
 _symmetry_equiv_pos_site_id
 _symmetry_equiv_pos_as_xyz
  1  'x, y, z'
loop_
 _atom_site_type_symbol
 _atom_site_label
 _atom_site_symmetry_multiplicity
 _atom_site_fract_x
 _atom_site_fract_y
 _atom_site_fract_z
 _atom_site_occupancy
  Ce  Ce0  1  0.291579  0.912602  0.877769  1
  Ce  Ce1  1  0.705968  0.092721  0.877702  1
  Ce  Ce2  1  0.707709  0.907177  0.380893  1
  Ho  Ho3  1  0.587955  0.786520  0.880117  1
  Ho  Ho4  1  0.583804  0.213703  0.377481  1
  Ho  Ho5  1  0.409915  0.789376  0.379613  1
  Ho  Ho6  1  0.406838  0.212896  0.876226  1
  Ho  Ho7  1  0.206945  0.411880  0.620787  1
  Ho  Ho8  1  0.207208  0.588041  0.123332  1
  Ho  Ho9  1  0.793494  0.412301  0.123611  1
  Ho  Ho10  1  0.792759  0.586815  0.623570  1
  Ho  Ho11  1  0.913418  0.708655  0.119101  1
  Ho  Ho12  1  0.912417  0.291401  0.622278  1
  Ho  Ho13  1  0.087194  0.708877  0.615285  1
  Ho  Ho14  1  0.090902  0.287290  0.123962  1
  Ho  Ho15  1  0.003904  0.003066  0.488430  1
  Ho  Ho16  1  0.000155  0.999975  0.990242  1
  Ho  Ho17  1  0.499126  0.498725  0.013408  1
  Ho  Ho18  1  0.498033  0.500071  0.512961  1
  Zr  Zr19  1  0.298564  0.089896  0.384328  1
  Ir  Ir20  1  0.843517  0.152986  0.240969  1
  Ir  Ir21  1  0.846950  0.844994  0.739586  1
  Ir  Ir22  1  0.156979  0.153327  0.730429  1
  Ir  Ir23  1  0.160809  0.855247  0.246330  1
  Ir  Ir24  1  0.652485  0.344237  0.759507  1
  Ir  Ir25  1  0.653157  0.654055  0.259046  1
  Ir  Ir26  1  0.346267  0.337213  0.262941  1
  Ir  Ir27  1  0.346439  0.654500  0.758687  1
  Ir  Ir28  1  0.497882  0.001271  0.122872  1
  Ir  Ir29  1  0.495988  0.002202  0.619494  1
  Ir  Ir30  1  0.001031  0.499415  0.875469  1
  Ir  Ir31  1  0.000609  0.498565  0.373576  1
