# generated using pymatgen
data_Tm3Lu5(TcB6)4
_symmetry_space_group_name_H-M   'P 1'
_cell_length_a   3.62471200
_cell_length_b   9.06562100
_cell_length_c   11.42650400
_cell_angle_alpha   89.99980016
_cell_angle_beta   90.00000000
_cell_angle_gamma   90.00000000
_symmetry_Int_Tables_number   1
_chemical_formula_structural   Tm3Lu5(TcB6)4
_chemical_formula_sum   'Tm3 Lu5 Tc4 B24'
_cell_volume   375.47795207
_cell_formula_units_Z   1
loop_
 _symmetry_equiv_pos_site_id
 _symmetry_equiv_pos_as_xyz
  1  'x, y, z'
loop_
 _atom_site_type_symbol
 _atom_site_label
 _atom_site_symmetry_multiplicity
 _atom_site_fract_x
 _atom_site_fract_y
 _atom_site_fract_z
 _atom_site_occupancy
  Tm  Tm0  1  0.000000  0.323323  0.413997  1
  Tm  Tm1  1  0.000000  0.676631  0.586088  1
  Tm  Tm2  1  0.000000  0.823377  0.085963  1
  Lu  Lu3  1  0.000000  0.176494  0.913994  1
  Lu  Lu4  1  0.000000  0.943284  0.369708  1
  Lu  Lu5  1  0.000000  0.056810  0.630347  1
  Lu  Lu6  1  0.000000  0.443147  0.130059  1
  Lu  Lu7  1  0.000000  0.556746  0.869849  1
  Tc  Tc8  1  0.000000  0.639323  0.320150  1
  Tc  Tc9  1  0.000000  0.360479  0.680115  1
  Tc  Tc10  1  0.000000  0.139337  0.179487  1
  Tc  Tc11  1  0.000000  0.860970  0.820348  1
  B  B12  1  0.500000  0.553323  0.433349  1
  B  B13  1  0.500000  0.446536  0.566784  1
  B  B14  1  0.500000  0.053498  0.066301  1
  B  B15  1  0.500000  0.946949  0.933400  1
  B  B16  1  0.500000  0.750704  0.419315  1
  B  B17  1  0.500000  0.249277  0.580851  1
  B  B18  1  0.500000  0.250611  0.080175  1
  B  B19  1  0.500000  0.749438  0.919325  1
  B  B20  1  0.500000  0.793380  0.264838  1
  B  B21  1  0.500000  0.206487  0.735471  1
  B  B22  1  0.500000  0.293337  0.234864  1
  B  B23  1  0.500000  0.706700  0.764970  1
  B  B24  1  0.500000  0.630636  0.184403  1
  B  B25  1  0.500000  0.369058  0.815842  1
  B  B26  1  0.500000  0.130723  0.315405  1
  B  B27  1  0.500000  0.869462  0.684583  1
  B  B28  1  0.500000  0.981426  0.211994  1
  B  B29  1  0.500000  0.018997  0.788094  1
  B  B30  1  0.500000  0.481290  0.287745  1
  B  B31  1  0.500000  0.518561  0.712304  1
  B  B32  1  0.500000  0.599038  0.027521  1
  B  B33  1  0.500000  0.400555  0.972312  1
  B  B34  1  0.500000  0.099058  0.472475  1
  B  B35  1  0.500000  0.901038  0.527574  1
