# generated using pymatgen
data_Dy2Er6TcOsBr8
_symmetry_space_group_name_H-M   'P 1'
_cell_length_a   8.94735653
_cell_length_b   8.91644092
_cell_length_c   6.52994882
_cell_angle_alpha   89.65336529
_cell_angle_beta   89.37725312
_cell_angle_gamma   89.40356669
_symmetry_Int_Tables_number   1
_chemical_formula_structural   Dy2Er6TcOsBr8
_chemical_formula_sum   'Dy2 Er6 Tc1 Os1 Br8'
_cell_volume   520.88184151
_cell_formula_units_Z   1
loop_
 _symmetry_equiv_pos_site_id
 _symmetry_equiv_pos_as_xyz
  1  'x, y, z'
loop_
 _atom_site_type_symbol
 _atom_site_label
 _atom_site_symmetry_multiplicity
 _atom_site_fract_x
 _atom_site_fract_y
 _atom_site_fract_z
 _atom_site_occupancy
  Dy  Dy0  1  0.248849  0.900625  0.010263  1
  Dy  Dy1  1  0.750611  0.099485  0.990826  1
  Er  Er2  1  0.098120  0.752735  0.488043  1
  Er  Er3  1  0.901789  0.247770  0.510964  1
  Er  Er4  1  0.754672  0.903247  0.507599  1
  Er  Er5  1  0.245397  0.097230  0.491398  1
  Er  Er6  1  0.096242  0.246720  0.992395  1
  Er  Er7  1  0.903334  0.753222  0.008713  1
  Tc  Tc8  1  0.994802  0.005484  0.250200  1
  Os  Os9  1  0.005026  0.994740  0.749345  1
  Br  Br10  1  0.419501  0.817629  0.410966  1
  Br  Br11  1  0.580357  0.182036  0.590905  1
  Br  Br12  1  0.181506  0.579316  0.091627  1
  Br  Br13  1  0.818902  0.420620  0.906485  1
  Br  Br14  1  0.413092  0.192020  0.093586  1
  Br  Br15  1  0.587318  0.807569  0.905567  1
  Br  Br16  1  0.810118  0.584871  0.406328  1
  Br  Br17  1  0.190364  0.414680  0.594790  1
