# generated using pymatgen
data_LiHo2Pt5
_symmetry_space_group_name_H-M   'P 1'
_cell_length_a   5.78158065
_cell_length_b   5.78158008
_cell_length_c   5.78158065
_cell_angle_alpha   119.00343001
_cell_angle_beta   91.73496007
_cell_angle_gamma   119.00343001
_symmetry_Int_Tables_number   1
_chemical_formula_structural   LiHo2Pt5
_chemical_formula_sum   'Li1 Ho2 Pt5'
_cell_volume   138.64441063
_cell_formula_units_Z   1
loop_
 _symmetry_equiv_pos_site_id
 _symmetry_equiv_pos_as_xyz
  1  'x, y, z'
loop_
 _atom_site_type_symbol
 _atom_site_label
 _atom_site_symmetry_multiplicity
 _atom_site_fract_x
 _atom_site_fract_y
 _atom_site_fract_z
 _atom_site_occupancy
  Li  Li0  1  0.499999  0.000000  0.499999  1
  Ho  Ho1  1  0.499999  0.499999  0.000000  1
  Ho  Ho2  1  0.000000  0.499999  0.499999  1
  Pt  Pt3  1  0.000000  0.000000  0.000000  1
  Pt  Pt4  1  0.499999  0.000000  0.000000  1
  Pt  Pt5  1  0.000000  0.499999  0.000000  1
  Pt  Pt6  1  0.000000  0.000000  0.499999  1
  Pt  Pt7  1  0.499999  0.499999  0.499999  1
