# generated using pymatgen
data_Pr3Gd(NCl3)2
_symmetry_space_group_name_H-M   'P 1'
_cell_length_a   6.30650700
_cell_length_b   6.92922352
_cell_length_c   13.52806971
_cell_angle_alpha   89.26344378
_cell_angle_beta   90.00000000
_cell_angle_gamma   90.00000000
_symmetry_Int_Tables_number   1
_chemical_formula_structural   Pr3Gd(NCl3)2
_chemical_formula_sum   'Pr6 Gd2 N4 Cl12'
_cell_volume   591.11693122
_cell_formula_units_Z   2
loop_
 _symmetry_equiv_pos_site_id
 _symmetry_equiv_pos_as_xyz
  1  'x, y, z'
loop_
 _atom_site_type_symbol
 _atom_site_label
 _atom_site_symmetry_multiplicity
 _atom_site_fract_x
 _atom_site_fract_y
 _atom_site_fract_z
 _atom_site_occupancy
  Pr  Pr0  1  0.994135  0.327777  0.404695  1
  Pr  Pr1  1  0.494135  0.172223  0.095305  1
  Pr  Pr2  1  0.505835  0.323044  0.591401  1
  Pr  Pr3  1  0.005835  0.176956  0.908599  1
  Pr  Pr4  1  0.005122  0.680356  0.589747  1
  Pr  Pr5  1  0.505122  0.819644  0.910253  1
  Gd  Gd6  1  0.492484  0.668705  0.407685  1
  Gd  Gd7  1  0.992484  0.831295  0.092315  1
  N  N8  1  0.746225  0.512778  0.496788  1
  N  N9  1  0.246225  0.987222  0.003212  1
  N  N10  1  0.252913  0.496585  0.497000  1
  N  N11  1  0.752913  0.003415  0.003000  1
  Cl  Cl12  1  0.103786  0.131569  0.217661  1
  Cl  Cl13  1  0.603786  0.368431  0.282339  1
  Cl  Cl14  1  0.390412  0.134144  0.782217  1
  Cl  Cl15  1  0.890412  0.365856  0.717783  1
  Cl  Cl16  1  0.753241  0.500416  0.004332  1
  Cl  Cl17  1  0.253241  0.999584  0.495668  1
  Cl  Cl18  1  0.249577  0.500123  0.002344  1
  Cl  Cl19  1  0.749577  0.999877  0.497656  1
  Cl  Cl20  1  0.117540  0.637539  0.275840  1
  Cl  Cl21  1  0.617540  0.862461  0.224160  1
  Cl  Cl22  1  0.388728  0.633990  0.719461  1
  Cl  Cl23  1  0.888728  0.866010  0.780539  1
