# generated using pymatgen
data_CaNdAlIr2
_symmetry_space_group_name_H-M   'P 1'
_cell_length_a   5.74475535
_cell_length_b   5.74475531
_cell_length_c   5.74475498
_cell_angle_alpha   138.89296192
_cell_angle_beta   118.74064703
_cell_angle_gamma   76.44796648
_symmetry_Int_Tables_number   1
_chemical_formula_structural   CaNdAlIr2
_chemical_formula_sum   'Ca1 Nd1 Al1 Ir2'
_cell_volume   106.56557640
_cell_formula_units_Z   1
loop_
 _symmetry_equiv_pos_site_id
 _symmetry_equiv_pos_as_xyz
  1  'x, y, z'
loop_
 _atom_site_type_symbol
 _atom_site_label
 _atom_site_symmetry_multiplicity
 _atom_site_fract_x
 _atom_site_fract_y
 _atom_site_fract_z
 _atom_site_occupancy
  Ca  Ca0  1  0.295283  0.795282  0.499999  1
  Nd  Nd1  1  0.701544  0.201544  0.500000  1
  Al  Al2  1  0.001073  0.001073  0.000000  1
  Ir  Ir3  1  0.732965  0.501050  0.231915  1
  Ir  Ir4  1  0.269136  0.501049  0.768085  1
