# generated using pymatgen
data_HoTi4Re19Tc5
_symmetry_space_group_name_H-M   'P 1'
_cell_length_a   8.40338279
_cell_length_b   8.40010267
_cell_length_c   8.38768700
_cell_angle_alpha   109.45169402
_cell_angle_beta   109.46529360
_cell_angle_gamma   109.53123062
_symmetry_Int_Tables_number   1
_chemical_formula_structural   HoTi4Re19Tc5
_chemical_formula_sum   'Ho1 Ti4 Re19 Tc5'
_cell_volume   455.58931936
_cell_formula_units_Z   1
loop_
 _symmetry_equiv_pos_site_id
 _symmetry_equiv_pos_as_xyz
  1  'x, y, z'
loop_
 _atom_site_type_symbol
 _atom_site_label
 _atom_site_symmetry_multiplicity
 _atom_site_fract_x
 _atom_site_fract_y
 _atom_site_fract_z
 _atom_site_occupancy
  Ho  Ho0  1  0.999862  0.999899  0.000313  1
  Ti  Ti1  1  0.627132  0.999937  0.000248  1
  Ti  Ti2  1  0.998367  0.626465  0.998790  1
  Ti  Ti3  1  0.999676  0.999897  0.628340  1
  Ti  Ti4  1  0.371789  0.371574  0.372236  1
  Re  Re5  1  0.318793  0.719804  0.317755  1
  Re  Re6  1  0.319373  0.318750  0.720310  1
  Re  Re7  1  0.000401  0.680779  0.400700  1
  Re  Re8  1  0.680684  0.000670  0.400527  1
  Re  Re9  1  0.598519  0.598406  0.279683  1
  Re  Re10  1  0.280808  0.600372  0.599331  1
  Re  Re11  1  0.600179  0.280826  0.598960  1
  Re  Re12  1  0.378377  0.195318  0.999916  1
  Re  Re13  1  0.182449  0.805434  0.804565  1
  Re  Re14  1  0.377127  0.999800  0.194964  1
  Re  Re15  1  0.195073  0.378408  0.999765  1
  Re  Re16  1  0.000366  0.377726  0.195185  1
  Re  Re17  1  0.806000  0.183503  0.805303  1
  Re  Re18  1  0.805716  0.805887  0.184440  1
  Re  Re19  1  0.000659  0.194802  0.379978  1
  Re  Re20  1  0.194413  0.999918  0.379307  1
  Re  Re21  1  0.621653  0.621617  0.816055  1
  Re  Re22  1  0.815242  0.620981  0.620314  1
  Re  Re23  1  0.622142  0.816163  0.621475  1
  Tc  Tc24  1  0.400495  0.681595  0.999105  1
  Tc  Tc25  1  0.719308  0.317860  0.317198  1
  Tc  Tc26  1  0.402389  0.000723  0.682526  1
  Tc  Tc27  1  0.681821  0.400526  0.000102  1
  Tc  Tc28  1  0.001189  0.402360  0.682609  1
