# generated using pymatgen
data_La4Al3ZnRh4
_symmetry_space_group_name_H-M   'P 1'
_cell_length_a   4.20994500
_cell_length_b   7.37133100
_cell_length_c   16.47971253
_cell_angle_alpha   88.90600949
_cell_angle_beta   90.00000000
_cell_angle_gamma   90.00000000
_symmetry_Int_Tables_number   1
_chemical_formula_structural   La4Al3ZnRh4
_chemical_formula_sum   'La8 Al6 Zn2 Rh8'
_cell_volume   511.32001875
_cell_formula_units_Z   2
loop_
 _symmetry_equiv_pos_site_id
 _symmetry_equiv_pos_as_xyz
  1  'x, y, z'
loop_
 _atom_site_type_symbol
 _atom_site_label
 _atom_site_symmetry_multiplicity
 _atom_site_fract_x
 _atom_site_fract_y
 _atom_site_fract_z
 _atom_site_occupancy
  La  La0  1  0.250000  0.519565  0.780661  1
  La  La1  1  0.750000  0.480435  0.219339  1
  La  La2  1  0.750000  0.976456  0.280013  1
  La  La3  1  0.250000  0.023544  0.719987  1
  La  La4  1  0.250000  0.661020  0.560392  1
  La  La5  1  0.750000  0.338980  0.439608  1
  La  La6  1  0.750000  0.844863  0.059777  1
  La  La7  1  0.250000  0.155137  0.940223  1
  Al  Al8  1  0.750000  0.848036  0.851857  1
  Al  Al9  1  0.250000  0.151964  0.148143  1
  Al  Al10  1  0.250000  0.503949  0.059441  1
  Al  Al11  1  0.750000  0.496051  0.940559  1
  Al  Al12  1  0.750000  0.997838  0.562912  1
  Al  Al13  1  0.250000  0.002162  0.437088  1
  Zn  Zn14  1  0.250000  0.647979  0.351291  1
  Zn  Zn15  1  0.750000  0.352021  0.648709  1
  Rh  Rh16  1  0.250000  0.774461  0.174424  1
  Rh  Rh17  1  0.750000  0.225539  0.825576  1
  Rh  Rh18  1  0.750000  0.740530  0.680997  1
  Rh  Rh19  1  0.250000  0.259470  0.319003  1
  Rh  Rh20  1  0.250000  0.714476  0.926137  1
  Rh  Rh21  1  0.750000  0.285524  0.073863  1
  Rh  Rh22  1  0.750000  0.788024  0.435426  1
  Rh  Rh23  1  0.250000  0.211976  0.564574  1
