# generated using pymatgen
data_Y2Ho14TlCd(HgPt2)2
_symmetry_space_group_name_H-M   'P 1'
_cell_length_a   9.63158141
_cell_length_b   9.63158149
_cell_length_c   9.62607200
_cell_angle_alpha   60.01892059
_cell_angle_beta   60.01892030
_cell_angle_gamma   60.06871281
_symmetry_Int_Tables_number   1
_chemical_formula_structural   Y2Ho14TlCd(HgPt2)2
_chemical_formula_sum   'Y2 Ho14 Tl1 Cd1 Hg2 Pt4'
_cell_volume   631.94401049
_cell_formula_units_Z   1
loop_
 _symmetry_equiv_pos_site_id
 _symmetry_equiv_pos_as_xyz
  1  'x, y, z'
loop_
 _atom_site_type_symbol
 _atom_site_label
 _atom_site_symmetry_multiplicity
 _atom_site_fract_x
 _atom_site_fract_y
 _atom_site_fract_z
 _atom_site_occupancy
  Y  Y0  1  0.565175  0.563893  0.935466  1
  Y  Y1  1  0.937260  0.934923  0.563908  1
  Ho  Ho2  1  0.353020  0.353352  0.351020  1
  Ho  Ho3  1  0.353020  0.353352  0.942608  1
  Ho  Ho4  1  0.356383  0.934873  0.354373  1
  Ho  Ho5  1  0.935227  0.356987  0.353894  1
  Ho  Ho6  1  0.810844  0.189636  0.189407  1
  Ho  Ho7  1  0.188815  0.811404  0.810298  1
  Ho  Ho8  1  0.188815  0.811404  0.189483  1
  Ho  Ho9  1  0.810844  0.189636  0.810114  1
  Ho  Ho10  1  0.189124  0.189795  0.810541  1
  Ho  Ho11  1  0.810508  0.810594  0.189449  1
  Ho  Ho12  1  0.936072  0.562839  0.564216  1
  Ho  Ho13  1  0.563277  0.934154  0.938999  1
  Ho  Ho14  1  0.563277  0.934154  0.563570  1
  Ho  Ho15  1  0.936072  0.562839  0.936874  1
  Tl  Tl16  1  0.581649  0.250103  0.584124  1
  Cd  Cd17  1  0.252534  0.582324  0.582571  1
  Hg  Hg18  1  0.584909  0.587734  0.587648  1
  Hg  Hg19  1  0.584909  0.587734  0.239710  1
  Pt  Pt20  1  0.143536  0.143380  0.145963  1
  Pt  Pt21  1  0.143536  0.143380  0.567121  1
  Pt  Pt22  1  0.141591  0.569944  0.144233  1
  Pt  Pt23  1  0.569608  0.141567  0.144414  1
