# generated using pymatgen
data_HoBi3(Rh2O7)2
_symmetry_space_group_name_H-M   'P 1'
_cell_length_a   7.28110727
_cell_length_b   7.33666754
_cell_length_c   7.33666700
_cell_angle_alpha   59.99999795
_cell_angle_beta   59.74725223
_cell_angle_gamma   59.74725511
_symmetry_Int_Tables_number   1
_chemical_formula_structural   HoBi3(Rh2O7)2
_chemical_formula_sum   'Ho1 Bi3 Rh4 O14'
_cell_volume   276.06436305
_cell_formula_units_Z   1
loop_
 _symmetry_equiv_pos_site_id
 _symmetry_equiv_pos_as_xyz
  1  'x, y, z'
loop_
 _atom_site_type_symbol
 _atom_site_label
 _atom_site_symmetry_multiplicity
 _atom_site_fract_x
 _atom_site_fract_y
 _atom_site_fract_z
 _atom_site_occupancy
  Ho  Ho0  1  0.625000  0.125000  0.125000  1
  Bi  Bi1  1  0.125000  0.125000  0.125000  1
  Bi  Bi2  1  0.125000  0.625000  0.125000  1
  Bi  Bi3  1  0.125000  0.125000  0.625000  1
  Rh  Rh4  1  0.625000  0.625000  0.625000  1
  Rh  Rh5  1  0.625000  0.625000  0.125000  1
  Rh  Rh6  1  0.125000  0.625000  0.625000  1
  Rh  Rh7  1  0.625000  0.125000  0.625000  1
  O  O8  1  0.257188  0.247604  0.247604  1
  O  O9  1  0.292819  0.707391  0.292400  1
  O  O10  1  0.957181  0.957600  0.542609  1
  O  O11  1  0.544028  0.961427  0.533119  1
  O  O12  1  0.705972  0.716881  0.288573  1
  O  O13  1  0.957181  0.542609  0.542609  1
  O  O14  1  0.705972  0.288573  0.716881  1
  O  O15  1  0.292819  0.292400  0.707391  1
  O  O16  1  0.705972  0.288573  0.288573  1
  O  O17  1  0.292819  0.707391  0.707391  1
  O  O18  1  0.957181  0.542609  0.957600  1
  O  O19  1  0.544028  0.533119  0.961427  1
  O  O20  1  0.992812  0.002396  0.002396  1
  O  O21  1  0.544028  0.961427  0.961427  1
