# generated using pymatgen
data_Tb9Dy(Bi2Te)2
_symmetry_space_group_name_H-M   'P 1'
_cell_length_a   8.20743000
_cell_length_b   9.51129801
_cell_length_c   11.97618001
_cell_angle_alpha   89.99437975
_cell_angle_beta   90.00000000
_cell_angle_gamma   90.00000000
_symmetry_Int_Tables_number   1
_chemical_formula_structural   Tb9Dy(Bi2Te)2
_chemical_formula_sum   'Tb18 Dy2 Bi8 Te4'
_cell_volume   934.90028018
_cell_formula_units_Z   2
loop_
 _symmetry_equiv_pos_site_id
 _symmetry_equiv_pos_as_xyz
  1  'x, y, z'
loop_
 _atom_site_type_symbol
 _atom_site_label
 _atom_site_symmetry_multiplicity
 _atom_site_fract_x
 _atom_site_fract_y
 _atom_site_fract_z
 _atom_site_occupancy
  Tb  Tb0  1  0.353420  0.749959  0.213218  1
  Tb  Tb1  1  0.853420  0.750041  0.286782  1
  Tb  Tb2  1  0.646524  0.249977  0.786815  1
  Tb  Tb3  1  0.146524  0.250023  0.713185  1
  Tb  Tb4  1  0.689673  0.561645  0.057381  1
  Tb  Tb5  1  0.189673  0.938355  0.442619  1
  Tb  Tb6  1  0.310359  0.061547  0.942657  1
  Tb  Tb7  1  0.810359  0.438453  0.557343  1
  Tb  Tb8  1  0.310336  0.438454  0.942654  1
  Tb  Tb9  1  0.810336  0.061546  0.557346  1
  Tb  Tb10  1  0.476296  0.249999  0.488321  1
  Tb  Tb11  1  0.976296  0.250001  0.011679  1
  Tb  Tb12  1  0.523696  0.749968  0.511687  1
  Tb  Tb13  1  0.023696  0.750032  0.988313  1
  Tb  Tb14  1  0.319087  0.250029  0.218051  1
  Tb  Tb15  1  0.819087  0.249971  0.281949  1
  Tb  Tb16  1  0.680887  0.750029  0.781972  1
  Tb  Tb17  1  0.180887  0.749971  0.718028  1
  Dy  Dy18  1  0.689639  0.938275  0.057336  1
  Dy  Dy19  1  0.189639  0.561725  0.442664  1
  Bi  Bi20  1  0.568454  0.995587  0.325084  1
  Bi  Bi21  1  0.068454  0.504413  0.174916  1
  Bi  Bi22  1  0.431534  0.495588  0.674810  1
  Bi  Bi23  1  0.931534  0.004412  0.825190  1
  Bi  Bi24  1  0.431559  0.004410  0.674864  1
  Bi  Bi25  1  0.931559  0.495590  0.825136  1
  Bi  Bi26  1  0.568353  0.504419  0.325147  1
  Bi  Bi27  1  0.068353  0.995581  0.174853  1
  Te  Te28  1  0.407039  0.750097  0.957302  1
  Te  Te29  1  0.907039  0.749903  0.542698  1
  Te  Te30  1  0.593144  0.249674  0.042776  1
  Te  Te31  1  0.093144  0.250326  0.457224  1
