# generated using pymatgen
data_Dy3Y3(Tm2Bi3)2
_symmetry_space_group_name_H-M   'P 1'
_cell_length_a   8.23157700
_cell_length_b   9.48163407
_cell_length_c   12.04171909
_cell_angle_alpha   90.01375090
_cell_angle_beta   90.00000000
_cell_angle_gamma   90.00000000
_symmetry_Int_Tables_number   1
_chemical_formula_structural   Dy3Y3(Tm2Bi3)2
_chemical_formula_sum   'Dy6 Y6 Tm8 Bi12'
_cell_volume   939.84170865
_cell_formula_units_Z   2
loop_
 _symmetry_equiv_pos_site_id
 _symmetry_equiv_pos_as_xyz
  1  'x, y, z'
loop_
 _atom_site_type_symbol
 _atom_site_label
 _atom_site_symmetry_multiplicity
 _atom_site_fract_x
 _atom_site_fract_y
 _atom_site_fract_z
 _atom_site_occupancy
  Dy  Dy0  1  0.186562  0.749715  0.718638  1
  Dy  Dy1  1  0.686562  0.750285  0.781362  1
  Dy  Dy2  1  0.813483  0.249646  0.281261  1
  Dy  Dy3  1  0.313483  0.250354  0.218739  1
  Dy  Dy4  1  0.693593  0.563210  0.059645  1
  Dy  Dy5  1  0.193593  0.936790  0.440355  1
  Y  Y6  1  0.306505  0.062684  0.940396  1
  Y  Y7  1  0.806505  0.437316  0.559604  1
  Y  Y8  1  0.354209  0.750169  0.215724  1
  Y  Y9  1  0.854209  0.749831  0.284276  1
  Y  Y10  1  0.645806  0.250094  0.784384  1
  Y  Y11  1  0.145806  0.249906  0.715616  1
  Tm  Tm12  1  0.025112  0.750121  0.988638  1
  Tm  Tm13  1  0.525112  0.749879  0.511362  1
  Tm  Tm14  1  0.974668  0.250281  0.011317  1
  Tm  Tm15  1  0.474668  0.249719  0.488683  1
  Tm  Tm16  1  0.306871  0.434166  0.940484  1
  Tm  Tm17  1  0.806871  0.065834  0.559516  1
  Tm  Tm18  1  0.693259  0.933906  0.059568  1
  Tm  Tm19  1  0.193259  0.566094  0.440432  1
  Bi  Bi20  1  0.434151  0.003537  0.672588  1
  Bi  Bi21  1  0.934151  0.496463  0.827412  1
  Bi  Bi22  1  0.565796  0.503521  0.327363  1
  Bi  Bi23  1  0.065796  0.996479  0.172637  1
  Bi  Bi24  1  0.566549  0.996171  0.327529  1
  Bi  Bi25  1  0.066549  0.503829  0.172471  1
  Bi  Bi26  1  0.433403  0.496075  0.672490  1
  Bi  Bi27  1  0.933403  0.003925  0.827510  1
  Bi  Bi28  1  0.407366  0.747862  0.957670  1
  Bi  Bi29  1  0.907366  0.752138  0.542330  1
  Bi  Bi30  1  0.592667  0.247910  0.042391  1
  Bi  Bi31  1  0.092667  0.252090  0.457609  1
