# generated using pymatgen
data_Sc4As2Rh9Au
_symmetry_space_group_name_H-M   'P 1'
_cell_length_a   4.06836300
_cell_length_b   5.55170274
_cell_length_c   10.98140186
_cell_angle_alpha   89.12266849
_cell_angle_beta   90.00000000
_cell_angle_gamma   90.00000000
_symmetry_Int_Tables_number   1
_chemical_formula_structural   Sc4As2Rh9Au
_chemical_formula_sum   'Sc4 As2 Rh9 Au1'
_cell_volume   248.00062128
_cell_formula_units_Z   1
loop_
 _symmetry_equiv_pos_site_id
 _symmetry_equiv_pos_as_xyz
  1  'x, y, z'
loop_
 _atom_site_type_symbol
 _atom_site_label
 _atom_site_symmetry_multiplicity
 _atom_site_fract_x
 _atom_site_fract_y
 _atom_site_fract_z
 _atom_site_occupancy
  Sc  Sc0  1  0.500000  0.323460  0.357518  1
  Sc  Sc1  1  0.500000  0.659373  0.635531  1
  Sc  Sc2  1  0.500000  0.194281  0.867354  1
  Sc  Sc3  1  0.500000  0.823525  0.141858  1
  As  As4  1  0.000000  0.003809  0.486529  1
  As  As5  1  0.000000  0.502373  0.002770  1
  Rh  Rh6  1  0.500000  0.316298  0.109078  1
  Rh  Rh7  1  0.500000  0.689727  0.895044  1
  Rh  Rh8  1  0.500000  0.811403  0.392406  1
  Rh  Rh9  1  0.500000  0.174194  0.604821  1
  Rh  Rh10  1  0.000000  0.068519  0.254555  1
  Rh  Rh11  1  0.000000  0.431308  0.755739  1
  Rh  Rh12  1  0.000000  0.568312  0.243712  1
  Rh  Rh13  1  0.000000  0.495046  0.499534  1
  Rh  Rh14  1  0.000000  0.005600  0.003408  1
  Au  Au15  1  0.000000  0.932772  0.750143  1
