# generated using pymatgen
data_YbMo3WC4
_symmetry_space_group_name_H-M   'P 1'
_cell_length_a   8.40460936
_cell_length_b   8.40042737
_cell_length_c   3.24716100
_cell_angle_alpha   90.00000000
_cell_angle_beta   90.00000000
_cell_angle_gamma   90.10258330
_symmetry_Int_Tables_number   1
_chemical_formula_structural   YbMo3WC4
_chemical_formula_sum   'Yb2 Mo6 W2 C8'
_cell_volume   229.25670182
_cell_formula_units_Z   2
loop_
 _symmetry_equiv_pos_site_id
 _symmetry_equiv_pos_as_xyz
  1  'x, y, z'
loop_
 _atom_site_type_symbol
 _atom_site_label
 _atom_site_symmetry_multiplicity
 _atom_site_fract_x
 _atom_site_fract_y
 _atom_site_fract_z
 _atom_site_occupancy
  Yb  Yb0  1  0.000484  0.000655  0.000000  1
  Yb  Yb1  1  0.499039  0.500321  0.500000  1
  Mo  Mo2  1  0.375378  0.182396  0.000000  1
  Mo  Mo3  1  0.179128  0.624475  0.000000  1
  Mo  Mo4  1  0.315140  0.870747  0.500000  1
  Mo  Mo5  1  0.129560  0.317011  0.500000  1
  Mo  Mo6  1  0.624550  0.818497  0.000000  1
  Mo  Mo7  1  0.683953  0.127695  0.500000  1
  W  W8  1  0.871097  0.682175  0.500000  1
  W  W9  1  0.820305  0.374571  0.000000  1
  C  C10  1  0.767315  0.900687  0.500000  1
  C  C11  1  0.235791  0.099007  0.500000  1
  C  C12  1  0.902803  0.233176  0.500000  1
  C  C13  1  0.269423  0.399472  0.000000  1
  C  C14  1  0.397543  0.732205  0.000000  1
  C  C15  1  0.096934  0.768045  0.500000  1
  C  C16  1  0.602174  0.269009  0.000000  1
  C  C17  1  0.729382  0.599856  0.000000  1
