# generated using pymatgen
data_U3Co6(Ni7B3)2
_symmetry_space_group_name_H-M   'P 1'
_cell_length_a   7.60842671
_cell_length_b   7.56930397
_cell_length_c   7.56930400
_cell_angle_alpha   59.99999986
_cell_angle_beta   60.16995152
_cell_angle_gamma   60.16995337
_symmetry_Int_Tables_number   1
_chemical_formula_structural   U3Co6(Ni7B3)2
_chemical_formula_sum   'U3 Co6 Ni14 B6'
_cell_volume   309.03140943
_cell_formula_units_Z   1
loop_
 _symmetry_equiv_pos_site_id
 _symmetry_equiv_pos_as_xyz
  1  'x, y, z'
loop_
 _atom_site_type_symbol
 _atom_site_label
 _atom_site_symmetry_multiplicity
 _atom_site_fract_x
 _atom_site_fract_y
 _atom_site_fract_z
 _atom_site_occupancy
  U  U0  1  0.261673  0.246109  0.246109  1
  U  U1  1  0.738327  0.753891  0.753891  1
  U  U2  1  0.000000  0.000000  0.000000  1
  Co  Co3  1  0.383249  0.382086  0.382086  1
  Co  Co4  1  0.616751  0.617914  0.617914  1
  Co  Co5  1  0.383249  0.382086  0.852580  1
  Co  Co6  1  0.383249  0.852580  0.382086  1
  Co  Co7  1  0.616751  0.617914  0.147420  1
  Co  Co8  1  0.616751  0.147420  0.617914  1
  Ni  Ni9  1  0.841158  0.386281  0.386281  1
  Ni  Ni10  1  0.158842  0.613719  0.613719  1
  Ni  Ni11  1  0.340600  0.001659  0.001659  1
  Ni  Ni12  1  0.659400  0.998341  0.998341  1
  Ni  Ni13  1  0.000000  0.343091  0.656909  1
  Ni  Ni14  1  0.000000  0.656909  0.343091  1
  Ni  Ni15  1  0.000000  0.343091  0.000000  1
  Ni  Ni16  1  0.659400  0.998341  0.343917  1
  Ni  Ni17  1  0.000000  0.656909  0.000000  1
  Ni  Ni18  1  0.340600  0.001659  0.656083  1
  Ni  Ni19  1  0.000000  0.000000  0.343091  1
  Ni  Ni20  1  0.000000  0.000000  0.656909  1
  Ni  Ni21  1  0.659400  0.343917  0.998341  1
  Ni  Ni22  1  0.340600  0.656083  0.001659  1
  B  B23  1  0.723369  0.275081  0.275081  1
  B  B24  1  0.276631  0.724919  0.724919  1
  B  B25  1  0.276631  0.724919  0.273531  1
  B  B26  1  0.723369  0.275081  0.726469  1
  B  B27  1  0.276631  0.273531  0.724919  1
  B  B28  1  0.723369  0.726469  0.275081  1
