# generated using pymatgen
data_Tm8Ti3Si16Tc9
_symmetry_space_group_name_H-M   'P 1'
_cell_length_a   6.75127667
_cell_length_b   6.75127692
_cell_length_c   12.85093408
_cell_angle_alpha   90.04312253
_cell_angle_beta   89.95688067
_cell_angle_gamma   89.52239332
_symmetry_Int_Tables_number   1
_chemical_formula_structural   Tm8Ti3Si16Tc9
_chemical_formula_sum   'Tm8 Ti3 Si16 Tc9'
_cell_volume   585.72152806
_cell_formula_units_Z   1
loop_
 _symmetry_equiv_pos_site_id
 _symmetry_equiv_pos_as_xyz
  1  'x, y, z'
loop_
 _atom_site_type_symbol
 _atom_site_label
 _atom_site_symmetry_multiplicity
 _atom_site_fract_x
 _atom_site_fract_y
 _atom_site_fract_z
 _atom_site_occupancy
  Tm  Tm0  1  0.337702  0.994579  0.468667  1
  Tm  Tm1  1  0.507154  0.835769  0.718176  1
  Tm  Tm2  1  0.489254  0.165947  0.216452  1
  Tm  Tm3  1  0.835769  0.507154  0.281824  1
  Tm  Tm4  1  0.165947  0.489254  0.783548  1
  Tm  Tm5  1  0.659477  0.007676  0.969369  1
  Tm  Tm6  1  0.994579  0.337702  0.531333  1
  Tm  Tm7  1  0.007676  0.659477  0.030631  1
  Ti  Ti8  1  0.157057  0.843426  0.248844  1
  Ti  Ti9  1  0.843426  0.157057  0.751156  1
  Ti  Ti10  1  0.658036  0.658036  0.500000  1
  Si  Si11  1  0.206400  0.121943  0.680061  1
  Si  Si12  1  0.385926  0.693737  0.931162  1
  Si  Si13  1  0.622092  0.296278  0.431136  1
  Si  Si14  1  0.693737  0.385926  0.068838  1
  Si  Si15  1  0.296278  0.622092  0.568864  1
  Si  Si16  1  0.793590  0.879855  0.180652  1
  Si  Si17  1  0.121943  0.206400  0.319939  1
  Si  Si18  1  0.879855  0.793590  0.819348  1
  Si  Si19  1  0.267637  0.986546  0.053657  1
  Si  Si20  1  0.520729  0.783254  0.308420  1
  Si  Si21  1  0.479626  0.220329  0.810166  1
  Si  Si22  1  0.783254  0.520729  0.691580  1
  Si  Si23  1  0.220329  0.479626  0.189834  1
  Si  Si24  1  0.724417  0.019665  0.555838  1
  Si  Si25  1  0.986546  0.267637  0.946343  1
  Si  Si26  1  0.019665  0.724417  0.444162  1
  Tc  Tc27  1  0.337834  0.337834  0.000000  1
  Tc  Tc28  1  0.181366  0.988741  0.863097  1
  Tc  Tc29  1  0.498734  0.694134  0.116946  1
  Tc  Tc30  1  0.500966  0.318057  0.617656  1
  Tc  Tc31  1  0.694134  0.498734  0.883054  1
  Tc  Tc32  1  0.318057  0.500966  0.382344  1
  Tc  Tc33  1  0.819503  0.002563  0.363759  1
  Tc  Tc34  1  0.988741  0.181366  0.136903  1
  Tc  Tc35  1  0.002563  0.819503  0.636241  1
