# generated using pymatgen
data_Ho4Al6ReIr
_symmetry_space_group_name_H-M   'P 1'
_cell_length_a   5.48365000
_cell_length_b   5.48364896
_cell_length_c   8.84629900
_cell_angle_alpha   90.00000000
_cell_angle_beta   90.00000000
_cell_angle_gamma   120.00000630
_symmetry_Int_Tables_number   1
_chemical_formula_structural   Ho4Al6ReIr
_chemical_formula_sum   'Ho4 Al6 Re1 Ir1'
_cell_volume   230.37300696
_cell_formula_units_Z   1
loop_
 _symmetry_equiv_pos_site_id
 _symmetry_equiv_pos_as_xyz
  1  'x, y, z'
loop_
 _atom_site_type_symbol
 _atom_site_label
 _atom_site_symmetry_multiplicity
 _atom_site_fract_x
 _atom_site_fract_y
 _atom_site_fract_z
 _atom_site_occupancy
  Ho  Ho0  1  0.666667  0.333334  0.055076  1
  Ho  Ho1  1  0.666667  0.333334  0.448312  1
  Ho  Ho2  1  0.333334  0.666668  0.551687  1
  Ho  Ho3  1  0.333334  0.666668  0.944925  1
  Al  Al4  1  0.162889  0.325779  0.252349  1
  Al  Al5  1  0.162890  0.837111  0.252349  1
  Al  Al6  1  0.674221  0.837111  0.252349  1
  Al  Al7  1  0.325779  0.162890  0.747651  1
  Al  Al8  1  0.837111  0.162890  0.747651  1
  Al  Al9  1  0.837110  0.674221  0.747651  1
  Re  Re10  1  0.000000  0.000000  0.000000  1
  Ir  Ir11  1  0.000000  0.000000  0.500000  1
