# generated using pymatgen
data_Hf3Sc5V12Si15Ge
_symmetry_space_group_name_H-M   'P 1'
_cell_length_a   6.62706390
_cell_length_b   6.63748996
_cell_length_c   12.26407519
_cell_angle_alpha   90.04424032
_cell_angle_beta   89.96840874
_cell_angle_gamma   90.03569400
_symmetry_Int_Tables_number   1
_chemical_formula_structural   Hf3Sc5V12Si15Ge
_chemical_formula_sum   'Hf3 Sc5 V12 Si15 Ge1'
_cell_volume   539.46038779
_cell_formula_units_Z   1
loop_
 _symmetry_equiv_pos_site_id
 _symmetry_equiv_pos_as_xyz
  1  'x, y, z'
loop_
 _atom_site_type_symbol
 _atom_site_label
 _atom_site_symmetry_multiplicity
 _atom_site_fract_x
 _atom_site_fract_y
 _atom_site_fract_z
 _atom_site_occupancy
  Hf  Hf0  1  0.002789  0.658885  0.029140  1
  Hf  Hf1  1  0.838750  0.504466  0.280041  1
  Hf  Hf2  1  0.159910  0.495708  0.779601  1
  Sc  Sc3  1  0.501403  0.837378  0.720355  1
  Sc  Sc4  1  0.500572  0.164362  0.222243  1
  Sc  Sc5  1  0.998361  0.338189  0.529206  1
  Sc  Sc6  1  0.664431  0.000770  0.969881  1
  Sc  Sc7  1  0.338060  0.998042  0.470363  1
  V  V8  1  0.330293  0.338110  0.999165  1
  V  V9  1  0.163944  0.829268  0.251341  1
  V  V10  1  0.834876  0.169299  0.750103  1
  V  V11  1  0.668236  0.667682  0.499922  1
  V  V12  1  0.000469  0.161391  0.127375  1
  V  V13  1  0.342613  0.505954  0.375841  1
  V  V14  1  0.659111  0.494402  0.876300  1
  V  V15  1  0.506073  0.344219  0.624153  1
  V  V16  1  0.495688  0.654161  0.123506  1
  V  V17  1  0.994109  0.842058  0.627249  1
  V  V18  1  0.156309  0.004413  0.871554  1
  V  V19  1  0.842552  0.992559  0.372832  1
  Si  Si20  1  0.537780  0.794666  0.314696  1
  Si  Si21  1  0.461541  0.205536  0.814666  1
  Si  Si22  1  0.792725  0.540369  0.684322  1
  Si  Si23  1  0.208492  0.458715  0.185768  1
  Si  Si24  1  0.706907  0.039704  0.564742  1
  Si  Si25  1  0.958668  0.290024  0.935413  1
  Si  Si26  1  0.040444  0.707319  0.436807  1
  Si  Si27  1  0.702759  0.369529  0.070899  1
  Si  Si28  1  0.129153  0.203457  0.320592  1
  Si  Si29  1  0.869464  0.795485  0.820678  1
  Si  Si30  1  0.205288  0.128370  0.678599  1
  Si  Si31  1  0.794379  0.871838  0.178688  1
  Si  Si32  1  0.296936  0.629807  0.571084  1
  Si  Si33  1  0.373305  0.703050  0.926880  1
  Si  Si34  1  0.628910  0.295775  0.429729  1
  Ge  Ge35  1  0.294700  0.965036  0.066266  1
