# generated using pymatgen
data_Sc2Ta3P7Rh9
_symmetry_space_group_name_H-M   'P 1'
_cell_length_a   3.87418600
_cell_length_b   9.59214318
_cell_length_c   9.59218600
_cell_angle_alpha   120.00002589
_cell_angle_beta   89.99993592
_cell_angle_gamma   90.00003335
_symmetry_Int_Tables_number   1
_chemical_formula_structural   Sc2Ta3P7Rh9
_chemical_formula_sum   'Sc2 Ta3 P7 Rh9'
_cell_volume   308.70540266
_cell_formula_units_Z   1
loop_
 _symmetry_equiv_pos_site_id
 _symmetry_equiv_pos_as_xyz
  1  'x, y, z'
loop_
 _atom_site_type_symbol
 _atom_site_label
 _atom_site_symmetry_multiplicity
 _atom_site_fract_x
 _atom_site_fract_y
 _atom_site_fract_z
 _atom_site_occupancy
  Sc  Sc0  1  0.261881  0.666671  0.333340  1
  Sc  Sc1  1  0.761941  0.333337  0.666667  1
  Ta  Ta2  1  0.761894  0.095076  0.870881  1
  Ta  Ta3  1  0.761895  0.129141  0.224202  1
  Ta  Ta4  1  0.761895  0.775771  0.904928  1
  P  P5  1  0.261862  0.999993  0.999995  1
  P  P6  1  0.761848  0.872087  0.584659  1
  P  P7  1  0.761847  0.415355  0.287427  1
  P  P8  1  0.761848  0.712571  0.127924  1
  P  P9  1  0.261925  0.119699  0.419099  1
  P  P10  1  0.261924  0.580895  0.700591  1
  P  P11  1  0.261923  0.299404  0.880302  1
  Rh  Rh12  1  0.261888  0.884485  0.162020  1
  Rh  Rh13  1  0.261889  0.837975  0.722458  1
  Rh  Rh14  1  0.261886  0.277540  0.115516  1
  Rh  Rh15  1  0.761944  0.611160  0.553789  1
  Rh  Rh16  1  0.761941  0.446208  0.057370  1
  Rh  Rh17  1  0.761941  0.942628  0.388836  1
  Rh  Rh18  1  0.261944  0.366884  0.441403  1
  Rh  Rh19  1  0.261942  0.558592  0.925471  1
  Rh  Rh20  1  0.261940  0.074527  0.633119  1
