# generated using pymatgen
data_LaPrLu2(AsPt)4
_symmetry_space_group_name_H-M   'P 1'
_cell_length_a   4.29099800
_cell_length_b   4.29099913
_cell_length_c   15.83147700
_cell_angle_alpha   90.00000000
_cell_angle_beta   90.00000000
_cell_angle_gamma   120.00000673
_symmetry_Int_Tables_number   1
_chemical_formula_structural   LaPrLu2(AsPt)4
_chemical_formula_sum   'La1 Pr1 Lu2 As4 Pt4'
_cell_volume   252.44616345
_cell_formula_units_Z   1
loop_
 _symmetry_equiv_pos_site_id
 _symmetry_equiv_pos_as_xyz
  1  'x, y, z'
loop_
 _atom_site_type_symbol
 _atom_site_label
 _atom_site_symmetry_multiplicity
 _atom_site_fract_x
 _atom_site_fract_y
 _atom_site_fract_z
 _atom_site_occupancy
  La  La0  1  0.000000  0.000000  0.500000  1
  Pr  Pr1  1  0.000000  0.000000  0.000000  1
  Lu  Lu2  1  0.000000  0.000000  0.250015  1
  Lu  Lu3  1  0.000000  0.000000  0.749985  1
  As  As4  1  0.333333  0.666667  0.879518  1
  As  As5  1  0.666667  0.333333  0.120482  1
  As  As6  1  0.666667  0.333333  0.378609  1
  As  As7  1  0.333333  0.666667  0.621391  1
  Pt  Pt8  1  0.333333  0.666667  0.352708  1
  Pt  Pt9  1  0.666667  0.333333  0.647292  1
  Pt  Pt10  1  0.666667  0.333333  0.853863  1
  Pt  Pt11  1  0.333333  0.666667  0.146137  1
