# generated using pymatgen
data_Sm5Zr3(As3Rh4)4
_symmetry_space_group_name_H-M   'P 1'
_cell_length_a   13.39547500
_cell_length_b   13.39547469
_cell_length_c   4.04769900
_cell_angle_alpha   90.00000000
_cell_angle_beta   90.00000000
_cell_angle_gamma   120.00000323
_symmetry_Int_Tables_number   1
_chemical_formula_structural   Sm5Zr3(As3Rh4)4
_chemical_formula_sum   'Sm5 Zr3 As12 Rh16'
_cell_volume   629.00638416
_cell_formula_units_Z   1
loop_
 _symmetry_equiv_pos_site_id
 _symmetry_equiv_pos_as_xyz
  1  'x, y, z'
loop_
 _atom_site_type_symbol
 _atom_site_label
 _atom_site_symmetry_multiplicity
 _atom_site_fract_x
 _atom_site_fract_y
 _atom_site_fract_z
 _atom_site_occupancy
  Sm  Sm0  1  0.187477  0.187477  0.500000  1
  Sm  Sm1  1  0.812523  0.000000  0.500000  1
  Sm  Sm2  1  0.000000  0.812523  0.500000  1
  Sm  Sm3  1  0.333333  0.666667  0.000000  1
  Sm  Sm4  1  0.666667  0.333333  0.000000  1
  Zr  Zr5  1  0.556841  0.556841  0.000000  1
  Zr  Zr6  1  0.443159  0.000000  0.000000  1
  Zr  Zr7  1  0.000000  0.443159  0.000000  1
  As  As8  1  0.823751  0.823751  0.000000  1
  As  As9  1  0.176249  0.000000  0.000000  1
  As  As10  1  0.000000  0.176249  0.000000  1
  As  As11  1  0.169725  0.484525  0.500000  1
  As  As12  1  0.515475  0.685199  0.500000  1
  As  As13  1  0.314801  0.830275  0.500000  1
  As  As14  1  0.685199  0.515475  0.500000  1
  As  As15  1  0.830275  0.314801  0.500000  1
  As  As16  1  0.484525  0.169725  0.500000  1
  As  As17  1  0.355862  0.355862  0.000000  1
  As  As18  1  0.644138  0.000000  0.000000  1
  As  As19  1  0.000000  0.644138  0.000000  1
  Rh  Rh20  1  0.718494  0.718494  0.500000  1
  Rh  Rh21  1  0.281506  0.000000  0.500000  1
  Rh  Rh22  1  0.000000  0.281506  0.500000  1
  Rh  Rh23  1  0.176349  0.374355  0.000000  1
  Rh  Rh24  1  0.625645  0.801994  0.000000  1
  Rh  Rh25  1  0.198006  0.823651  0.000000  1
  Rh  Rh26  1  0.801994  0.625645  0.000000  1
  Rh  Rh27  1  0.823651  0.198006  0.000000  1
  Rh  Rh28  1  0.374355  0.176349  0.000000  1
  Rh  Rh29  1  0.354806  0.481849  0.500000  1
  Rh  Rh30  1  0.518151  0.872958  0.500000  1
  Rh  Rh31  1  0.127042  0.645194  0.500000  1
  Rh  Rh32  1  0.872958  0.518151  0.500000  1
  Rh  Rh33  1  0.645194  0.127042  0.500000  1
  Rh  Rh34  1  0.481849  0.354806  0.500000  1
  Rh  Rh35  1  0.000000  0.000000  0.000000  1
