# generated using pymatgen
data_Dy3HoNiB16Ir3
_symmetry_space_group_name_H-M   'P 1'
_cell_length_a   6.96670753
_cell_length_b   6.96778098
_cell_length_c   6.96671546
_cell_angle_alpha   111.30398692
_cell_angle_beta   112.28876570
_cell_angle_gamma   104.91083364
_symmetry_Int_Tables_number   1
_chemical_formula_structural   Dy3HoNiB16Ir3
_chemical_formula_sum   'Dy3 Ho1 Ni1 B16 Ir3'
_cell_volume   259.10689476
_cell_formula_units_Z   1
loop_
 _symmetry_equiv_pos_site_id
 _symmetry_equiv_pos_as_xyz
  1  'x, y, z'
loop_
 _atom_site_type_symbol
 _atom_site_label
 _atom_site_symmetry_multiplicity
 _atom_site_fract_x
 _atom_site_fract_y
 _atom_site_fract_z
 _atom_site_occupancy
  Dy  Dy0  1  0.787049  0.790184  0.003133  1
  Dy  Dy1  1  0.212913  0.215982  0.003070  1
  Dy  Dy2  1  0.751617  0.252091  0.500474  1
  Ho  Ho3  1  0.248446  0.749320  0.500875  1
  Ni  Ni4  1  0.500026  0.256880  0.756854  1
  B  B5  1  0.269983  0.108554  0.378531  1
  B  B6  1  0.735606  0.893907  0.629541  1
  B  B7  1  0.264366  0.893907  0.158302  1
  B  B8  1  0.730023  0.108554  0.838571  1
  B  B9  1  0.107900  0.731573  0.839780  1
  B  B10  1  0.890918  0.264448  0.155668  1
  B  B11  1  0.108779  0.264448  0.373529  1
  B  B12  1  0.891792  0.731573  0.623674  1
  B  B13  1  0.118302  0.112756  0.531952  1
  B  B14  1  0.584471  0.584102  0.474487  1
  B  B15  1  0.109616  0.584102  0.999630  1
  B  B16  1  0.580803  0.112756  0.994453  1
  B  B17  1  0.890744  0.890033  0.474866  1
  B  B18  1  0.418837  0.413656  0.531468  1
  B  B19  1  0.882188  0.413657  0.994820  1
  B  B20  1  0.415166  0.890033  0.999287  1
  Ir  Ir21  1  0.267075  0.497139  0.763442  1
  Ir  Ir22  1  0.733696  0.497139  0.230065  1
  Ir  Ir23  1  0.499681  0.743209  0.243527  1
