# generated using pymatgen
data_Y2HoEr7(CoSb2)2
_symmetry_space_group_name_H-M   'P 1'
_cell_length_a   7.83694000
_cell_length_b   8.73548700
_cell_length_c   12.12722100
_cell_angle_alpha   90.00000000
_cell_angle_beta   90.00000000
_cell_angle_gamma   90.00000000
_symmetry_Int_Tables_number   1
_chemical_formula_structural   Y2HoEr7(CoSb2)2
_chemical_formula_sum   'Y4 Ho2 Er14 Co4 Sb8'
_cell_volume   830.22333434
_cell_formula_units_Z   2
loop_
 _symmetry_equiv_pos_site_id
 _symmetry_equiv_pos_as_xyz
  1  'x, y, z'
loop_
 _atom_site_type_symbol
 _atom_site_label
 _atom_site_symmetry_multiplicity
 _atom_site_fract_x
 _atom_site_fract_y
 _atom_site_fract_z
 _atom_site_occupancy
  Y  Y0  1  0.156973  0.750000  0.204702  1
  Y  Y1  1  0.656973  0.250000  0.295298  1
  Y  Y2  1  0.843084  0.250000  0.795265  1
  Y  Y3  1  0.343084  0.750000  0.704735  1
  Ho  Ho4  1  0.376755  0.250000  0.692842  1
  Ho  Ho5  1  0.876755  0.750000  0.807158  1
  Er  Er6  1  0.453529  0.750000  0.998189  1
  Er  Er7  1  0.953529  0.250000  0.501811  1
  Er  Er8  1  0.546523  0.250000  0.001925  1
  Er  Er9  1  0.046523  0.750000  0.498075  1
  Er  Er10  1  0.622789  0.750000  0.307579  1
  Er  Er11  1  0.122789  0.250000  0.192421  1
  Er  Er12  1  0.822629  0.964055  0.065194  1
  Er  Er13  1  0.322629  0.035945  0.434806  1
  Er  Er14  1  0.177474  0.463738  0.934999  1
  Er  Er15  1  0.677474  0.536262  0.565001  1
  Er  Er16  1  0.177474  0.036262  0.934999  1
  Er  Er17  1  0.677474  0.963738  0.565001  1
  Er  Er18  1  0.822629  0.535945  0.065194  1
  Er  Er19  1  0.322629  0.464055  0.434806  1
  Co  Co20  1  0.433375  0.750000  0.489299  1
  Co  Co21  1  0.933375  0.250000  0.010701  1
  Co  Co22  1  0.566788  0.250000  0.510518  1
  Co  Co23  1  0.066788  0.750000  0.989482  1
  Sb  Sb24  1  0.930171  0.991795  0.327626  1
  Sb  Sb25  1  0.430171  0.008205  0.172374  1
  Sb  Sb26  1  0.069818  0.491781  0.672277  1
  Sb  Sb27  1  0.569818  0.508219  0.827723  1
  Sb  Sb28  1  0.069818  0.008219  0.672277  1
  Sb  Sb29  1  0.569818  0.991781  0.827723  1
  Sb  Sb30  1  0.930171  0.508205  0.327626  1
  Sb  Sb31  1  0.430171  0.491795  0.172374  1
