# generated using pymatgen
data_Na4Ca2TiAs4
_symmetry_space_group_name_H-M   'P 1'
_cell_length_a   9.49686369
_cell_length_b   9.49686320
_cell_length_c   7.34179351
_cell_angle_alpha   89.00220091
_cell_angle_beta   89.00219875
_cell_angle_gamma   120.00264872
_symmetry_Int_Tables_number   1
_chemical_formula_structural   Na4Ca2TiAs4
_chemical_formula_sum   'Na8 Ca4 Ti2 As8'
_cell_volume   573.08364281
_cell_formula_units_Z   2
loop_
 _symmetry_equiv_pos_site_id
 _symmetry_equiv_pos_as_xyz
  1  'x, y, z'
loop_
 _atom_site_type_symbol
 _atom_site_label
 _atom_site_symmetry_multiplicity
 _atom_site_fract_x
 _atom_site_fract_y
 _atom_site_fract_z
 _atom_site_occupancy
  Na  Na0  1  0.472348  0.939011  0.380666  1
  Na  Na1  1  0.939011  0.472348  0.880666  1
  Na  Na2  1  0.864604  0.722929  0.186444  1
  Na  Na3  1  0.279823  0.132843  0.225771  1
  Na  Na4  1  0.853936  0.137713  0.206339  1
  Na  Na5  1  0.132843  0.279823  0.725771  1
  Na  Na6  1  0.722929  0.864604  0.686444  1
  Na  Na7  1  0.137713  0.853936  0.706339  1
  Ca  Ca8  1  0.058535  0.530337  0.386102  1
  Ca  Ca9  1  0.477258  0.531480  0.378407  1
  Ca  Ca10  1  0.530337  0.058535  0.886102  1
  Ca  Ca11  1  0.531480  0.477258  0.878407  1
  Ti  Ti12  1  0.663597  0.330611  0.493706  1
  Ti  Ti13  1  0.330611  0.663597  0.993706  1
  As  As14  1  0.198380  0.383039  0.121577  1
  As  As15  1  0.619398  0.806432  0.084987  1
  As  As16  1  0.196502  0.811555  0.101245  1
  As  As17  1  0.806432  0.619398  0.584987  1
  As  As18  1  0.383039  0.198380  0.621577  1
  As  As19  1  0.811555  0.196502  0.601245  1
  As  As20  1  0.655983  0.333533  0.154736  1
  As  As21  1  0.333533  0.655983  0.654736  1
