# generated using pymatgen
data_NdHg3PtRh3O14
_symmetry_space_group_name_H-M   'P 1'
_cell_length_a   7.36677510
_cell_length_b   7.35764779
_cell_length_c   7.36677457
_cell_angle_alpha   59.25892227
_cell_angle_beta   59.41497873
_cell_angle_gamma   59.25891974
_symmetry_Int_Tables_number   1
_chemical_formula_structural   NdHg3PtRh3O14
_chemical_formula_sum   'Nd1 Hg3 Pt1 Rh3 O14'
_cell_volume   277.91306533
_cell_formula_units_Z   1
loop_
 _symmetry_equiv_pos_site_id
 _symmetry_equiv_pos_as_xyz
  1  'x, y, z'
loop_
 _atom_site_type_symbol
 _atom_site_label
 _atom_site_symmetry_multiplicity
 _atom_site_fract_x
 _atom_site_fract_y
 _atom_site_fract_z
 _atom_site_occupancy
  Nd  Nd0  1  0.125000  0.125000  0.125000  1
  Hg  Hg1  1  0.625000  0.125000  0.125000  1
  Hg  Hg2  1  0.125000  0.625000  0.125000  1
  Hg  Hg3  1  0.125000  0.125000  0.625000  1
  Pt  Pt4  1  0.625000  0.125000  0.625000  1
  Rh  Rh5  1  0.625000  0.625000  0.125000  1
  Rh  Rh6  1  0.625000  0.625000  0.625000  1
  Rh  Rh7  1  0.125000  0.625000  0.625000  1
  O  O8  1  0.713396  0.295390  0.294476  1
  O  O9  1  0.701377  0.298219  0.701377  1
  O  O10  1  0.993367  0.989459  0.993367  1
  O  O11  1  0.299453  0.707442  0.299453  1
  O  O12  1  0.697089  0.694922  0.302525  1
  O  O13  1  0.947475  0.555078  0.552911  1
  O  O14  1  0.302525  0.694922  0.697089  1
  O  O15  1  0.256633  0.260541  0.256633  1
  O  O16  1  0.950547  0.542558  0.950547  1
  O  O17  1  0.548623  0.951781  0.548623  1
  O  O18  1  0.552911  0.555078  0.947475  1
  O  O19  1  0.955524  0.954610  0.536604  1
  O  O20  1  0.536604  0.954610  0.955524  1
  O  O21  1  0.294476  0.295390  0.713396  1
