# generated using pymatgen
data_Er2Pa(SnRh)3
_symmetry_space_group_name_H-M   'P 1'
_cell_length_a   7.53033296
_cell_length_b   7.53033342
_cell_length_c   3.84891700
_cell_angle_alpha   90.00000000
_cell_angle_beta   90.00000000
_cell_angle_gamma   119.14427903
_symmetry_Int_Tables_number   1
_chemical_formula_structural   Er2Pa(SnRh)3
_chemical_formula_sum   'Er2 Pa1 Sn3 Rh3'
_cell_volume   190.62426687
_cell_formula_units_Z   1
loop_
 _symmetry_equiv_pos_site_id
 _symmetry_equiv_pos_as_xyz
  1  'x, y, z'
loop_
 _atom_site_type_symbol
 _atom_site_label
 _atom_site_symmetry_multiplicity
 _atom_site_fract_x
 _atom_site_fract_y
 _atom_site_fract_z
 _atom_site_occupancy
  Er  Er0  1  0.999674  0.596383  0.000000  1
  Er  Er1  1  0.596383  0.999674  0.000000  1
  Pa  Pa2  1  0.411762  0.411762  0.000000  1
  Sn  Sn3  1  0.753749  0.753749  0.500000  1
  Sn  Sn4  1  0.986566  0.259724  0.500000  1
  Sn  Sn5  1  0.259724  0.986566  0.500000  1
  Rh  Rh6  1  0.014541  0.014541  0.000000  1
  Rh  Rh7  1  0.641313  0.336288  0.500000  1
  Rh  Rh8  1  0.336288  0.641313  0.500000  1
