# generated using pymatgen
data_Ho3Er13CdNi4Ag3
_symmetry_space_group_name_H-M   'P 1'
_cell_length_a   9.36365742
_cell_length_b   9.38757956
_cell_length_c   9.38758000
_cell_angle_alpha   59.99999845
_cell_angle_beta   59.91545077
_cell_angle_gamma   59.91545987
_symmetry_Int_Tables_number   1
_chemical_formula_structural   Ho3Er13CdNi4Ag3
_chemical_formula_sum   'Ho3 Er13 Cd1 Ni4 Ag3'
_cell_volume   582.74912483
_cell_formula_units_Z   1
loop_
 _symmetry_equiv_pos_site_id
 _symmetry_equiv_pos_as_xyz
  1  'x, y, z'
loop_
 _atom_site_type_symbol
 _atom_site_label
 _atom_site_symmetry_multiplicity
 _atom_site_fract_x
 _atom_site_fract_y
 _atom_site_fract_z
 _atom_site_occupancy
  Ho  Ho0  1  0.350107  0.349884  0.349884  1
  Ho  Ho1  1  0.350107  0.349884  0.950126  1
  Ho  Ho2  1  0.350107  0.950126  0.349884  1
  Er  Er3  1  0.948353  0.350549  0.350549  1
  Er  Er4  1  0.811173  0.188981  0.188981  1
  Er  Er5  1  0.188732  0.811003  0.811003  1
  Er  Er6  1  0.188732  0.811003  0.189263  1
  Er  Er7  1  0.811173  0.188981  0.810865  1
  Er  Er8  1  0.188732  0.189263  0.811003  1
  Er  Er9  1  0.811173  0.810865  0.188981  1
  Er  Er10  1  0.933191  0.564390  0.564390  1
  Er  Er11  1  0.563967  0.935989  0.935989  1
  Er  Er12  1  0.563967  0.935989  0.564055  1
  Er  Er13  1  0.933191  0.564390  0.938029  1
  Er  Er14  1  0.563967  0.564055  0.935989  1
  Er  Er15  1  0.933191  0.938029  0.564390  1
  Cd  Cd16  1  0.261311  0.579562  0.579562  1
  Ni  Ni17  1  0.142301  0.143052  0.143052  1
  Ni  Ni18  1  0.142301  0.143052  0.571595  1
  Ni  Ni19  1  0.142301  0.571595  0.143052  1
  Ni  Ni20  1  0.571847  0.142718  0.142718  1
  Ag  Ag21  1  0.583358  0.582230  0.582230  1
  Ag  Ag22  1  0.583358  0.582230  0.252182  1
  Ag  Ag23  1  0.583358  0.252182  0.582230  1
