# generated using pymatgen
data_Eu2B4Ru3Rh
_symmetry_space_group_name_H-M   'P 1'
_cell_length_a   6.89555934
_cell_length_b   5.99850292
_cell_length_c   5.61588528
_cell_angle_alpha   72.75686027
_cell_angle_beta   56.18205161
_cell_angle_gamma   51.56489576
_symmetry_Int_Tables_number   1
_chemical_formula_structural   Eu2B4Ru3Rh
_chemical_formula_sum   'Eu2 B4 Ru3 Rh1'
_cell_volume   150.73199145
_cell_formula_units_Z   1
loop_
 _symmetry_equiv_pos_site_id
 _symmetry_equiv_pos_as_xyz
  1  'x, y, z'
loop_
 _atom_site_type_symbol
 _atom_site_label
 _atom_site_symmetry_multiplicity
 _atom_site_fract_x
 _atom_site_fract_y
 _atom_site_fract_z
 _atom_site_occupancy
  Eu  Eu0  1  0.001654  0.001654  0.998346  1
  Eu  Eu1  1  0.248498  0.248498  0.251502  1
  B  B2  1  0.678179  0.320044  0.671200  1
  B  B3  1  0.320044  0.678179  0.330577  1
  B  B4  1  0.931255  0.573049  0.929490  1
  B  B5  1  0.573049  0.931255  0.566205  1
  Ru  Ru6  1  0.635834  0.635834  0.364166  1
  Ru  Ru7  1  0.365201  0.365201  0.634799  1
  Ru  Ru8  1  0.882836  0.882836  0.617164  1
  Rh  Rh9  1  0.613450  0.613450  0.886550  1
