# generated using pymatgen
data_Lu6Sc4In5Pb
_symmetry_space_group_name_H-M   'P 1'
_cell_length_a   6.19331906
_cell_length_b   8.79068088
_cell_length_c   8.77355530
_cell_angle_alpha   120.05168487
_cell_angle_beta   90.00534420
_cell_angle_gamma   89.99257575
_symmetry_Int_Tables_number   1
_chemical_formula_structural   Lu6Sc4In5Pb
_chemical_formula_sum   'Lu6 Sc4 In5 Pb1'
_cell_volume   413.45266264
_cell_formula_units_Z   1
loop_
 _symmetry_equiv_pos_site_id
 _symmetry_equiv_pos_as_xyz
  1  'x, y, z'
loop_
 _atom_site_type_symbol
 _atom_site_label
 _atom_site_symmetry_multiplicity
 _atom_site_fract_x
 _atom_site_fract_y
 _atom_site_fract_z
 _atom_site_occupancy
  Lu  Lu0  1  0.749969  0.232833  0.000112  1
  Lu  Lu1  1  0.749912  0.764581  0.762862  1
  Lu  Lu2  1  0.750003  0.001634  0.236886  1
  Lu  Lu3  1  0.250050  0.765063  0.999944  1
  Lu  Lu4  1  0.250024  0.235842  0.234417  1
  Lu  Lu5  1  0.250044  0.001512  0.765877  1
  Sc  Sc6  1  0.498146  0.332425  0.666310  1
  Sc  Sc7  1  0.498104  0.666076  0.333695  1
  Sc  Sc8  1  0.001873  0.666072  0.333635  1
  Sc  Sc9  1  0.001863  0.332397  0.666271  1
  In  In10  1  0.749975  0.406731  0.406323  1
  In  In11  1  0.749917  0.000417  0.593706  1
  In  In12  1  0.250053  0.403617  0.000023  1
  In  In13  1  0.249972  0.594133  0.594843  1
  In  In14  1  0.250106  0.999263  0.405136  1
  Pb  Pb15  1  0.749988  0.597406  0.999961  1
