# generated using pymatgen
data_LiZr2(Ni10P3)2
_symmetry_space_group_name_H-M   'P 1'
_cell_length_a   7.89161829
_cell_length_b   7.89161794
_cell_length_c   7.89161800
_cell_angle_alpha   59.99999974
_cell_angle_beta   60.00000122
_cell_angle_gamma   59.99999934
_symmetry_Int_Tables_number   1
_chemical_formula_structural   LiZr2(Ni10P3)2
_chemical_formula_sum   'Li1 Zr2 Ni20 P6'
_cell_volume   347.52270171
_cell_formula_units_Z   1
loop_
 _symmetry_equiv_pos_site_id
 _symmetry_equiv_pos_as_xyz
  1  'x, y, z'
loop_
 _atom_site_type_symbol
 _atom_site_label
 _atom_site_symmetry_multiplicity
 _atom_site_fract_x
 _atom_site_fract_y
 _atom_site_fract_z
 _atom_site_occupancy
  Li  Li0  1  0.000000  0.000000  0.000000  1
  Zr  Zr1  1  0.250000  0.250000  0.250000  1
  Zr  Zr2  1  0.750000  0.750000  0.750000  1
  Ni  Ni3  1  0.385094  0.385094  0.844719  1
  Ni  Ni4  1  0.614907  0.614907  0.614906  1
  Ni  Ni5  1  0.000000  0.351370  0.000000  1
  Ni  Ni6  1  0.351370  0.000000  0.000000  1
  Ni  Ni7  1  0.000000  0.351370  0.648630  1
  Ni  Ni8  1  0.844719  0.385094  0.385093  1
  Ni  Ni9  1  0.351370  0.000000  0.648630  1
  Ni  Ni10  1  0.000000  0.000000  0.351370  1
  Ni  Ni11  1  0.648630  0.351370  0.000000  1
  Ni  Ni12  1  0.000000  0.648630  0.351370  1
  Ni  Ni13  1  0.000000  0.000000  0.648630  1
  Ni  Ni14  1  0.351370  0.648630  0.000000  1
  Ni  Ni15  1  0.648630  0.000000  0.000000  1
  Ni  Ni16  1  0.000000  0.648630  0.000000  1
  Ni  Ni17  1  0.385094  0.844720  0.385094  1
  Ni  Ni18  1  0.614906  0.614907  0.155280  1
  Ni  Ni19  1  0.614906  0.155281  0.614906  1
  Ni  Ni20  1  0.155281  0.614907  0.614907  1
  Ni  Ni21  1  0.385093  0.385094  0.385093  1
  Ni  Ni22  1  0.648630  0.000000  0.351370  1
  P  P23  1  0.259230  0.259230  0.740770  1
  P  P24  1  0.740770  0.740770  0.259230  1
  P  P25  1  0.740770  0.259230  0.259230  1
  P  P26  1  0.259230  0.740770  0.740770  1
  P  P27  1  0.259230  0.740770  0.259230  1
  P  P28  1  0.740770  0.259230  0.740770  1
