# generated using pymatgen
data_AcCdP7Ru12
_symmetry_space_group_name_H-M   'P 1'
_cell_length_a   9.53175900
_cell_length_b   9.53175824
_cell_length_c   3.94161200
_cell_angle_alpha   90.00000000
_cell_angle_beta   90.00000000
_cell_angle_gamma   119.99999130
_symmetry_Int_Tables_number   1
_chemical_formula_structural   AcCdP7Ru12
_chemical_formula_sum   'Ac1 Cd1 P7 Ru12'
_cell_volume   310.13487995
_cell_formula_units_Z   1
loop_
 _symmetry_equiv_pos_site_id
 _symmetry_equiv_pos_as_xyz
  1  'x, y, z'
loop_
 _atom_site_type_symbol
 _atom_site_label
 _atom_site_symmetry_multiplicity
 _atom_site_fract_x
 _atom_site_fract_y
 _atom_site_fract_z
 _atom_site_occupancy
  Ac  Ac0  1  0.333333  0.666667  0.000000  1
  Cd  Cd1  1  0.666667  0.333333  0.500000  1
  P  P2  1  0.609982  0.707982  0.500000  1
  P  P3  1  0.000000  0.000000  0.000000  1
  P  P4  1  0.292018  0.902000  0.500000  1
  P  P5  1  0.098000  0.390018  0.500000  1
  P  P6  1  0.908267  0.598922  0.000000  1
  P  P7  1  0.401078  0.309345  0.000000  1
  P  P8  1  0.690655  0.091733  0.000000  1
  Ru  Ru9  1  0.563061  0.956583  0.500000  1
  Ru  Ru10  1  0.393524  0.436939  0.500000  1
  Ru  Ru11  1  0.908057  0.114383  0.500000  1
  Ru  Ru12  1  0.206327  0.091943  0.500000  1
  Ru  Ru13  1  0.885617  0.793673  0.500000  1
  Ru  Ru14  1  0.724937  0.870071  0.000000  1
  Ru  Ru15  1  0.129929  0.854866  0.000000  1
  Ru  Ru16  1  0.145134  0.275063  0.000000  1
  Ru  Ru17  1  0.445262  0.094258  0.000000  1
  Ru  Ru18  1  0.905742  0.351005  0.000000  1
  Ru  Ru19  1  0.648995  0.554738  0.000000  1
  Ru  Ru20  1  0.043417  0.606476  0.500000  1
