# generated using pymatgen
data_YHo3PtRh3O14
_symmetry_space_group_name_H-M   'P 1'
_cell_length_a   7.21633180
_cell_length_b   7.24078012
_cell_length_c   7.24078000
_cell_angle_alpha   60.00000056
_cell_angle_beta   59.88786580
_cell_angle_gamma   59.88785794
_symmetry_Int_Tables_number   1
_chemical_formula_structural   YHo3PtRh3O14
_chemical_formula_sum   'Y1 Ho3 Pt1 Rh3 O14'
_cell_volume   267.07547614
_cell_formula_units_Z   1
loop_
 _symmetry_equiv_pos_site_id
 _symmetry_equiv_pos_as_xyz
  1  'x, y, z'
loop_
 _atom_site_type_symbol
 _atom_site_label
 _atom_site_symmetry_multiplicity
 _atom_site_fract_x
 _atom_site_fract_y
 _atom_site_fract_z
 _atom_site_occupancy
  Y  Y0  1  0.625000  0.125000  0.125000  1
  Ho  Ho1  1  0.125000  0.625000  0.125000  1
  Ho  Ho2  1  0.125000  0.125000  0.625000  1
  Ho  Ho3  1  0.125000  0.125000  0.125000  1
  Pt  Pt4  1  0.125000  0.625000  0.625000  1
  Rh  Rh5  1  0.625000  0.625000  0.625000  1
  Rh  Rh6  1  0.625000  0.625000  0.125000  1
  Rh  Rh7  1  0.625000  0.125000  0.625000  1
  O  O8  1  0.284477  0.715327  0.715327  1
  O  O9  1  0.539325  0.961154  0.961154  1
  O  O10  1  0.710675  0.711633  0.288846  1
  O  O11  1  0.284477  0.284869  0.715327  1
  O  O12  1  0.001828  0.999391  0.999391  1
  O  O13  1  0.284477  0.715327  0.284869  1
  O  O14  1  0.710675  0.288846  0.711633  1
  O  O15  1  0.965523  0.534673  0.965131  1
  O  O16  1  0.539325  0.538367  0.961154  1
  O  O17  1  0.965523  0.965131  0.534673  1
  O  O18  1  0.248172  0.250609  0.250609  1
  O  O19  1  0.539325  0.961154  0.538367  1
  O  O20  1  0.710675  0.288846  0.288846  1
  O  O21  1  0.965523  0.534673  0.534673  1
