# generated using pymatgen
data_Ca5Yb5(Pr5Sn8)2
_symmetry_space_group_name_H-M   'P 1'
_cell_length_a   8.00563353
_cell_length_b   8.54609430
_cell_length_c   16.13738034
_cell_angle_alpha   89.95611830
_cell_angle_beta   89.99204784
_cell_angle_gamma   90.00168282
_symmetry_Int_Tables_number   1
_chemical_formula_structural   Ca5Yb5(Pr5Sn8)2
_chemical_formula_sum   'Ca5 Yb5 Pr10 Sn16'
_cell_volume   1104.06918830
_cell_formula_units_Z   1
loop_
 _symmetry_equiv_pos_site_id
 _symmetry_equiv_pos_as_xyz
  1  'x, y, z'
loop_
 _atom_site_type_symbol
 _atom_site_label
 _atom_site_symmetry_multiplicity
 _atom_site_fract_x
 _atom_site_fract_y
 _atom_site_fract_z
 _atom_site_occupancy
  Ca  Ca0  1  0.333143  0.828383  0.878327  1
  Ca  Ca1  1  0.164954  0.498999  0.750074  1
  Ca  Ca2  1  0.664630  0.002647  0.749177  1
  Ca  Ca3  1  0.834163  0.496452  0.250109  1
  Ca  Ca4  1  0.334313  0.002281  0.250553  1
  Yb  Yb5  1  0.835529  0.672033  0.621920  1
  Yb  Yb6  1  0.665998  0.172445  0.375435  1
  Yb  Yb7  1  0.166306  0.327186  0.124608  1
  Yb  Yb8  1  0.664281  0.171920  0.124917  1
  Yb  Yb9  1  0.163509  0.327349  0.375199  1
  Pr  Pr10  1  0.336164  0.825992  0.623422  1
  Pr  Pr11  1  0.834874  0.674905  0.876393  1
  Pr  Pr12  1  0.494312  0.313710  0.906254  1
  Pr  Pr13  1  0.995992  0.186816  0.593653  1
  Pr  Pr14  1  0.506855  0.684428  0.402310  1
  Pr  Pr15  1  0.007022  0.814602  0.097892  1
  Pr  Pr16  1  0.504092  0.686020  0.097716  1
  Pr  Pr17  1  0.003594  0.813566  0.402700  1
  Pr  Pr18  1  0.495546  0.316570  0.593997  1
  Pr  Pr19  1  0.994398  0.184204  0.905673  1
  Sn  Sn20  1  0.327734  0.036836  0.039954  1
  Sn  Sn21  1  0.826999  0.462584  0.461263  1
  Sn  Sn22  1  0.674311  0.965859  0.537880  1
  Sn  Sn23  1  0.171846  0.532650  0.962176  1
  Sn  Sn24  1  0.670615  0.966055  0.963301  1
  Sn  Sn25  1  0.172019  0.534954  0.536602  1
  Sn  Sn26  1  0.328416  0.037005  0.460436  1
  Sn  Sn27  1  0.828259  0.463198  0.039911  1
  Sn  Sn28  1  0.537325  0.603021  0.749376  1
  Sn  Sn29  1  0.036008  0.897426  0.749255  1
  Sn  Sn30  1  0.462539  0.394276  0.250118  1
  Sn  Sn31  1  0.962757  0.104528  0.249706  1
  Sn  Sn32  1  0.291008  0.142578  0.748940  1
  Sn  Sn33  1  0.791887  0.359685  0.750707  1
  Sn  Sn34  1  0.709393  0.859920  0.249768  1
  Sn  Sn35  1  0.209204  0.638919  0.250277  1
