# generated using pymatgen
data_Dy8Cd2OsPt
_symmetry_space_group_name_H-M   'P 1'
_cell_length_a   9.66424817
_cell_length_b   9.66424720
_cell_length_c   9.71399900
_cell_angle_alpha   59.82955461
_cell_angle_beta   59.82955796
_cell_angle_gamma   59.73505554
_symmetry_Int_Tables_number   1
_chemical_formula_structural   Dy8Cd2OsPt
_chemical_formula_sum   'Dy16 Cd4 Os2 Pt2'
_cell_volume   638.59105417
_cell_formula_units_Z   2
loop_
 _symmetry_equiv_pos_site_id
 _symmetry_equiv_pos_as_xyz
  1  'x, y, z'
loop_
 _atom_site_type_symbol
 _atom_site_label
 _atom_site_symmetry_multiplicity
 _atom_site_fract_x
 _atom_site_fract_y
 _atom_site_fract_z
 _atom_site_occupancy
  Dy  Dy0  1  0.349502  0.349502  0.351984  1
  Dy  Dy1  1  0.349502  0.349502  0.949012  1
  Dy  Dy2  1  0.346844  0.953343  0.349907  1
  Dy  Dy3  1  0.953343  0.346844  0.349907  1
  Dy  Dy4  1  0.814177  0.188250  0.190495  1
  Dy  Dy5  1  0.188250  0.814177  0.807078  1
  Dy  Dy6  1  0.188250  0.814177  0.190495  1
  Dy  Dy7  1  0.814177  0.188250  0.807078  1
  Dy  Dy8  1  0.188376  0.188376  0.811624  1
  Dy  Dy9  1  0.808593  0.808593  0.191407  1
  Dy  Dy10  1  0.938240  0.557150  0.566443  1
  Dy  Dy11  1  0.557150  0.938240  0.938167  1
  Dy  Dy12  1  0.557150  0.938240  0.566443  1
  Dy  Dy13  1  0.938240  0.557149  0.938167  1
  Dy  Dy14  1  0.563940  0.563940  0.936060  1
  Dy  Dy15  1  0.940394  0.940394  0.559605  1
  Cd  Cd16  1  0.580384  0.580384  0.581742  1
  Cd  Cd17  1  0.580384  0.580384  0.257490  1
  Cd  Cd18  1  0.581103  0.254993  0.581952  1
  Cd  Cd19  1  0.254993  0.581103  0.581952  1
  Os  Os20  1  0.144113  0.144113  0.137488  1
  Os  Os21  1  0.144113  0.144113  0.574287  1
  Pt  Pt22  1  0.144447  0.574335  0.140610  1
  Pt  Pt23  1  0.574335  0.144447  0.140610  1
