# generated using pymatgen
data_Dy4GeAs5Ir7
_symmetry_space_group_name_H-M   'P 1'
_cell_length_a   7.30100319
_cell_length_b   7.30100153
_cell_length_c   7.30100250
_cell_angle_alpha   109.05788445
_cell_angle_beta   109.67828478
_cell_angle_gamma   109.67827905
_symmetry_Int_Tables_number   1
_chemical_formula_structural   Dy4GeAs5Ir7
_chemical_formula_sum   'Dy4 Ge1 As5 Ir7'
_cell_volume   299.57713372
_cell_formula_units_Z   1
loop_
 _symmetry_equiv_pos_site_id
 _symmetry_equiv_pos_as_xyz
  1  'x, y, z'
loop_
 _atom_site_type_symbol
 _atom_site_label
 _atom_site_symmetry_multiplicity
 _atom_site_fract_x
 _atom_site_fract_y
 _atom_site_fract_z
 _atom_site_occupancy
  Dy  Dy0  1  0.000000  0.000418  0.498907  1
  Dy  Dy1  1  0.000000  0.498907  0.000418  1
  Dy  Dy2  1  0.501512  0.000418  0.000418  1
  Dy  Dy3  1  0.498488  0.498907  0.498907  1
  Ge  Ge4  1  0.000000  0.682348  0.682348  1
  As  As5  1  0.682663  0.681318  0.998655  1
  As  As6  1  0.317337  0.998655  0.315992  1
  As  As7  1  0.000000  0.324464  0.324464  1
  As  As8  1  0.317337  0.315992  0.998655  1
  As  As9  1  0.682663  0.998655  0.681318  1
  Ir  Ir10  1  0.749190  0.251901  0.502711  1
  Ir  Ir11  1  0.749190  0.502711  0.251901  1
  Ir  Ir12  1  0.500000  0.250387  0.750387  1
  Ir  Ir13  1  0.250810  0.502711  0.753521  1
  Ir  Ir14  1  0.250810  0.753521  0.502711  1
  Ir  Ir15  1  0.500000  0.750387  0.250387  1
  Ir  Ir16  1  0.000000  0.988298  0.988298  1
