# generated using pymatgen
data_Er11TmTc3Pt
_symmetry_space_group_name_H-M   'P 1'
_cell_length_a   6.25174026
_cell_length_b   7.34711310
_cell_length_c   9.06685259
_cell_angle_alpha   90.01675541
_cell_angle_beta   90.06572574
_cell_angle_gamma   89.97984321
_symmetry_Int_Tables_number   1
_chemical_formula_structural   Er11TmTc3Pt
_chemical_formula_sum   'Er11 Tm1 Tc3 Pt1'
_cell_volume   416.46055709
_cell_formula_units_Z   1
loop_
 _symmetry_equiv_pos_site_id
 _symmetry_equiv_pos_as_xyz
  1  'x, y, z'
loop_
 _atom_site_type_symbol
 _atom_site_label
 _atom_site_symmetry_multiplicity
 _atom_site_fract_x
 _atom_site_fract_y
 _atom_site_fract_z
 _atom_site_occupancy
  Er  Er0  1  0.330927  0.675923  0.066448  1
  Er  Er1  1  0.163136  0.177171  0.436183  1
  Er  Er2  1  0.665722  0.318306  0.558588  1
  Er  Er3  1  0.839203  0.828218  0.940702  1
  Er  Er4  1  0.665686  0.318231  0.941573  1
  Er  Er5  1  0.838901  0.827938  0.559369  1
  Er  Er6  1  0.331054  0.675927  0.433499  1
  Er  Er7  1  0.874385  0.542252  0.249845  1
  Er  Er8  1  0.621324  0.037524  0.249851  1
  Er  Er9  1  0.127714  0.455774  0.750177  1
  Er  Er10  1  0.372768  0.964959  0.750186  1
  Tm  Tm11  1  0.163170  0.177186  0.063562  1
  Tc  Tc12  1  0.038002  0.885286  0.249931  1
  Tc  Tc13  1  0.464152  0.386056  0.249867  1
  Tc  Tc14  1  0.958740  0.115226  0.750240  1
  Pt  Pt15  1  0.545116  0.614022  0.749978  1
