# generated using pymatgen
data_Be4Cu2PdRu
_symmetry_space_group_name_H-M   'P 1'
_cell_length_a   5.43271700
_cell_length_b   5.43154900
_cell_length_c   5.65796400
_cell_angle_alpha   90.00011350
_cell_angle_beta   90.00000000
_cell_angle_gamma   90.00000000
_symmetry_Int_Tables_number   1
_chemical_formula_structural   Be4Cu2PdRu
_chemical_formula_sum   'Be8 Cu4 Pd2 Ru2'
_cell_volume   166.95558978
_cell_formula_units_Z   2
loop_
 _symmetry_equiv_pos_site_id
 _symmetry_equiv_pos_as_xyz
  1  'x, y, z'
loop_
 _atom_site_type_symbol
 _atom_site_label
 _atom_site_symmetry_multiplicity
 _atom_site_fract_x
 _atom_site_fract_y
 _atom_site_fract_z
 _atom_site_occupancy
  Be  Be0  1  0.500003  0.500041  0.249688  1
  Be  Be1  1  0.500000  0.999957  0.249687  1
  Be  Be2  1  0.000001  0.499957  0.250312  1
  Be  Be3  1  0.000000  0.000043  0.250313  1
  Be  Be4  1  0.000054  0.500040  0.749679  1
  Be  Be5  1  0.000057  0.999957  0.749680  1
  Be  Be6  1  0.500054  0.499958  0.750322  1
  Be  Be7  1  0.500057  0.000043  0.750321  1
  Cu  Cu8  1  0.249971  0.750001  0.000091  1
  Cu  Cu9  1  0.749972  0.250001  0.499909  1
  Cu  Cu10  1  0.250024  0.750001  0.500097  1
  Cu  Cu11  1  0.750025  0.250001  0.999903  1
  Pd  Pd12  1  0.249701  0.250001  0.000017  1
  Pd  Pd13  1  0.749702  0.750001  0.499981  1
  Ru  Ru14  1  0.250187  0.250001  0.499960  1
  Ru  Ru15  1  0.750189  0.750001  0.000040  1
