# generated using pymatgen
data_Dy3CdIn3Ni2
_symmetry_space_group_name_H-M   'P 1'
_cell_length_a   7.82912500
_cell_length_b   7.82912376
_cell_length_c   3.68359400
_cell_angle_alpha   90.00000000
_cell_angle_beta   90.00000000
_cell_angle_gamma   120.00000832
_symmetry_Int_Tables_number   1
_chemical_formula_structural   Dy3CdIn3Ni2
_chemical_formula_sum   'Dy3 Cd1 In3 Ni2'
_cell_volume   195.53690542
_cell_formula_units_Z   1
loop_
 _symmetry_equiv_pos_site_id
 _symmetry_equiv_pos_as_xyz
  1  'x, y, z'
loop_
 _atom_site_type_symbol
 _atom_site_label
 _atom_site_symmetry_multiplicity
 _atom_site_fract_x
 _atom_site_fract_y
 _atom_site_fract_z
 _atom_site_occupancy
  Dy  Dy0  1  0.034782  0.614366  0.500000  1
  Dy  Dy1  1  0.579583  0.965218  0.500000  1
  Dy  Dy2  1  0.385634  0.420417  0.500000  1
  Cd  Cd3  1  0.666667  0.333333  0.000000  1
  In  In4  1  0.995002  0.248303  0.000000  1
  In  In5  1  0.253301  0.004998  0.000000  1
  In  In6  1  0.751697  0.746699  0.000000  1
  Ni  Ni7  1  0.000000  0.000000  0.500000  1
  Ni  Ni8  1  0.333333  0.666667  0.000000  1
