# generated using pymatgen
data_Ac3SnSe2
_symmetry_space_group_name_H-M   'P 1'
_cell_length_a   7.94114488
_cell_length_b   7.94114517
_cell_length_c   7.94114614
_cell_angle_alpha   145.86952454
_cell_angle_beta   131.69968878
_cell_angle_gamma   60.46282258
_symmetry_Int_Tables_number   1
_chemical_formula_structural   Ac3SnSe2
_chemical_formula_sum   'Ac3 Sn1 Se2'
_cell_volume   207.79388523
_cell_formula_units_Z   1
loop_
 _symmetry_equiv_pos_site_id
 _symmetry_equiv_pos_as_xyz
  1  'x, y, z'
loop_
 _atom_site_type_symbol
 _atom_site_label
 _atom_site_symmetry_multiplicity
 _atom_site_fract_x
 _atom_site_fract_y
 _atom_site_fract_z
 _atom_site_occupancy
  Ac  Ac0  1  0.829113  0.329113  0.500000  1
  Ac  Ac1  1  0.500000  0.000000  0.500000  1
  Ac  Ac2  1  0.170887  0.670887  0.500000  1
  Sn  Sn3  1  0.000000  0.000000  0.000000  1
  Se  Se4  1  0.664576  0.664576  0.000000  1
  Se  Se5  1  0.335424  0.335424  0.000000  1
