# generated using pymatgen
data_Nd6HoScAu10
_symmetry_space_group_name_H-M   'P 1'
_cell_length_a   8.17284043
_cell_length_b   8.17284043
_cell_length_c   8.17284141
_cell_angle_alpha   65.84447798
_cell_angle_beta   65.84447759
_cell_angle_gamma   65.84445868
_symmetry_Int_Tables_number   1
_chemical_formula_structural   Nd6HoScAu10
_chemical_formula_sum   'Nd6 Ho1 Sc1 Au10'
_cell_volume   434.90749376
_cell_formula_units_Z   1
loop_
 _symmetry_equiv_pos_site_id
 _symmetry_equiv_pos_as_xyz
  1  'x, y, z'
loop_
 _atom_site_type_symbol
 _atom_site_label
 _atom_site_symmetry_multiplicity
 _atom_site_fract_x
 _atom_site_fract_y
 _atom_site_fract_z
 _atom_site_occupancy
  Nd  Nd0  1  0.893738  0.184671  0.620730  1
  Nd  Nd1  1  0.620730  0.893738  0.184671  1
  Nd  Nd2  1  0.184671  0.620730  0.893738  1
  Nd  Nd3  1  0.109426  0.812356  0.378486  1
  Nd  Nd4  1  0.378486  0.109426  0.812356  1
  Nd  Nd5  1  0.812356  0.378486  0.109426  1
  Ho  Ho6  1  0.656708  0.656708  0.656708  1
  Sc  Sc7  1  0.343061  0.343061  0.343061  1
  Au  Au8  1  0.000265  0.000265  0.000265  1
  Au  Au9  1  0.497942  0.497942  0.497942  1
  Au  Au10  1  0.804281  0.804281  0.804281  1
  Au  Au11  1  0.198342  0.198342  0.198342  1
  Au  Au12  1  0.943384  0.546731  0.320142  1
  Au  Au13  1  0.320142  0.943384  0.546731  1
  Au  Au14  1  0.546731  0.320142  0.943384  1
  Au  Au15  1  0.063674  0.450520  0.675542  1
  Au  Au16  1  0.675542  0.063674  0.450520  1
  Au  Au17  1  0.450520  0.675542  0.063674  1
