# generated using pymatgen
data_Dy11HoTc3Ru
_symmetry_space_group_name_H-M   'P 1'
_cell_length_a   6.29432739
_cell_length_b   7.39104129
_cell_length_c   9.16115309
_cell_angle_alpha   89.99231051
_cell_angle_beta   90.01362724
_cell_angle_gamma   90.00340149
_symmetry_Int_Tables_number   1
_chemical_formula_structural   Dy11HoTc3Ru
_chemical_formula_sum   'Dy11 Ho1 Tc3 Ru1'
_cell_volume   426.19179140
_cell_formula_units_Z   1
loop_
 _symmetry_equiv_pos_site_id
 _symmetry_equiv_pos_as_xyz
  1  'x, y, z'
loop_
 _atom_site_type_symbol
 _atom_site_label
 _atom_site_symmetry_multiplicity
 _atom_site_fract_x
 _atom_site_fract_y
 _atom_site_fract_z
 _atom_site_occupancy
  Dy  Dy0  1  0.335358  0.676446  0.063483  1
  Dy  Dy1  1  0.162203  0.175586  0.437067  1
  Dy  Dy2  1  0.662268  0.324491  0.562989  1
  Dy  Dy3  1  0.836611  0.824287  0.937370  1
  Dy  Dy4  1  0.662203  0.324412  0.937086  1
  Dy  Dy5  1  0.836494  0.824060  0.562698  1
  Dy  Dy6  1  0.335438  0.676470  0.436546  1
  Dy  Dy7  1  0.873811  0.540768  0.249927  1
  Dy  Dy8  1  0.626102  0.039801  0.249866  1
  Dy  Dy9  1  0.130942  0.458138  0.750054  1
  Dy  Dy10  1  0.373241  0.957456  0.750085  1
  Ho  Ho11  1  0.162289  0.175542  0.062756  1
  Tc  Tc12  1  0.039807  0.884868  0.249895  1
  Tc  Tc13  1  0.461760  0.386549  0.249821  1
  Tc  Tc14  1  0.962197  0.115400  0.750344  1
  Ru  Ru15  1  0.539276  0.615727  0.750011  1
