# generated using pymatgen
data_Zr10Ge2BiPb5
_symmetry_space_group_name_H-M   'P 1'
_cell_length_a   8.86116690
_cell_length_b   8.86116690
_cell_length_c   5.98064400
_cell_angle_alpha   90.00000000
_cell_angle_beta   90.00000000
_cell_angle_gamma   119.93877770
_symmetry_Int_Tables_number   1
_chemical_formula_structural   Zr10Ge2BiPb5
_chemical_formula_sum   'Zr10 Ge2 Bi1 Pb5'
_cell_volume   406.93777782
_cell_formula_units_Z   1
loop_
 _symmetry_equiv_pos_site_id
 _symmetry_equiv_pos_as_xyz
  1  'x, y, z'
loop_
 _atom_site_type_symbol
 _atom_site_label
 _atom_site_symmetry_multiplicity
 _atom_site_fract_x
 _atom_site_fract_y
 _atom_site_fract_z
 _atom_site_occupancy
  Zr  Zr0  1  0.666342  0.333133  0.500214  1
  Zr  Zr1  1  0.333133  0.666342  0.500214  1
  Zr  Zr2  1  0.333133  0.666342  0.999786  1
  Zr  Zr3  1  0.666342  0.333133  0.999786  1
  Zr  Zr4  1  0.740753  0.740753  0.250000  1
  Zr  Zr5  1  0.259190  0.998874  0.250000  1
  Zr  Zr6  1  0.998874  0.259190  0.250000  1
  Zr  Zr7  1  0.260294  0.260294  0.750000  1
  Zr  Zr8  1  0.740301  0.000233  0.750000  1
  Zr  Zr9  1  0.000233  0.740301  0.750000  1
  Ge  Ge10  1  0.000171  0.000171  0.500223  1
  Ge  Ge11  1  0.000171  0.000171  0.999777  1
  Bi  Bi12  1  0.393693  0.393693  0.250000  1
  Pb  Pb13  1  0.606399  0.999690  0.250000  1
  Pb  Pb14  1  0.999690  0.606399  0.250000  1
  Pb  Pb15  1  0.608708  0.608708  0.750000  1
  Pb  Pb16  1  0.393183  0.999389  0.750000  1
  Pb  Pb17  1  0.999389  0.393183  0.750000  1
