# generated using pymatgen
data_SrVRuF12
_symmetry_space_group_name_H-M   'P 1'
_cell_length_a   11.38879135
_cell_length_b   5.71506440
_cell_length_c   5.72890500
_cell_angle_alpha   57.53719700
_cell_angle_beta   57.06980468
_cell_angle_gamma   57.20808233
_symmetry_Int_Tables_number   1
_chemical_formula_structural   SrVRuF12
_chemical_formula_sum   'Sr1 V1 Ru1 F12'
_cell_volume   247.09298065
_cell_formula_units_Z   1
loop_
 _symmetry_equiv_pos_site_id
 _symmetry_equiv_pos_as_xyz
  1  'x, y, z'
loop_
 _atom_site_type_symbol
 _atom_site_label
 _atom_site_symmetry_multiplicity
 _atom_site_fract_x
 _atom_site_fract_y
 _atom_site_fract_z
 _atom_site_occupancy
  Sr  Sr0  1  0.744633  0.499381  0.507829  1
  V  V1  1  0.469884  0.018903  0.022637  1
  Ru  Ru2  1  0.026140  0.985306  0.978336  1
  F  F3  1  0.197227  0.080381  0.766173  1
  F  F4  1  0.652559  0.093072  0.813155  1
  F  F5  1  0.059564  0.786308  0.333801  1
  F  F6  1  0.531366  0.800237  0.346500  1
  F  F7  1  0.124384  0.638867  0.893073  1
  F  F8  1  0.589371  0.670236  0.927666  1
  F  F9  1  0.442965  0.203393  0.681132  1
  F  F10  1  0.971005  0.207613  0.630985  1
  F  F11  1  0.312568  0.914824  0.227904  1
  F  F12  1  0.838680  0.909574  0.193254  1
  F  F13  1  0.381466  0.343807  0.106164  1
  F  F14  1  0.908189  0.348100  0.071396  1
