# generated using pymatgen
data_Mg4Hg3Pd8Au
_symmetry_space_group_name_H-M   'P 1'
_cell_length_a   5.95223500
_cell_length_b   5.95854800
_cell_length_c   7.61816000
_cell_angle_alpha   90.00057427
_cell_angle_beta   89.99983063
_cell_angle_gamma   90.00050028
_symmetry_Int_Tables_number   1
_chemical_formula_structural   Mg4Hg3Pd8Au
_chemical_formula_sum   'Mg4 Hg3 Pd8 Au1'
_cell_volume   270.19082732
_cell_formula_units_Z   1
loop_
 _symmetry_equiv_pos_site_id
 _symmetry_equiv_pos_as_xyz
  1  'x, y, z'
loop_
 _atom_site_type_symbol
 _atom_site_label
 _atom_site_symmetry_multiplicity
 _atom_site_fract_x
 _atom_site_fract_y
 _atom_site_fract_z
 _atom_site_occupancy
  Mg  Mg0  1  0.250065  0.250002  0.999998  1
  Mg  Mg1  1  0.749951  0.749998  0.000000  1
  Mg  Mg2  1  0.750032  0.749999  0.500000  1
  Mg  Mg3  1  0.249995  0.250001  0.500002  1
  Hg  Hg4  1  0.750010  0.250006  0.999999  1
  Hg  Hg5  1  0.249980  0.749995  0.999997  1
  Hg  Hg6  1  0.749997  0.250005  0.500001  1
  Pd  Pd7  1  0.498668  0.998692  0.250623  1
  Pd  Pd8  1  0.498666  0.501308  0.250622  1
  Pd  Pd9  1  0.001335  0.998677  0.250525  1
  Pd  Pd10  1  0.001335  0.501324  0.250525  1
  Pd  Pd11  1  0.001336  0.998674  0.749475  1
  Pd  Pd12  1  0.001337  0.501324  0.749475  1
  Pd  Pd13  1  0.498669  0.998692  0.749378  1
  Pd  Pd14  1  0.498670  0.501308  0.749376  1
  Au  Au15  1  0.249956  0.749995  0.500003  1
