# generated using pymatgen
data_Tb4Hg2RhAu3
_symmetry_space_group_name_H-M   'P 1'
_cell_length_a   7.89964545
_cell_length_b   7.89964528
_cell_length_c   3.74099900
_cell_angle_alpha   90.00000000
_cell_angle_beta   90.00000000
_cell_angle_gamma   90.27862479
_symmetry_Int_Tables_number   1
_chemical_formula_structural   Tb4Hg2RhAu3
_chemical_formula_sum   'Tb4 Hg2 Rh1 Au3'
_cell_volume   233.45202609
_cell_formula_units_Z   1
loop_
 _symmetry_equiv_pos_site_id
 _symmetry_equiv_pos_as_xyz
  1  'x, y, z'
loop_
 _atom_site_type_symbol
 _atom_site_label
 _atom_site_symmetry_multiplicity
 _atom_site_fract_x
 _atom_site_fract_y
 _atom_site_fract_z
 _atom_site_occupancy
  Tb  Tb0  1  0.151494  0.319982  0.500000  1
  Tb  Tb1  1  0.685830  0.185830  0.500000  1
  Tb  Tb2  1  0.819982  0.651494  0.500000  1
  Tb  Tb3  1  0.330158  0.830158  0.500000  1
  Hg  Hg4  1  0.998993  0.004853  0.000000  1
  Hg  Hg5  1  0.504853  0.498993  0.000000  1
  Rh  Rh6  1  0.873941  0.373941  0.000000  1
  Au  Au7  1  0.126714  0.626714  0.000000  1
  Au  Au8  1  0.631836  0.876197  0.000000  1
  Au  Au9  1  0.376197  0.131836  0.000000  1
