# generated using pymatgen
data_YbDyTm4(CoSn6)2
_symmetry_space_group_name_H-M   'P 1'
_cell_length_a   8.40794676
_cell_length_b   8.40794836
_cell_length_c   13.08637720
_cell_angle_alpha   90.06364659
_cell_angle_beta   89.93636137
_cell_angle_gamma   148.43233190
_symmetry_Int_Tables_number   1
_chemical_formula_structural   YbDyTm4(CoSn6)2
_chemical_formula_sum   'Yb1 Dy1 Tm4 Co2 Sn12'
_cell_volume   484.30631148
_cell_formula_units_Z   1
loop_
 _symmetry_equiv_pos_site_id
 _symmetry_equiv_pos_as_xyz
  1  'x, y, z'
loop_
 _atom_site_type_symbol
 _atom_site_label
 _atom_site_symmetry_multiplicity
 _atom_site_fract_x
 _atom_site_fract_y
 _atom_site_fract_z
 _atom_site_occupancy
  Yb  Yb0  1  0.899925  0.100075  0.403397  1
  Dy  Dy1  1  0.899016  0.100984  0.094406  1
  Tm  Tm2  1  0.101525  0.898475  0.596168  1
  Tm  Tm3  1  0.901330  0.098670  0.752109  1
  Tm  Tm4  1  0.101170  0.898830  0.905040  1
  Tm  Tm5  1  0.099301  0.900699  0.248881  1
  Co  Co6  1  0.298395  0.701605  0.250137  1
  Co  Co7  1  0.700024  0.299976  0.749872  1
  Sn  Sn8  1  0.757557  0.242443  0.572188  1
  Sn  Sn9  1  0.427979  0.572021  0.577139  1
  Sn  Sn10  1  0.573831  0.426169  0.424677  1
  Sn  Sn11  1  0.732469  0.267531  0.248885  1
  Sn  Sn12  1  0.266566  0.733434  0.750444  1
  Sn  Sn13  1  0.242511  0.757489  0.071202  1
  Sn  Sn14  1  0.242692  0.757308  0.429030  1
  Sn  Sn15  1  0.573045  0.426955  0.073920  1
  Sn  Sn16  1  0.454827  0.545173  0.248074  1
  Sn  Sn17  1  0.545372  0.454628  0.751070  1
  Sn  Sn18  1  0.756446  0.243554  0.928029  1
  Sn  Sn19  1  0.426019  0.573981  0.925334  1
