# generated using pymatgen
data_Y6NiPd
_symmetry_space_group_name_H-M   'P 1'
_cell_length_a   6.46794084
_cell_length_b   6.98041245
_cell_length_c   9.66525700
_cell_angle_alpha   90.00000000
_cell_angle_beta   90.00000000
_cell_angle_gamma   90.33734038
_symmetry_Int_Tables_number   1
_chemical_formula_structural   Y6NiPd
_chemical_formula_sum   'Y12 Ni2 Pd2'
_cell_volume   436.36810764
_cell_formula_units_Z   2
loop_
 _symmetry_equiv_pos_site_id
 _symmetry_equiv_pos_as_xyz
  1  'x, y, z'
loop_
 _atom_site_type_symbol
 _atom_site_label
 _atom_site_symmetry_multiplicity
 _atom_site_fract_x
 _atom_site_fract_y
 _atom_site_fract_z
 _atom_site_occupancy
  Y  Y0  1  0.629180  0.035484  0.250000  1
  Y  Y1  1  0.370820  0.964516  0.750000  1
  Y  Y2  1  0.145496  0.479550  0.750000  1
  Y  Y3  1  0.854504  0.520450  0.250000  1
  Y  Y4  1  0.180864  0.184244  0.062720  1
  Y  Y5  1  0.819136  0.815756  0.937280  1
  Y  Y6  1  0.676074  0.326388  0.935215  1
  Y  Y7  1  0.819136  0.815756  0.562720  1
  Y  Y8  1  0.323926  0.673612  0.064785  1
  Y  Y9  1  0.180864  0.184244  0.437280  1
  Y  Y10  1  0.323926  0.673612  0.435215  1
  Y  Y11  1  0.676074  0.326388  0.564785  1
  Ni  Ni12  1  0.442337  0.388677  0.250000  1
  Ni  Ni13  1  0.557663  0.611323  0.750000  1
  Pd  Pd14  1  0.950044  0.109299  0.750000  1
  Pd  Pd15  1  0.049956  0.890701  0.250000  1
