# generated using pymatgen
data_YbLu2Ag(Pt2O7)2
_symmetry_space_group_name_H-M   'P 1'
_cell_length_a   7.26779570
_cell_length_b   7.15283586
_cell_length_c   7.26779430
_cell_angle_alpha   59.28209064
_cell_angle_beta   59.88693157
_cell_angle_gamma   59.28208898
_symmetry_Int_Tables_number   1
_chemical_formula_structural   YbLu2Ag(Pt2O7)2
_chemical_formula_sum   'Yb1 Lu2 Ag1 Pt4 O14'
_cell_volume   264.00097630
_cell_formula_units_Z   1
loop_
 _symmetry_equiv_pos_site_id
 _symmetry_equiv_pos_as_xyz
  1  'x, y, z'
loop_
 _atom_site_type_symbol
 _atom_site_label
 _atom_site_symmetry_multiplicity
 _atom_site_fract_x
 _atom_site_fract_y
 _atom_site_fract_z
 _atom_site_occupancy
  Yb  Yb0  1  0.625000  0.625000  0.625000  1
  Lu  Lu1  1  0.625000  0.625000  0.125000  1
  Lu  Lu2  1  0.125000  0.625000  0.625000  1
  Ag  Ag3  1  0.625000  0.125000  0.625000  1
  Pt  Pt4  1  0.125000  0.125000  0.125000  1
  Pt  Pt5  1  0.625000  0.125000  0.125000  1
  Pt  Pt6  1  0.125000  0.125000  0.625000  1
  Pt  Pt7  1  0.125000  0.625000  0.125000  1
  O  O8  1  0.042073  0.468651  0.463852  1
  O  O9  1  0.786148  0.781349  0.207927  1
  O  O10  1  0.792149  0.223196  0.194422  1
  O  O11  1  0.457288  0.041848  0.457288  1
  O  O12  1  0.751315  0.763928  0.751315  1
  O  O13  1  0.031046  0.471018  0.031046  1
  O  O14  1  0.055578  0.026804  0.457851  1
  O  O15  1  0.218954  0.778982  0.218954  1
  O  O16  1  0.194422  0.223196  0.792149  1
  O  O17  1  0.792712  0.208152  0.792712  1
  O  O18  1  0.498685  0.486072  0.498685  1
  O  O19  1  0.457851  0.026804  0.055578  1
  O  O20  1  0.463852  0.468651  0.042073  1
  O  O21  1  0.207927  0.781349  0.786148  1
