# generated using pymatgen
data_Dy4Tm16Bi7Te5
_symmetry_space_group_name_H-M   'P 1'
_cell_length_a   8.11354271
_cell_length_b   9.34287438
_cell_length_c   11.84920800
_cell_angle_alpha   90.04893787
_cell_angle_beta   89.92631066
_cell_angle_gamma   89.96278924
_symmetry_Int_Tables_number   1
_chemical_formula_structural   Dy4Tm16Bi7Te5
_chemical_formula_sum   'Dy4 Tm16 Bi7 Te5'
_cell_volume   898.21385557
_cell_formula_units_Z   1
loop_
 _symmetry_equiv_pos_site_id
 _symmetry_equiv_pos_as_xyz
  1  'x, y, z'
loop_
 _atom_site_type_symbol
 _atom_site_label
 _atom_site_symmetry_multiplicity
 _atom_site_fract_x
 _atom_site_fract_y
 _atom_site_fract_z
 _atom_site_occupancy
  Dy  Dy0  1  0.322651  0.248852  0.217177  1
  Dy  Dy1  1  0.821714  0.246346  0.283550  1
  Dy  Dy2  1  0.676873  0.749831  0.783731  1
  Dy  Dy3  1  0.176506  0.750122  0.715762  1
  Tm  Tm4  1  0.357072  0.752749  0.215134  1
  Tm  Tm5  1  0.854096  0.751206  0.285128  1
  Tm  Tm6  1  0.645226  0.249645  0.784706  1
  Tm  Tm7  1  0.145037  0.250414  0.714984  1
  Tm  Tm8  1  0.686963  0.566179  0.059638  1
  Tm  Tm9  1  0.187535  0.935938  0.440772  1
  Tm  Tm10  1  0.312560  0.064858  0.942117  1
  Tm  Tm11  1  0.811175  0.434523  0.557682  1
  Tm  Tm12  1  0.312567  0.434732  0.941813  1
  Tm  Tm13  1  0.812446  0.064816  0.557942  1
  Tm  Tm14  1  0.687160  0.935295  0.060119  1
  Tm  Tm15  1  0.188522  0.565296  0.440655  1
  Tm  Tm16  1  0.479603  0.248706  0.488721  1
  Tm  Tm17  1  0.979625  0.250361  0.011144  1
  Tm  Tm18  1  0.520781  0.751223  0.509209  1
  Tm  Tm19  1  0.020848  0.749320  0.989758  1
  Bi  Bi20  1  0.070230  0.505407  0.174425  1
  Bi  Bi21  1  0.429717  0.495095  0.672470  1
  Bi  Bi22  1  0.929459  0.004774  0.826609  1
  Bi  Bi23  1  0.430152  0.004876  0.672811  1
  Bi  Bi24  1  0.929042  0.494944  0.826382  1
  Bi  Bi25  1  0.570332  0.504949  0.326226  1
  Bi  Bi26  1  0.070875  0.994825  0.173938  1
  Te  Te27  1  0.399483  0.750029  0.958336  1
  Te  Te28  1  0.899189  0.749934  0.540854  1
  Te  Te29  1  0.600455  0.250200  0.042796  1
  Te  Te30  1  0.101027  0.250708  0.457507  1
  Te  Te31  1  0.571079  0.993851  0.327903  1
