# generated using pymatgen
data_Pr5CoPtO12
_symmetry_space_group_name_H-M   'P 1'
_cell_length_a   7.10339097
_cell_length_b   7.10339102
_cell_length_c   7.60050304
_cell_angle_alpha   74.57343786
_cell_angle_beta   74.57344039
_cell_angle_gamma   50.49526528
_symmetry_Int_Tables_number   1
_chemical_formula_structural   Pr5CoPtO12
_chemical_formula_sum   'Pr5 Co1 Pt1 O12'
_cell_volume   282.81740327
_cell_formula_units_Z   1
loop_
 _symmetry_equiv_pos_site_id
 _symmetry_equiv_pos_as_xyz
  1  'x, y, z'
loop_
 _atom_site_type_symbol
 _atom_site_label
 _atom_site_symmetry_multiplicity
 _atom_site_fract_x
 _atom_site_fract_y
 _atom_site_fract_z
 _atom_site_occupancy
  Pr  Pr0  1  0.312924  0.298847  0.356226  1
  Pr  Pr1  1  0.701153  0.687076  0.643774  1
  Pr  Pr2  1  0.696273  0.692623  0.163168  1
  Pr  Pr3  1  0.307377  0.303727  0.836832  1
  Pr  Pr4  1  0.998178  0.001822  0.500000  1
  Co  Co5  1  0.749191  0.250809  0.000000  1
  Pt  Pt6  1  0.240616  0.759384  0.000000  1
  O  O7  1  0.099873  0.595379  0.577028  1
  O  O8  1  0.982603  0.016196  0.166635  1
  O  O9  1  0.404621  0.900127  0.422972  1
  O  O10  1  0.507269  0.493625  0.167619  1
  O  O11  1  0.098068  0.578401  0.079259  1
  O  O12  1  0.908230  0.399406  0.422718  1
  O  O13  1  0.983804  0.017397  0.833365  1
  O  O14  1  0.600594  0.091769  0.577282  1
  O  O15  1  0.506375  0.492731  0.832381  1
  O  O16  1  0.586255  0.105002  0.076366  1
  O  O17  1  0.421599  0.901932  0.920741  1
  O  O18  1  0.894998  0.413745  0.923634  1
