# generated using pymatgen
data_CaNdSi3Pt
_symmetry_space_group_name_H-M   'P 1'
_cell_length_a   8.21875200
_cell_length_b   8.24781530
_cell_length_c   4.28788400
_cell_angle_alpha   90.00000000
_cell_angle_beta   90.00000000
_cell_angle_gamma   120.11704878
_symmetry_Int_Tables_number   1
_chemical_formula_structural   CaNdSi3Pt
_chemical_formula_sum   'Ca2 Nd2 Si6 Pt2'
_cell_volume   251.42300892
_cell_formula_units_Z   2
loop_
 _symmetry_equiv_pos_site_id
 _symmetry_equiv_pos_as_xyz
  1  'x, y, z'
loop_
 _atom_site_type_symbol
 _atom_site_label
 _atom_site_symmetry_multiplicity
 _atom_site_fract_x
 _atom_site_fract_y
 _atom_site_fract_z
 _atom_site_occupancy
  Ca  Ca0  1  0.500000  0.500000  0.500000  1
  Ca  Ca1  1  0.500000  0.000000  0.500000  1
  Nd  Nd2  1  0.000000  0.000000  0.500000  1
  Nd  Nd3  1  0.000000  0.500000  0.500000  1
  Si  Si4  1  0.332665  0.166331  0.000000  1
  Si  Si5  1  0.832925  0.164261  0.000000  1
  Si  Si6  1  0.832925  0.668664  0.000000  1
  Si  Si7  1  0.167075  0.331336  0.000000  1
  Si  Si8  1  0.167075  0.835739  0.000000  1
  Si  Si9  1  0.667335  0.833669  0.000000  1
  Pt  Pt10  1  0.667780  0.333890  0.000000  1
  Pt  Pt11  1  0.332220  0.666110  0.000000  1
