# generated using pymatgen
data_Zr3U5Ir8
_symmetry_space_group_name_H-M   'P 1'
_cell_length_a   10.44929726
_cell_length_b   5.55310304
_cell_length_c   5.55122007
_cell_angle_alpha   80.94307323
_cell_angle_beta   90.32489121
_cell_angle_gamma   90.18311233
_symmetry_Int_Tables_number   1
_chemical_formula_structural   Zr3U5Ir8
_chemical_formula_sum   'Zr3 U5 Ir8'
_cell_volume   318.09325671
_cell_formula_units_Z   1
loop_
 _symmetry_equiv_pos_site_id
 _symmetry_equiv_pos_as_xyz
  1  'x, y, z'
loop_
 _atom_site_type_symbol
 _atom_site_label
 _atom_site_symmetry_multiplicity
 _atom_site_fract_x
 _atom_site_fract_y
 _atom_site_fract_z
 _atom_site_occupancy
  Zr  Zr0  1  0.499386  0.096860  0.849930  1
  Zr  Zr1  1  0.001542  0.900998  0.148815  1
  Zr  Zr2  1  0.499053  0.664645  0.399640  1
  U  U3  1  0.989131  0.332596  0.593496  1
  U  U4  1  0.220456  0.391638  0.125451  1
  U  U5  1  0.712208  0.605917  0.880326  1
  U  U6  1  0.221345  0.852500  0.630820  1
  U  U7  1  0.713754  0.155220  0.373118  1
  Ir  Ir8  1  0.761794  0.105833  0.878904  1
  Ir  Ir9  1  0.265578  0.890506  0.126475  1
  Ir  Ir10  1  0.760665  0.653685  0.371691  1
  Ir  Ir11  1  0.260900  0.352162  0.628105  1
  Ir  Ir12  1  0.956731  0.408021  0.086958  1
  Ir  Ir13  1  0.455183  0.587029  0.911337  1
  Ir  Ir14  1  0.959642  0.826904  0.659475  1
  Ir  Ir15  1  0.458635  0.175485  0.335459  1
