# generated using pymatgen
data_Nb18Co3Ni(GePt2)2
_symmetry_space_group_name_H-M   'P 1'
_cell_length_a   5.14071086
_cell_length_b   9.81974128
_cell_length_c   9.81956670
_cell_angle_alpha   86.04944910
_cell_angle_beta   74.82556912
_cell_angle_gamma   74.73984531
_symmetry_Int_Tables_number   1
_chemical_formula_structural   Nb18Co3Ni(GePt2)2
_chemical_formula_sum   'Nb18 Co3 Ni1 Ge2 Pt4'
_cell_volume   461.54440601
_cell_formula_units_Z   1
loop_
 _symmetry_equiv_pos_site_id
 _symmetry_equiv_pos_as_xyz
  1  'x, y, z'
loop_
 _atom_site_type_symbol
 _atom_site_label
 _atom_site_symmetry_multiplicity
 _atom_site_fract_x
 _atom_site_fract_y
 _atom_site_fract_z
 _atom_site_occupancy
  Nb  Nb0  1  0.749502  0.501122  0.500000  1
  Nb  Nb1  1  0.250498  0.498878  0.500000  1
  Nb  Nb2  1  0.790565  0.780742  0.638838  1
  Nb  Nb3  1  0.209435  0.219258  0.361162  1
  Nb  Nb4  1  0.710394  0.361660  0.218037  1
  Nb  Nb5  1  0.289606  0.638340  0.781963  1
  Nb  Nb6  1  0.571571  0.638340  0.218037  1
  Nb  Nb7  1  0.428429  0.361660  0.781963  1
  Nb  Nb8  1  0.070597  0.219258  0.638838  1
  Nb  Nb9  1  0.929403  0.780742  0.361162  1
  Nb  Nb10  1  0.583313  0.077027  0.753408  1
  Nb  Nb11  1  0.416687  0.922973  0.246592  1
  Nb  Nb12  1  0.914765  0.247308  0.923358  1
  Nb  Nb13  1  0.085235  0.752692  0.076642  1
  Nb  Nb14  1  0.661877  0.752692  0.923358  1
  Nb  Nb15  1  0.338123  0.247308  0.076642  1
  Nb  Nb16  1  0.163280  0.922973  0.753408  1
  Nb  Nb17  1  0.836720  0.077027  0.246592  1
  Co  Co18  1  0.500000  0.000000  0.500000  1
  Co  Co19  1  0.500000  0.500000  0.000000  1
  Co  Co20  1  0.000000  0.500000  0.000000  1
  Ni  Ni21  1  0.000000  0.000000  0.500000  1
  Ge  Ge22  1  0.249821  0.000000  0.000358  1
  Ge  Ge23  1  0.750179  0.000000  0.999642  1
  Pt  Pt24  1  0.131055  0.500000  0.237891  1
  Pt  Pt25  1  0.868945  0.500000  0.762109  1
  Pt  Pt26  1  0.366859  0.762207  0.500000  1
  Pt  Pt27  1  0.633141  0.237793  0.500000  1
