# generated using pymatgen
data_V2InCl6
_symmetry_space_group_name_H-M   'P 1'
_cell_length_a   7.34013400
_cell_length_b   7.34013306
_cell_length_c   11.96472900
_cell_angle_alpha   90.00000000
_cell_angle_beta   90.00000000
_cell_angle_gamma   119.99999524
_symmetry_Int_Tables_number   1
_chemical_formula_structural   V2InCl6
_chemical_formula_sum   'V4 In2 Cl12'
_cell_volume   558.26633549
_cell_formula_units_Z   2
loop_
 _symmetry_equiv_pos_site_id
 _symmetry_equiv_pos_as_xyz
  1  'x, y, z'
loop_
 _atom_site_type_symbol
 _atom_site_label
 _atom_site_symmetry_multiplicity
 _atom_site_fract_x
 _atom_site_fract_y
 _atom_site_fract_z
 _atom_site_occupancy
  V  V0  1  0.000000  0.000000  0.125842  1
  V  V1  1  0.000000  0.000000  0.376171  1
  V  V2  1  0.000000  0.000000  0.625842  1
  V  V3  1  0.000000  0.000000  0.876171  1
  In  In4  1  0.333333  0.666667  0.871744  1
  In  In5  1  0.666667  0.333333  0.371744  1
  Cl  Cl6  1  0.988549  0.733910  0.001005  1
  Cl  Cl7  1  0.253157  0.986279  0.250986  1
  Cl  Cl8  1  0.013721  0.266877  0.250986  1
  Cl  Cl9  1  0.266090  0.254639  0.001005  1
  Cl  Cl10  1  0.254639  0.266090  0.501005  1
  Cl  Cl11  1  0.745361  0.011451  0.001005  1
  Cl  Cl12  1  0.266877  0.013721  0.750986  1
  Cl  Cl13  1  0.733123  0.746843  0.250986  1
  Cl  Cl14  1  0.746843  0.733123  0.750986  1
  Cl  Cl15  1  0.011451  0.745361  0.501005  1
  Cl  Cl16  1  0.733910  0.988549  0.501005  1
  Cl  Cl17  1  0.986279  0.253157  0.750986  1
