# generated using pymatgen
data_Be6Ni2Ru3W
_symmetry_space_group_name_H-M   'P 1'
_cell_length_a   4.49650600
_cell_length_b   4.49650563
_cell_length_c   6.98911500
_cell_angle_alpha   90.00000000
_cell_angle_beta   90.00000000
_cell_angle_gamma   120.00000270
_symmetry_Int_Tables_number   1
_chemical_formula_structural   Be6Ni2Ru3W
_chemical_formula_sum   'Be6 Ni2 Ru3 W1'
_cell_volume   122.37793633
_cell_formula_units_Z   1
loop_
 _symmetry_equiv_pos_site_id
 _symmetry_equiv_pos_as_xyz
  1  'x, y, z'
loop_
 _atom_site_type_symbol
 _atom_site_label
 _atom_site_symmetry_multiplicity
 _atom_site_fract_x
 _atom_site_fract_y
 _atom_site_fract_z
 _atom_site_occupancy
  Be  Be0  1  0.827386  0.172614  0.255644  1
  Be  Be1  1  0.827386  0.654773  0.255644  1
  Be  Be2  1  0.345227  0.172614  0.255644  1
  Be  Be3  1  0.170186  0.829814  0.746708  1
  Be  Be4  1  0.170186  0.340371  0.746708  1
  Be  Be5  1  0.659629  0.829814  0.746708  1
  Ni  Ni6  1  0.000000  0.000000  0.502702  1
  Ni  Ni7  1  0.000000  0.000000  0.003489  1
  Ru  Ru8  1  0.333333  0.666667  0.427708  1
  Ru  Ru9  1  0.666667  0.333333  0.551181  1
  Ru  Ru10  1  0.666667  0.333333  0.947582  1
  W  W11  1  0.333333  0.666667  0.060282  1
