# generated using pymatgen
data_Tm2Lu3Ru2
_symmetry_space_group_name_H-M   'P 1'
_cell_length_a   6.20964343
_cell_length_b   7.23316793
_cell_length_c   8.30867247
_cell_angle_alpha   97.08901446
_cell_angle_beta   111.94302264
_cell_angle_gamma   89.99999724
_symmetry_Int_Tables_number   1
_chemical_formula_structural   Tm2Lu3Ru2
_chemical_formula_sum   'Tm4 Lu6 Ru4'
_cell_volume   343.07456624
_cell_formula_units_Z   2
loop_
 _symmetry_equiv_pos_site_id
 _symmetry_equiv_pos_as_xyz
  1  'x, y, z'
loop_
 _atom_site_type_symbol
 _atom_site_label
 _atom_site_symmetry_multiplicity
 _atom_site_fract_x
 _atom_site_fract_y
 _atom_site_fract_z
 _atom_site_occupancy
  Tm  Tm0  1  0.521847  0.083555  0.812694  1
  Tm  Tm1  1  0.478153  0.916445  0.187306  1
  Tm  Tm2  1  0.709154  0.416445  0.187306  1
  Tm  Tm3  1  0.290846  0.583555  0.812694  1
  Lu  Lu4  1  0.299975  0.313647  0.433765  1
  Lu  Lu5  1  0.700025  0.686353  0.566235  1
  Lu  Lu6  1  0.866212  0.186353  0.566235  1
  Lu  Lu7  1  0.133788  0.813647  0.433765  1
  Lu  Lu8  1  0.080693  0.250000  0.000000  1
  Lu  Lu9  1  0.919307  0.750000  0.000000  1
  Ru  Ru10  1  0.321217  0.577275  0.221060  1
  Ru  Ru11  1  0.678783  0.422725  0.778940  1
  Ru  Ru12  1  0.100158  0.922725  0.778940  1
  Ru  Ru13  1  0.899842  0.077275  0.221060  1
