# generated using pymatgen
data_TbDy8(BiO)5
_symmetry_space_group_name_H-M   'P 1'
_cell_length_a   10.02360000
_cell_length_b   10.02360000
_cell_length_c   8.95667800
_cell_angle_alpha   90.00000000
_cell_angle_beta   90.00000000
_cell_angle_gamma   90.00000000
_symmetry_Int_Tables_number   1
_chemical_formula_structural   TbDy8(BiO)5
_chemical_formula_sum   'Tb2 Dy16 Bi10 O10'
_cell_volume   899.90034053
_cell_formula_units_Z   2
loop_
 _symmetry_equiv_pos_site_id
 _symmetry_equiv_pos_as_xyz
  1  'x, y, z'
loop_
 _atom_site_type_symbol
 _atom_site_label
 _atom_site_symmetry_multiplicity
 _atom_site_fract_x
 _atom_site_fract_y
 _atom_site_fract_z
 _atom_site_occupancy
  Tb  Tb0  1  0.500000  0.000000  0.678404  1
  Tb  Tb1  1  0.000000  0.500000  0.321596  1
  Dy  Dy2  1  0.793084  0.105513  0.335638  1
  Dy  Dy3  1  0.274568  0.083535  0.002254  1
  Dy  Dy4  1  0.583535  0.225432  0.002254  1
  Dy  Dy5  1  0.206916  0.894487  0.335638  1
  Dy  Dy6  1  0.605513  0.706916  0.335638  1
  Dy  Dy7  1  0.293084  0.605513  0.664362  1
  Dy  Dy8  1  0.416465  0.774568  0.002254  1
  Dy  Dy9  1  0.225432  0.416465  0.997746  1
  Dy  Dy10  1  0.894487  0.793084  0.664362  1
  Dy  Dy11  1  0.083535  0.725432  0.997746  1
  Dy  Dy12  1  0.916465  0.274568  0.997746  1
  Dy  Dy13  1  0.774568  0.583535  0.997746  1
  Dy  Dy14  1  0.725432  0.916465  0.002254  1
  Dy  Dy15  1  0.394487  0.293084  0.335638  1
  Dy  Dy16  1  0.706916  0.394487  0.664362  1
  Dy  Dy17  1  0.105513  0.206916  0.664362  1
  Bi  Bi18  1  0.595003  0.693778  0.696880  1
  Bi  Bi19  1  0.904997  0.806222  0.303120  1
  Bi  Bi20  1  0.693778  0.404997  0.303120  1
  Bi  Bi21  1  0.000000  0.500000  0.681361  1
  Bi  Bi22  1  0.306222  0.595003  0.303120  1
  Bi  Bi23  1  0.806222  0.095003  0.696880  1
  Bi  Bi24  1  0.404997  0.306222  0.696880  1
  Bi  Bi25  1  0.193778  0.904997  0.696880  1
  Bi  Bi26  1  0.095003  0.193778  0.303120  1
  Bi  Bi27  1  0.500000  0.000000  0.318639  1
  O  O28  1  0.226000  0.879730  0.084147  1
  O  O29  1  0.274000  0.620270  0.915853  1
  O  O30  1  0.120270  0.226000  0.915853  1
  O  O31  1  0.879730  0.774000  0.915853  1
  O  O32  1  0.726000  0.379730  0.915853  1
  O  O33  1  0.500000  0.000000  0.938005  1
  O  O34  1  0.774000  0.120270  0.084147  1
  O  O35  1  0.000000  0.500000  0.061995  1
  O  O36  1  0.379730  0.274000  0.084147  1
  O  O37  1  0.620270  0.726000  0.084147  1
