# generated using pymatgen
data_La2Zn17Cu5
_symmetry_space_group_name_H-M   'P 1'
_cell_length_a   8.20808672
_cell_length_b   8.19782837
_cell_length_c   8.21503152
_cell_angle_alpha   99.68119729
_cell_angle_beta   99.81347561
_cell_angle_gamma   131.36606852
_symmetry_Int_Tables_number   1
_chemical_formula_structural   La2Zn17Cu5
_chemical_formula_sum   'La2 Zn17 Cu5'
_cell_volume   378.17384373
_cell_formula_units_Z   1
loop_
 _symmetry_equiv_pos_site_id
 _symmetry_equiv_pos_as_xyz
  1  'x, y, z'
loop_
 _atom_site_type_symbol
 _atom_site_label
 _atom_site_symmetry_multiplicity
 _atom_site_fract_x
 _atom_site_fract_y
 _atom_site_fract_z
 _atom_site_occupancy
  La  La0  1  0.249301  0.749641  0.499906  1
  La  La1  1  0.998685  0.996910  0.999594  1
  Zn  Zn2  1  0.431252  0.514228  0.325400  1
  Zn  Zn3  1  0.484850  0.567704  0.672957  1
  Zn  Zn4  1  0.438546  0.112337  0.920983  1
  Zn  Zn5  1  0.766241  0.186873  0.828459  1
  Zn  Zn6  1  0.485537  0.811782  0.918152  1
  Zn  Zn7  1  0.506272  0.500631  0.001660  1
  Zn  Zn8  1  0.763981  0.938500  0.582187  1
  Zn  Zn9  1  0.749757  0.249920  0.499487  1
  Zn  Zn10  1  0.060965  0.644511  0.830622  1
  Zn  Zn11  1  0.356279  0.182688  0.417902  1
  Zn  Zn12  1  0.817877  0.643931  0.581935  1
  Zn  Zn13  1  0.895959  0.808253  0.321745  1
  Zn  Zn14  1  0.186929  0.104288  0.672857  1
  Zn  Zn15  1  0.060768  0.234225  0.417194  1
  Zn  Zn16  1  0.348603  0.933559  0.172408  1
  Zn  Zn17  1  0.816695  0.237930  0.173468  1
  Zn  Zn18  1  0.185903  0.515557  0.082440  1
  Cu  Cu19  1  0.896364  0.566309  0.081461  1
  Cu  Cu20  1  0.625332  0.875022  0.249475  1
  Cu  Cu21  1  0.125222  0.374776  0.750089  1
  Cu  Cu22  1  0.624415  0.374736  0.249768  1
  Cu  Cu23  1  0.624269  0.375689  0.749852  1
