# generated using pymatgen
data_La3Pr5Zn8(PdRh3)2
_symmetry_space_group_name_H-M   'P 1'
_cell_length_a   4.05508800
_cell_length_b   7.44014161
_cell_length_c   16.81649428
_cell_angle_alpha   89.83592787
_cell_angle_beta   90.00000000
_cell_angle_gamma   90.00000000
_symmetry_Int_Tables_number   1
_chemical_formula_structural   La3Pr5Zn8(PdRh3)2
_chemical_formula_sum   'La3 Pr5 Zn8 Pd2 Rh6'
_cell_volume   507.35876565
_cell_formula_units_Z   1
loop_
 _symmetry_equiv_pos_site_id
 _symmetry_equiv_pos_as_xyz
  1  'x, y, z'
loop_
 _atom_site_type_symbol
 _atom_site_label
 _atom_site_symmetry_multiplicity
 _atom_site_fract_x
 _atom_site_fract_y
 _atom_site_fract_z
 _atom_site_occupancy
  La  La0  1  0.750000  0.454735  0.218889  1
  La  La1  1  0.750000  0.948477  0.285421  1
  La  La2  1  0.750000  0.824873  0.058787  1
  Pr  Pr3  1  0.250000  0.044251  0.717558  1
  Pr  Pr4  1  0.250000  0.170295  0.934845  1
  Pr  Pr5  1  0.250000  0.550891  0.784625  1
  Pr  Pr6  1  0.750000  0.331561  0.436914  1
  Pr  Pr7  1  0.250000  0.674077  0.560504  1
  Zn  Zn8  1  0.250000  0.996366  0.438982  1
  Zn  Zn9  1  0.750000  0.502689  0.936278  1
  Zn  Zn10  1  0.750000  0.998892  0.559984  1
  Zn  Zn11  1  0.250000  0.622322  0.352165  1
  Zn  Zn12  1  0.750000  0.380116  0.653509  1
  Zn  Zn13  1  0.750000  0.876546  0.849555  1
  Zn  Zn14  1  0.250000  0.497074  0.058425  1
  Zn  Zn15  1  0.250000  0.121865  0.152810  1
  Pd  Pd16  1  0.250000  0.242726  0.566198  1
  Pd  Pd17  1  0.750000  0.259396  0.066484  1
  Rh  Rh18  1  0.250000  0.247050  0.312691  1
  Rh  Rh19  1  0.750000  0.252743  0.813802  1
  Rh  Rh20  1  0.250000  0.745771  0.936742  1
  Rh  Rh21  1  0.750000  0.751466  0.685679  1
  Rh  Rh22  1  0.750000  0.758148  0.434034  1
  Rh  Rh23  1  0.250000  0.747669  0.185120  1
