# generated using pymatgen
data_Zr6Al8Si8Ir6Ru
_symmetry_space_group_name_H-M   'P 1'
_cell_length_a   8.60614092
_cell_length_b   8.60613982
_cell_length_c   8.59961100
_cell_angle_alpha   60.02508805
_cell_angle_beta   60.02509226
_cell_angle_gamma   59.97167608
_symmetry_Int_Tables_number   1
_chemical_formula_structural   Zr6Al8Si8Ir6Ru
_chemical_formula_sum   'Zr6 Al8 Si8 Ir6 Ru1'
_cell_volume   450.45575019
_cell_formula_units_Z   1
loop_
 _symmetry_equiv_pos_site_id
 _symmetry_equiv_pos_as_xyz
  1  'x, y, z'
loop_
 _atom_site_type_symbol
 _atom_site_label
 _atom_site_symmetry_multiplicity
 _atom_site_fract_x
 _atom_site_fract_y
 _atom_site_fract_z
 _atom_site_occupancy
  Zr  Zr0  1  0.694446  0.305554  0.306170  1
  Zr  Zr1  1  0.305554  0.694446  0.693830  1
  Zr  Zr2  1  0.305554  0.694446  0.306170  1
  Zr  Zr3  1  0.694446  0.305554  0.693830  1
  Zr  Zr4  1  0.305148  0.305148  0.694852  1
  Zr  Zr5  1  0.694852  0.694852  0.305148  1
  Al  Al6  1  0.119035  0.119035  0.123700  1
  Al  Al7  1  0.880965  0.880965  0.876300  1
  Al  Al8  1  0.119035  0.119035  0.638231  1
  Al  Al9  1  0.119413  0.639382  0.120602  1
  Al  Al10  1  0.880965  0.880965  0.361769  1
  Al  Al11  1  0.880587  0.360618  0.879398  1
  Al  Al12  1  0.639382  0.119413  0.120602  1
  Al  Al13  1  0.360618  0.880587  0.879398  1
  Si  Si14  1  0.342625  0.342625  0.343179  1
  Si  Si15  1  0.657375  0.657375  0.656821  1
  Si  Si16  1  0.342625  0.342625  0.971570  1
  Si  Si17  1  0.339812  0.971952  0.344119  1
  Si  Si18  1  0.657375  0.657375  0.028430  1
  Si  Si19  1  0.660188  0.028048  0.655881  1
  Si  Si20  1  0.971952  0.339812  0.344119  1
  Si  Si21  1  0.028048  0.660188  0.655881  1
  Ir  Ir22  1  0.500000  0.000000  0.000000  1
  Ir  Ir23  1  0.000000  0.500000  0.500000  1
  Ir  Ir24  1  0.000000  0.500000  0.000000  1
  Ir  Ir25  1  0.500000  0.000000  0.500000  1
  Ir  Ir26  1  0.500000  0.500000  0.000000  1
  Ir  Ir27  1  0.000000  0.000000  0.000000  1
  Ru  Ru28  1  0.000000  0.000000  0.500000  1
