# generated using pymatgen
data_Tb9Th3(TcRu)2
_symmetry_space_group_name_H-M   'P 1'
_cell_length_a   6.37530594
_cell_length_b   7.29478781
_cell_length_c   9.54846600
_cell_angle_alpha   90.00000000
_cell_angle_beta   90.00000000
_cell_angle_gamma   90.53359442
_symmetry_Int_Tables_number   1
_chemical_formula_structural   Tb9Th3(TcRu)2
_chemical_formula_sum   'Tb9 Th3 Tc2 Ru2'
_cell_volume   444.04651546
_cell_formula_units_Z   1
loop_
 _symmetry_equiv_pos_site_id
 _symmetry_equiv_pos_as_xyz
  1  'x, y, z'
loop_
 _atom_site_type_symbol
 _atom_site_label
 _atom_site_symmetry_multiplicity
 _atom_site_fract_x
 _atom_site_fract_y
 _atom_site_fract_z
 _atom_site_occupancy
  Tb  Tb0  1  0.332690  0.677783  0.065382  1
  Tb  Tb1  1  0.167589  0.175941  0.434279  1
  Tb  Tb2  1  0.665397  0.323002  0.566661  1
  Tb  Tb3  1  0.832220  0.823871  0.932139  1
  Tb  Tb4  1  0.665397  0.323002  0.933339  1
  Tb  Tb5  1  0.832220  0.823871  0.567861  1
  Tb  Tb6  1  0.332690  0.677783  0.434618  1
  Tb  Tb7  1  0.167589  0.175941  0.065721  1
  Tb  Tb8  1  0.361195  0.959633  0.750000  1
  Th  Th9  1  0.857088  0.549422  0.250000  1
  Th  Th10  1  0.640769  0.047622  0.250000  1
  Th  Th11  1  0.149985  0.451623  0.750000  1
  Tc  Tc12  1  0.020589  0.874195  0.250000  1
  Tc  Tc13  1  0.479955  0.371245  0.250000  1
  Ru  Ru14  1  0.963795  0.131594  0.750000  1
  Ru  Ru15  1  0.530830  0.613470  0.750000  1
