# generated using pymatgen
data_Li4Yb3LuSi8
_symmetry_space_group_name_H-M   'P 1'
_cell_length_a   3.78099600
_cell_length_b   7.79622670
_cell_length_c   10.41451393
_cell_angle_alpha   90.26147115
_cell_angle_beta   90.00000000
_cell_angle_gamma   90.00000000
_symmetry_Int_Tables_number   1
_chemical_formula_structural   Li4Yb3LuSi8
_chemical_formula_sum   'Li4 Yb3 Lu1 Si8'
_cell_volume   306.99065811
_cell_formula_units_Z   1
loop_
 _symmetry_equiv_pos_site_id
 _symmetry_equiv_pos_as_xyz
  1  'x, y, z'
loop_
 _atom_site_type_symbol
 _atom_site_label
 _atom_site_symmetry_multiplicity
 _atom_site_fract_x
 _atom_site_fract_y
 _atom_site_fract_z
 _atom_site_occupancy
  Li  Li0  1  0.250000  0.989942  0.389779  1
  Li  Li1  1  0.250000  0.498677  0.108525  1
  Li  Li2  1  0.750000  0.003129  0.608220  1
  Li  Li3  1  0.750000  0.503865  0.889355  1
  Yb  Yb4  1  0.250000  0.138174  0.866019  1
  Yb  Yb5  1  0.250000  0.634449  0.634462  1
  Yb  Yb6  1  0.750000  0.864372  0.136846  1
  Lu  Lu7  1  0.750000  0.371673  0.366484  1
  Si  Si8  1  0.250000  0.234100  0.559964  1
  Si  Si9  1  0.250000  0.735520  0.931904  1
  Si  Si10  1  0.750000  0.756829  0.432694  1
  Si  Si11  1  0.750000  0.272611  0.074828  1
  Si  Si12  1  0.250000  0.652112  0.322144  1
  Si  Si13  1  0.250000  0.167612  0.184913  1
  Si  Si14  1  0.750000  0.338225  0.671009  1
  Si  Si15  1  0.750000  0.838712  0.822855  1
