# generated using pymatgen
data_Tm20Os5Pt7
_symmetry_space_group_name_H-M   'P 1'
_cell_length_a   10.82235750
_cell_length_b   10.82235653
_cell_length_c   6.35536797
_cell_angle_alpha   89.96489451
_cell_angle_beta   89.96488888
_cell_angle_gamma   90.56628758
_symmetry_Int_Tables_number   1
_chemical_formula_structural   Tm20Os5Pt7
_chemical_formula_sum   'Tm20 Os5 Pt7'
_cell_volume   744.32573885
_cell_formula_units_Z   1
loop_
 _symmetry_equiv_pos_site_id
 _symmetry_equiv_pos_as_xyz
  1  'x, y, z'
loop_
 _atom_site_type_symbol
 _atom_site_label
 _atom_site_symmetry_multiplicity
 _atom_site_fract_x
 _atom_site_fract_y
 _atom_site_fract_z
 _atom_site_occupancy
  Tm  Tm0  1  0.297195  0.083400  0.372199  1
  Tm  Tm1  1  0.296482  0.908764  0.871755  1
  Tm  Tm2  1  0.702359  0.084011  0.870246  1
  Tm  Tm3  1  0.701903  0.915048  0.370127  1
  Tm  Tm4  1  0.580001  0.793608  0.868658  1
  Tm  Tm5  1  0.584744  0.203837  0.372701  1
  Tm  Tm6  1  0.412130  0.793139  0.374981  1
  Tm  Tm7  1  0.414433  0.200993  0.871353  1
  Tm  Tm8  1  0.206392  0.419999  0.631342  1
  Tm  Tm9  1  0.206861  0.587870  0.125019  1
  Tm  Tm10  1  0.796163  0.415256  0.127299  1
  Tm  Tm11  1  0.799007  0.585567  0.628647  1
  Tm  Tm12  1  0.916600  0.702805  0.127801  1
  Tm  Tm13  1  0.915989  0.297641  0.629754  1
  Tm  Tm14  1  0.091236  0.703518  0.628245  1
  Tm  Tm15  1  0.084952  0.298097  0.129873  1
  Tm  Tm16  1  0.999088  0.000074  0.500518  1
  Tm  Tm17  1  0.999926  0.000912  0.999482  1
  Tm  Tm18  1  0.496735  0.501231  0.998394  1
  Tm  Tm19  1  0.498769  0.503265  0.501606  1
  Os  Os20  1  0.347778  0.652222  0.750000  1
  Os  Os21  1  0.499772  0.000107  0.124662  1
  Os  Os22  1  0.499642  0.999561  0.622756  1
  Os  Os23  1  0.000439  0.500358  0.877244  1
  Os  Os24  1  0.999893  0.500228  0.375338  1
  Pt  Pt25  1  0.847546  0.152454  0.250000  1
  Pt  Pt26  1  0.846151  0.847826  0.750892  1
  Pt  Pt27  1  0.152174  0.153849  0.749108  1
  Pt  Pt28  1  0.150623  0.849377  0.250000  1
  Pt  Pt29  1  0.652496  0.347504  0.750000  1
  Pt  Pt30  1  0.655297  0.652780  0.249127  1
  Pt  Pt31  1  0.347220  0.344703  0.250873  1
