# generated using pymatgen
data_YHo4Tm11(InRh)4
_symmetry_space_group_name_H-M   'P 1'
_cell_length_a   9.56709382
_cell_length_b   9.56077122
_cell_length_c   9.55955913
_cell_angle_alpha   59.98621389
_cell_angle_beta   59.97035392
_cell_angle_gamma   59.95791576
_symmetry_Int_Tables_number   1
_chemical_formula_structural   YHo4Tm11(InRh)4
_chemical_formula_sum   'Y1 Ho4 Tm11 In4 Rh4'
_cell_volume   617.89538322
_cell_formula_units_Z   1
loop_
 _symmetry_equiv_pos_site_id
 _symmetry_equiv_pos_as_xyz
  1  'x, y, z'
loop_
 _atom_site_type_symbol
 _atom_site_label
 _atom_site_symmetry_multiplicity
 _atom_site_fract_x
 _atom_site_fract_y
 _atom_site_fract_z
 _atom_site_occupancy
  Y  Y0  1  0.062091  0.062418  0.437423  1
  Ho  Ho1  1  0.439226  0.061507  0.437949  1
  Ho  Ho2  1  0.061573  0.438392  0.061647  1
  Ho  Ho3  1  0.049042  0.649636  0.650030  1
  Ho  Ho4  1  0.438043  0.437434  0.062251  1
  Tm  Tm5  1  0.650161  0.049612  0.649542  1
  Tm  Tm6  1  0.188463  0.811281  0.188763  1
  Tm  Tm7  1  0.188256  0.188912  0.811669  1
  Tm  Tm8  1  0.810840  0.811378  0.189394  1
  Tm  Tm9  1  0.439748  0.060697  0.060452  1
  Tm  Tm10  1  0.811027  0.188783  0.188424  1
  Tm  Tm11  1  0.061033  0.439239  0.438628  1
  Tm  Tm12  1  0.810586  0.189461  0.811816  1
  Tm  Tm13  1  0.188871  0.811133  0.811809  1
  Tm  Tm14  1  0.650492  0.649420  0.048987  1
  Tm  Tm15  1  0.651383  0.650076  0.650597  1
  In  In16  1  0.416695  0.416758  0.416680  1
  In  In17  1  0.749031  0.417755  0.416854  1
  In  In18  1  0.417947  0.748825  0.416491  1
  In  In19  1  0.417505  0.416367  0.749494  1
  Rh  Rh20  1  0.856979  0.857680  0.426892  1
  Rh  Rh21  1  0.856394  0.858217  0.858756  1
  Rh  Rh22  1  0.427210  0.858098  0.857725  1
  Rh  Rh23  1  0.857406  0.426926  0.857725  1
