# generated using pymatgen
data_Nd16Cd4Co3Pt
_symmetry_space_group_name_H-M   'P 1'
_cell_length_a   9.88723012
_cell_length_b   9.87441113
_cell_length_c   9.87441100
_cell_angle_alpha   60.00000377
_cell_angle_beta   60.04288306
_cell_angle_gamma   60.04288340
_symmetry_Int_Tables_number   1
_chemical_formula_structural   Nd16Cd4Co3Pt
_chemical_formula_sum   'Nd16 Cd4 Co3 Pt1'
_cell_volume   682.12388842
_cell_formula_units_Z   1
loop_
 _symmetry_equiv_pos_site_id
 _symmetry_equiv_pos_as_xyz
  1  'x, y, z'
loop_
 _atom_site_type_symbol
 _atom_site_label
 _atom_site_symmetry_multiplicity
 _atom_site_fract_x
 _atom_site_fract_y
 _atom_site_fract_z
 _atom_site_occupancy
  Nd  Nd0  1  0.339156  0.351160  0.351160  1
  Nd  Nd1  1  0.339156  0.351160  0.958524  1
  Nd  Nd2  1  0.339156  0.958524  0.351160  1
  Nd  Nd3  1  0.964703  0.345099  0.345099  1
  Nd  Nd4  1  0.819850  0.189328  0.189328  1
  Nd  Nd5  1  0.190197  0.810977  0.810977  1
  Nd  Nd6  1  0.190197  0.810977  0.187850  1
  Nd  Nd7  1  0.819850  0.189328  0.801494  1
  Nd  Nd8  1  0.190197  0.187850  0.810977  1
  Nd  Nd9  1  0.819850  0.801494  0.189328  1
  Nd  Nd10  1  0.934972  0.563277  0.563277  1
  Nd  Nd11  1  0.560594  0.938949  0.938949  1
  Nd  Nd12  1  0.560594  0.938949  0.561508  1
  Nd  Nd13  1  0.934972  0.563277  0.938472  1
  Nd  Nd14  1  0.560594  0.561508  0.938949  1
  Nd  Nd15  1  0.934972  0.938472  0.563277  1
  Cd  Cd16  1  0.579505  0.578948  0.578948  1
  Cd  Cd17  1  0.579505  0.578948  0.262601  1
  Cd  Cd18  1  0.579505  0.262601  0.578948  1
  Cd  Cd19  1  0.260526  0.579825  0.579825  1
  Co  Co20  1  0.141948  0.140850  0.140850  1
  Co  Co21  1  0.141948  0.140850  0.576350  1
  Co  Co22  1  0.141948  0.576350  0.140850  1
  Pt  Pt23  1  0.576105  0.141298  0.141298  1
