# generated using pymatgen
data_LiTh3Ag3Sn4
_symmetry_space_group_name_H-M   'P 1'
_cell_length_a   8.86706021
_cell_length_b   8.91080968
_cell_length_c   8.91080988
_cell_angle_alpha   149.14857218
_cell_angle_beta   131.16373780
_cell_angle_gamma   58.93468514
_symmetry_Int_Tables_number   1
_chemical_formula_structural   LiTh3Ag3Sn4
_chemical_formula_sum   'Li1 Th3 Ag3 Sn4'
_cell_volume   269.61000015
_cell_formula_units_Z   1
loop_
 _symmetry_equiv_pos_site_id
 _symmetry_equiv_pos_as_xyz
  1  'x, y, z'
loop_
 _atom_site_type_symbol
 _atom_site_label
 _atom_site_symmetry_multiplicity
 _atom_site_fract_x
 _atom_site_fract_y
 _atom_site_fract_z
 _atom_site_occupancy
  Li  Li0  1  0.646448  0.330251  0.316197  1
  Th  Th1  1  0.368258  0.873253  0.495006  1
  Th  Th2  1  0.633274  0.126423  0.506850  1
  Th  Th3  1  0.002857  0.001756  0.001102  1
  Ag  Ag4  1  0.366184  0.671176  0.695009  1
  Ag  Ag5  1  0.012161  0.331049  0.681113  1
  Ag  Ag6  1  0.971358  0.666560  0.304797  1
  Sn  Sn7  1  0.219468  0.218910  0.000559  1
  Sn  Sn8  1  0.780984  0.786518  0.994467  1
  Sn  Sn9  1  0.696769  0.493619  0.203151  1
  Sn  Sn10  1  0.302238  0.500487  0.801751  1
