# generated using pymatgen
data_Hf3Nb2B4SbRu10
_symmetry_space_group_name_H-M   'P 1'
_cell_length_a   9.47126521
_cell_length_b   9.47988703
_cell_length_c   3.09049200
_cell_angle_alpha   90.00000000
_cell_angle_beta   90.00000000
_cell_angle_gamma   90.02443172
_symmetry_Int_Tables_number   1
_chemical_formula_structural   Hf3Nb2B4SbRu10
_chemical_formula_sum   'Hf3 Nb2 B4 Sb1 Ru10'
_cell_volume   277.48450953
_cell_formula_units_Z   1
loop_
 _symmetry_equiv_pos_site_id
 _symmetry_equiv_pos_as_xyz
  1  'x, y, z'
loop_
 _atom_site_type_symbol
 _atom_site_label
 _atom_site_symmetry_multiplicity
 _atom_site_fract_x
 _atom_site_fract_y
 _atom_site_fract_z
 _atom_site_occupancy
  Hf  Hf0  1  0.825497  0.677147  0.000000  1
  Hf  Hf1  1  0.175371  0.323663  0.000000  1
  Hf  Hf2  1  0.323249  0.825162  0.000000  1
  Nb  Nb3  1  0.677780  0.174806  0.000000  1
  Nb  Nb4  1  0.000569  0.999791  0.000000  1
  B  B5  1  0.620602  0.878472  0.000000  1
  B  B6  1  0.379027  0.121539  0.000000  1
  B  B7  1  0.121067  0.620521  0.000000  1
  B  B8  1  0.878193  0.378932  0.000000  1
  Sb  Sb9  1  0.499481  0.500805  0.000000  1
  Ru  Ru10  1  0.572264  0.720235  0.500000  1
  Ru  Ru11  1  0.431951  0.279687  0.500000  1
  Ru  Ru12  1  0.069282  0.781310  0.500000  1
  Ru  Ru13  1  0.926599  0.217210  0.500000  1
  Ru  Ru14  1  0.280115  0.571677  0.500000  1
  Ru  Ru15  1  0.717794  0.423923  0.500000  1
  Ru  Ru16  1  0.218831  0.070595  0.500000  1
  Ru  Ru17  1  0.780772  0.932789  0.500000  1
  Ru  Ru18  1  0.502532  0.002486  0.500000  1
  Ru  Ru19  1  0.999023  0.499249  0.500000  1
