# generated using pymatgen
data_K6Ba5Sr(InP4)2
_symmetry_space_group_name_H-M   'P 1'
_cell_length_a   10.37469064
_cell_length_b   10.39849266
_cell_length_c   7.80726797
_cell_angle_alpha   89.99999755
_cell_angle_beta   89.49076137
_cell_angle_gamma   120.07591817
_symmetry_Int_Tables_number   1
_chemical_formula_structural   K6Ba5Sr(InP4)2
_chemical_formula_sum   'K6 Ba5 Sr1 In2 P8'
_cell_volume   728.81887447
_cell_formula_units_Z   1
loop_
 _symmetry_equiv_pos_site_id
 _symmetry_equiv_pos_as_xyz
  1  'x, y, z'
loop_
 _atom_site_type_symbol
 _atom_site_label
 _atom_site_symmetry_multiplicity
 _atom_site_fract_x
 _atom_site_fract_y
 _atom_site_fract_z
 _atom_site_occupancy
  K  K0  1  0.728723  0.864361  0.170588  1
  K  K1  1  0.864769  0.137746  0.671150  1
  K  K2  1  0.864769  0.727024  0.671150  1
  K  K3  1  0.135906  0.273474  0.169824  1
  K  K4  1  0.135906  0.862431  0.169824  1
  K  K5  1  0.270899  0.135450  0.673338  1
  Ba  Ba6  1  0.050077  0.525039  0.501355  1
  Ba  Ba7  1  0.471851  0.945459  0.500555  1
  Ba  Ba8  1  0.471851  0.526393  0.500555  1
  Ba  Ba9  1  0.529219  0.474591  0.999901  1
  Ba  Ba10  1  0.529219  0.054627  0.999901  1
  Sr  Sr11  1  0.940439  0.470219  0.000893  1
  In  In12  1  0.330417  0.665209  0.880721  1
  In  In13  1  0.667077  0.333538  0.378908  1
  P  P14  1  0.672488  0.336244  0.724749  1
  P  P15  1  0.609766  0.804883  0.769867  1
  P  P16  1  0.809131  0.201786  0.263689  1
  P  P17  1  0.809131  0.607346  0.263689  1
  P  P18  1  0.334835  0.667418  0.223702  1
  P  P19  1  0.191479  0.390008  0.774410  1
  P  P20  1  0.191479  0.801471  0.774410  1
  P  P21  1  0.390567  0.195284  0.275221  1
