# generated using pymatgen
data_Hf2Ta3(GaSi)2
_symmetry_space_group_name_H-M   'P 1'
_cell_length_a   6.72746500
_cell_length_b   6.85611700
_cell_length_c   13.32416100
_cell_angle_alpha   90.00000000
_cell_angle_beta   90.00000000
_cell_angle_gamma   90.00000000
_symmetry_Int_Tables_number   1
_chemical_formula_structural   Hf2Ta3(GaSi)2
_chemical_formula_sum   'Hf8 Ta12 Ga8 Si8'
_cell_volume   614.56742804
_cell_formula_units_Z   4
loop_
 _symmetry_equiv_pos_site_id
 _symmetry_equiv_pos_as_xyz
  1  'x, y, z'
loop_
 _atom_site_type_symbol
 _atom_site_label
 _atom_site_symmetry_multiplicity
 _atom_site_fract_x
 _atom_site_fract_y
 _atom_site_fract_z
 _atom_site_occupancy
  Hf  Hf0  1  0.494170  0.670850  0.598248  1
  Hf  Hf1  1  0.994170  0.829150  0.901752  1
  Hf  Hf2  1  0.505830  0.329150  0.098248  1
  Hf  Hf3  1  0.005830  0.170850  0.401752  1
  Hf  Hf4  1  0.505830  0.329150  0.401752  1
  Hf  Hf5  1  0.005830  0.170850  0.098248  1
  Hf  Hf6  1  0.494170  0.670850  0.901752  1
  Hf  Hf7  1  0.994170  0.829150  0.598248  1
  Ta  Ta8  1  0.663080  0.172566  0.628868  1
  Ta  Ta9  1  0.163080  0.327434  0.871132  1
  Ta  Ta10  1  0.336920  0.827434  0.128868  1
  Ta  Ta11  1  0.836920  0.672566  0.371132  1
  Ta  Ta12  1  0.336920  0.827434  0.371132  1
  Ta  Ta13  1  0.836920  0.672566  0.128868  1
  Ta  Ta14  1  0.663080  0.172566  0.871132  1
  Ta  Ta15  1  0.163080  0.327434  0.628868  1
  Ta  Ta16  1  0.835315  0.493603  0.750000  1
  Ta  Ta17  1  0.335315  0.006397  0.750000  1
  Ta  Ta18  1  0.164685  0.506397  0.250000  1
  Ta  Ta19  1  0.664685  0.993603  0.250000  1
  Ga  Ga20  1  0.675608  0.965836  0.463352  1
  Ga  Ga21  1  0.175608  0.534164  0.036648  1
  Ga  Ga22  1  0.324392  0.034164  0.963352  1
  Ga  Ga23  1  0.824392  0.465836  0.536648  1
  Ga  Ga24  1  0.324392  0.034164  0.536648  1
  Ga  Ga25  1  0.824392  0.465836  0.963352  1
  Ga  Ga26  1  0.675608  0.965836  0.036648  1
  Ga  Ga27  1  0.175608  0.534164  0.463352  1
  Si  Si28  1  0.459644  0.388066  0.750000  1
  Si  Si29  1  0.959644  0.111934  0.750000  1
  Si  Si30  1  0.540356  0.611934  0.250000  1
  Si  Si31  1  0.040356  0.888066  0.250000  1
  Si  Si32  1  0.701141  0.859599  0.750000  1
  Si  Si33  1  0.201141  0.640401  0.750000  1
  Si  Si34  1  0.298859  0.140401  0.250000  1
  Si  Si35  1  0.798859  0.359599  0.250000  1
