# generated using pymatgen
data_NbV8W3
_symmetry_space_group_name_H-M   'P 1'
_cell_length_a   8.61554391
_cell_length_b   8.61554467
_cell_length_c   8.61554313
_cell_angle_alpha   33.64265460
_cell_angle_beta   33.64264314
_cell_angle_gamma   33.64264900
_symmetry_Int_Tables_number   1
_chemical_formula_structural   NbV8W3
_chemical_formula_sum   'Nb1 V8 W3'
_cell_volume   174.85958419
_cell_formula_units_Z   1
loop_
 _symmetry_equiv_pos_site_id
 _symmetry_equiv_pos_as_xyz
  1  'x, y, z'
loop_
 _atom_site_type_symbol
 _atom_site_label
 _atom_site_symmetry_multiplicity
 _atom_site_fract_x
 _atom_site_fract_y
 _atom_site_fract_z
 _atom_site_occupancy
  Nb  Nb0  1  0.125001  0.125001  0.125001  1
  V  V1  1  0.562063  0.060861  0.562063  1
  V  V2  1  0.062868  0.564151  0.062868  1
  V  V3  1  0.060861  0.562063  0.562063  1
  V  V4  1  0.564151  0.062868  0.062868  1
  V  V5  1  0.812635  0.812635  0.812635  1
  V  V6  1  0.312396  0.312396  0.312396  1
  V  V7  1  0.562063  0.562063  0.060861  1
  V  V8  1  0.062868  0.062868  0.564151  1
  W  W9  1  0.624708  0.624708  0.624708  1
  W  W10  1  0.999575  0.999575  0.999575  1
  W  W11  1  0.500811  0.500811  0.500811  1
