# generated using pymatgen
data_Tm4InPd5Pt6
_symmetry_space_group_name_H-M   'P 1'
_cell_length_a   4.20731000
_cell_length_b   5.80162100
_cell_length_c   11.61625500
_cell_angle_alpha   87.03758277
_cell_angle_beta   90.00000000
_cell_angle_gamma   90.00000000
_symmetry_Int_Tables_number   1
_chemical_formula_structural   Tm4InPd5Pt6
_chemical_formula_sum   'Tm4 In1 Pd5 Pt6'
_cell_volume   283.16478740
_cell_formula_units_Z   1
loop_
 _symmetry_equiv_pos_site_id
 _symmetry_equiv_pos_as_xyz
  1  'x, y, z'
loop_
 _atom_site_type_symbol
 _atom_site_label
 _atom_site_symmetry_multiplicity
 _atom_site_fract_x
 _atom_site_fract_y
 _atom_site_fract_z
 _atom_site_occupancy
  Tm  Tm0  1  0.500000  0.756149  0.375671  1
  Tm  Tm1  1  0.500000  0.713730  0.860138  1
  Tm  Tm2  1  0.500000  0.285855  0.140480  1
  Tm  Tm3  1  0.500000  0.243998  0.624536  1
  In  In4  1  0.000000  0.000455  0.999695  1
  Pd  Pd5  1  0.000000  0.500720  0.499873  1
  Pd  Pd6  1  0.500000  0.255611  0.378098  1
  Pd  Pd7  1  0.500000  0.223175  0.882338  1
  Pd  Pd8  1  0.500000  0.776637  0.117458  1
  Pd  Pd9  1  0.000000  0.999554  0.499842  1
  Pt  Pt10  1  0.000000  0.015697  0.250570  1
  Pt  Pt11  1  0.000000  0.983677  0.749345  1
  Pt  Pt12  1  0.000000  0.499893  0.000180  1
  Pt  Pt13  1  0.000000  0.519962  0.250610  1
  Pt  Pt14  1  0.000000  0.480181  0.749524  1
  Pt  Pt15  1  0.500000  0.744705  0.621642  1
