# generated using pymatgen
data_Dy8Er7Lu(Ga3Co)2
_symmetry_space_group_name_H-M   'P 1'
_cell_length_a   9.92960100
_cell_length_b   9.92960100
_cell_length_c   6.93794800
_cell_angle_alpha   90.00000000
_cell_angle_beta   90.00000000
_cell_angle_gamma   119.99999668
_symmetry_Int_Tables_number   1
_chemical_formula_structural   Dy8Er7Lu(Ga3Co)2
_chemical_formula_sum   'Dy8 Er7 Lu1 Ga6 Co2'
_cell_volume   592.41395711
_cell_formula_units_Z   1
loop_
 _symmetry_equiv_pos_site_id
 _symmetry_equiv_pos_as_xyz
  1  'x, y, z'
loop_
 _atom_site_type_symbol
 _atom_site_label
 _atom_site_symmetry_multiplicity
 _atom_site_fract_x
 _atom_site_fract_y
 _atom_site_fract_z
 _atom_site_occupancy
  Dy  Dy0  1  0.463906  0.536094  0.208608  1
  Dy  Dy1  1  0.072187  0.536094  0.208608  1
  Dy  Dy2  1  0.463906  0.927813  0.208608  1
  Dy  Dy3  1  0.536408  0.463592  0.707914  1
  Dy  Dy4  1  0.927185  0.463592  0.707914  1
  Dy  Dy5  1  0.536408  0.072815  0.707914  1
  Dy  Dy6  1  0.000000  0.000000  0.231305  1
  Dy  Dy7  1  0.000000  0.000000  0.731898  1
  Er  Er8  1  0.173149  0.826851  0.512160  1
  Er  Er9  1  0.653703  0.826851  0.512160  1
  Er  Er10  1  0.173149  0.346297  0.512160  1
  Er  Er11  1  0.826505  0.173495  0.012939  1
  Er  Er12  1  0.346990  0.173495  0.012939  1
  Er  Er13  1  0.826505  0.653010  0.012939  1
  Er  Er14  1  0.333333  0.666667  0.827526  1
  Lu  Lu15  1  0.666667  0.333333  0.325858  1
  Ga  Ga16  1  0.163704  0.836296  0.956826  1
  Ga  Ga17  1  0.672592  0.836296  0.956826  1
  Ga  Ga18  1  0.163704  0.327408  0.956826  1
  Ga  Ga19  1  0.835771  0.164229  0.456438  1
  Ga  Ga20  1  0.328458  0.164229  0.456438  1
  Ga  Ga21  1  0.835771  0.671542  0.456438  1
  Co  Co22  1  0.333333  0.666667  0.447049  1
  Co  Co23  1  0.666667  0.333333  0.946540  1
