# generated using pymatgen
data_Nd16Co3Hg4Os
_symmetry_space_group_name_H-M   'P 1'
_cell_length_a   9.86759872
_cell_length_b   9.86759778
_cell_length_c   9.86759902
_cell_angle_alpha   59.51099588
_cell_angle_beta   59.51099850
_cell_angle_gamma   59.51100266
_symmetry_Int_Tables_number   1
_chemical_formula_structural   Nd16Co3Hg4Os
_chemical_formula_sum   'Nd16 Co3 Hg4 Os1'
_cell_volume   671.83528446
_cell_formula_units_Z   1
loop_
 _symmetry_equiv_pos_site_id
 _symmetry_equiv_pos_as_xyz
  1  'x, y, z'
loop_
 _atom_site_type_symbol
 _atom_site_label
 _atom_site_symmetry_multiplicity
 _atom_site_fract_x
 _atom_site_fract_y
 _atom_site_fract_z
 _atom_site_occupancy
  Nd  Nd0  1  0.597191  0.597191  0.597191  1
  Nd  Nd1  1  0.600056  0.600056  0.206322  1
  Nd  Nd2  1  0.600056  0.206322  0.600056  1
  Nd  Nd3  1  0.206322  0.600056  0.600056  1
  Nd  Nd4  1  0.055926  0.439799  0.439799  1
  Nd  Nd5  1  0.438325  0.059029  0.059029  1
  Nd  Nd6  1  0.439799  0.055926  0.439799  1
  Nd  Nd7  1  0.059029  0.438325  0.059029  1
  Nd  Nd8  1  0.439799  0.439799  0.055926  1
  Nd  Nd9  1  0.059029  0.059029  0.438325  1
  Nd  Nd10  1  0.189369  0.811868  0.811868  1
  Nd  Nd11  1  0.804722  0.191142  0.191142  1
  Nd  Nd12  1  0.811868  0.189369  0.811868  1
  Nd  Nd13  1  0.191142  0.804722  0.191142  1
  Nd  Nd14  1  0.811868  0.811868  0.189369  1
  Nd  Nd15  1  0.191142  0.191142  0.804722  1
  Co  Co16  1  0.392020  0.392020  0.830541  1
  Co  Co17  1  0.392020  0.830541  0.392020  1
  Co  Co18  1  0.830541  0.392020  0.392020  1
  Hg  Hg19  1  0.833630  0.833630  0.833630  1
  Hg  Hg20  1  0.832553  0.832553  0.500741  1
  Hg  Hg21  1  0.832553  0.500741  0.832553  1
  Hg  Hg22  1  0.500741  0.832553  0.832553  1
  Os  Os23  1  0.390299  0.390299  0.390299  1
