# generated using pymatgen
data_Ta2Be2AlIr5
_symmetry_space_group_name_H-M   'P 1'
_cell_length_a   9.53964600
_cell_length_b   9.53964600
_cell_length_c   2.97516000
_cell_angle_alpha   90.00000000
_cell_angle_beta   90.00000000
_cell_angle_gamma   90.00000000
_symmetry_Int_Tables_number   1
_chemical_formula_structural   Ta2Be2AlIr5
_chemical_formula_sum   'Ta4 Be4 Al2 Ir10'
_cell_volume   270.75397705
_cell_formula_units_Z   2
loop_
 _symmetry_equiv_pos_site_id
 _symmetry_equiv_pos_as_xyz
  1  'x, y, z'
loop_
 _atom_site_type_symbol
 _atom_site_label
 _atom_site_symmetry_multiplicity
 _atom_site_fract_x
 _atom_site_fract_y
 _atom_site_fract_z
 _atom_site_occupancy
  Ta  Ta0  1  0.677807  0.177807  0.000000  1
  Ta  Ta1  1  0.322193  0.822193  0.000000  1
  Ta  Ta2  1  0.177807  0.322193  0.000000  1
  Ta  Ta3  1  0.822193  0.677807  0.000000  1
  Be  Be4  1  0.125796  0.625796  0.000000  1
  Be  Be5  1  0.874204  0.374204  0.000000  1
  Be  Be6  1  0.625796  0.874204  0.000000  1
  Be  Be7  1  0.374204  0.125796  0.000000  1
  Al  Al8  1  0.000000  0.000000  0.000000  1
  Al  Al9  1  0.500000  0.500000  0.000000  1
  Ir  Ir10  1  0.207394  0.064037  0.500000  1
  Ir  Ir11  1  0.792606  0.935963  0.500000  1
  Ir  Ir12  1  0.064037  0.792606  0.500000  1
  Ir  Ir13  1  0.707394  0.435963  0.500000  1
  Ir  Ir14  1  0.935963  0.207394  0.500000  1
  Ir  Ir15  1  0.292606  0.564037  0.500000  1
  Ir  Ir16  1  0.564037  0.707394  0.500000  1
  Ir  Ir17  1  0.435963  0.292606  0.500000  1
  Ir  Ir18  1  0.500000  0.000000  0.500000  1
  Ir  Ir19  1  0.000000  0.500000  0.500000  1
