# generated using pymatgen
data_TmMnSbO6
_symmetry_space_group_name_H-M   'P 1'
_cell_length_a   5.12605256
_cell_length_b   5.12598831
_cell_length_c   4.84622295
_cell_angle_alpha   90.02813663
_cell_angle_beta   90.02656053
_cell_angle_gamma   119.95715323
_symmetry_Int_Tables_number   1
_chemical_formula_structural   TmMnSbO6
_chemical_formula_sum   'Tm1 Mn1 Sb1 O6'
_cell_volume   110.32700683
_cell_formula_units_Z   1
loop_
 _symmetry_equiv_pos_site_id
 _symmetry_equiv_pos_as_xyz
  1  'x, y, z'
loop_
 _atom_site_type_symbol
 _atom_site_label
 _atom_site_symmetry_multiplicity
 _atom_site_fract_x
 _atom_site_fract_y
 _atom_site_fract_z
 _atom_site_occupancy
  Tm  Tm0  1  0.482543  0.517554  0.499975  1
  Mn  Mn1  1  0.815091  0.183877  0.000132  1
  Sb  Sb2  1  0.149257  0.850764  0.000002  1
  O  O3  1  0.119055  0.163934  0.223118  1
  O  O4  1  0.492692  0.881999  0.223703  1
  O  O5  1  0.837031  0.507989  0.223625  1
  O  O6  1  0.492115  0.163109  0.776325  1
  O  O7  1  0.118197  0.507546  0.776206  1
  O  O8  1  0.836175  0.881090  0.776884  1
