# generated using pymatgen
data_K2SnHF7
_symmetry_space_group_name_H-M   'P 1'
_cell_length_a   6.28506231
_cell_length_b   6.30359200
_cell_length_c   9.59150024
_cell_angle_alpha   90.00000000
_cell_angle_beta   99.81876910
_cell_angle_gamma   90.00000000
_symmetry_Int_Tables_number   1
_chemical_formula_structural   K2SnHF7
_chemical_formula_sum   'K4 Sn2 H2 F14'
_cell_volume   374.43433538
_cell_formula_units_Z   2
loop_
 _symmetry_equiv_pos_site_id
 _symmetry_equiv_pos_as_xyz
  1  'x, y, z'
loop_
 _atom_site_type_symbol
 _atom_site_label
 _atom_site_symmetry_multiplicity
 _atom_site_fract_x
 _atom_site_fract_y
 _atom_site_fract_z
 _atom_site_occupancy
  K  K0  1  0.242305  0.250000  0.997634  1
  K  K1  1  0.757695  0.750000  0.002366  1
  K  K2  1  0.172196  0.750000  0.675153  1
  K  K3  1  0.827804  0.250000  0.324847  1
  Sn  Sn4  1  0.305148  0.750000  0.213932  1
  Sn  Sn5  1  0.694852  0.250000  0.786068  1
  H  H6  1  0.347000  0.250000  0.536793  1
  H  H7  1  0.653000  0.750000  0.463207  1
  F  F8  1  0.188954  0.250000  0.522104  1
  F  F9  1  0.811046  0.750000  0.477896  1
  F  F10  1  0.409822  0.750000  0.426055  1
  F  F11  1  0.590178  0.250000  0.573945  1
  F  F12  1  0.083324  0.525929  0.220617  1
  F  F13  1  0.916676  0.025929  0.779383  1
  F  F14  1  0.916676  0.474071  0.779383  1
  F  F15  1  0.083324  0.974071  0.220617  1
  F  F16  1  0.212167  0.750000  0.002248  1
  F  F17  1  0.787833  0.250000  0.997752  1
  F  F18  1  0.522905  0.973908  0.189065  1
  F  F19  1  0.477095  0.473908  0.810935  1
  F  F20  1  0.477095  0.026092  0.810935  1
  F  F21  1  0.522905  0.526092  0.189065  1
