# generated using pymatgen
data_Pa3CuPd12
_symmetry_space_group_name_H-M   'P 1'
_cell_length_a   5.76923700
_cell_length_b   5.76923758
_cell_length_c   9.53192500
_cell_angle_alpha   90.00000000
_cell_angle_beta   90.00000000
_cell_angle_gamma   119.99980745
_symmetry_Int_Tables_number   1
_chemical_formula_structural   Pa3CuPd12
_chemical_formula_sum   'Pa3 Cu1 Pd12'
_cell_volume   274.75708167
_cell_formula_units_Z   1
loop_
 _symmetry_equiv_pos_site_id
 _symmetry_equiv_pos_as_xyz
  1  'x, y, z'
loop_
 _atom_site_type_symbol
 _atom_site_label
 _atom_site_symmetry_multiplicity
 _atom_site_fract_x
 _atom_site_fract_y
 _atom_site_fract_z
 _atom_site_occupancy
  Pa  Pa0  1  0.000000  0.000000  0.513109  1
  Pa  Pa1  1  0.000000  0.000000  0.986891  1
  Pa  Pa2  1  0.666666  0.333334  0.250000  1
  Cu  Cu3  1  0.333333  0.666667  0.750000  1
  Pd  Pd4  1  0.498950  0.501050  0.503087  1
  Pd  Pd5  1  0.498949  0.997899  0.503086  1
  Pd  Pd6  1  0.002101  0.501051  0.503086  1
  Pd  Pd7  1  0.498950  0.501050  0.996913  1
  Pd  Pd8  1  0.498949  0.997899  0.996914  1
  Pd  Pd9  1  0.002101  0.501051  0.996914  1
  Pd  Pd10  1  0.168720  0.831280  0.250000  1
  Pd  Pd11  1  0.168721  0.337439  0.250000  1
  Pd  Pd12  1  0.662561  0.831279  0.250000  1
  Pd  Pd13  1  0.828937  0.171063  0.750000  1
  Pd  Pd14  1  0.828938  0.657875  0.750000  1
  Pd  Pd15  1  0.342125  0.171062  0.750000  1
