# generated using pymatgen
data_TbLu(SiTc2)4
_symmetry_space_group_name_H-M   'P 1'
_cell_length_a   7.34363918
_cell_length_b   7.34363918
_cell_length_c   4.13973600
_cell_angle_alpha   90.00000000
_cell_angle_beta   90.00000000
_cell_angle_gamma   88.82025540
_symmetry_Int_Tables_number   1
_chemical_formula_structural   TbLu(SiTc2)4
_chemical_formula_sum   'Tb1 Lu1 Si4 Tc8'
_cell_volume   223.20464941
_cell_formula_units_Z   1
loop_
 _symmetry_equiv_pos_site_id
 _symmetry_equiv_pos_as_xyz
  1  'x, y, z'
loop_
 _atom_site_type_symbol
 _atom_site_label
 _atom_site_symmetry_multiplicity
 _atom_site_fract_x
 _atom_site_fract_y
 _atom_site_fract_z
 _atom_site_occupancy
  Tb  Tb0  1  0.500000  0.500000  0.500000  1
  Lu  Lu1  1  0.000000  0.000000  0.000000  1
  Si  Si2  1  0.288873  0.288873  0.000000  1
  Si  Si3  1  0.711127  0.711127  0.000000  1
  Si  Si4  1  0.794542  0.205458  0.500000  1
  Si  Si5  1  0.205458  0.794542  0.500000  1
  Tc  Tc6  1  0.598711  0.151677  0.000000  1
  Tc  Tc7  1  0.401289  0.848323  0.000000  1
  Tc  Tc8  1  0.659882  0.909665  0.500000  1
  Tc  Tc9  1  0.090335  0.340118  0.500000  1
  Tc  Tc10  1  0.340118  0.090335  0.500000  1
  Tc  Tc11  1  0.909665  0.659882  0.500000  1
  Tc  Tc12  1  0.151677  0.598711  0.000000  1
  Tc  Tc13  1  0.848323  0.401289  0.000000  1
