# generated using pymatgen
data_Ti3Si2Mo(PRh2)2
_symmetry_space_group_name_H-M   'P 1'
_cell_length_a   3.74122600
_cell_length_b   6.29236295
_cell_length_c   7.24275735
_cell_angle_alpha   90.33441188
_cell_angle_beta   90.00000000
_cell_angle_gamma   90.00000000
_symmetry_Int_Tables_number   1
_chemical_formula_structural   Ti3Si2Mo(PRh2)2
_chemical_formula_sum   'Ti3 Si2 Mo1 P2 Rh4'
_cell_volume   170.49994661
_cell_formula_units_Z   1
loop_
 _symmetry_equiv_pos_site_id
 _symmetry_equiv_pos_as_xyz
  1  'x, y, z'
loop_
 _atom_site_type_symbol
 _atom_site_label
 _atom_site_symmetry_multiplicity
 _atom_site_fract_x
 _atom_site_fract_y
 _atom_site_fract_z
 _atom_site_occupancy
  Ti  Ti0  1  0.750000  0.529134  0.323030  1
  Ti  Ti1  1  0.250000  0.472435  0.676066  1
  Ti  Ti2  1  0.250000  0.976337  0.824628  1
  Si  Si3  1  0.250000  0.231773  0.371770  1
  Si  Si4  1  0.250000  0.741553  0.124987  1
  Mo  Mo5  1  0.750000  0.030114  0.171003  1
  P  P6  1  0.750000  0.758737  0.622508  1
  P  P7  1  0.750000  0.259221  0.882082  1
  Rh  Rh8  1  0.750000  0.146951  0.570218  1
  Rh  Rh9  1  0.250000  0.357798  0.059592  1
  Rh  Rh10  1  0.750000  0.647708  0.930644  1
  Rh  Rh11  1  0.250000  0.848240  0.443471  1
