# generated using pymatgen
data_LiZr2Rh3
_symmetry_space_group_name_H-M   'P 1'
_cell_length_a   7.77247500
_cell_length_b   7.77247492
_cell_length_c   5.52714600
_cell_angle_alpha   90.00000000
_cell_angle_beta   90.00000000
_cell_angle_gamma   119.99999607
_symmetry_Int_Tables_number   1
_chemical_formula_structural   LiZr2Rh3
_chemical_formula_sum   'Li3 Zr6 Rh9'
_cell_volume   289.16801174
_cell_formula_units_Z   3
loop_
 _symmetry_equiv_pos_site_id
 _symmetry_equiv_pos_as_xyz
  1  'x, y, z'
loop_
 _atom_site_type_symbol
 _atom_site_label
 _atom_site_symmetry_multiplicity
 _atom_site_fract_x
 _atom_site_fract_y
 _atom_site_fract_z
 _atom_site_occupancy
  Li  Li0  1  0.666790  0.000000  0.225336  1
  Li  Li1  1  0.333209  0.333210  0.225336  1
  Li  Li2  1  0.000000  0.666790  0.225336  1
  Zr  Zr3  1  0.000000  0.000000  0.535781  1
  Zr  Zr4  1  0.666666  0.333333  0.535587  1
  Zr  Zr5  1  0.333334  0.666667  0.535587  1
  Zr  Zr6  1  0.333256  0.000000  0.915275  1
  Zr  Zr7  1  0.000000  0.333256  0.915275  1
  Zr  Zr8  1  0.666744  0.666744  0.915275  1
  Rh  Rh9  1  0.000000  0.000000  0.044539  1
  Rh  Rh10  1  0.666666  0.333333  0.045342  1
  Rh  Rh11  1  0.333334  0.666667  0.045342  1
  Rh  Rh12  1  0.333374  0.000000  0.405865  1
  Rh  Rh13  1  0.000000  0.333374  0.405865  1
  Rh  Rh14  1  0.666627  0.666626  0.405865  1
  Rh  Rh15  1  0.666691  0.000000  0.725418  1
  Rh  Rh16  1  0.333310  0.333310  0.725418  1
  Rh  Rh17  1  0.000000  0.666690  0.725418  1
