# generated using pymatgen
data_Dy13Y4(LuBi4)3
_symmetry_space_group_name_H-M   'P 1'
_cell_length_a   8.23475433
_cell_length_b   9.51042000
_cell_length_c   12.04854839
_cell_angle_alpha   90.00000000
_cell_angle_beta   90.08604563
_cell_angle_gamma   90.00000000
_symmetry_Int_Tables_number   1
_chemical_formula_structural   Dy13Y4(LuBi4)3
_chemical_formula_sum   'Dy13 Y4 Lu3 Bi12'
_cell_volume   943.59271716
_cell_formula_units_Z   1
loop_
 _symmetry_equiv_pos_site_id
 _symmetry_equiv_pos_as_xyz
  1  'x, y, z'
loop_
 _atom_site_type_symbol
 _atom_site_label
 _atom_site_symmetry_multiplicity
 _atom_site_fract_x
 _atom_site_fract_y
 _atom_site_fract_z
 _atom_site_occupancy
  Dy  Dy0  1  0.474214  0.250000  0.488168  1
  Dy  Dy1  1  0.186642  0.750000  0.718978  1
  Dy  Dy2  1  0.686999  0.750000  0.781412  1
  Dy  Dy3  1  0.813030  0.250000  0.281016  1
  Dy  Dy4  1  0.313391  0.250000  0.218656  1
  Dy  Dy5  1  0.305530  0.436287  0.940618  1
  Dy  Dy6  1  0.806496  0.063389  0.559551  1
  Dy  Dy7  1  0.694287  0.936278  0.059463  1
  Dy  Dy8  1  0.193975  0.563690  0.440468  1
  Dy  Dy9  1  0.694287  0.563722  0.059463  1
  Dy  Dy10  1  0.193975  0.936310  0.440468  1
  Dy  Dy11  1  0.305530  0.063713  0.940618  1
  Dy  Dy12  1  0.806496  0.436611  0.559551  1
  Y  Y13  1  0.354585  0.750000  0.215474  1
  Y  Y14  1  0.854082  0.750000  0.284384  1
  Y  Y15  1  0.645834  0.250000  0.784983  1
  Y  Y16  1  0.145330  0.250000  0.715637  1
  Lu  Lu17  1  0.024986  0.750000  0.988699  1
  Lu  Lu18  1  0.525598  0.750000  0.511211  1
  Lu  Lu19  1  0.974582  0.250000  0.011211  1
  Bi  Bi20  1  0.434065  0.002722  0.673381  1
  Bi  Bi21  1  0.934096  0.496626  0.827399  1
  Bi  Bi22  1  0.566682  0.504526  0.326565  1
  Bi  Bi23  1  0.066196  0.996507  0.172526  1
  Bi  Bi24  1  0.566682  0.995474  0.326565  1
  Bi  Bi25  1  0.066196  0.503493  0.172526  1
  Bi  Bi26  1  0.434065  0.497278  0.673381  1
  Bi  Bi27  1  0.934096  0.003374  0.827399  1
  Bi  Bi28  1  0.407704  0.750000  0.957871  1
  Bi  Bi29  1  0.907539  0.750000  0.542322  1
  Bi  Bi30  1  0.592168  0.250000  0.042312  1
  Bi  Bi31  1  0.090662  0.250000  0.457726  1
