# generated using pymatgen
data_CsLaHf6CBr18
_symmetry_space_group_name_H-M   'P 1'
_cell_length_a   10.15082800
_cell_length_b   10.15082807
_cell_length_c   19.10784900
_cell_angle_alpha   90.00000000
_cell_angle_beta   90.00000000
_cell_angle_gamma   119.99999977
_symmetry_Int_Tables_number   1
_chemical_formula_structural   CsLaHf6CBr18
_chemical_formula_sum   'Cs2 La2 Hf12 C2 Br36'
_cell_volume   1705.08241065
_cell_formula_units_Z   2
loop_
 _symmetry_equiv_pos_site_id
 _symmetry_equiv_pos_as_xyz
  1  'x, y, z'
loop_
 _atom_site_type_symbol
 _atom_site_label
 _atom_site_symmetry_multiplicity
 _atom_site_fract_x
 _atom_site_fract_y
 _atom_site_fract_z
 _atom_site_occupancy
  Cs  Cs0  1  0.333333  0.666667  0.750000  1
  Cs  Cs1  1  0.666667  0.333333  0.250000  1
  La  La2  1  0.666667  0.333333  0.750000  1
  La  La3  1  0.333333  0.666667  0.250000  1
  Hf  Hf4  1  0.837906  0.035929  0.568473  1
  Hf  Hf5  1  0.162094  0.964071  0.431527  1
  Hf  Hf6  1  0.964071  0.801976  0.568473  1
  Hf  Hf7  1  0.837906  0.801976  0.931527  1
  Hf  Hf8  1  0.035929  0.198024  0.431527  1
  Hf  Hf9  1  0.162094  0.198024  0.068473  1
  Hf  Hf10  1  0.198024  0.162094  0.568473  1
  Hf  Hf11  1  0.964071  0.162094  0.931527  1
  Hf  Hf12  1  0.801976  0.837906  0.431527  1
  Hf  Hf13  1  0.035929  0.837906  0.068473  1
  Hf  Hf14  1  0.198024  0.035929  0.931527  1
  Hf  Hf15  1  0.801976  0.964071  0.068473  1
  C  C16  1  0.000000  0.000000  0.500000  1
  C  C17  1  0.000000  0.000000  0.000000  1
  Br  Br18  1  0.270242  0.417062  0.500346  1
  Br  Br19  1  0.729758  0.582938  0.499654  1
  Br  Br20  1  0.582938  0.853180  0.500346  1
  Br  Br21  1  0.270242  0.853180  0.999654  1
  Br  Br22  1  0.417062  0.146820  0.499654  1
  Br  Br23  1  0.729758  0.146820  0.000346  1
  Br  Br24  1  0.146820  0.729758  0.500346  1
  Br  Br25  1  0.582938  0.729758  0.999654  1
  Br  Br26  1  0.853180  0.270242  0.499654  1
  Br  Br27  1  0.417062  0.270242  0.000346  1
  Br  Br28  1  0.146820  0.417062  0.999654  1
  Br  Br29  1  0.853180  0.582938  0.000346  1
  Br  Br30  1  0.041130  0.229223  0.658799  1
  Br  Br31  1  0.958870  0.770777  0.341201  1
  Br  Br32  1  0.770777  0.811907  0.658799  1
  Br  Br33  1  0.041130  0.811907  0.841201  1
  Br  Br34  1  0.229223  0.188093  0.341201  1
  Br  Br35  1  0.958870  0.188093  0.158799  1
  Br  Br36  1  0.188093  0.958870  0.658799  1
  Br  Br37  1  0.770777  0.958870  0.841201  1
  Br  Br38  1  0.811907  0.041130  0.341201  1
  Br  Br39  1  0.229223  0.041130  0.158799  1
  Br  Br40  1  0.188093  0.229223  0.841201  1
  Br  Br41  1  0.811907  0.770777  0.158799  1
  Br  Br42  1  0.627295  0.075274  0.660072  1
  Br  Br43  1  0.372705  0.924726  0.339928  1
  Br  Br44  1  0.924726  0.552021  0.660072  1
  Br  Br45  1  0.627295  0.552021  0.839928  1
  Br  Br46  1  0.075274  0.447979  0.339928  1
  Br  Br47  1  0.372705  0.447979  0.160072  1
  Br  Br48  1  0.447979  0.372705  0.660072  1
  Br  Br49  1  0.924726  0.372705  0.839928  1
  Br  Br50  1  0.552021  0.627295  0.339928  1
  Br  Br51  1  0.075274  0.627295  0.160072  1
  Br  Br52  1  0.447979  0.075274  0.839928  1
  Br  Br53  1  0.552021  0.924726  0.160072  1
