# generated using pymatgen
data_Tb4Co17Re3(SiP)6
_symmetry_space_group_name_H-M   'P 1'
_cell_length_a   3.72929100
_cell_length_b   10.44921730
_cell_length_c   11.92111487
_cell_angle_alpha   90.11561918
_cell_angle_beta   90.00000000
_cell_angle_gamma   90.00000000
_symmetry_Int_Tables_number   1
_chemical_formula_structural   Tb4Co17Re3(SiP)6
_chemical_formula_sum   'Tb4 Co17 Re3 Si6 P6'
_cell_volume   464.54310928
_cell_formula_units_Z   1
loop_
 _symmetry_equiv_pos_site_id
 _symmetry_equiv_pos_as_xyz
  1  'x, y, z'
loop_
 _atom_site_type_symbol
 _atom_site_label
 _atom_site_symmetry_multiplicity
 _atom_site_fract_x
 _atom_site_fract_y
 _atom_site_fract_z
 _atom_site_occupancy
  Tb  Tb0  1  0.250000  0.580397  0.702262  1
  Tb  Tb1  1  0.250000  0.919640  0.203521  1
  Tb  Tb2  1  0.750000  0.417726  0.297833  1
  Tb  Tb3  1  0.750000  0.082066  0.795938  1
  Co  Co4  1  0.750000  0.208963  0.506124  1
  Co  Co5  1  0.250000  0.401818  0.485575  1
  Co  Co6  1  0.250000  0.095469  0.987920  1
  Co  Co7  1  0.750000  0.591492  0.508490  1
  Co  Co8  1  0.750000  0.910684  0.011733  1
  Co  Co9  1  0.250000  0.214240  0.176269  1
  Co  Co10  1  0.250000  0.276140  0.674757  1
  Co  Co11  1  0.750000  0.787456  0.826618  1
  Co  Co12  1  0.750000  0.715869  0.326779  1
  Co  Co13  1  0.250000  0.888497  0.701122  1
  Co  Co14  1  0.250000  0.614523  0.201806  1
  Co  Co15  1  0.750000  0.119115  0.301884  1
  Co  Co16  1  0.750000  0.378645  0.801014  1
  Co  Co17  1  0.250000  0.463369  0.931252  1
  Co  Co18  1  0.250000  0.039769  0.434938  1
  Co  Co19  1  0.750000  0.531176  0.065843  1
  Co  Co20  1  0.750000  0.974799  0.569090  1
  Re  Re21  1  0.250000  0.707307  0.988519  1
  Re  Re22  1  0.250000  0.793522  0.488464  1
  Re  Re23  1  0.750000  0.291085  0.012320  1
  Si  Si24  1  0.250000  0.417562  0.114475  1
  Si  Si25  1  0.750000  0.582529  0.884478  1
  Si  Si26  1  0.750000  0.919275  0.387757  1
  Si  Si27  1  0.750000  0.729087  0.135290  1
  Si  Si28  1  0.750000  0.772884  0.634573  1
  Si  Si29  1  0.750000  0.396099  0.606580  1
  P  P30  1  0.250000  0.080413  0.613849  1
  P  P31  1  0.250000  0.269999  0.864284  1
  P  P32  1  0.250000  0.229191  0.364754  1
  P  P33  1  0.250000  0.598186  0.391544  1
  P  P34  1  0.250000  0.902262  0.892212  1
  P  P35  1  0.750000  0.098745  0.110135  1
