# generated using pymatgen
data_Y19Th(Ir5Ru)2
_symmetry_space_group_name_H-M   'P 1'
_cell_length_a   10.94246809
_cell_length_b   10.93163676
_cell_length_c   6.44391340
_cell_angle_alpha   90.02961777
_cell_angle_beta   89.77717336
_cell_angle_gamma   89.84985692
_symmetry_Int_Tables_number   1
_chemical_formula_structural   Y19Th(Ir5Ru)2
_chemical_formula_sum   'Y19 Th1 Ir10 Ru2'
_cell_volume   770.80645085
_cell_formula_units_Z   1
loop_
 _symmetry_equiv_pos_site_id
 _symmetry_equiv_pos_as_xyz
  1  'x, y, z'
loop_
 _atom_site_type_symbol
 _atom_site_label
 _atom_site_symmetry_multiplicity
 _atom_site_fract_x
 _atom_site_fract_y
 _atom_site_fract_z
 _atom_site_occupancy
  Y  Y0  1  0.293230  0.910806  0.879046  1
  Y  Y1  1  0.705433  0.085960  0.883519  1
  Y  Y2  1  0.705506  0.912032  0.381587  1
  Y  Y3  1  0.586314  0.794027  0.882348  1
  Y  Y4  1  0.593385  0.208339  0.380958  1
  Y  Y5  1  0.414967  0.788638  0.381098  1
  Y  Y6  1  0.414158  0.208039  0.880960  1
  Y  Y7  1  0.208922  0.411926  0.619014  1
  Y  Y8  1  0.207350  0.588609  0.120038  1
  Y  Y9  1  0.791791  0.412997  0.118024  1
  Y  Y10  1  0.791231  0.589286  0.619924  1
  Y  Y11  1  0.910833  0.709838  0.120602  1
  Y  Y12  1  0.911215  0.291082  0.617862  1
  Y  Y13  1  0.088485  0.708313  0.619374  1
  Y  Y14  1  0.087395  0.291371  0.116149  1
  Y  Y15  1  0.995748  0.998318  0.496663  1
  Y  Y16  1  0.000599  0.999930  0.996357  1
  Y  Y17  1  0.499531  0.499890  0.000247  1
  Y  Y18  1  0.501948  0.498778  0.500884  1
  Th  Th19  1  0.296947  0.086462  0.383991  1
  Ir  Ir20  1  0.848222  0.155252  0.245127  1
  Ir  Ir21  1  0.845995  0.846841  0.751253  1
  Ir  Ir22  1  0.153214  0.152428  0.739289  1
  Ir  Ir23  1  0.156031  0.849610  0.253141  1
  Ir  Ir24  1  0.654648  0.347482  0.751013  1
  Ir  Ir25  1  0.653228  0.652526  0.248043  1
  Ir  Ir26  1  0.346696  0.345372  0.252447  1
  Ir  Ir27  1  0.346609  0.650977  0.750278  1
  Ir  Ir28  1  0.999896  0.500456  0.874571  1
  Ir  Ir29  1  0.999792  0.500654  0.375221  1
  Ru  Ru30  1  0.493409  0.002312  0.135412  1
  Ru  Ru31  1  0.497274  0.001446  0.625563  1
