# generated using pymatgen
data_VTc5Te8
_symmetry_space_group_name_H-M   'P 1'
_cell_length_a   7.09793093
_cell_length_b   7.09660050
_cell_length_c   7.07721491
_cell_angle_alpha   93.43728374
_cell_angle_beta   94.28597658
_cell_angle_gamma   93.79735502
_symmetry_Int_Tables_number   1
_chemical_formula_structural   VTc5Te8
_chemical_formula_sum   'V1 Tc5 Te8'
_cell_volume   353.95480502
_cell_formula_units_Z   1
loop_
 _symmetry_equiv_pos_site_id
 _symmetry_equiv_pos_as_xyz
  1  'x, y, z'
loop_
 _atom_site_type_symbol
 _atom_site_label
 _atom_site_symmetry_multiplicity
 _atom_site_fract_x
 _atom_site_fract_y
 _atom_site_fract_z
 _atom_site_occupancy
  V  V0  1  0.914255  0.043362  0.756350  1
  Tc  Tc1  1  0.746426  0.912868  0.043026  1
  Tc  Tc2  1  0.047086  0.749782  0.912718  1
  Tc  Tc3  1  0.087036  0.954503  0.253856  1
  Tc  Tc4  1  0.252949  0.089758  0.954131  1
  Tc  Tc5  1  0.951824  0.254763  0.087030  1
  Te  Te6  1  0.709516  0.711142  0.707812  1
  Te  Te7  1  0.290116  0.290266  0.289969  1
  Te  Te8  1  0.775945  0.117985  0.379676  1
  Te  Te9  1  0.381462  0.772867  0.123639  1
  Te  Te10  1  0.113720  0.381089  0.770274  1
  Te  Te11  1  0.234574  0.877476  0.620076  1
  Te  Te12  1  0.617645  0.225518  0.873480  1
  Te  Te13  1  0.877446  0.618620  0.227961  1
