# generated using pymatgen
data_Dy2Lu8ZnBi5
_symmetry_space_group_name_H-M   'P 1'
_cell_length_a   8.06830000
_cell_length_b   9.31281900
_cell_length_c   11.82008800
_cell_angle_alpha   90.00000000
_cell_angle_beta   90.00000000
_cell_angle_gamma   90.00000000
_symmetry_Int_Tables_number   1
_chemical_formula_structural   Dy2Lu8ZnBi5
_chemical_formula_sum   'Dy4 Lu16 Zn2 Bi10'
_cell_volume   888.14507149
_cell_formula_units_Z   2
loop_
 _symmetry_equiv_pos_site_id
 _symmetry_equiv_pos_as_xyz
  1  'x, y, z'
loop_
 _atom_site_type_symbol
 _atom_site_label
 _atom_site_symmetry_multiplicity
 _atom_site_fract_x
 _atom_site_fract_y
 _atom_site_fract_z
 _atom_site_occupancy
  Dy  Dy0  1  0.311925  0.250000  0.217318  1
  Dy  Dy1  1  0.811925  0.250000  0.282682  1
  Dy  Dy2  1  0.678918  0.750000  0.787204  1
  Dy  Dy3  1  0.178918  0.750000  0.712796  1
  Lu  Lu4  1  0.353577  0.750000  0.205069  1
  Lu  Lu5  1  0.853577  0.750000  0.294931  1
  Lu  Lu6  1  0.652799  0.250000  0.781661  1
  Lu  Lu7  1  0.152799  0.250000  0.718339  1
  Lu  Lu8  1  0.683238  0.573091  0.057399  1
  Lu  Lu9  1  0.183238  0.926909  0.442601  1
  Lu  Lu10  1  0.309386  0.049068  0.941006  1
  Lu  Lu11  1  0.809386  0.450932  0.558994  1
  Lu  Lu12  1  0.309386  0.450932  0.941006  1
  Lu  Lu13  1  0.809386  0.049068  0.558994  1
  Lu  Lu14  1  0.683238  0.926909  0.057399  1
  Lu  Lu15  1  0.183238  0.573091  0.442601  1
  Lu  Lu16  1  0.481626  0.250000  0.490578  1
  Lu  Lu17  1  0.981626  0.250000  0.009422  1
  Lu  Lu18  1  0.535392  0.750000  0.509658  1
  Lu  Lu19  1  0.035392  0.750000  0.990342  1
  Zn  Zn20  1  0.405940  0.750000  0.959985  1
  Zn  Zn21  1  0.905940  0.750000  0.540015  1
  Bi  Bi22  1  0.597918  0.250000  0.039898  1
  Bi  Bi23  1  0.097918  0.250000  0.460102  1
  Bi  Bi24  1  0.559544  0.995371  0.325018  1
  Bi  Bi25  1  0.059544  0.504629  0.174982  1
  Bi  Bi26  1  0.438784  0.496771  0.676476  1
  Bi  Bi27  1  0.938784  0.003229  0.823524  1
  Bi  Bi28  1  0.438784  0.003229  0.676476  1
  Bi  Bi29  1  0.938784  0.496771  0.823524  1
  Bi  Bi30  1  0.559544  0.504629  0.325018  1
  Bi  Bi31  1  0.059544  0.995371  0.174982  1
