# generated using pymatgen
data_La5Nd2Sc3Si8O3
_symmetry_space_group_name_H-M   'P 1'
_cell_length_a   10.59222600
_cell_length_b   10.61610414
_cell_length_c   4.39070500
_cell_angle_alpha   90.00000000
_cell_angle_beta   90.00000000
_cell_angle_gamma   119.92562989
_symmetry_Int_Tables_number   1
_chemical_formula_structural   La5Nd2Sc3Si8O3
_chemical_formula_sum   'La5 Nd2 Sc3 Si8 O3'
_cell_volume   427.89998699
_cell_formula_units_Z   1
loop_
 _symmetry_equiv_pos_site_id
 _symmetry_equiv_pos_as_xyz
  1  'x, y, z'
loop_
 _atom_site_type_symbol
 _atom_site_label
 _atom_site_symmetry_multiplicity
 _atom_site_fract_x
 _atom_site_fract_y
 _atom_site_fract_z
 _atom_site_occupancy
  La  La0  1  0.786050  0.572100  0.000000  1
  La  La1  1  0.999436  0.998871  0.000000  1
  La  La2  1  0.214780  0.429560  0.000000  1
  La  La3  1  0.428029  0.213095  0.000000  1
  La  La4  1  0.785065  0.213095  0.000000  1
  Nd  Nd5  1  0.214409  0.787081  0.000000  1
  Nd  Nd6  1  0.572673  0.787081  0.000000  1
  Sc  Sc7  1  0.001995  0.501920  0.500000  1
  Sc  Sc8  1  0.499925  0.501920  0.500000  1
  Sc  Sc9  1  0.497764  0.995528  0.500000  1
  Si  Si10  1  0.000456  0.772516  0.500000  1
  Si  Si11  1  0.999336  0.225703  0.500000  1
  Si  Si12  1  0.226367  0.225703  0.500000  1
  Si  Si13  1  0.771920  0.998518  0.500000  1
  Si  Si14  1  0.335318  0.670637  0.500000  1
  Si  Si15  1  0.226598  0.998518  0.500000  1
  Si  Si16  1  0.666788  0.333574  0.500000  1
  Si  Si17  1  0.772060  0.772516  0.500000  1
  O  O18  1  0.002843  0.502062  0.000000  1
  O  O19  1  0.499219  0.502062  0.000000  1
  O  O20  1  0.498969  0.997938  0.000000  1
