# generated using pymatgen
data_ThNp2Ta(ClO2)3
_symmetry_space_group_name_H-M   'P 1'
_cell_length_a   5.41961100
_cell_length_b   9.33352729
_cell_length_c   9.31864539
_cell_angle_alpha   60.43713567
_cell_angle_beta   90.00000000
_cell_angle_gamma   90.00000000
_symmetry_Int_Tables_number   1
_chemical_formula_structural   ThNp2Ta(ClO2)3
_chemical_formula_sum   'Th2 Np4 Ta2 Cl6 O12'
_cell_volume   410.00914228
_cell_formula_units_Z   2
loop_
 _symmetry_equiv_pos_site_id
 _symmetry_equiv_pos_as_xyz
  1  'x, y, z'
loop_
 _atom_site_type_symbol
 _atom_site_label
 _atom_site_symmetry_multiplicity
 _atom_site_fract_x
 _atom_site_fract_y
 _atom_site_fract_z
 _atom_site_occupancy
  Th  Th0  1  0.000000  0.589270  0.321369  1
  Th  Th1  1  0.000000  0.085935  0.589268  1
  Np  Np2  1  0.000000  0.320518  0.086117  1
  Np  Np3  1  0.500000  0.409791  0.687450  1
  Np  Np4  1  0.500000  0.908132  0.407214  1
  Np  Np5  1  0.500000  0.681181  0.908712  1
  Ta  Ta6  1  0.500000  0.333373  0.331681  1
  Ta  Ta7  1  0.000000  0.666427  0.666267  1
  Cl  Cl8  1  0.000000  0.946777  0.240500  1
  Cl  Cl9  1  0.000000  0.811874  0.949691  1
  Cl  Cl10  1  0.000000  0.238238  0.809877  1
  Cl  Cl11  1  0.500000  0.053715  0.756796  1
  Cl  Cl12  1  0.500000  0.191629  0.054511  1
  Cl  Cl13  1  0.500000  0.758660  0.189265  1
  O  O14  1  0.236313  0.633727  0.517816  1
  O  O15  1  0.235879  0.846956  0.634346  1
  O  O16  1  0.237972  0.521969  0.842314  1
  O  O17  1  0.740971  0.364528  0.478664  1
  O  O18  1  0.739827  0.154259  0.368266  1
  O  O19  1  0.741037  0.480802  0.159236  1
  O  O20  1  0.259029  0.364528  0.478664  1
  O  O21  1  0.260173  0.154259  0.368266  1
  O  O22  1  0.258963  0.480802  0.159236  1
  O  O23  1  0.763687  0.633727  0.517816  1
  O  O24  1  0.764121  0.846956  0.634346  1
  O  O25  1  0.762028  0.521969  0.842314  1
