# generated using pymatgen
data_VCr3(FeP)4
_symmetry_space_group_name_H-M   'P 1'
_cell_length_a   3.52897600
_cell_length_b   5.81007196
_cell_length_c   6.59186523
_cell_angle_alpha   90.19069074
_cell_angle_beta   90.00000000
_cell_angle_gamma   90.00000000
_symmetry_Int_Tables_number   1
_chemical_formula_structural   VCr3(FeP)4
_chemical_formula_sum   'V1 Cr3 Fe4 P4'
_cell_volume   135.15624894
_cell_formula_units_Z   1
loop_
 _symmetry_equiv_pos_site_id
 _symmetry_equiv_pos_as_xyz
  1  'x, y, z'
loop_
 _atom_site_type_symbol
 _atom_site_label
 _atom_site_symmetry_multiplicity
 _atom_site_fract_x
 _atom_site_fract_y
 _atom_site_fract_z
 _atom_site_occupancy
  V  V0  1  0.750000  0.976707  0.174197  1
  Cr  Cr1  1  0.250000  0.028320  0.828952  1
  Cr  Cr2  1  0.750000  0.474850  0.329317  1
  Cr  Cr3  1  0.250000  0.520811  0.669555  1
  Fe  Fe4  1  0.250000  0.644965  0.060193  1
  Fe  Fe5  1  0.750000  0.357075  0.937957  1
  Fe  Fe6  1  0.250000  0.144066  0.437470  1
  Fe  Fe7  1  0.750000  0.854717  0.562296  1
  P  P8  1  0.250000  0.272010  0.124730  1
  P  P9  1  0.750000  0.731094  0.872859  1
  P  P10  1  0.250000  0.762759  0.379202  1
  P  P11  1  0.750000  0.232626  0.623271  1
