# generated using pymatgen
data_Tb3Er7Cd3Os
_symmetry_space_group_name_H-M   'P 1'
_cell_length_a   9.54589800
_cell_length_b   9.54589785
_cell_length_c   9.82111300
_cell_angle_alpha   90.00000000
_cell_angle_beta   90.00000000
_cell_angle_gamma   120.00000051
_symmetry_Int_Tables_number   1
_chemical_formula_structural   Tb3Er7Cd3Os
_chemical_formula_sum   'Tb6 Er14 Cd6 Os2'
_cell_volume   775.04141461
_cell_formula_units_Z   2
loop_
 _symmetry_equiv_pos_site_id
 _symmetry_equiv_pos_as_xyz
  1  'x, y, z'
loop_
 _atom_site_type_symbol
 _atom_site_label
 _atom_site_symmetry_multiplicity
 _atom_site_fract_x
 _atom_site_fract_y
 _atom_site_fract_z
 _atom_site_occupancy
  Tb  Tb0  1  0.539309  0.460691  0.250000  1
  Tb  Tb1  1  0.539309  0.078618  0.250000  1
  Tb  Tb2  1  0.921382  0.460691  0.250000  1
  Tb  Tb3  1  0.460691  0.539309  0.750000  1
  Tb  Tb4  1  0.460691  0.921382  0.750000  1
  Tb  Tb5  1  0.078618  0.539309  0.750000  1
  Er  Er6  1  0.000000  0.000000  0.500000  1
  Er  Er7  1  0.000000  0.000000  0.000000  1
  Er  Er8  1  0.209861  0.790139  0.440452  1
  Er  Er9  1  0.209861  0.419723  0.440452  1
  Er  Er10  1  0.580277  0.790139  0.440452  1
  Er  Er11  1  0.790139  0.209861  0.559548  1
  Er  Er12  1  0.790139  0.580277  0.559548  1
  Er  Er13  1  0.419723  0.209861  0.559548  1
  Er  Er14  1  0.790139  0.209861  0.940452  1
  Er  Er15  1  0.790139  0.580277  0.940452  1
  Er  Er16  1  0.419723  0.209861  0.940452  1
  Er  Er17  1  0.209861  0.790139  0.059548  1
  Er  Er18  1  0.209861  0.419723  0.059548  1
  Er  Er19  1  0.580277  0.790139  0.059548  1
  Cd  Cd20  1  0.886237  0.113763  0.250000  1
  Cd  Cd21  1  0.886237  0.772475  0.250000  1
  Cd  Cd22  1  0.227525  0.113763  0.250000  1
  Cd  Cd23  1  0.113763  0.886237  0.750000  1
  Cd  Cd24  1  0.113763  0.227525  0.750000  1
  Cd  Cd25  1  0.772475  0.886237  0.750000  1
  Os  Os26  1  0.333333  0.666667  0.250000  1
  Os  Os27  1  0.666667  0.333333  0.750000  1
