# generated using pymatgen
data_Li6La6Sb(TeO8)3
_symmetry_space_group_name_H-M   'P 1'
_cell_length_a   11.13189589
_cell_length_b   11.13189629
_cell_length_c   12.86168145
_cell_angle_alpha   54.78163750
_cell_angle_beta   54.78163478
_cell_angle_gamma   70.56230633
_symmetry_Int_Tables_number   1
_chemical_formula_structural   Li6La6Sb(TeO8)3
_chemical_formula_sum   'Li12 La12 Sb2 Te6 O48'
_cell_volume   1063.74544497
_cell_formula_units_Z   2
loop_
 _symmetry_equiv_pos_site_id
 _symmetry_equiv_pos_as_xyz
  1  'x, y, z'
loop_
 _atom_site_type_symbol
 _atom_site_label
 _atom_site_symmetry_multiplicity
 _atom_site_fract_x
 _atom_site_fract_y
 _atom_site_fract_z
 _atom_site_occupancy
  Li  Li0  1  0.874654  0.374509  0.876415  1
  Li  Li1  1  0.874621  0.125379  0.250000  1
  Li  Li2  1  0.751426  0.749409  0.374122  1
  Li  Li3  1  0.623840  0.376160  0.750000  1
  Li  Li4  1  0.749409  0.751426  0.874122  1
  Li  Li5  1  0.625491  0.125346  0.623585  1
  Li  Li6  1  0.374509  0.874654  0.376415  1
  Li  Li7  1  0.248574  0.250591  0.625878  1
  Li  Li8  1  0.250591  0.248574  0.125878  1
  Li  Li9  1  0.376160  0.623840  0.250000  1
  Li  Li10  1  0.125379  0.874621  0.750000  1
  Li  Li11  1  0.125346  0.625491  0.123585  1
  La  La12  1  0.875403  0.124597  0.750000  1
  La  La13  1  0.747813  0.748046  0.628454  1
  La  La14  1  0.871287  0.376045  0.375931  1
  La  La15  1  0.377240  0.622760  0.750000  1
  La  La16  1  0.748046  0.747813  0.128454  1
  La  La17  1  0.623955  0.128713  0.124069  1
  La  La18  1  0.376045  0.871287  0.875931  1
  La  La19  1  0.251954  0.252187  0.871546  1
  La  La20  1  0.622760  0.377240  0.250000  1
  La  La21  1  0.128713  0.623955  0.624069  1
  La  La22  1  0.252187  0.251954  0.371546  1
  La  La23  1  0.124597  0.875403  0.250000  1
  Sb  Sb24  1  0.500000  0.500000  0.500000  1
  Sb  Sb25  1  0.500000  0.500000  0.000000  1
  Te  Te26  1  0.000000  0.500000  0.000000  1
  Te  Te27  1  0.500000  0.000000  0.500000  1
  Te  Te28  1  0.500000  0.000000  0.000000  1
  Te  Te29  1  0.000000  0.500000  0.500000  1
  Te  Te30  1  0.000000  0.000000  0.500000  1
  Te  Te31  1  0.000000  0.000000  0.000000  1
  O  O32  1  0.906656  0.809706  0.669000  1
  O  O33  1  0.979547  0.924552  0.905552  1
  O  O34  1  0.885422  0.169427  0.923666  1
  O  O35  1  0.925006  0.520213  0.669655  1
  O  O36  1  0.924552  0.979547  0.405552  1
  O  O37  1  0.906167  0.690689  0.425018  1
  O  O38  1  0.830643  0.384251  0.594284  1
  O  O39  1  0.577670  0.525464  0.802311  1
  O  O40  1  0.615749  0.169357  0.905716  1
  O  O41  1  0.690689  0.906167  0.925018  1
  O  O42  1  0.830573  0.114578  0.576334  1
  O  O43  1  0.669232  0.114892  0.310518  1
  O  O44  1  0.978551  0.574927  0.115474  1
  O  O45  1  0.809706  0.906656  0.169000  1
  O  O46  1  0.594950  0.810402  0.519670  1
  O  O47  1  0.697653  0.595583  0.379693  1
  O  O48  1  0.672583  0.379748  0.024466  1
  O  O49  1  0.885108  0.330768  0.189482  1
  O  O50  1  0.595583  0.697653  0.879693  1
  O  O51  1  0.474536  0.422330  0.697689  1
  O  O52  1  0.479787  0.074994  0.830345  1
  O  O53  1  0.620252  0.327417  0.475534  1
  O  O54  1  0.810402  0.594950  0.019670  1
  O  O55  1  0.425073  0.021449  0.384526  1
  O  O56  1  0.189598  0.405050  0.980330  1
  O  O57  1  0.574927  0.978551  0.615474  1
  O  O58  1  0.379748  0.672583  0.524466  1
  O  O59  1  0.520213  0.925006  0.169655  1
  O  O60  1  0.525464  0.577670  0.302311  1
  O  O61  1  0.404417  0.302347  0.120307  1
  O  O62  1  0.114892  0.669232  0.810518  1
  O  O63  1  0.327417  0.620252  0.975534  1
  O  O64  1  0.302347  0.404417  0.620307  1
  O  O65  1  0.405050  0.189598  0.480330  1
  O  O66  1  0.190294  0.093344  0.831000  1
  O  O67  1  0.021449  0.425073  0.884526  1
  O  O68  1  0.330768  0.885108  0.689482  1
  O  O69  1  0.169427  0.885422  0.423666  1
  O  O70  1  0.309311  0.093833  0.074982  1
  O  O71  1  0.384251  0.830643  0.094284  1
  O  O72  1  0.422330  0.474536  0.197689  1
  O  O73  1  0.169357  0.615749  0.405716  1
  O  O74  1  0.093833  0.309311  0.574982  1
  O  O75  1  0.075448  0.020453  0.594448  1
  O  O76  1  0.074994  0.479787  0.330345  1
  O  O77  1  0.114578  0.830573  0.076334  1
  O  O78  1  0.020453  0.075448  0.094448  1
  O  O79  1  0.093344  0.190294  0.331000  1
