# generated using pymatgen
data_AcMnF7
_symmetry_space_group_name_H-M   'P 1'
_cell_length_a   5.78409300
_cell_length_b   9.38123081
_cell_length_c   12.46563102
_cell_angle_alpha   61.62064515
_cell_angle_beta   90.00000000
_cell_angle_gamma   90.00000000
_symmetry_Int_Tables_number   1
_chemical_formula_structural   AcMnF7
_chemical_formula_sum   'Ac4 Mn4 F28'
_cell_volume   595.11806656
_cell_formula_units_Z   4
loop_
 _symmetry_equiv_pos_site_id
 _symmetry_equiv_pos_as_xyz
  1  'x, y, z'
loop_
 _atom_site_type_symbol
 _atom_site_label
 _atom_site_symmetry_multiplicity
 _atom_site_fract_x
 _atom_site_fract_y
 _atom_site_fract_z
 _atom_site_occupancy
  Ac  Ac0  1  0.759004  0.804728  0.265173  1
  Ac  Ac1  1  0.259004  0.195272  0.234827  1
  Ac  Ac2  1  0.240996  0.195272  0.734827  1
  Ac  Ac3  1  0.740996  0.804728  0.765173  1
  Mn  Mn4  1  0.243557  0.725334  0.543373  1
  Mn  Mn5  1  0.743557  0.274666  0.956627  1
  Mn  Mn6  1  0.756443  0.274666  0.456627  1
  Mn  Mn7  1  0.256443  0.725334  0.043373  1
  F  F8  1  0.978790  0.714452  0.464373  1
  F  F9  1  0.478790  0.285548  0.035627  1
  F  F10  1  0.021210  0.285548  0.535627  1
  F  F11  1  0.521210  0.714452  0.964373  1
  F  F12  1  0.073654  0.709301  0.928856  1
  F  F13  1  0.573654  0.290699  0.571144  1
  F  F14  1  0.926346  0.290699  0.071144  1
  F  F15  1  0.426346  0.709301  0.428856  1
  F  F16  1  0.737195  0.497770  0.866032  1
  F  F17  1  0.237195  0.502230  0.633968  1
  F  F18  1  0.262805  0.502230  0.133968  1
  F  F19  1  0.762805  0.497770  0.366032  1
  F  F20  1  0.740307  0.052308  0.043636  1
  F  F21  1  0.240307  0.947692  0.456364  1
  F  F22  1  0.259693  0.947692  0.956364  1
  F  F23  1  0.759693  0.052308  0.543636  1
  F  F24  1  0.062451  0.738462  0.661001  1
  F  F25  1  0.562451  0.261538  0.838999  1
  F  F26  1  0.937549  0.261538  0.338999  1
  F  F27  1  0.437549  0.738462  0.161001  1
  F  F28  1  0.004122  0.270351  0.873004  1
  F  F29  1  0.504122  0.729649  0.626996  1
  F  F30  1  0.995878  0.729649  0.126996  1
  F  F31  1  0.495878  0.270351  0.373004  1
  F  F32  1  0.101446  0.965662  0.227480  1
  F  F33  1  0.601446  0.034338  0.272520  1
  F  F34  1  0.898554  0.034338  0.772520  1
  F  F35  1  0.398554  0.965662  0.727480  1
