# generated using pymatgen
data_Ti12TcMoP8
_symmetry_space_group_name_H-M   'P 1'
_cell_length_a   7.43233039
_cell_length_b   7.43233145
_cell_length_c   13.53916976
_cell_angle_alpha   75.87846926
_cell_angle_beta   75.87846719
_cell_angle_gamma   26.59173255
_symmetry_Int_Tables_number   1
_chemical_formula_structural   Ti12TcMoP8
_chemical_formula_sum   'Ti12 Tc1 Mo1 P8'
_cell_volume   324.09017939
_cell_formula_units_Z   1
loop_
 _symmetry_equiv_pos_site_id
 _symmetry_equiv_pos_as_xyz
  1  'x, y, z'
loop_
 _atom_site_type_symbol
 _atom_site_label
 _atom_site_symmetry_multiplicity
 _atom_site_fract_x
 _atom_site_fract_y
 _atom_site_fract_z
 _atom_site_occupancy
  Ti  Ti0  1  0.430635  0.430635  0.166844  1
  Ti  Ti1  1  0.569365  0.569365  0.833156  1
  Ti  Ti2  1  0.195375  0.195375  0.692918  1
  Ti  Ti3  1  0.804625  0.804625  0.307082  1
  Ti  Ti4  1  0.207141  0.207141  0.204737  1
  Ti  Ti5  1  0.792859  0.792859  0.795263  1
  Ti  Ti6  1  0.341844  0.341844  0.967259  1
  Ti  Ti7  1  0.658156  0.658156  0.032741  1
  Ti  Ti8  1  0.003354  0.003354  0.340004  1
  Ti  Ti9  1  0.996646  0.996646  0.659996  1
  Ti  Ti10  1  0.176119  0.176119  0.458696  1
  Ti  Ti11  1  0.823881  0.823881  0.541304  1
  Tc  Tc12  1  0.000000  0.000000  0.000000  1
  Mo  Mo13  1  0.500000  0.500000  0.500000  1
  P  P14  1  0.177834  0.177834  0.891461  1
  P  P15  1  0.822166  0.822166  0.108539  1
  P  P16  1  0.371015  0.371015  0.396174  1
  P  P17  1  0.628985  0.628985  0.603826  1
  P  P18  1  0.368902  0.368902  0.660480  1
  P  P19  1  0.631098  0.631098  0.339520  1
  P  P20  1  0.060591  0.060591  0.151261  1
  P  P21  1  0.939409  0.939409  0.848739  1
