# generated using pymatgen
data_Nd2B4OsRh4
_symmetry_space_group_name_H-M   'P 1'
_cell_length_a   7.56439720
_cell_length_b   6.37091308
_cell_length_c   5.65490792
_cell_angle_alpha   77.70264484
_cell_angle_beta   55.37608347
_cell_angle_gamma   46.92129365
_symmetry_Int_Tables_number   1
_chemical_formula_structural   Nd2B4OsRh4
_chemical_formula_sum   'Nd2 B4 Os1 Rh4'
_cell_volume   156.69801503
_cell_formula_units_Z   1
loop_
 _symmetry_equiv_pos_site_id
 _symmetry_equiv_pos_as_xyz
  1  'x, y, z'
loop_
 _atom_site_type_symbol
 _atom_site_label
 _atom_site_symmetry_multiplicity
 _atom_site_fract_x
 _atom_site_fract_y
 _atom_site_fract_z
 _atom_site_occupancy
  Nd  Nd0  1  0.857445  0.857445  0.142555  1
  Nd  Nd1  1  0.142555  0.142555  0.857445  1
  B  B2  1  0.199137  0.536921  0.480346  1
  B  B3  1  0.783598  0.480346  0.536921  1
  B  B4  1  0.536921  0.199137  0.783598  1
  B  B5  1  0.480346  0.783598  0.199137  1
  Os  Os6  1  0.750000  0.750000  0.750000  1
  Rh  Rh7  1  0.498297  0.498297  0.001703  1
  Rh  Rh8  1  0.250000  0.250000  0.250000  1
  Rh  Rh9  1  0.001703  0.001703  0.498297  1
  Rh  Rh10  1  0.500000  0.500000  0.500000  1
