# generated using pymatgen
data_La2Nd(OsO5)2
_symmetry_space_group_name_H-M   'P 1'
_cell_length_a   5.59447183
_cell_length_b   5.59447178
_cell_length_c   7.02905898
_cell_angle_alpha   72.51621209
_cell_angle_beta   72.51620425
_cell_angle_gamma   90.33337339
_symmetry_Int_Tables_number   1
_chemical_formula_structural   La2Nd(OsO5)2
_chemical_formula_sum   'La2 Nd1 Os2 O10'
_cell_volume   199.01971935
_cell_formula_units_Z   1
loop_
 _symmetry_equiv_pos_site_id
 _symmetry_equiv_pos_as_xyz
  1  'x, y, z'
loop_
 _atom_site_type_symbol
 _atom_site_label
 _atom_site_symmetry_multiplicity
 _atom_site_fract_x
 _atom_site_fract_y
 _atom_site_fract_z
 _atom_site_occupancy
  La  La0  1  0.754699  0.245301  0.500000  1
  La  La1  1  0.245301  0.754699  0.500000  1
  Nd  Nd2  1  0.500000  0.500000  0.000000  1
  Os  Os3  1  0.130353  0.130353  0.824804  1
  Os  Os4  1  0.869647  0.869647  0.175196  1
  O  O5  1  0.828042  0.828042  0.472120  1
  O  O6  1  0.171958  0.171958  0.527880  1
  O  O7  1  0.595576  0.595576  0.280926  1
  O  O8  1  0.404424  0.404424  0.719074  1
  O  O9  1  0.378063  0.895406  0.791404  1
  O  O10  1  0.853606  0.853606  0.898482  1
  O  O11  1  0.146394  0.146394  0.101518  1
  O  O12  1  0.895406  0.378063  0.791404  1
  O  O13  1  0.621937  0.104594  0.208596  1
  O  O14  1  0.104594  0.621937  0.208596  1
