# generated using pymatgen
data_Be4ReMo
_symmetry_space_group_name_H-M   'P 1'
_cell_length_a   4.40663000
_cell_length_b   4.40663091
_cell_length_c   7.24704900
_cell_angle_alpha   90.00000000
_cell_angle_beta   90.00000000
_cell_angle_gamma   120.00000817
_symmetry_Int_Tables_number   1
_chemical_formula_structural   Be4ReMo
_chemical_formula_sum   'Be8 Re2 Mo2'
_cell_volume   121.87231396
_cell_formula_units_Z   2
loop_
 _symmetry_equiv_pos_site_id
 _symmetry_equiv_pos_as_xyz
  1  'x, y, z'
loop_
 _atom_site_type_symbol
 _atom_site_label
 _atom_site_symmetry_multiplicity
 _atom_site_fract_x
 _atom_site_fract_y
 _atom_site_fract_z
 _atom_site_occupancy
  Be  Be0  1  0.000000  0.000000  0.000087  1
  Be  Be1  1  0.000000  0.000000  0.500087  1
  Be  Be2  1  0.830634  0.661269  0.250175  1
  Be  Be3  1  0.169366  0.830634  0.750175  1
  Be  Be4  1  0.661269  0.830634  0.750175  1
  Be  Be5  1  0.338731  0.169366  0.250175  1
  Be  Be6  1  0.830634  0.169366  0.250175  1
  Be  Be7  1  0.169366  0.338731  0.750175  1
  Re  Re8  1  0.666667  0.333333  0.939177  1
  Re  Re9  1  0.333333  0.666667  0.439177  1
  Mo  Mo10  1  0.333333  0.666667  0.060211  1
  Mo  Mo11  1  0.666667  0.333333  0.560211  1
