# generated using pymatgen
data_LaTbFe3Re14C3
_symmetry_space_group_name_H-M   'P 1'
_cell_length_a   6.94986885
_cell_length_b   6.94986812
_cell_length_c   6.94986831
_cell_angle_alpha   82.71580129
_cell_angle_beta   82.71579668
_cell_angle_gamma   82.71578876
_symmetry_Int_Tables_number   1
_chemical_formula_structural   LaTbFe3Re14C3
_chemical_formula_sum   'La1 Tb1 Fe3 Re14 C3'
_cell_volume   328.18921275
_cell_formula_units_Z   1
loop_
 _symmetry_equiv_pos_site_id
 _symmetry_equiv_pos_as_xyz
  1  'x, y, z'
loop_
 _atom_site_type_symbol
 _atom_site_label
 _atom_site_symmetry_multiplicity
 _atom_site_fract_x
 _atom_site_fract_y
 _atom_site_fract_z
 _atom_site_occupancy
  La  La0  1  0.647236  0.647236  0.647236  1
  Tb  Tb1  1  0.350773  0.350773  0.350773  1
  Fe  Fe2  1  0.998517  0.998517  0.500958  1
  Fe  Fe3  1  0.500958  0.998517  0.998517  1
  Fe  Fe4  1  0.998517  0.500958  0.998517  1
  Re  Re5  1  0.722096  0.277285  0.000796  1
  Re  Re6  1  0.000796  0.722096  0.277285  1
  Re  Re7  1  0.277285  0.000796  0.722096  1
  Re  Re8  1  0.000796  0.277285  0.722096  1
  Re  Re9  1  0.722096  0.000796  0.277285  1
  Re  Re10  1  0.277285  0.722096  0.000796  1
  Re  Re11  1  0.344574  0.344574  0.865469  1
  Re  Re12  1  0.865469  0.344574  0.344574  1
  Re  Re13  1  0.344574  0.865469  0.344574  1
  Re  Re14  1  0.653883  0.653883  0.139192  1
  Re  Re15  1  0.139192  0.653883  0.653883  1
  Re  Re16  1  0.653883  0.139192  0.653883  1
  Re  Re17  1  0.898960  0.898960  0.898960  1
  Re  Re18  1  0.101609  0.101609  0.101609  1
  C  C19  1  0.495749  0.495749  0.010005  1
  C  C20  1  0.010005  0.495749  0.495749  1
  C  C21  1  0.495749  0.010005  0.495749  1
