# generated using pymatgen
data_Y5Ho5Tl3In5IrPd3
_symmetry_space_group_name_H-M   'P 1'
_cell_length_a   3.63220100
_cell_length_b   8.17589752
_cell_length_c   18.30545662
_cell_angle_alpha   89.89698847
_cell_angle_beta   90.00000000
_cell_angle_gamma   90.00000000
_symmetry_Int_Tables_number   1
_chemical_formula_structural   Y5Ho5Tl3In5IrPd3
_chemical_formula_sum   'Y5 Ho5 Tl3 In5 Ir1 Pd3'
_cell_volume   543.60717153
_cell_formula_units_Z   1
loop_
 _symmetry_equiv_pos_site_id
 _symmetry_equiv_pos_as_xyz
  1  'x, y, z'
loop_
 _atom_site_type_symbol
 _atom_site_label
 _atom_site_symmetry_multiplicity
 _atom_site_fract_x
 _atom_site_fract_y
 _atom_site_fract_z
 _atom_site_occupancy
  Y  Y0  1  0.000000  0.498587  0.500048  1
  Y  Y1  1  0.000000  0.999439  0.000560  1
  Y  Y2  1  0.000000  0.729456  0.279944  1
  Y  Y3  1  0.000000  0.261187  0.717361  1
  Y  Y4  1  0.000000  0.760228  0.780713  1
  Ho  Ho5  1  0.000000  0.256344  0.219278  1
  Ho  Ho6  1  0.000000  0.613545  0.089395  1
  Ho  Ho7  1  0.000000  0.383395  0.914153  1
  Ho  Ho8  1  0.000000  0.883850  0.584733  1
  Ho  Ho9  1  0.000000  0.115784  0.414524  1
  Tl  Tl10  1  0.500000  0.707891  0.934193  1
  Tl  Tl11  1  0.500000  0.290786  0.066268  1
  Tl  Tl12  1  0.500000  0.792499  0.433672  1
  In  In13  1  0.500000  0.206077  0.566388  1
  In  In14  1  0.500000  0.581205  0.649622  1
  In  In15  1  0.500000  0.415575  0.350536  1
  In  In16  1  0.500000  0.920214  0.151801  1
  In  In17  1  0.500000  0.082563  0.848725  1
  Ir  Ir18  1  0.500000  0.523901  0.197286  1
  Pd  Pd19  1  0.500000  0.472839  0.803034  1
  Pd  Pd20  1  0.500000  0.975687  0.695121  1
  Pd  Pd21  1  0.500000  0.028951  0.302647  1
