# generated using pymatgen
data_Mg5Ta6Ru12W
_symmetry_space_group_name_H-M   'P 1'
_cell_length_a   4.44859800
_cell_length_b   6.28094800
_cell_length_c   13.28483300
_cell_angle_alpha   90.00000000
_cell_angle_beta   90.00013340
_cell_angle_gamma   90.00000000
_symmetry_Int_Tables_number   1
_chemical_formula_structural   Mg5Ta6Ru12W
_chemical_formula_sum   'Mg5 Ta6 Ru12 W1'
_cell_volume   371.19700165
_cell_formula_units_Z   1
loop_
 _symmetry_equiv_pos_site_id
 _symmetry_equiv_pos_as_xyz
  1  'x, y, z'
loop_
 _atom_site_type_symbol
 _atom_site_label
 _atom_site_symmetry_multiplicity
 _atom_site_fract_x
 _atom_site_fract_y
 _atom_site_fract_z
 _atom_site_occupancy
  Mg  Mg0  1  0.499989  0.000000  0.167251  1
  Mg  Mg1  1  0.999993  0.500001  0.333929  1
  Mg  Mg2  1  0.499999  0.000000  0.500000  1
  Mg  Mg3  1  0.000007  0.500001  0.666071  1
  Mg  Mg4  1  0.500011  0.000000  0.832749  1
  Ta  Ta5  1  0.000000  0.000000  0.000000  1
  Ta  Ta6  1  0.499993  0.500001  0.174660  1
  Ta  Ta7  1  0.999993  0.000000  0.336837  1
  Ta  Ta8  1  0.499999  0.500001  0.500000  1
  Ta  Ta9  1  0.000007  0.000000  0.663163  1
  Ta  Ta10  1  0.500007  0.500001  0.825340  1
  Ru  Ru11  1  0.499999  0.258160  0.000000  1
  Ru  Ru12  1  0.499999  0.741840  0.000000  1
  Ru  Ru13  1  0.999998  0.253831  0.160827  1
  Ru  Ru14  1  0.999998  0.746169  0.160827  1
  Ru  Ru15  1  0.499992  0.248954  0.332325  1
  Ru  Ru16  1  0.499992  0.751046  0.332325  1
  Ru  Ru17  1  0.000000  0.249209  0.500000  1
  Ru  Ru18  1  0.000000  0.750791  0.500000  1
  Ru  Ru19  1  0.500008  0.248954  0.667675  1
  Ru  Ru20  1  0.500008  0.751046  0.667675  1
  Ru  Ru21  1  0.000002  0.253831  0.839173  1
  Ru  Ru22  1  0.000002  0.746169  0.839173  1
  W  W23  1  0.000000  0.500001  0.000000  1
