# generated using pymatgen
data_Sr2VF7
_symmetry_space_group_name_H-M   'P 1'
_cell_length_a   8.29086900
_cell_length_b   7.57941400
_cell_length_c   10.35309300
_cell_angle_alpha   90.00000000
_cell_angle_beta   90.00000000
_cell_angle_gamma   90.00000000
_symmetry_Int_Tables_number   1
_chemical_formula_structural   Sr2VF7
_chemical_formula_sum   'Sr8 V4 F28'
_cell_volume   650.58762461
_cell_formula_units_Z   4
loop_
 _symmetry_equiv_pos_site_id
 _symmetry_equiv_pos_as_xyz
  1  'x, y, z'
loop_
 _atom_site_type_symbol
 _atom_site_label
 _atom_site_symmetry_multiplicity
 _atom_site_fract_x
 _atom_site_fract_y
 _atom_site_fract_z
 _atom_site_occupancy
  Sr  Sr0  1  0.804741  0.249999  0.107196  1
  Sr  Sr1  1  0.385557  0.750000  0.243270  1
  Sr  Sr2  1  0.885556  0.750000  0.256731  1
  Sr  Sr3  1  0.304740  0.249999  0.392803  1
  Sr  Sr4  1  0.695259  0.750000  0.607196  1
  Sr  Sr5  1  0.114443  0.249999  0.743269  1
  Sr  Sr6  1  0.614444  0.249999  0.756731  1
  Sr  Sr7  1  0.195260  0.750000  0.892803  1
  V  V8  1  0.314210  0.249999  0.057151  1
  V  V9  1  0.814209  0.249999  0.442850  1
  V  V10  1  0.185790  0.750000  0.557151  1
  V  V11  1  0.685790  0.750000  0.942850  1
  F  F12  1  0.464055  0.750000  0.011069  1
  F  F13  1  0.751627  0.573624  0.077206  1
  F  F14  1  0.751627  0.926377  0.077206  1
  F  F15  1  0.128393  0.750000  0.125635  1
  F  F16  1  0.100507  0.249999  0.131831  1
  F  F17  1  0.375485  0.071318  0.189007  1
  F  F18  1  0.375485  0.428682  0.189007  1
  F  F19  1  0.875485  0.071318  0.310993  1
  F  F20  1  0.875485  0.428682  0.310993  1
  F  F21  1  0.600508  0.249999  0.368169  1
  F  F22  1  0.628393  0.750000  0.374365  1
  F  F23  1  0.251626  0.573624  0.422794  1
  F  F24  1  0.251626  0.926377  0.422794  1
  F  F25  1  0.964055  0.750000  0.488931  1
  F  F26  1  0.035945  0.249999  0.511068  1
  F  F27  1  0.748373  0.073623  0.577206  1
  F  F28  1  0.748373  0.426377  0.577206  1
  F  F29  1  0.371606  0.249999  0.625635  1
  F  F30  1  0.399493  0.750000  0.631831  1
  F  F31  1  0.124516  0.571317  0.689006  1
  F  F32  1  0.124516  0.928682  0.689006  1
  F  F33  1  0.624515  0.571317  0.810993  1
  F  F34  1  0.624515  0.928682  0.810993  1
  F  F35  1  0.899493  0.750000  0.868169  1
  F  F36  1  0.871606  0.249999  0.874365  1
  F  F37  1  0.248373  0.073623  0.922794  1
  F  F38  1  0.248373  0.426377  0.922794  1
  F  F39  1  0.535945  0.249999  0.988931  1
