# generated using pymatgen
data_Pr7Y(Si3Pt)4
_symmetry_space_group_name_H-M   'P 1'
_cell_length_a   8.24630153
_cell_length_b   8.24630203
_cell_length_c   8.63892200
_cell_angle_alpha   90.00000000
_cell_angle_beta   90.00000000
_cell_angle_gamma   120.04105724
_symmetry_Int_Tables_number   1
_chemical_formula_structural   Pr7Y(Si3Pt)4
_chemical_formula_sum   'Pr7 Y1 Si12 Pt4'
_cell_volume   508.54431944
_cell_formula_units_Z   1
loop_
 _symmetry_equiv_pos_site_id
 _symmetry_equiv_pos_as_xyz
  1  'x, y, z'
loop_
 _atom_site_type_symbol
 _atom_site_label
 _atom_site_symmetry_multiplicity
 _atom_site_fract_x
 _atom_site_fract_y
 _atom_site_fract_z
 _atom_site_occupancy
  Pr  Pr0  1  0.500182  0.499818  0.250000  1
  Pr  Pr1  1  0.000456  0.500180  0.750000  1
  Pr  Pr2  1  0.999672  0.499866  0.250000  1
  Pr  Pr3  1  0.499820  0.999544  0.750000  1
  Pr  Pr4  1  0.500134  0.000328  0.250000  1
  Pr  Pr5  1  0.999978  0.000022  0.750000  1
  Pr  Pr6  1  0.000009  0.999991  0.250000  1
  Y  Y7  1  0.499875  0.500125  0.750000  1
  Si  Si8  1  0.833748  0.166252  0.000206  1
  Si  Si9  1  0.166219  0.833781  0.999591  1
  Si  Si10  1  0.332112  0.167124  0.998667  1
  Si  Si11  1  0.166219  0.833781  0.500409  1
  Si  Si12  1  0.667840  0.832792  0.997789  1
  Si  Si13  1  0.833748  0.166252  0.499794  1
  Si  Si14  1  0.832876  0.667888  0.998667  1
  Si  Si15  1  0.667840  0.832792  0.502211  1
  Si  Si16  1  0.167208  0.332160  0.997789  1
  Si  Si17  1  0.332112  0.167124  0.501333  1
  Si  Si18  1  0.167208  0.332160  0.502211  1
  Si  Si19  1  0.832876  0.667888  0.501333  1
  Pt  Pt20  1  0.665678  0.334322  0.994984  1
  Pt  Pt21  1  0.334255  0.665745  0.996713  1
  Pt  Pt22  1  0.334255  0.665745  0.503287  1
  Pt  Pt23  1  0.665678  0.334322  0.505016  1
