# generated using pymatgen
data_Th3Al7Si5Tc3Ru
_symmetry_space_group_name_H-M   'P 1'
_cell_length_a   8.87821119
_cell_length_b   8.88997838
_cell_length_c   9.46756500
_cell_angle_alpha   90.00000000
_cell_angle_beta   90.00000000
_cell_angle_gamma   120.04385369
_symmetry_Int_Tables_number   1
_chemical_formula_structural   Th3Al7Si5Tc3Ru
_chemical_formula_sum   'Th6 Al14 Si10 Tc6 Ru2'
_cell_volume   646.84916189
_cell_formula_units_Z   2
loop_
 _symmetry_equiv_pos_site_id
 _symmetry_equiv_pos_as_xyz
  1  'x, y, z'
loop_
 _atom_site_type_symbol
 _atom_site_label
 _atom_site_symmetry_multiplicity
 _atom_site_fract_x
 _atom_site_fract_y
 _atom_site_fract_z
 _atom_site_occupancy
  Th  Th0  1  0.808177  0.616661  0.750000  1
  Th  Th1  1  0.191823  0.808484  0.250000  1
  Th  Th2  1  0.617359  0.808303  0.250000  1
  Th  Th3  1  0.382641  0.190945  0.750000  1
  Th  Th4  1  0.806341  0.192005  0.750000  1
  Th  Th5  1  0.193659  0.385665  0.250000  1
  Al  Al6  1  0.165164  0.331626  0.580636  1
  Al  Al7  1  0.668321  0.835501  0.580315  1
  Al  Al8  1  0.166728  0.834730  0.579173  1
  Al  Al9  1  0.834836  0.166461  0.080636  1
  Al  Al10  1  0.834836  0.166461  0.419364  1
  Al  Al11  1  0.833272  0.668001  0.079173  1
  Al  Al12  1  0.331679  0.167178  0.080315  1
  Al  Al13  1  0.668321  0.835501  0.919685  1
  Al  Al14  1  0.165164  0.331626  0.919364  1
  Al  Al15  1  0.833272  0.668001  0.420827  1
  Al  Al16  1  0.567558  0.433254  0.250000  1
  Al  Al17  1  0.432442  0.865696  0.750000  1
  Al  Al18  1  0.166728  0.834730  0.920827  1
  Al  Al19  1  0.331679  0.167178  0.419685  1
  Si  Si20  1  0.334849  0.668736  0.466954  1
  Si  Si21  1  0.665151  0.333886  0.966954  1
  Si  Si22  1  0.665151  0.333886  0.533046  1
  Si  Si23  1  0.334849  0.668736  0.033046  1
  Si  Si24  1  0.001590  0.003336  0.250000  1
  Si  Si25  1  0.998410  0.001746  0.750000  1
  Si  Si26  1  0.565573  0.125576  0.250000  1
  Si  Si27  1  0.434427  0.560003  0.750000  1
  Si  Si28  1  0.123874  0.559327  0.750000  1
  Si  Si29  1  0.876126  0.435453  0.250000  1
  Tc  Tc30  1  0.500713  0.001026  0.494900  1
  Tc  Tc31  1  0.499287  0.500314  0.994900  1
  Tc  Tc32  1  0.000000  0.499633  0.000000  1
  Tc  Tc33  1  0.000000  0.499633  0.500000  1
  Tc  Tc34  1  0.499287  0.500314  0.505100  1
  Tc  Tc35  1  0.500713  0.001026  0.005100  1
  Ru  Ru36  1  0.000000  0.999682  0.500000  1
  Ru  Ru37  1  0.000000  0.999682  0.000000  1
