# generated using pymatgen
data_Dy6As(P3Rh5)4
_symmetry_space_group_name_H-M   'P 1'
_cell_length_a   13.38187900
_cell_length_b   13.38187861
_cell_length_c   3.91808500
_cell_angle_alpha   90.00000000
_cell_angle_beta   90.00000000
_cell_angle_gamma   119.99999850
_symmetry_Int_Tables_number   1
_chemical_formula_structural   Dy6As(P3Rh5)4
_chemical_formula_sum   'Dy6 As1 P12 Rh20'
_cell_volume   607.62925637
_cell_formula_units_Z   1
loop_
 _symmetry_equiv_pos_site_id
 _symmetry_equiv_pos_as_xyz
  1  'x, y, z'
loop_
 _atom_site_type_symbol
 _atom_site_label
 _atom_site_symmetry_multiplicity
 _atom_site_fract_x
 _atom_site_fract_y
 _atom_site_fract_z
 _atom_site_occupancy
  Dy  Dy0  1  0.529509  0.716926  0.248564  1
  Dy  Dy1  1  0.283074  0.812583  0.248564  1
  Dy  Dy2  1  0.187417  0.470491  0.248564  1
  Dy  Dy3  1  0.470491  0.283074  0.751436  1
  Dy  Dy4  1  0.716926  0.187417  0.751436  1
  Dy  Dy5  1  0.812583  0.529509  0.751436  1
  As  As6  1  0.000000  0.000000  0.000000  1
  P  P7  1  0.526874  0.139478  0.250381  1
  P  P8  1  0.860522  0.387396  0.250381  1
  P  P9  1  0.612604  0.473126  0.250381  1
  P  P10  1  0.945563  0.714389  0.253100  1
  P  P11  1  0.285611  0.231173  0.253100  1
  P  P12  1  0.768827  0.054437  0.253100  1
  P  P13  1  0.387396  0.526874  0.749619  1
  P  P14  1  0.473126  0.860522  0.749619  1
  P  P15  1  0.139478  0.612604  0.749619  1
  P  P16  1  0.714389  0.768827  0.746900  1
  P  P17  1  0.231173  0.945563  0.746900  1
  P  P18  1  0.054437  0.285611  0.746900  1
  Rh  Rh19  1  0.333333  0.666667  0.752458  1
  Rh  Rh20  1  0.919852  0.251326  0.250903  1
  Rh  Rh21  1  0.748674  0.668526  0.250903  1
  Rh  Rh22  1  0.331474  0.080148  0.250903  1
  Rh  Rh23  1  0.439629  0.023273  0.750551  1
  Rh  Rh24  1  0.976727  0.416357  0.750551  1
  Rh  Rh25  1  0.583643  0.560371  0.750551  1
  Rh  Rh26  1  0.666667  0.333333  0.247542  1
  Rh  Rh27  1  0.096722  0.194866  0.255095  1
  Rh  Rh28  1  0.805134  0.901856  0.255095  1
  Rh  Rh29  1  0.098144  0.903278  0.255095  1
  Rh  Rh30  1  0.023273  0.583643  0.249449  1
  Rh  Rh31  1  0.416357  0.439629  0.249449  1
  Rh  Rh32  1  0.560371  0.976727  0.249449  1
  Rh  Rh33  1  0.668526  0.919852  0.749097  1
  Rh  Rh34  1  0.080148  0.748674  0.749097  1
  Rh  Rh35  1  0.251326  0.331474  0.749097  1
  Rh  Rh36  1  0.903278  0.805134  0.744905  1
  Rh  Rh37  1  0.194866  0.098144  0.744905  1
  Rh  Rh38  1  0.901856  0.096722  0.744905  1
