# generated using pymatgen
data_Yb4LuRh2
_symmetry_space_group_name_H-M   'P 1'
_cell_length_a   6.44287679
_cell_length_b   7.21910616
_cell_length_c   8.58048046
_cell_angle_alpha   96.85848186
_cell_angle_beta   112.05140013
_cell_angle_gamma   90.00000587
_symmetry_Int_Tables_number   1
_chemical_formula_structural   Yb4LuRh2
_chemical_formula_sum   'Yb8 Lu2 Rh4'
_cell_volume   366.81586877
_cell_formula_units_Z   2
loop_
 _symmetry_equiv_pos_site_id
 _symmetry_equiv_pos_as_xyz
  1  'x, y, z'
loop_
 _atom_site_type_symbol
 _atom_site_label
 _atom_site_symmetry_multiplicity
 _atom_site_fract_x
 _atom_site_fract_y
 _atom_site_fract_z
 _atom_site_occupancy
  Yb  Yb0  1  0.524792  0.081010  0.825489  1
  Yb  Yb1  1  0.475208  0.918990  0.174511  1
  Yb  Yb2  1  0.699301  0.418990  0.174511  1
  Yb  Yb3  1  0.300699  0.581010  0.825489  1
  Yb  Yb4  1  0.294369  0.317090  0.432427  1
  Yb  Yb5  1  0.705631  0.682910  0.567573  1
  Yb  Yb6  1  0.861943  0.182910  0.567573  1
  Yb  Yb7  1  0.138057  0.817090  0.432427  1
  Lu  Lu8  1  0.063325  0.250000  0.000000  1
  Lu  Lu9  1  0.936675  0.750000  0.000000  1
  Rh  Rh10  1  0.309406  0.570616  0.210884  1
  Rh  Rh11  1  0.690594  0.429384  0.789116  1
  Rh  Rh12  1  0.098522  0.929384  0.789116  1
  Rh  Rh13  1  0.901478  0.070616  0.210884  1
