# generated using pymatgen
data_Ho12Co4SnPd
_symmetry_space_group_name_H-M   'P 1'
_cell_length_a   8.28164245
_cell_length_b   8.28164329
_cell_length_c   8.28164224
_cell_angle_alpha   111.38469389
_cell_angle_beta   110.00713338
_cell_angle_gamma   107.05172400
_symmetry_Int_Tables_number   1
_chemical_formula_structural   Ho12Co4SnPd
_chemical_formula_sum   'Ho12 Co4 Sn1 Pd1'
_cell_volume   436.59998537
_cell_formula_units_Z   1
loop_
 _symmetry_equiv_pos_site_id
 _symmetry_equiv_pos_as_xyz
  1  'x, y, z'
loop_
 _atom_site_type_symbol
 _atom_site_label
 _atom_site_symmetry_multiplicity
 _atom_site_fract_x
 _atom_site_fract_y
 _atom_site_fract_z
 _atom_site_occupancy
  Ho  Ho0  1  0.417445  0.220436  0.197009  1
  Ho  Ho1  1  0.582555  0.779564  0.802991  1
  Ho  Ho2  1  0.023427  0.220436  0.802991  1
  Ho  Ho3  1  0.976573  0.779564  0.197009  1
  Ho  Ho4  1  0.183883  0.288553  0.472435  1
  Ho  Ho5  1  0.816117  0.711447  0.527565  1
  Ho  Ho6  1  0.183883  0.711447  0.895331  1
  Ho  Ho7  1  0.816117  0.288553  0.104669  1
  Ho  Ho8  1  0.321911  0.632387  0.310477  1
  Ho  Ho9  1  0.678089  0.367613  0.689523  1
  Ho  Ho10  1  0.321911  0.011434  0.689523  1
  Ho  Ho11  1  0.678089  0.988566  0.310477  1
  Co  Co12  1  0.356530  0.000000  0.356530  1
  Co  Co13  1  0.643470  0.000000  0.643470  1
  Co  Co14  1  0.113654  0.613654  0.500000  1
  Co  Co15  1  0.886346  0.386346  0.500000  1
  Sn  Sn16  1  0.500000  0.500000  0.000000  1
  Pd  Pd17  1  0.000000  0.000000  0.000000  1
