# generated using pymatgen
data_Yb3U(B4Ru)4
_symmetry_space_group_name_H-M   'P 1'
_cell_length_a   3.54860600
_cell_length_b   5.93734300
_cell_length_c   11.47459801
_cell_angle_alpha   89.99620480
_cell_angle_beta   90.00000000
_cell_angle_gamma   90.00000000
_symmetry_Int_Tables_number   1
_chemical_formula_structural   Yb3U(B4Ru)4
_chemical_formula_sum   'Yb3 U1 B16 Ru4'
_cell_volume   241.76164403
_cell_formula_units_Z   1
loop_
 _symmetry_equiv_pos_site_id
 _symmetry_equiv_pos_as_xyz
  1  'x, y, z'
loop_
 _atom_site_type_symbol
 _atom_site_label
 _atom_site_symmetry_multiplicity
 _atom_site_fract_x
 _atom_site_fract_y
 _atom_site_fract_z
 _atom_site_occupancy
  Yb  Yb0  1  0.500000  0.369295  0.847872  1
  Yb  Yb1  1  0.500000  0.128155  0.353024  1
  Yb  Yb2  1  0.500000  0.871171  0.650310  1
  U  U3  1  0.500000  0.629007  0.150750  1
  B  B4  1  0.000000  0.973184  0.191685  1
  B  B5  1  0.000000  0.023652  0.808122  1
  B  B6  1  0.000000  0.478493  0.307665  1
  B  B7  1  0.000000  0.524089  0.691433  1
  B  B8  1  0.000000  0.787770  0.313495  1
  B  B9  1  0.000000  0.212589  0.684587  1
  B  B10  1  0.000000  0.291167  0.185289  1
  B  B11  1  0.000000  0.714908  0.813297  1
  B  B12  1  0.000000  0.863104  0.469040  1
  B  B13  1  0.000000  0.135629  0.530235  1
  B  B14  1  0.000000  0.365988  0.031921  1
  B  B15  1  0.000000  0.634926  0.969466  1
  B  B16  1  0.000000  0.887552  0.046792  1
  B  B17  1  0.000000  0.112648  0.951920  1
  B  B18  1  0.000000  0.386054  0.453239  1
  B  B19  1  0.000000  0.612241  0.546337  1
  Ru  Ru20  1  0.500000  0.636245  0.406779  1
  Ru  Ru21  1  0.500000  0.363235  0.588951  1
  Ru  Ru22  1  0.500000  0.141177  0.094638  1
  Ru  Ru23  1  0.500000  0.857721  0.913154  1
