# generated using pymatgen
data_Sr4MoIN4Cl
_symmetry_space_group_name_H-M   'P 1'
_cell_length_a   6.01449600
_cell_length_b   8.09631314
_cell_length_c   10.99205483
_cell_angle_alpha   78.94553259
_cell_angle_beta   90.00000000
_cell_angle_gamma   90.00000000
_symmetry_Int_Tables_number   1
_chemical_formula_structural   Sr4MoIN4Cl
_chemical_formula_sum   'Sr8 Mo2 I2 N8 Cl2'
_cell_volume   525.32920456
_cell_formula_units_Z   2
loop_
 _symmetry_equiv_pos_site_id
 _symmetry_equiv_pos_as_xyz
  1  'x, y, z'
loop_
 _atom_site_type_symbol
 _atom_site_label
 _atom_site_symmetry_multiplicity
 _atom_site_fract_x
 _atom_site_fract_y
 _atom_site_fract_z
 _atom_site_occupancy
  Sr  Sr0  1  0.750000  0.295445  0.307876  1
  Sr  Sr1  1  0.750000  0.997654  0.617836  1
  Sr  Sr2  1  0.750000  0.440901  0.610748  1
  Sr  Sr3  1  0.750000  0.837734  0.106751  1
  Sr  Sr4  1  0.250000  0.002346  0.382164  1
  Sr  Sr5  1  0.250000  0.559099  0.389252  1
  Sr  Sr6  1  0.250000  0.162266  0.893249  1
  Sr  Sr7  1  0.250000  0.704555  0.692124  1
  Mo  Mo8  1  0.750000  0.777588  0.398269  1
  Mo  Mo9  1  0.250000  0.222412  0.601731  1
  I  I10  1  0.250000  0.354716  0.143244  1
  I  I11  1  0.750000  0.645284  0.856756  1
  N  N12  1  0.250000  0.015278  0.710237  1
  N  N13  1  0.998184  0.245964  0.497554  1
  N  N14  1  0.498184  0.754036  0.502446  1
  N  N15  1  0.001816  0.754036  0.502446  1
  N  N16  1  0.750000  0.613984  0.299011  1
  N  N17  1  0.750000  0.984722  0.289763  1
  N  N18  1  0.501816  0.245964  0.497554  1
  N  N19  1  0.250000  0.386016  0.700989  1
  Cl  Cl20  1  0.250000  0.862774  0.114195  1
  Cl  Cl21  1  0.750000  0.137226  0.885805  1
