# generated using pymatgen
data_Pr9DyInSi4Ge
_symmetry_space_group_name_H-M   'P 1'
_cell_length_a   7.80170300
_cell_length_b   9.27656155
_cell_length_c   7.80170300
_cell_angle_alpha   114.86655253
_cell_angle_beta   90.00000000
_cell_angle_gamma   114.86655253
_symmetry_Int_Tables_number   1
_chemical_formula_structural   Pr9DyInSi4Ge
_chemical_formula_sum   'Pr9 Dy1 In1 Si4 Ge1'
_cell_volume   453.94098996
_cell_formula_units_Z   1
loop_
 _symmetry_equiv_pos_site_id
 _symmetry_equiv_pos_as_xyz
  1  'x, y, z'
loop_
 _atom_site_type_symbol
 _atom_site_label
 _atom_site_symmetry_multiplicity
 _atom_site_fract_x
 _atom_site_fract_y
 _atom_site_fract_z
 _atom_site_occupancy
  Pr  Pr0  1  0.525894  0.051789  0.525894  1
  Pr  Pr1  1  0.525227  0.721050  0.673431  1
  Pr  Pr2  1  0.195825  0.721050  0.047620  1
  Pr  Pr3  1  0.673431  0.721050  0.195825  1
  Pr  Pr4  1  0.047620  0.721050  0.525227  1
  Pr  Pr5  1  0.451353  0.278044  0.301748  1
  Pr  Pr6  1  0.826690  0.278044  0.976294  1
  Pr  Pr7  1  0.301748  0.278044  0.826690  1
  Pr  Pr8  1  0.976294  0.278044  0.451353  1
  Dy  Dy9  1  0.979627  0.959253  0.979627  1
  In  In10  1  0.752974  0.505948  0.752974  1
  Si  Si11  1  0.884314  0.997177  0.618386  1
  Si  Si12  1  0.112862  0.997177  0.378790  1
  Si  Si13  1  0.618386  0.997177  0.112862  1
  Si  Si14  1  0.378790  0.997177  0.884314  1
  Ge  Ge15  1  0.248965  0.497930  0.248965  1
