# generated using pymatgen
data_NaCr3F8
_symmetry_space_group_name_H-M   'P 1'
_cell_length_a   5.01613772
_cell_length_b   7.50443320
_cell_length_c   5.92075709
_cell_angle_alpha   75.21557259
_cell_angle_beta   93.76157926
_cell_angle_gamma   52.15129168
_symmetry_Int_Tables_number   1
_chemical_formula_structural   NaCr3F8
_chemical_formula_sum   'Na1 Cr3 F8'
_cell_volume   162.79990531
_cell_formula_units_Z   1
loop_
 _symmetry_equiv_pos_site_id
 _symmetry_equiv_pos_as_xyz
  1  'x, y, z'
loop_
 _atom_site_type_symbol
 _atom_site_label
 _atom_site_symmetry_multiplicity
 _atom_site_fract_x
 _atom_site_fract_y
 _atom_site_fract_z
 _atom_site_occupancy
  Na  Na0  1  0.212618  0.956868  0.997013  1
  Cr  Cr1  1  0.211977  0.457633  0.998244  1
  Cr  Cr2  1  0.713617  0.457445  0.497622  1
  Cr  Cr3  1  0.714761  0.956855  0.497038  1
  F  F4  1  0.865938  0.120498  0.610919  1
  F  F5  1  0.032597  0.338346  0.834386  1
  F  F6  1  0.741765  0.780427  0.875722  1
  F  F7  1  0.391708  0.576516  0.163017  1
  F  F8  1  0.169176  0.320782  0.310649  1
  F  F9  1  0.256927  0.593160  0.686112  1
  F  F10  1  0.562036  0.794036  0.383401  1
  F  F11  1  0.682134  0.135225  0.118885  1
