# generated using pymatgen
data_Sm5DyNb2Co14(P6Rh)2
_symmetry_space_group_name_H-M   'P 1'
_cell_length_a   3.73992600
_cell_length_b   10.69898242
_cell_length_c   12.42424900
_cell_angle_alpha   89.98387533
_cell_angle_beta   90.00000000
_cell_angle_gamma   90.00000000
_symmetry_Int_Tables_number   1
_chemical_formula_structural   Sm5DyNb2Co14(P6Rh)2
_chemical_formula_sum   'Sm5 Dy1 Nb2 Co14 P12 Rh2'
_cell_volume   497.13645681
_cell_formula_units_Z   1
loop_
 _symmetry_equiv_pos_site_id
 _symmetry_equiv_pos_as_xyz
  1  'x, y, z'
loop_
 _atom_site_type_symbol
 _atom_site_label
 _atom_site_symmetry_multiplicity
 _atom_site_fract_x
 _atom_site_fract_y
 _atom_site_fract_z
 _atom_site_occupancy
  Sm  Sm0  1  0.000000  0.500126  0.521945  1
  Sm  Sm1  1  0.500000  0.999808  0.477687  1
  Sm  Sm2  1  0.500000  0.182846  0.203679  1
  Sm  Sm3  1  0.000000  0.683326  0.796156  1
  Sm  Sm4  1  0.000000  0.316794  0.796596  1
  Dy  Dy5  1  0.500000  0.816644  0.203219  1
  Nb  Nb6  1  0.500000  0.500617  0.155396  1
  Nb  Nb7  1  0.000000  0.999809  0.844928  1
  Co  Co8  1  0.000000  0.500878  0.987989  1
  Co  Co9  1  0.500000  0.999064  0.013395  1
  Co  Co10  1  0.500000  0.331726  0.993118  1
  Co  Co11  1  0.500000  0.669132  0.993619  1
  Co  Co12  1  0.000000  0.167700  0.007792  1
  Co  Co13  1  0.000000  0.831201  0.008300  1
  Co  Co14  1  0.500000  0.295346  0.431548  1
  Co  Co15  1  0.500000  0.704746  0.430354  1
  Co  Co16  1  0.000000  0.204286  0.568289  1
  Co  Co17  1  0.000000  0.795622  0.567417  1
  Co  Co18  1  0.500000  0.879908  0.705075  1
  Co  Co19  1  0.500000  0.120093  0.705488  1
  Co  Co20  1  0.000000  0.621577  0.293198  1
  Co  Co21  1  0.000000  0.380157  0.294655  1
  P  P22  1  0.500000  0.500453  0.890907  1
  P  P23  1  0.000000  0.998637  0.110469  1
  P  P24  1  0.500000  0.499824  0.351699  1
  P  P25  1  0.000000  0.000012  0.648229  1
  P  P26  1  0.500000  0.301555  0.612037  1
  P  P27  1  0.500000  0.698694  0.611340  1
  P  P28  1  0.000000  0.198019  0.387787  1
  P  P29  1  0.000000  0.801562  0.386125  1
  P  P30  1  0.500000  0.843013  0.895556  1
  P  P31  1  0.500000  0.156710  0.896191  1
  P  P32  1  0.000000  0.658466  0.106160  1
  P  P33  1  0.000000  0.343142  0.104489  1
  Rh  Rh34  1  0.500000  0.500222  0.701576  1
  Rh  Rh35  1  0.000000  0.998284  0.297595  1
