# generated using pymatgen
data_Rb(AcB8)3
_symmetry_space_group_name_H-M   'P 1'
_cell_length_a   7.29293808
_cell_length_b   7.29293896
_cell_length_c   5.98450300
_cell_angle_alpha   90.00000000
_cell_angle_beta   90.00000000
_cell_angle_gamma   109.29830867
_symmetry_Int_Tables_number   1
_chemical_formula_structural   Rb(AcB8)3
_chemical_formula_sum   'Rb1 Ac3 B24'
_cell_volume   300.41256565
_cell_formula_units_Z   1
loop_
 _symmetry_equiv_pos_site_id
 _symmetry_equiv_pos_as_xyz
  1  'x, y, z'
loop_
 _atom_site_type_symbol
 _atom_site_label
 _atom_site_symmetry_multiplicity
 _atom_site_fract_x
 _atom_site_fract_y
 _atom_site_fract_z
 _atom_site_occupancy
  Rb  Rb0  1  0.000000  0.000000  0.000000  1
  Ac  Ac1  1  0.752027  0.247973  0.500000  1
  Ac  Ac2  1  0.500000  0.500000  0.000000  1
  Ac  Ac3  1  0.247973  0.752027  0.500000  1
  B  B4  1  0.176416  0.325161  0.649006  1
  B  B5  1  0.924786  0.574513  0.147894  1
  B  B6  1  0.674839  0.823584  0.649006  1
  B  B7  1  0.425487  0.075214  0.147894  1
  B  B8  1  0.176416  0.325161  0.350994  1
  B  B9  1  0.924786  0.574513  0.852106  1
  B  B10  1  0.674839  0.823584  0.350994  1
  B  B11  1  0.425487  0.075214  0.852106  1
  B  B12  1  0.399530  0.399530  0.500000  1
  B  B13  1  0.147876  0.649863  0.000000  1
  B  B14  1  0.898133  0.898133  0.500000  1
  B  B15  1  0.649863  0.147876  0.000000  1
  B  B16  1  0.325161  0.176416  0.649006  1
  B  B17  1  0.075214  0.425487  0.147894  1
  B  B18  1  0.823584  0.674839  0.649006  1
  B  B19  1  0.574513  0.924786  0.147894  1
  B  B20  1  0.101867  0.101867  0.500000  1
  B  B21  1  0.852124  0.350137  0.000000  1
  B  B22  1  0.600470  0.600470  0.500000  1
  B  B23  1  0.350137  0.852124  0.000000  1
  B  B24  1  0.325161  0.176416  0.350994  1
  B  B25  1  0.075214  0.425487  0.852106  1
  B  B26  1  0.823584  0.674839  0.350994  1
  B  B27  1  0.574513  0.924786  0.852106  1
