# generated using pymatgen
data_Ta2Nb2GaCo4P3
_symmetry_space_group_name_H-M   'P 1'
_cell_length_a   3.61718800
_cell_length_b   6.20208347
_cell_length_c   7.07242774
_cell_angle_alpha   90.18689802
_cell_angle_beta   90.00000000
_cell_angle_gamma   90.00000000
_symmetry_Int_Tables_number   1
_chemical_formula_structural   Ta2Nb2GaCo4P3
_chemical_formula_sum   'Ta2 Nb2 Ga1 Co4 P3'
_cell_volume   158.66272054
_cell_formula_units_Z   1
loop_
 _symmetry_equiv_pos_site_id
 _symmetry_equiv_pos_as_xyz
  1  'x, y, z'
loop_
 _atom_site_type_symbol
 _atom_site_label
 _atom_site_symmetry_multiplicity
 _atom_site_fract_x
 _atom_site_fract_y
 _atom_site_fract_z
 _atom_site_occupancy
  Ta  Ta0  1  0.250000  0.025167  0.826495  1
  Ta  Ta1  1  0.250000  0.522095  0.677255  1
  Nb  Nb2  1  0.750000  0.980854  0.168203  1
  Nb  Nb3  1  0.750000  0.465915  0.324059  1
  Ga  Ga4  1  0.250000  0.774341  0.374791  1
  Co  Co5  1  0.250000  0.153146  0.445632  1
  Co  Co6  1  0.250000  0.635968  0.045405  1
  Co  Co7  1  0.750000  0.861683  0.582525  1
  Co  Co8  1  0.750000  0.355574  0.931904  1
  P  P9  1  0.250000  0.276647  0.122056  1
  P  P10  1  0.750000  0.222678  0.620108  1
  P  P11  1  0.750000  0.725932  0.881566  1
