# generated using pymatgen
data_Zr6V7ReOs4
_symmetry_space_group_name_H-M   'P 1'
_cell_length_a   5.21236739
_cell_length_b   5.27622141
_cell_length_c   12.75387378
_cell_angle_alpha   89.68022857
_cell_angle_beta   90.01804716
_cell_angle_gamma   120.44514861
_symmetry_Int_Tables_number   1
_chemical_formula_structural   Zr6V7ReOs4
_chemical_formula_sum   'Zr6 V7 Re1 Os4'
_cell_volume   302.38243655
_cell_formula_units_Z   1
loop_
 _symmetry_equiv_pos_site_id
 _symmetry_equiv_pos_as_xyz
  1  'x, y, z'
loop_
 _atom_site_type_symbol
 _atom_site_label
 _atom_site_symmetry_multiplicity
 _atom_site_fract_x
 _atom_site_fract_y
 _atom_site_fract_z
 _atom_site_occupancy
  Zr  Zr0  1  0.333174  0.665580  0.917221  1
  Zr  Zr1  1  0.003821  0.001054  0.248414  1
  Zr  Zr2  1  0.667471  0.332053  0.583696  1
  Zr  Zr3  1  0.332529  0.667947  0.666304  1
  Zr  Zr4  1  0.996179  0.998946  0.001585  1
  Zr  Zr5  1  0.666826  0.334420  0.332779  1
  V  V6  1  0.168872  0.332714  0.457216  1
  V  V7  1  0.831128  0.667286  0.792784  1
  V  V8  1  0.334446  0.665178  0.291239  1
  V  V9  1  0.665554  0.334822  0.958761  1
  V  V10  1  0.000000  0.500000  0.125000  1
  V  V11  1  0.668233  0.832000  0.457577  1
  V  V12  1  0.331767  0.168000  0.792423  1
  Re  Re13  1  0.000000  0.000000  0.625000  1
  Os  Os14  1  0.500000  0.500000  0.125000  1
  Os  Os15  1  0.170241  0.830369  0.455056  1
  Os  Os16  1  0.829759  0.169631  0.794944  1
  Os  Os17  1  0.500000  0.000000  0.125000  1
