# generated using pymatgen
data_Hf12Ta4Mn7FeN4
_symmetry_space_group_name_H-M   'P 1'
_cell_length_a   8.44608606
_cell_length_b   8.44608584
_cell_length_c   8.44608624
_cell_angle_alpha   60.06812391
_cell_angle_beta   60.06812084
_cell_angle_gamma   60.06812234
_symmetry_Int_Tables_number   1
_chemical_formula_structural   Hf12Ta4Mn7FeN4
_chemical_formula_sum   'Hf12 Ta4 Mn7 Fe1 N4'
_cell_volume   426.69884870
_cell_formula_units_Z   1
loop_
 _symmetry_equiv_pos_site_id
 _symmetry_equiv_pos_as_xyz
  1  'x, y, z'
loop_
 _atom_site_type_symbol
 _atom_site_label
 _atom_site_symmetry_multiplicity
 _atom_site_fract_x
 _atom_site_fract_y
 _atom_site_fract_z
 _atom_site_occupancy
  Hf  Hf0  1  0.812207  0.812207  0.188939  1
  Hf  Hf1  1  0.187731  0.187731  0.812209  1
  Hf  Hf2  1  0.812207  0.188939  0.812207  1
  Hf  Hf3  1  0.187731  0.812209  0.187731  1
  Hf  Hf4  1  0.188939  0.812207  0.812207  1
  Hf  Hf5  1  0.812209  0.187731  0.187731  1
  Hf  Hf6  1  0.437689  0.437689  0.062416  1
  Hf  Hf7  1  0.062610  0.062610  0.437015  1
  Hf  Hf8  1  0.437689  0.062416  0.437689  1
  Hf  Hf9  1  0.062610  0.437015  0.062610  1
  Hf  Hf10  1  0.062416  0.437689  0.437689  1
  Hf  Hf11  1  0.437015  0.062610  0.062610  1
  Ta  Ta12  1  0.124190  0.625704  0.625704  1
  Ta  Ta13  1  0.625704  0.124190  0.625704  1
  Ta  Ta14  1  0.625704  0.625704  0.124190  1
  Ta  Ta15  1  0.624463  0.624463  0.624463  1
  Mn  Mn16  1  0.742510  0.418617  0.418617  1
  Mn  Mn17  1  0.418617  0.742510  0.418617  1
  Mn  Mn18  1  0.418617  0.418617  0.742510  1
  Mn  Mn19  1  0.419056  0.419056  0.419056  1
  Mn  Mn20  1  0.508027  0.830729  0.830729  1
  Mn  Mn21  1  0.830729  0.508027  0.830729  1
  Mn  Mn22  1  0.830729  0.830729  0.508027  1
  Fe  Fe23  1  0.831307  0.831307  0.831307  1
  N  N24  1  0.625121  0.124536  0.124536  1
  N  N25  1  0.124536  0.625121  0.124536  1
  N  N26  1  0.124536  0.124536  0.625121  1
  N  N27  1  0.125099  0.125099  0.125099  1
