# generated using pymatgen
data_Tb2Ho10Tc3Ni
_symmetry_space_group_name_H-M   'P 1'
_cell_length_a   6.27539221
_cell_length_b   7.30678963
_cell_length_c   9.15360400
_cell_angle_alpha   90.00000000
_cell_angle_beta   90.00000000
_cell_angle_gamma   90.11917304
_symmetry_Int_Tables_number   1
_chemical_formula_structural   Tb2Ho10Tc3Ni
_chemical_formula_sum   'Tb2 Ho10 Tc3 Ni1'
_cell_volume   419.71902783
_cell_formula_units_Z   1
loop_
 _symmetry_equiv_pos_site_id
 _symmetry_equiv_pos_as_xyz
  1  'x, y, z'
loop_
 _atom_site_type_symbol
 _atom_site_label
 _atom_site_symmetry_multiplicity
 _atom_site_fract_x
 _atom_site_fract_y
 _atom_site_fract_z
 _atom_site_occupancy
  Tb  Tb0  1  0.139435  0.457992  0.750000  1
  Tb  Tb1  1  0.373654  0.956811  0.750000  1
  Ho  Ho2  1  0.328189  0.677952  0.067719  1
  Ho  Ho3  1  0.164057  0.177056  0.436321  1
  Ho  Ho4  1  0.667185  0.322743  0.562119  1
  Ho  Ho5  1  0.833587  0.823354  0.938696  1
  Ho  Ho6  1  0.667185  0.322743  0.937881  1
  Ho  Ho7  1  0.833587  0.823354  0.561304  1
  Ho  Ho8  1  0.328189  0.677952  0.432281  1
  Ho  Ho9  1  0.164057  0.177056  0.063679  1
  Ho  Ho10  1  0.871377  0.541181  0.250000  1
  Ho  Ho11  1  0.624566  0.040252  0.250000  1
  Tc  Tc12  1  0.037369  0.886524  0.250000  1
  Tc  Tc13  1  0.460559  0.388977  0.250000  1
  Tc  Tc14  1  0.959173  0.112637  0.750000  1
  Ni  Ni15  1  0.547828  0.613414  0.750000  1
