# generated using pymatgen
data_Ca2MgIrO6
_symmetry_space_group_name_H-M   'P 1'
_cell_length_a   5.61487500
_cell_length_b   5.45232850
_cell_length_c   9.49329302
_cell_angle_alpha   54.96339139
_cell_angle_beta   90.00000000
_cell_angle_gamma   90.00000000
_symmetry_Int_Tables_number   1
_chemical_formula_structural   Ca2MgIrO6
_chemical_formula_sum   'Ca4 Mg2 Ir2 O12'
_cell_volume   237.96280510
_cell_formula_units_Z   2
loop_
 _symmetry_equiv_pos_site_id
 _symmetry_equiv_pos_as_xyz
  1  'x, y, z'
loop_
 _atom_site_type_symbol
 _atom_site_label
 _atom_site_symmetry_multiplicity
 _atom_site_fract_x
 _atom_site_fract_y
 _atom_site_fract_z
 _atom_site_occupancy
  Ca  Ca0  1  0.946897  0.764824  0.247767  1
  Ca  Ca1  1  0.446897  0.235176  0.252233  1
  Ca  Ca2  1  0.553103  0.764824  0.747767  1
  Ca  Ca3  1  0.053103  0.235176  0.752233  1
  Mg  Mg4  1  0.500000  0.000000  0.000000  1
  Mg  Mg5  1  0.000000  0.000000  0.500000  1
  Ir  Ir6  1  0.000000  0.500000  0.000000  1
  Ir  Ir7  1  0.500000  0.500000  0.500000  1
  O  O8  1  0.696270  0.834828  0.454580  1
  O  O9  1  0.196270  0.165172  0.045420  1
  O  O10  1  0.303730  0.165172  0.545420  1
  O  O11  1  0.803730  0.834828  0.954580  1
  O  O12  1  0.786160  0.256250  0.551438  1
  O  O13  1  0.286160  0.743750  0.948562  1
  O  O14  1  0.213840  0.743750  0.448562  1
  O  O15  1  0.713840  0.256250  0.051438  1
  O  O16  1  0.530237  0.649317  0.258052  1
  O  O17  1  0.030237  0.350683  0.241948  1
  O  O18  1  0.469763  0.350683  0.741948  1
  O  O19  1  0.969763  0.649317  0.758052  1
