# generated using pymatgen
data_Dy5Sn2PbO
_symmetry_space_group_name_H-M   'P 1'
_cell_length_a   8.97285337
_cell_length_b   8.97285262
_cell_length_c   8.96817500
_cell_angle_alpha   125.91920711
_cell_angle_beta   125.91920362
_cell_angle_gamma   80.05964732
_symmetry_Int_Tables_number   1
_chemical_formula_structural   Dy5Sn2PbO
_chemical_formula_sum   'Dy10 Sn4 Pb2 O2'
_cell_volume   457.07084694
_cell_formula_units_Z   2
loop_
 _symmetry_equiv_pos_site_id
 _symmetry_equiv_pos_as_xyz
  1  'x, y, z'
loop_
 _atom_site_type_symbol
 _atom_site_label
 _atom_site_symmetry_multiplicity
 _atom_site_fract_x
 _atom_site_fract_y
 _atom_site_fract_z
 _atom_site_occupancy
  Dy  Dy0  1  0.000274  0.198167  0.497966  1
  Dy  Dy1  1  0.799682  0.303654  0.803255  1
  Dy  Dy2  1  0.501626  0.001553  0.803253  1
  Dy  Dy3  1  0.498447  0.998374  0.196747  1
  Dy  Dy4  1  0.999603  0.799211  0.497964  1
  Dy  Dy5  1  0.500177  0.499695  0.997329  1
  Dy  Dy6  1  0.196346  0.700318  0.196745  1
  Dy  Dy7  1  0.700789  0.500397  0.502036  1
  Dy  Dy8  1  0.301833  0.499726  0.502034  1
  Dy  Dy9  1  0.000305  0.999823  0.002671  1
  Sn  Sn10  1  0.854377  0.354725  0.209145  1
  Sn  Sn11  1  0.145275  0.645623  0.790855  1
  Sn  Sn12  1  0.353943  0.146057  0.500000  1
  Sn  Sn13  1  0.750010  0.749990  0.000000  1
  Pb  Pb14  1  0.646850  0.853150  0.500000  1
  Pb  Pb15  1  0.249849  0.250151  0.000000  1
  O  O16  1  0.749968  0.249353  0.499969  1
  O  O17  1  0.250647  0.750032  0.500031  1
