# generated using pymatgen
data_Er12CdCo4Pd
_symmetry_space_group_name_H-M   'P 1'
_cell_length_a   8.23792654
_cell_length_b   8.23792672
_cell_length_c   8.23792619
_cell_angle_alpha   110.87256727
_cell_angle_beta   110.29830101
_cell_angle_gamma   107.26558945
_symmetry_Int_Tables_number   1
_chemical_formula_structural   Er12CdCo4Pd
_chemical_formula_sum   'Er12 Cd1 Co4 Pd1'
_cell_volume   429.87270103
_cell_formula_units_Z   1
loop_
 _symmetry_equiv_pos_site_id
 _symmetry_equiv_pos_as_xyz
  1  'x, y, z'
loop_
 _atom_site_type_symbol
 _atom_site_label
 _atom_site_symmetry_multiplicity
 _atom_site_fract_x
 _atom_site_fract_y
 _atom_site_fract_z
 _atom_site_occupancy
  Er  Er0  1  0.315874  0.619198  0.303323  1
  Er  Er1  1  0.684126  0.380803  0.696677  1
  Er  Er2  1  0.315874  0.012551  0.696677  1
  Er  Er3  1  0.684126  0.987449  0.303323  1
  Er  Er4  1  0.415821  0.215707  0.200114  1
  Er  Er5  1  0.584179  0.784293  0.799886  1
  Er  Er6  1  0.015593  0.215707  0.799886  1
  Er  Er7  1  0.984407  0.784293  0.200114  1
  Er  Er8  1  0.186510  0.292945  0.479455  1
  Er  Er9  1  0.813490  0.707055  0.520545  1
  Er  Er10  1  0.186510  0.707055  0.893565  1
  Er  Er11  1  0.813490  0.292945  0.106435  1
  Cd  Cd12  1  0.500000  0.500000  0.000000  1
  Co  Co13  1  0.113125  0.613125  0.500000  1
  Co  Co14  1  0.886876  0.386876  0.500000  1
  Co  Co15  1  0.379432  0.000000  0.379432  1
  Co  Co16  1  0.620568  0.000000  0.620568  1
  Pd  Pd17  1  0.000000  0.000000  0.000000  1
