# generated using pymatgen
data_Ag2PHS4
_symmetry_space_group_name_H-M   'P 1'
_cell_length_a   6.50548600
_cell_length_b   6.72502032
_cell_length_c   7.76880754
_cell_angle_alpha   87.59779944
_cell_angle_beta   90.00000000
_cell_angle_gamma   90.00000000
_symmetry_Int_Tables_number   1
_chemical_formula_structural   Ag2PHS4
_chemical_formula_sum   'Ag4 P2 H2 S8'
_cell_volume   339.58296270
_cell_formula_units_Z   2
loop_
 _symmetry_equiv_pos_site_id
 _symmetry_equiv_pos_as_xyz
  1  'x, y, z'
loop_
 _atom_site_type_symbol
 _atom_site_label
 _atom_site_symmetry_multiplicity
 _atom_site_fract_x
 _atom_site_fract_y
 _atom_site_fract_z
 _atom_site_occupancy
  Ag  Ag0  1  0.381703  0.206321  0.749570  1
  Ag  Ag1  1  0.881703  0.793679  0.750430  1
  Ag  Ag2  1  0.392656  0.616147  0.510695  1
  Ag  Ag3  1  0.892656  0.383853  0.989305  1
  P  P4  1  0.382344  0.668673  0.992801  1
  P  P5  1  0.882344  0.331327  0.507199  1
  H  H6  1  0.078398  0.736035  0.216215  1
  H  H7  1  0.578398  0.263965  0.283785  1
  S  S8  1  0.275277  0.820535  0.773475  1
  S  S9  1  0.775277  0.179465  0.726525  1
  S  S10  1  0.785829  0.618749  0.477045  1
  S  S11  1  0.285829  0.381251  0.022955  1
  S  S12  1  0.767311  0.177342  0.288506  1
  S  S13  1  0.267311  0.822658  0.211494  1
  S  S14  1  0.689385  0.710603  0.028715  1
  S  S15  1  0.189385  0.289397  0.471285  1
