# generated using pymatgen
data_V11Ga3SiRh
_symmetry_space_group_name_H-M   'P 1'
_cell_length_a   4.80819800
_cell_length_b   4.73727000
_cell_length_c   9.48459200
_cell_angle_alpha   90.00000000
_cell_angle_beta   90.00000000
_cell_angle_gamma   90.00000000
_symmetry_Int_Tables_number   1
_chemical_formula_structural   V11Ga3SiRh
_chemical_formula_sum   'V11 Ga3 Si1 Rh1'
_cell_volume   216.03749603
_cell_formula_units_Z   1
loop_
 _symmetry_equiv_pos_site_id
 _symmetry_equiv_pos_as_xyz
  1  'x, y, z'
loop_
 _atom_site_type_symbol
 _atom_site_label
 _atom_site_symmetry_multiplicity
 _atom_site_fract_x
 _atom_site_fract_y
 _atom_site_fract_z
 _atom_site_occupancy
  V  V0  1  0.497065  0.000000  0.374206  1
  V  V1  1  0.498641  0.000000  0.878235  1
  V  V2  1  0.755126  0.500000  0.500000  1
  V  V3  1  0.002329  0.754958  0.255013  1
  V  V4  1  0.002329  0.754958  0.744987  1
  V  V5  1  0.498641  0.000000  0.121765  1
  V  V6  1  0.497065  0.000000  0.625794  1
  V  V7  1  0.250646  0.500000  0.000000  1
  V  V8  1  0.238278  0.500000  0.500000  1
  V  V9  1  0.002329  0.245042  0.255013  1
  V  V10  1  0.002329  0.245042  0.744987  1
  Ga  Ga11  1  0.497417  0.500000  0.251683  1
  Ga  Ga12  1  0.497417  0.500000  0.748317  1
  Ga  Ga13  1  0.003956  0.000000  0.000000  1
  Si  Si14  1  0.001988  0.000000  0.500000  1
  Rh  Rh15  1  0.754444  0.500000  0.000000  1
