# generated using pymatgen
data_LaPr9(IrPt2)2
_symmetry_space_group_name_H-M   'P 1'
_cell_length_a   11.53465636
_cell_length_b   11.56484200
_cell_length_c   6.59262564
_cell_angle_alpha   90.00158379
_cell_angle_beta   89.87964451
_cell_angle_gamma   90.00044730
_symmetry_Int_Tables_number   1
_chemical_formula_structural   LaPr9(IrPt2)2
_chemical_formula_sum   'La2 Pr18 Ir4 Pt8'
_cell_volume   879.43110253
_cell_formula_units_Z   2
loop_
 _symmetry_equiv_pos_site_id
 _symmetry_equiv_pos_as_xyz
  1  'x, y, z'
loop_
 _atom_site_type_symbol
 _atom_site_label
 _atom_site_symmetry_multiplicity
 _atom_site_fract_x
 _atom_site_fract_y
 _atom_site_fract_z
 _atom_site_occupancy
  La  La0  1  0.296106  0.090123  0.375620  1
  La  La1  1  0.296109  0.909872  0.875620  1
  Pr  Pr2  1  0.704689  0.089603  0.874681  1
  Pr  Pr3  1  0.704692  0.910401  0.374678  1
  Pr  Pr4  1  0.590027  0.794880  0.874720  1
  Pr  Pr5  1  0.590019  0.205122  0.374727  1
  Pr  Pr6  1  0.411135  0.794033  0.374891  1
  Pr  Pr7  1  0.411132  0.205971  0.874902  1
  Pr  Pr8  1  0.204596  0.410804  0.625607  1
  Pr  Pr9  1  0.204591  0.589199  0.125612  1
  Pr  Pr10  1  0.795353  0.410385  0.125245  1
  Pr  Pr11  1  0.795355  0.589612  0.625236  1
  Pr  Pr12  1  0.910426  0.704580  0.124803  1
  Pr  Pr13  1  0.910427  0.295424  0.624786  1
  Pr  Pr14  1  0.088979  0.704495  0.625120  1
  Pr  Pr15  1  0.088980  0.295504  0.125120  1
  Pr  Pr16  1  0.999289  0.999948  0.499796  1
  Pr  Pr17  1  0.999294  0.000058  0.999772  1
  Pr  Pr18  1  0.500141  0.499971  0.000231  1
  Pr  Pr19  1  0.500133  0.500026  0.500221  1
  Ir  Ir20  1  0.499092  0.000198  0.114752  1
  Ir  Ir21  1  0.499090  0.999796  0.614756  1
  Ir  Ir22  1  0.000048  0.499886  0.885348  1
  Ir  Ir23  1  0.000048  0.500112  0.385329  1
  Pt  Pt24  1  0.846107  0.153648  0.250046  1
  Pt  Pt25  1  0.846113  0.846350  0.750050  1
  Pt  Pt26  1  0.153851  0.154058  0.749296  1
  Pt  Pt27  1  0.153855  0.845944  0.249296  1
  Pt  Pt28  1  0.653701  0.346279  0.749868  1
  Pt  Pt29  1  0.653700  0.653724  0.249868  1
  Pt  Pt30  1  0.346458  0.346285  0.250004  1
  Pt  Pt31  1  0.346464  0.653709  0.749998  1
