# generated using pymatgen
data_Zr12Tc6Ir5Os
_symmetry_space_group_name_H-M   'P 1'
_cell_length_a   4.66154100
_cell_length_b   6.56955400
_cell_length_c   14.02896100
_cell_angle_alpha   90.00000000
_cell_angle_beta   89.99990183
_cell_angle_gamma   90.00000000
_symmetry_Int_Tables_number   1
_chemical_formula_structural   Zr12Tc6Ir5Os
_chemical_formula_sum   'Zr12 Tc6 Ir5 Os1'
_cell_volume   429.62634329
_cell_formula_units_Z   1
loop_
 _symmetry_equiv_pos_site_id
 _symmetry_equiv_pos_as_xyz
  1  'x, y, z'
loop_
 _atom_site_type_symbol
 _atom_site_label
 _atom_site_symmetry_multiplicity
 _atom_site_fract_x
 _atom_site_fract_y
 _atom_site_fract_z
 _atom_site_occupancy
  Zr  Zr0  1  0.500001  0.248939  0.998514  1
  Zr  Zr1  1  0.500001  0.751062  0.998514  1
  Zr  Zr2  1  0.999988  0.249714  0.166454  1
  Zr  Zr3  1  0.999988  0.750286  0.166454  1
  Zr  Zr4  1  0.499989  0.250197  0.333332  1
  Zr  Zr5  1  0.499989  0.749804  0.333332  1
  Zr  Zr6  1  0.000000  0.249713  0.500212  1
  Zr  Zr7  1  0.000000  0.750287  0.500212  1
  Zr  Zr8  1  0.500011  0.248943  0.668154  1
  Zr  Zr9  1  0.500011  0.751058  0.668154  1
  Zr  Zr10  1  0.000012  0.247335  0.833335  1
  Zr  Zr11  1  0.000012  0.752665  0.833335  1
  Tc  Tc12  1  0.000000  0.000000  0.000780  1
  Tc  Tc13  1  0.499982  0.499999  0.167232  1
  Tc  Tc14  1  0.999989  0.000000  0.333350  1
  Tc  Tc15  1  0.500001  0.499999  0.499413  1
  Tc  Tc16  1  0.000010  0.000000  0.665867  1
  Tc  Tc17  1  0.500016  0.499999  0.833351  1
  Ir  Ir18  1  0.000000  0.499999  0.000364  1
  Ir  Ir19  1  0.499984  0.000000  0.166979  1
  Ir  Ir20  1  0.999986  0.499999  0.333330  1
  Ir  Ir21  1  0.500001  0.000000  0.499694  1
  Ir  Ir22  1  0.000012  0.499999  0.666308  1
  Os  Os23  1  0.500015  0.000000  0.833329  1
