# generated using pymatgen
data_Ho12Ga2Ni3Ru
_symmetry_space_group_name_H-M   'P 1'
_cell_length_a   8.29795426
_cell_length_b   8.29795443
_cell_length_c   8.29795481
_cell_angle_alpha   113.12666242
_cell_angle_beta   109.59982672
_cell_angle_gamma   105.77057565
_symmetry_Int_Tables_number   1
_chemical_formula_structural   Ho12Ga2Ni3Ru
_chemical_formula_sum   'Ho12 Ga2 Ni3 Ru1'
_cell_volume   438.02635981
_cell_formula_units_Z   1
loop_
 _symmetry_equiv_pos_site_id
 _symmetry_equiv_pos_as_xyz
  1  'x, y, z'
loop_
 _atom_site_type_symbol
 _atom_site_label
 _atom_site_symmetry_multiplicity
 _atom_site_fract_x
 _atom_site_fract_y
 _atom_site_fract_z
 _atom_site_occupancy
  Ho  Ho0  1  0.438361  0.244684  0.193677  1
  Ho  Ho1  1  0.571656  0.766198  0.805458  1
  Ho  Ho2  1  0.039260  0.233802  0.805458  1
  Ho  Ho3  1  0.948993  0.755316  0.193677  1
  Ho  Ho4  1  0.183374  0.280238  0.463611  1
  Ho  Ho5  1  0.824161  0.719675  0.543837  1
  Ho  Ho6  1  0.183374  0.719762  0.903136  1
  Ho  Ho7  1  0.824161  0.280325  0.104486  1
  Ho  Ho8  1  0.325983  0.636437  0.307588  1
  Ho  Ho9  1  0.671150  0.363563  0.689545  1
  Ho  Ho10  1  0.325983  0.018395  0.689545  1
  Ho  Ho11  1  0.671150  0.981605  0.307588  1
  Ga  Ga12  1  0.498180  0.500000  0.998180  1
  Ga  Ga13  1  0.009986  0.000000  0.009986  1
  Ni  Ni14  1  0.652586  0.000000  0.652586  1
  Ni  Ni15  1  0.119606  0.619451  0.500155  1
  Ni  Ni16  1  0.880704  0.380549  0.500155  1
  Ru  Ru17  1  0.331332  0.000000  0.331332  1
