# generated using pymatgen
data_Y5Tc3(P3Ir4)4
_symmetry_space_group_name_H-M   'P 1'
_cell_length_a   12.66852500
_cell_length_b   12.66852520
_cell_length_c   3.98786300
_cell_angle_alpha   90.00000000
_cell_angle_beta   90.00000000
_cell_angle_gamma   119.99999686
_symmetry_Int_Tables_number   1
_chemical_formula_structural   Y5Tc3(P3Ir4)4
_chemical_formula_sum   'Y5 Tc3 P12 Ir16'
_cell_volume   554.27206120
_cell_formula_units_Z   1
loop_
 _symmetry_equiv_pos_site_id
 _symmetry_equiv_pos_as_xyz
  1  'x, y, z'
loop_
 _atom_site_type_symbol
 _atom_site_label
 _atom_site_symmetry_multiplicity
 _atom_site_fract_x
 _atom_site_fract_y
 _atom_site_fract_z
 _atom_site_occupancy
  Y  Y0  1  0.333333  0.666667  0.500000  1
  Y  Y1  1  0.666667  0.333333  0.500000  1
  Y  Y2  1  0.000000  0.816982  0.000000  1
  Y  Y3  1  0.183018  0.183018  0.000000  1
  Y  Y4  1  0.816982  0.000000  0.000000  1
  Tc  Tc5  1  0.000000  0.455047  0.500000  1
  Tc  Tc6  1  0.544953  0.544953  0.500000  1
  Tc  Tc7  1  0.455047  0.000000  0.500000  1
  P  P8  1  0.000000  0.638511  0.500000  1
  P  P9  1  0.361489  0.361489  0.500000  1
  P  P10  1  0.638511  0.000000  0.500000  1
  P  P11  1  0.515770  0.685336  0.000000  1
  P  P12  1  0.314664  0.830434  0.000000  1
  P  P13  1  0.169566  0.484230  0.000000  1
  P  P14  1  0.484230  0.169566  0.000000  1
  P  P15  1  0.685336  0.515770  0.000000  1
  P  P16  1  0.830434  0.314664  0.000000  1
  P  P17  1  0.000000  0.176315  0.500000  1
  P  P18  1  0.823685  0.823685  0.500000  1
  P  P19  1  0.176315  0.000000  0.500000  1
  Ir  Ir20  1  0.509937  0.868447  0.000000  1
  Ir  Ir21  1  0.131553  0.641491  0.000000  1
  Ir  Ir22  1  0.358509  0.490063  0.000000  1
  Ir  Ir23  1  0.490063  0.358509  0.000000  1
  Ir  Ir24  1  0.868447  0.509937  0.000000  1
  Ir  Ir25  1  0.641491  0.131553  0.000000  1
  Ir  Ir26  1  0.000000  0.290885  0.000000  1
  Ir  Ir27  1  0.709115  0.709115  0.000000  1
  Ir  Ir28  1  0.290885  0.000000  0.000000  1
  Ir  Ir29  1  0.626535  0.805657  0.500000  1
  Ir  Ir30  1  0.194343  0.820877  0.500000  1
  Ir  Ir31  1  0.179123  0.373465  0.500000  1
  Ir  Ir32  1  0.373465  0.179123  0.500000  1
  Ir  Ir33  1  0.805657  0.626535  0.500000  1
  Ir  Ir34  1  0.820877  0.194343  0.500000  1
  Ir  Ir35  1  0.000000  0.000000  0.500000  1
