# generated using pymatgen
data_Nd4GeBi5Rh7
_symmetry_space_group_name_H-M   'P 1'
_cell_length_a   7.85278140
_cell_length_b   7.85268325
_cell_length_c   7.85268524
_cell_angle_alpha   106.93027754
_cell_angle_beta   110.75699744
_cell_angle_gamma   110.75699571
_symmetry_Int_Tables_number   1
_chemical_formula_structural   Nd4GeBi5Rh7
_chemical_formula_sum   'Nd4 Ge1 Bi5 Rh7'
_cell_volume   372.21532765
_cell_formula_units_Z   1
loop_
 _symmetry_equiv_pos_site_id
 _symmetry_equiv_pos_as_xyz
  1  'x, y, z'
loop_
 _atom_site_type_symbol
 _atom_site_label
 _atom_site_symmetry_multiplicity
 _atom_site_fract_x
 _atom_site_fract_y
 _atom_site_fract_z
 _atom_site_occupancy
  Nd  Nd0  1  0.999996  0.987448  0.529653  1
  Nd  Nd1  1  0.999996  0.529653  0.987448  1
  Nd  Nd2  1  0.457794  0.987451  0.987451  1
  Nd  Nd3  1  0.542216  0.529655  0.529655  1
  Ge  Ge4  1  0.999995  0.641234  0.641234  1
  Bi  Bi5  1  0.685005  0.701127  0.016122  1
  Bi  Bi6  1  0.314997  0.016123  0.331122  1
  Bi  Bi7  1  0.000004  0.309356  0.309356  1
  Bi  Bi8  1  0.314997  0.331122  0.016123  1
  Bi  Bi9  1  0.685005  0.016122  0.701127  1
  Rh  Rh10  1  0.754654  0.257101  0.502446  1
  Rh  Rh11  1  0.754654  0.502446  0.257101  1
  Rh  Rh12  1  0.499992  0.263363  0.763366  1
  Rh  Rh13  1  0.245351  0.502462  0.747806  1
  Rh  Rh14  1  0.245351  0.747806  0.502462  1
  Rh  Rh15  1  0.499992  0.763366  0.263363  1
  Rh  Rh16  1  0.000002  0.914166  0.914166  1
