# generated using pymatgen
data_Dy2ScV2Si7Pt9
_symmetry_space_group_name_H-M   'P 1'
_cell_length_a   9.92504207
_cell_length_b   9.94705407
_cell_length_c   3.93923000
_cell_angle_alpha   90.00000000
_cell_angle_beta   90.00000000
_cell_angle_gamma   120.03073456
_symmetry_Int_Tables_number   1
_chemical_formula_structural   Dy2ScV2Si7Pt9
_chemical_formula_sum   'Dy2 Sc1 V2 Si7 Pt9'
_cell_volume   336.69310301
_cell_formula_units_Z   1
loop_
 _symmetry_equiv_pos_site_id
 _symmetry_equiv_pos_as_xyz
  1  'x, y, z'
loop_
 _atom_site_type_symbol
 _atom_site_label
 _atom_site_symmetry_multiplicity
 _atom_site_fract_x
 _atom_site_fract_y
 _atom_site_fract_z
 _atom_site_occupancy
  Dy  Dy0  1  0.997652  0.996126  0.000000  1
  Dy  Dy1  1  0.332794  0.668321  0.500000  1
  Sc  Sc2  1  0.548421  0.434632  0.500000  1
  V  V3  1  0.882794  0.449134  0.500000  1
  V  V4  1  0.569894  0.117793  0.500000  1
  Si  Si5  1  0.245239  0.200978  0.500000  1
  Si  Si6  1  0.789527  0.047195  0.500000  1
  Si  Si7  1  0.954549  0.739718  0.500000  1
  Si  Si8  1  0.553973  0.642725  0.000000  1
  Si  Si9  1  0.366383  0.920642  0.000000  1
  Si  Si10  1  0.081703  0.448082  0.000000  1
  Si  Si11  1  0.671076  0.328143  0.000000  1
  Pt  Pt12  1  0.224415  0.942151  0.500000  1
  Pt  Pt13  1  0.056609  0.282396  0.500000  1
  Pt  Pt14  1  0.723000  0.779635  0.500000  1
  Pt  Pt15  1  0.306595  0.410638  0.000000  1
  Pt  Pt16  1  0.591970  0.900875  0.000000  1
  Pt  Pt17  1  0.101429  0.694598  0.000000  1
  Pt  Pt18  1  0.388900  0.175747  0.000000  1
  Pt  Pt19  1  0.827883  0.212820  0.000000  1
  Pt  Pt20  1  0.785195  0.607649  0.000000  1
