# generated using pymatgen
data_VPdRh3Se8
_symmetry_space_group_name_H-M   'P 1'
_cell_length_a   6.99661053
_cell_length_b   6.99661038
_cell_length_c   6.99661037
_cell_angle_alpha   64.91050093
_cell_angle_beta   64.91050346
_cell_angle_gamma   64.91050785
_symmetry_Int_Tables_number   1
_chemical_formula_structural   VPdRh3Se8
_chemical_formula_sum   'V1 Pd1 Rh3 Se8'
_cell_volume   268.17556988
_cell_formula_units_Z   1
loop_
 _symmetry_equiv_pos_site_id
 _symmetry_equiv_pos_as_xyz
  1  'x, y, z'
loop_
 _atom_site_type_symbol
 _atom_site_label
 _atom_site_symmetry_multiplicity
 _atom_site_fract_x
 _atom_site_fract_y
 _atom_site_fract_z
 _atom_site_occupancy
  V  V0  1  0.408636  0.408636  0.408636  1
  Pd  Pd1  1  0.983599  0.983599  0.983599  1
  Rh  Rh2  1  0.859958  0.373061  0.373061  1
  Rh  Rh3  1  0.373061  0.859958  0.373061  1
  Rh  Rh4  1  0.373061  0.373061  0.859958  1
  Se  Se5  1  0.130328  0.130328  0.130328  1
  Se  Se6  1  0.578998  0.148544  0.148544  1
  Se  Se7  1  0.148544  0.578998  0.148544  1
  Se  Se8  1  0.148544  0.148544  0.578998  1
  Se  Se9  1  0.617289  0.617289  0.617289  1
  Se  Se10  1  0.117964  0.630010  0.630010  1
  Se  Se11  1  0.630010  0.117964  0.630010  1
  Se  Se12  1  0.630010  0.630010  0.117964  1
