# generated using pymatgen
data_Sr3AgRuO6
_symmetry_space_group_name_H-M   'P 1'
_cell_length_a   6.87678185
_cell_length_b   6.87678175
_cell_length_c   6.87678214
_cell_angle_alpha   89.56453824
_cell_angle_beta   89.56454501
_cell_angle_gamma   89.56454172
_symmetry_Int_Tables_number   1
_chemical_formula_structural   Sr3AgRuO6
_chemical_formula_sum   'Sr6 Ag2 Ru2 O12'
_cell_volume   325.17587194
_cell_formula_units_Z   2
loop_
 _symmetry_equiv_pos_site_id
 _symmetry_equiv_pos_as_xyz
  1  'x, y, z'
loop_
 _atom_site_type_symbol
 _atom_site_label
 _atom_site_symmetry_multiplicity
 _atom_site_fract_x
 _atom_site_fract_y
 _atom_site_fract_z
 _atom_site_occupancy
  Sr  Sr0  1  0.750000  0.392666  0.107334  1
  Sr  Sr1  1  0.107334  0.750000  0.392666  1
  Sr  Sr2  1  0.392666  0.107334  0.750000  1
  Sr  Sr3  1  0.250000  0.607334  0.892666  1
  Sr  Sr4  1  0.892666  0.250000  0.607334  1
  Sr  Sr5  1  0.607334  0.892666  0.250000  1
  Ag  Ag6  1  0.250000  0.250000  0.250000  1
  Ag  Ag7  1  0.750000  0.750000  0.750000  1
  Ru  Ru8  1  0.000000  0.000000  0.000000  1
  Ru  Ru9  1  0.500000  0.500000  0.500000  1
  O  O10  1  0.438669  0.776576  0.571932  1
  O  O11  1  0.571932  0.438669  0.776576  1
  O  O12  1  0.776576  0.571932  0.438669  1
  O  O13  1  0.061331  0.928068  0.723424  1
  O  O14  1  0.723424  0.061331  0.928068  1
  O  O15  1  0.928068  0.723424  0.061331  1
  O  O16  1  0.561331  0.223424  0.428068  1
  O  O17  1  0.428068  0.561331  0.223424  1
  O  O18  1  0.223424  0.428068  0.561331  1
  O  O19  1  0.938669  0.071932  0.276576  1
  O  O20  1  0.071932  0.276576  0.938669  1
  O  O21  1  0.276576  0.938669  0.071932  1
