# generated using pymatgen
data_Er3In3HgPdPt
_symmetry_space_group_name_H-M   'P 1'
_cell_length_a   7.90803800
_cell_length_b   7.90803781
_cell_length_c   3.73062700
_cell_angle_alpha   90.00000000
_cell_angle_beta   90.00000000
_cell_angle_gamma   120.00000918
_symmetry_Int_Tables_number   1
_chemical_formula_structural   Er3In3HgPdPt
_chemical_formula_sum   'Er3 In3 Hg1 Pd1 Pt1'
_cell_volume   202.04583626
_cell_formula_units_Z   1
loop_
 _symmetry_equiv_pos_site_id
 _symmetry_equiv_pos_as_xyz
  1  'x, y, z'
loop_
 _atom_site_type_symbol
 _atom_site_label
 _atom_site_symmetry_multiplicity
 _atom_site_fract_x
 _atom_site_fract_y
 _atom_site_fract_z
 _atom_site_occupancy
  Er  Er0  1  0.390026  0.975958  0.500000  1
  Er  Er1  1  0.585932  0.609974  0.500000  1
  Er  Er2  1  0.024042  0.414068  0.500000  1
  In  In3  1  0.259537  0.258849  0.000000  1
  In  In4  1  0.741151  0.000689  0.000000  1
  In  In5  1  0.999311  0.740463  0.000000  1
  Hg  Hg6  1  0.666667  0.333333  0.000000  1
  Pd  Pd7  1  0.000000  0.000000  0.500000  1
  Pt  Pt8  1  0.333333  0.666667  0.000000  1
