# generated using pymatgen
data_Yb4SmTh3(B6Ru)4
_symmetry_space_group_name_H-M   'P 1'
_cell_length_a   3.75893200
_cell_length_b   9.16633200
_cell_length_c   11.54372150
_cell_angle_alpha   90.05105075
_cell_angle_beta   90.00000000
_cell_angle_gamma   90.00000000
_symmetry_Int_Tables_number   1
_chemical_formula_structural   Yb4SmTh3(B6Ru)4
_chemical_formula_sum   'Yb4 Sm1 Th3 B24 Ru4'
_cell_volume   397.74590835
_cell_formula_units_Z   1
loop_
 _symmetry_equiv_pos_site_id
 _symmetry_equiv_pos_as_xyz
  1  'x, y, z'
loop_
 _atom_site_type_symbol
 _atom_site_label
 _atom_site_symmetry_multiplicity
 _atom_site_fract_x
 _atom_site_fract_y
 _atom_site_fract_z
 _atom_site_occupancy
  Yb  Yb0  1  0.000000  0.944697  0.373247  1
  Yb  Yb1  1  0.000000  0.056429  0.628108  1
  Yb  Yb2  1  0.000000  0.442925  0.126161  1
  Yb  Yb3  1  0.000000  0.554723  0.873211  1
  Sm  Sm4  1  0.000000  0.178704  0.913191  1
  Th  Th5  1  0.000000  0.319768  0.413612  1
  Th  Th6  1  0.000000  0.679437  0.587595  1
  Th  Th7  1  0.000000  0.822243  0.085583  1
  B  B8  1  0.500000  0.556794  0.429767  1
  B  B9  1  0.500000  0.443288  0.570239  1
  B  B10  1  0.500000  0.057082  0.068974  1
  B  B11  1  0.500000  0.944560  0.929988  1
  B  B12  1  0.500000  0.751475  0.418157  1
  B  B13  1  0.500000  0.248560  0.582529  1
  B  B14  1  0.500000  0.250962  0.080669  1
  B  B15  1  0.500000  0.749487  0.918035  1
  B  B16  1  0.500000  0.789616  0.267388  1
  B  B17  1  0.500000  0.209673  0.733668  1
  B  B18  1  0.500000  0.289536  0.231649  1
  B  B19  1  0.500000  0.710365  0.767896  1
  B  B20  1  0.500000  0.629512  0.184389  1
  B  B21  1  0.500000  0.369612  0.816203  1
  B  B22  1  0.500000  0.129652  0.314982  1
  B  B23  1  0.500000  0.870958  0.685208  1
  B  B24  1  0.500000  0.986069  0.213505  1
  B  B25  1  0.500000  0.015818  0.786165  1
  B  B26  1  0.500000  0.485675  0.285315  1
  B  B27  1  0.500000  0.513764  0.714951  1
  B  B28  1  0.500000  0.602603  0.028320  1
  B  B29  1  0.500000  0.395437  0.971091  1
  B  B30  1  0.500000  0.103469  0.471765  1
  B  B31  1  0.500000  0.896637  0.528816  1
  Ru  Ru32  1  0.000000  0.639021  0.320138  1
  Ru  Ru33  1  0.000000  0.361920  0.678883  1
  Ru  Ru34  1  0.000000  0.139221  0.180453  1
  Ru  Ru35  1  0.000000  0.860306  0.820147  1
