# generated using pymatgen
data_Yb6Al24Ni3Os5
_symmetry_space_group_name_H-M   'P 1'
_cell_length_a   8.78096664
_cell_length_b   8.80711153
_cell_length_c   9.48149300
_cell_angle_alpha   90.00000000
_cell_angle_beta   89.58925446
_cell_angle_gamma   120.09853752
_symmetry_Int_Tables_number   1
_chemical_formula_structural   Yb6Al24Ni3Os5
_chemical_formula_sum   'Yb6 Al24 Ni3 Os5'
_cell_volume   634.36058844
_cell_formula_units_Z   1
loop_
 _symmetry_equiv_pos_site_id
 _symmetry_equiv_pos_as_xyz
  1  'x, y, z'
loop_
 _atom_site_type_symbol
 _atom_site_label
 _atom_site_symmetry_multiplicity
 _atom_site_fract_x
 _atom_site_fract_y
 _atom_site_fract_z
 _atom_site_occupancy
  Yb  Yb0  1  0.200072  0.390652  0.251713  1
  Yb  Yb1  1  0.799928  0.609348  0.748287  1
  Yb  Yb2  1  0.606454  0.803227  0.248936  1
  Yb  Yb3  1  0.393546  0.196773  0.751064  1
  Yb  Yb4  1  0.200072  0.809420  0.251713  1
  Yb  Yb5  1  0.799928  0.190580  0.748287  1
  Al  Al6  1  0.330794  0.665398  0.997650  1
  Al  Al7  1  0.669206  0.334602  0.002350  1
  Al  Al8  1  0.666536  0.333268  0.499354  1
  Al  Al9  1  0.333464  0.666732  0.500646  1
  Al  Al10  1  0.158387  0.318922  0.577785  1
  Al  Al11  1  0.841613  0.681078  0.422215  1
  Al  Al12  1  0.680374  0.840188  0.574887  1
  Al  Al13  1  0.839909  0.682103  0.077742  1
  Al  Al14  1  0.319626  0.159812  0.425113  1
  Al  Al15  1  0.160091  0.317897  0.922258  1
  Al  Al16  1  0.158387  0.839465  0.577785  1
  Al  Al17  1  0.320658  0.160328  0.076515  1
  Al  Al18  1  0.841613  0.160535  0.422215  1
  Al  Al19  1  0.679342  0.839672  0.923485  1
  Al  Al20  1  0.839909  0.157803  0.077742  1
  Al  Al21  1  0.160091  0.842197  0.922258  1
  Al  Al22  1  0.563970  0.122398  0.249244  1
  Al  Al23  1  0.436030  0.877602  0.750756  1
  Al  Al24  1  0.883620  0.441811  0.246223  1
  Al  Al25  1  0.116380  0.558189  0.753777  1
  Al  Al26  1  0.563970  0.441571  0.249244  1
  Al  Al27  1  0.436030  0.558429  0.750756  1
  Al  Al28  1  0.001442  0.000721  0.250731  1
  Al  Al29  1  0.998558  0.999279  0.749269  1
  Ni  Ni30  1  0.000000  0.500000  0.000000  1
  Ni  Ni31  1  0.000000  0.000000  0.000000  1
  Ni  Ni32  1  0.000000  0.000000  0.500000  1
  Os  Os33  1  0.500000  0.000000  0.000000  1
  Os  Os34  1  0.500000  0.000000  0.500000  1
  Os  Os35  1  0.500000  0.500000  0.000000  1
  Os  Os36  1  0.000000  0.500000  0.500000  1
  Os  Os37  1  0.500000  0.500000  0.500000  1
