# generated using pymatgen
data_Gd6Y2In3Ru
_symmetry_space_group_name_H-M   'P 1'
_cell_length_a   10.47262300
_cell_length_b   10.47260910
_cell_length_c   7.13373100
_cell_angle_alpha   90.00000000
_cell_angle_beta   90.00000000
_cell_angle_gamma   119.99998388
_symmetry_Int_Tables_number   1
_chemical_formula_structural   Gd6Y2In3Ru
_chemical_formula_sum   'Gd12 Y4 In6 Ru2'
_cell_volume   677.57565627
_cell_formula_units_Z   2
loop_
 _symmetry_equiv_pos_site_id
 _symmetry_equiv_pos_as_xyz
  1  'x, y, z'
loop_
 _atom_site_type_symbol
 _atom_site_label
 _atom_site_symmetry_multiplicity
 _atom_site_fract_x
 _atom_site_fract_y
 _atom_site_fract_z
 _atom_site_occupancy
  Gd  Gd0  1  0.466157  0.533843  0.481292  1
  Gd  Gd1  1  0.067686  0.533843  0.481292  1
  Gd  Gd2  1  0.466157  0.932314  0.481292  1
  Gd  Gd3  1  0.533843  0.466157  0.981292  1
  Gd  Gd4  1  0.932314  0.466157  0.981292  1
  Gd  Gd5  1  0.533843  0.067686  0.981292  1
  Gd  Gd6  1  0.823457  0.176543  0.275536  1
  Gd  Gd7  1  0.353087  0.176543  0.275536  1
  Gd  Gd8  1  0.823457  0.646913  0.275536  1
  Gd  Gd9  1  0.176543  0.823457  0.775536  1
  Gd  Gd10  1  0.646913  0.823457  0.775536  1
  Gd  Gd11  1  0.176543  0.353087  0.775536  1
  Y  Y12  1  0.333333  0.666667  0.101952  1
  Y  Y13  1  0.666667  0.333333  0.601952  1
  Y  Y14  1  0.000000  0.000000  0.496327  1
  Y  Y15  1  0.000000  0.000000  0.996327  1
  In  In16  1  0.163463  0.836537  0.233141  1
  In  In17  1  0.673074  0.836537  0.233141  1
  In  In18  1  0.163463  0.326925  0.233141  1
  In  In19  1  0.836537  0.163463  0.733141  1
  In  In20  1  0.326926  0.163463  0.733141  1
  In  In21  1  0.836537  0.673075  0.733141  1
  Ru  Ru22  1  0.333333  0.666667  0.704094  1
  Ru  Ru23  1  0.666667  0.333333  0.204094  1
