# generated using pymatgen
data_Er8Re2B24IrRu
_symmetry_space_group_name_H-M   'P 1'
_cell_length_a   3.64832400
_cell_length_b   9.11008213
_cell_length_c   11.49388084
_cell_angle_alpha   90.27271428
_cell_angle_beta   90.00000000
_cell_angle_gamma   90.00000000
_symmetry_Int_Tables_number   1
_chemical_formula_structural   Er8Re2B24IrRu
_chemical_formula_sum   'Er8 Re2 B24 Ir1 Ru1'
_cell_volume   382.01240252
_cell_formula_units_Z   1
loop_
 _symmetry_equiv_pos_site_id
 _symmetry_equiv_pos_as_xyz
  1  'x, y, z'
loop_
 _atom_site_type_symbol
 _atom_site_label
 _atom_site_symmetry_multiplicity
 _atom_site_fract_x
 _atom_site_fract_y
 _atom_site_fract_z
 _atom_site_occupancy
  Er  Er0  1  0.000000  0.317120  0.413941  1
  Er  Er1  1  0.000000  0.680392  0.590649  1
  Er  Er2  1  0.000000  0.826326  0.081441  1
  Er  Er3  1  0.000000  0.175860  0.915154  1
  Er  Er4  1  0.000000  0.945230  0.371742  1
  Er  Er5  1  0.000000  0.056437  0.628620  1
  Er  Er6  1  0.000000  0.441412  0.126366  1
  Er  Er7  1  0.000000  0.556440  0.872113  1
  Re  Re8  1  0.000000  0.137789  0.179777  1
  Re  Re9  1  0.000000  0.862007  0.820423  1
  B  B10  1  0.500000  0.554006  0.434516  1
  B  B11  1  0.500000  0.446170  0.566330  1
  B  B12  1  0.500000  0.052720  0.066805  1
  B  B13  1  0.500000  0.947234  0.932893  1
  B  B14  1  0.500000  0.749545  0.421231  1
  B  B15  1  0.500000  0.251376  0.580164  1
  B  B16  1  0.500000  0.248709  0.080755  1
  B  B17  1  0.500000  0.751321  0.919067  1
  B  B18  1  0.500000  0.791108  0.265858  1
  B  B19  1  0.500000  0.209505  0.733673  1
  B  B20  1  0.500000  0.292267  0.234928  1
  B  B21  1  0.500000  0.707680  0.765497  1
  B  B22  1  0.500000  0.631335  0.183640  1
  B  B23  1  0.500000  0.369190  0.814467  1
  B  B24  1  0.500000  0.131379  0.315449  1
  B  B25  1  0.500000  0.868598  0.684996  1
  B  B26  1  0.500000  0.982063  0.212666  1
  B  B27  1  0.500000  0.018154  0.787187  1
  B  B28  1  0.500000  0.482333  0.287460  1
  B  B29  1  0.500000  0.517270  0.712076  1
  B  B30  1  0.500000  0.605391  0.029472  1
  B  B31  1  0.500000  0.394909  0.970665  1
  B  B32  1  0.500000  0.105628  0.470979  1
  B  B33  1  0.500000  0.893532  0.529020  1
  Ir  Ir34  1  0.000000  0.636906  0.321867  1
  Ru  Ru35  1  0.000000  0.362659  0.678113  1
