# generated using pymatgen
data_Pr20Sn13Te3
_symmetry_space_group_name_H-M   'P 1'
_cell_length_a   8.42270191
_cell_length_b   8.51120096
_cell_length_c   16.14329106
_cell_angle_alpha   90.21876057
_cell_angle_beta   89.56716459
_cell_angle_gamma   89.88623761
_symmetry_Int_Tables_number   1
_chemical_formula_structural   Pr20Sn13Te3
_chemical_formula_sum   'Pr20 Sn13 Te3'
_cell_volume   1157.22528331
_cell_formula_units_Z   1
loop_
 _symmetry_equiv_pos_site_id
 _symmetry_equiv_pos_as_xyz
  1  'x, y, z'
loop_
 _atom_site_type_symbol
 _atom_site_label
 _atom_site_symmetry_multiplicity
 _atom_site_fract_x
 _atom_site_fract_y
 _atom_site_fract_z
 _atom_site_occupancy
  Pr  Pr0  1  0.381540  0.836158  0.881162  1
  Pr  Pr1  1  0.887536  0.662076  0.617777  1
  Pr  Pr2  1  0.613520  0.160562  0.380946  1
  Pr  Pr3  1  0.117670  0.338124  0.119192  1
  Pr  Pr4  1  0.622395  0.163785  0.119308  1
  Pr  Pr5  1  0.117936  0.335720  0.382487  1
  Pr  Pr6  1  0.382493  0.836695  0.617738  1
  Pr  Pr7  1  0.879408  0.663791  0.879593  1
  Pr  Pr8  1  0.537759  0.330744  0.894683  1
  Pr  Pr9  1  0.048252  0.173463  0.608030  1
  Pr  Pr10  1  0.451216  0.673606  0.392173  1
  Pr  Pr11  1  0.964908  0.818169  0.103482  1
  Pr  Pr12  1  0.469957  0.673564  0.103019  1
  Pr  Pr13  1  0.968649  0.823705  0.395499  1
  Pr  Pr14  1  0.531054  0.323656  0.603687  1
  Pr  Pr15  1  0.027138  0.183966  0.895867  1
  Pr  Pr16  1  0.208283  0.498250  0.751409  1
  Pr  Pr17  1  0.708926  0.002641  0.756468  1
  Pr  Pr18  1  0.790156  0.501360  0.245716  1
  Pr  Pr19  1  0.291176  0.995544  0.252695  1
  Sn  Sn20  1  0.221660  0.530027  0.957100  1
  Sn  Sn21  1  0.723642  0.971788  0.957093  1
  Sn  Sn22  1  0.223690  0.525176  0.545875  1
  Sn  Sn23  1  0.276999  0.026193  0.454797  1
  Sn  Sn24  1  0.781369  0.470498  0.043626  1
  Sn  Sn25  1  0.579153  0.621903  0.746757  1
  Sn  Sn26  1  0.080765  0.878697  0.748531  1
  Sn  Sn27  1  0.419708  0.376196  0.250445  1
  Sn  Sn28  1  0.921075  0.119327  0.250594  1
  Sn  Sn29  1  0.338056  0.138488  0.750576  1
  Sn  Sn30  1  0.835810  0.362520  0.746922  1
  Sn  Sn31  1  0.662941  0.860455  0.250802  1
  Sn  Sn32  1  0.161108  0.636710  0.249222  1
  Te  Te33  1  0.275023  0.025250  0.047003  1
  Te  Te34  1  0.767318  0.480246  0.451754  1
  Te  Te35  1  0.731710  0.980948  0.547969  1
