# generated using pymatgen
data_Er4Ga4Ni2IrRh
_symmetry_space_group_name_H-M   'P 1'
_cell_length_a   4.26243600
_cell_length_b   6.72696677
_cell_length_c   7.62518584
_cell_angle_alpha   89.94571411
_cell_angle_beta   90.00000000
_cell_angle_gamma   90.00000000
_symmetry_Int_Tables_number   1
_chemical_formula_structural   Er4Ga4Ni2IrRh
_chemical_formula_sum   'Er4 Ga4 Ni2 Ir1 Rh1'
_cell_volume   218.63887861
_cell_formula_units_Z   1
loop_
 _symmetry_equiv_pos_site_id
 _symmetry_equiv_pos_as_xyz
  1  'x, y, z'
loop_
 _atom_site_type_symbol
 _atom_site_label
 _atom_site_symmetry_multiplicity
 _atom_site_fract_x
 _atom_site_fract_y
 _atom_site_fract_z
 _atom_site_occupancy
  Er  Er0  1  0.250000  0.973605  0.313763  1
  Er  Er1  1  0.250000  0.476862  0.185849  1
  Er  Er2  1  0.750000  0.025635  0.686021  1
  Er  Er3  1  0.750000  0.525690  0.814259  1
  Ga  Ga4  1  0.250000  0.348178  0.574754  1
  Ga  Ga5  1  0.250000  0.848091  0.923866  1
  Ga  Ga6  1  0.750000  0.657994  0.442844  1
  Ga  Ga7  1  0.750000  0.159101  0.057123  1
  Ni  Ni8  1  0.250000  0.224421  0.883330  1
  Ni  Ni9  1  0.250000  0.723247  0.616150  1
  Ir  Ir10  1  0.750000  0.769306  0.114792  1
  Rh  Rh11  1  0.750000  0.267869  0.387248  1
