# generated using pymatgen
data_ThCr3(NiH6)2
_symmetry_space_group_name_H-M   'P 1'
_cell_length_a   5.68306202
_cell_length_b   5.68209227
_cell_length_c   4.36750000
_cell_angle_alpha   90.00000000
_cell_angle_beta   90.00000000
_cell_angle_gamma   119.99266492
_symmetry_Int_Tables_number   1
_chemical_formula_structural   ThCr3(NiH6)2
_chemical_formula_sum   'Th1 Cr3 Ni2 H12'
_cell_volume   122.14798806
_cell_formula_units_Z   1
loop_
 _symmetry_equiv_pos_site_id
 _symmetry_equiv_pos_as_xyz
  1  'x, y, z'
loop_
 _atom_site_type_symbol
 _atom_site_label
 _atom_site_symmetry_multiplicity
 _atom_site_fract_x
 _atom_site_fract_y
 _atom_site_fract_z
 _atom_site_occupancy
  Th  Th0  1  0.000000  0.000000  0.000000  1
  Cr  Cr1  1  0.500000  0.000000  0.500000  1
  Cr  Cr2  1  0.000000  0.500000  0.500000  1
  Cr  Cr3  1  0.500000  0.500000  0.500000  1
  Ni  Ni4  1  0.666733  0.333439  0.000000  1
  Ni  Ni5  1  0.333267  0.666561  0.000000  1
  H  H6  1  0.792043  0.584340  0.733404  1
  H  H7  1  0.207957  0.415660  0.266596  1
  H  H8  1  0.208036  0.792353  0.266487  1
  H  H9  1  0.791964  0.207647  0.266487  1
  H  H10  1  0.584297  0.792213  0.266305  1
  H  H11  1  0.415703  0.207787  0.266305  1
  H  H12  1  0.415703  0.207787  0.733695  1
  H  H13  1  0.207957  0.415660  0.733404  1
  H  H14  1  0.791964  0.207647  0.733513  1
  H  H15  1  0.584297  0.792213  0.733695  1
  H  H16  1  0.792043  0.584340  0.266596  1
  H  H17  1  0.208036  0.792353  0.733513  1
