# generated using pymatgen
data_Dy4Ga2MoRu5
_symmetry_space_group_name_H-M   'P 1'
_cell_length_a   5.50859800
_cell_length_b   5.25471626
_cell_length_c   8.93830100
_cell_angle_alpha   90.00000000
_cell_angle_beta   90.00000000
_cell_angle_gamma   121.77325269
_symmetry_Int_Tables_number   1
_chemical_formula_structural   Dy4Ga2MoRu5
_chemical_formula_sum   'Dy4 Ga2 Mo1 Ru5'
_cell_volume   219.95561888
_cell_formula_units_Z   1
loop_
 _symmetry_equiv_pos_site_id
 _symmetry_equiv_pos_as_xyz
  1  'x, y, z'
loop_
 _atom_site_type_symbol
 _atom_site_label
 _atom_site_symmetry_multiplicity
 _atom_site_fract_x
 _atom_site_fract_y
 _atom_site_fract_z
 _atom_site_occupancy
  Dy  Dy0  1  0.671328  0.342435  0.564922  1
  Dy  Dy1  1  0.337913  0.669049  0.440119  1
  Dy  Dy2  1  0.337913  0.669049  0.059881  1
  Dy  Dy3  1  0.671328  0.342435  0.935078  1
  Ga  Ga4  1  0.822606  0.660149  0.250000  1
  Ga  Ga5  1  0.826314  0.162902  0.250000  1
  Mo  Mo6  1  0.158636  0.318674  0.750000  1
  Ru  Ru7  1  0.010216  0.017833  0.497491  1
  Ru  Ru8  1  0.010216  0.017833  0.002509  1
  Ru  Ru9  1  0.169582  0.822707  0.750000  1
  Ru  Ru10  1  0.646908  0.816386  0.750000  1
  Ru  Ru11  1  0.337038  0.160547  0.250000  1
