# generated using pymatgen
data_Hf4TaSi4W
_symmetry_space_group_name_H-M   'P 1'
_cell_length_a   6.74404200
_cell_length_b   6.74404200
_cell_length_c   3.74965200
_cell_angle_alpha   90.00000000
_cell_angle_beta   90.00000000
_cell_angle_gamma   90.00000000
_symmetry_Int_Tables_number   1
_chemical_formula_structural   Hf4TaSi4W
_chemical_formula_sum   'Hf4 Ta1 Si4 W1'
_cell_volume   170.54205659
_cell_formula_units_Z   1
loop_
 _symmetry_equiv_pos_site_id
 _symmetry_equiv_pos_as_xyz
  1  'x, y, z'
loop_
 _atom_site_type_symbol
 _atom_site_label
 _atom_site_symmetry_multiplicity
 _atom_site_fract_x
 _atom_site_fract_y
 _atom_site_fract_z
 _atom_site_occupancy
  Hf  Hf0  1  0.822413  0.672305  0.500000  1
  Hf  Hf1  1  0.327695  0.822413  0.500000  1
  Hf  Hf2  1  0.177587  0.327695  0.500000  1
  Hf  Hf3  1  0.672305  0.177587  0.500000  1
  Ta  Ta4  1  0.000000  0.000000  0.000000  1
  Si  Si5  1  0.126687  0.626499  0.000000  1
  Si  Si6  1  0.626499  0.873313  0.000000  1
  Si  Si7  1  0.373501  0.126687  0.000000  1
  Si  Si8  1  0.873313  0.373501  0.000000  1
  W  W9  1  0.500000  0.500000  0.000000  1
