# generated using pymatgen
data_CeErTh6(Si3Rh)4
_symmetry_space_group_name_H-M   'P 1'
_cell_length_a   8.19626500
_cell_length_b   8.22136009
_cell_length_c   8.36111500
_cell_angle_alpha   90.00000000
_cell_angle_beta   90.00000000
_cell_angle_gamma   119.89908188
_symmetry_Int_Tables_number   1
_chemical_formula_structural   CeErTh6(Si3Rh)4
_chemical_formula_sum   'Ce1 Er1 Th6 Si12 Rh4'
_cell_volume   488.42201882
_cell_formula_units_Z   1
loop_
 _symmetry_equiv_pos_site_id
 _symmetry_equiv_pos_as_xyz
  1  'x, y, z'
loop_
 _atom_site_type_symbol
 _atom_site_label
 _atom_site_symmetry_multiplicity
 _atom_site_fract_x
 _atom_site_fract_y
 _atom_site_fract_z
 _atom_site_occupancy
  Ce  Ce0  1  0.999986  0.999972  0.750000  1
  Er  Er1  1  0.500705  0.001410  0.750000  1
  Th  Th2  1  0.999996  0.999991  0.250000  1
  Th  Th3  1  0.499338  0.500572  0.250000  1
  Th  Th4  1  0.499391  0.998784  0.250000  1
  Th  Th5  1  0.001233  0.500572  0.250000  1
  Th  Th6  1  0.500729  0.499018  0.750000  1
  Th  Th7  1  0.998288  0.499018  0.750000  1
  Si  Si8  1  0.831847  0.164985  0.502360  1
  Si  Si9  1  0.835181  0.670362  0.498836  1
  Si  Si10  1  0.333137  0.164985  0.502360  1
  Si  Si11  1  0.831847  0.164985  0.997640  1
  Si  Si12  1  0.835181  0.670362  0.001164  1
  Si  Si13  1  0.333137  0.164985  0.997640  1
  Si  Si14  1  0.168139  0.834894  0.996872  1
  Si  Si15  1  0.666757  0.834894  0.996872  1
  Si  Si16  1  0.164933  0.329866  0.000370  1
  Si  Si17  1  0.168139  0.834894  0.503128  1
  Si  Si18  1  0.666757  0.834894  0.503128  1
  Si  Si19  1  0.164933  0.329866  0.499630  1
  Rh  Rh20  1  0.667772  0.335543  0.503118  1
  Rh  Rh21  1  0.667772  0.335543  0.996882  1
  Rh  Rh22  1  0.332401  0.664803  0.991637  1
  Rh  Rh23  1  0.332401  0.664803  0.508363  1
