# generated using pymatgen
data_Ta2B2Mo
_symmetry_space_group_name_H-M   'P 1'
_cell_length_a   6.11247500
_cell_length_b   6.11247500
_cell_length_c   3.28937600
_cell_angle_alpha   90.00000000
_cell_angle_beta   90.00000000
_cell_angle_gamma   90.00000000
_symmetry_Int_Tables_number   1
_chemical_formula_structural   Ta2B2Mo
_chemical_formula_sum   'Ta4 B4 Mo2'
_cell_volume   122.89881945
_cell_formula_units_Z   2
loop_
 _symmetry_equiv_pos_site_id
 _symmetry_equiv_pos_as_xyz
  1  'x, y, z'
loop_
 _atom_site_type_symbol
 _atom_site_label
 _atom_site_symmetry_multiplicity
 _atom_site_fract_x
 _atom_site_fract_y
 _atom_site_fract_z
 _atom_site_occupancy
  Ta  Ta0  1  0.678679  0.178679  0.500000  1
  Ta  Ta1  1  0.321321  0.821321  0.500000  1
  Ta  Ta2  1  0.178679  0.321321  0.500000  1
  Ta  Ta3  1  0.821321  0.678679  0.500000  1
  B  B4  1  0.108869  0.608869  0.000000  1
  B  B5  1  0.891131  0.391131  0.000000  1
  B  B6  1  0.608869  0.891131  0.000000  1
  B  B7  1  0.391131  0.108869  0.000000  1
  Mo  Mo8  1  0.000000  0.000000  0.000000  1
  Mo  Mo9  1  0.500000  0.500000  0.000000  1
