# generated using pymatgen
data_PrTmZn5Si
_symmetry_space_group_name_H-M   'P 1'
_cell_length_a   8.24169414
_cell_length_b   8.24169490
_cell_length_c   8.77608400
_cell_angle_alpha   90.00000000
_cell_angle_beta   90.00000000
_cell_angle_gamma   149.52857273
_symmetry_Int_Tables_number   1
_chemical_formula_structural   PrTmZn5Si
_chemical_formula_sum   'Pr2 Tm2 Zn10 Si2'
_cell_volume   302.29766117
_cell_formula_units_Z   2
loop_
 _symmetry_equiv_pos_site_id
 _symmetry_equiv_pos_as_xyz
  1  'x, y, z'
loop_
 _atom_site_type_symbol
 _atom_site_label
 _atom_site_symmetry_multiplicity
 _atom_site_fract_x
 _atom_site_fract_y
 _atom_site_fract_z
 _atom_site_occupancy
  Pr  Pr0  1  0.000000  0.000000  0.500000  1
  Pr  Pr1  1  0.000000  0.000000  0.000000  1
  Tm  Tm2  1  0.199996  0.800004  0.250000  1
  Tm  Tm3  1  0.800004  0.199996  0.750000  1
  Zn  Zn4  1  0.812054  0.187946  0.392275  1
  Zn  Zn5  1  0.187946  0.812054  0.607725  1
  Zn  Zn6  1  0.812054  0.187946  0.107725  1
  Zn  Zn7  1  0.187946  0.812054  0.892275  1
  Zn  Zn8  1  0.652726  0.347274  0.473254  1
  Zn  Zn9  1  0.347274  0.652726  0.526746  1
  Zn  Zn10  1  0.652726  0.347274  0.026746  1
  Zn  Zn11  1  0.347274  0.652726  0.973254  1
  Zn  Zn12  1  0.402110  0.597890  0.250000  1
  Zn  Zn13  1  0.597890  0.402110  0.750000  1
  Si  Si14  1  0.558124  0.441876  0.250000  1
  Si  Si15  1  0.441876  0.558124  0.750000  1
