# generated using pymatgen
data_Dy2YSc17Bi12
_symmetry_space_group_name_H-M   'P 1'
_cell_length_a   7.87098119
_cell_length_b   9.05094000
_cell_length_c   11.52756404
_cell_angle_alpha   90.00000000
_cell_angle_beta   90.00755888
_cell_angle_gamma   90.00000000
_symmetry_Int_Tables_number   1
_chemical_formula_structural   Dy2YSc17Bi12
_chemical_formula_sum   'Dy2 Y1 Sc17 Bi12'
_cell_volume   821.22110140
_cell_formula_units_Z   1
loop_
 _symmetry_equiv_pos_site_id
 _symmetry_equiv_pos_as_xyz
  1  'x, y, z'
loop_
 _atom_site_type_symbol
 _atom_site_label
 _atom_site_symmetry_multiplicity
 _atom_site_fract_x
 _atom_site_fract_y
 _atom_site_fract_z
 _atom_site_occupancy
  Dy  Dy0  1  0.815683  0.250000  0.281157  1
  Dy  Dy1  1  0.183842  0.750000  0.718609  1
  Y  Y2  1  0.684603  0.750000  0.781172  1
  Sc  Sc3  1  0.348820  0.750000  0.220357  1
  Sc  Sc4  1  0.850992  0.750000  0.278470  1
  Sc  Sc5  1  0.650249  0.250000  0.781662  1
  Sc  Sc6  1  0.151041  0.250000  0.719777  1
  Sc  Sc7  1  0.694913  0.566677  0.061736  1
  Sc  Sc8  1  0.192801  0.932993  0.437695  1
  Sc  Sc9  1  0.306118  0.067230  0.939505  1
  Sc  Sc10  1  0.807147  0.432060  0.561302  1
  Sc  Sc11  1  0.306118  0.432770  0.939505  1
  Sc  Sc12  1  0.807147  0.067940  0.561302  1
  Sc  Sc13  1  0.694913  0.933323  0.061736  1
  Sc  Sc14  1  0.192801  0.567007  0.437695  1
  Sc  Sc15  1  0.480388  0.250000  0.487374  1
  Sc  Sc16  1  0.980715  0.250000  0.012203  1
  Sc  Sc17  1  0.517897  0.750000  0.509705  1
  Sc  Sc18  1  0.019994  0.750000  0.990591  1
  Sc  Sc19  1  0.313817  0.250000  0.217577  1
  Bi  Bi20  1  0.403073  0.750000  0.967048  1
  Bi  Bi21  1  0.901274  0.750000  0.532462  1
  Bi  Bi22  1  0.592234  0.250000  0.037719  1
  Bi  Bi23  1  0.099563  0.250000  0.464817  1
  Bi  Bi24  1  0.560341  0.992452  0.325984  1
  Bi  Bi25  1  0.069443  0.506197  0.172776  1
  Bi  Bi26  1  0.436270  0.489763  0.671592  1
  Bi  Bi27  1  0.935874  0.010402  0.829060  1
  Bi  Bi28  1  0.436270  0.010237  0.671592  1
  Bi  Bi29  1  0.935874  0.489598  0.829060  1
  Bi  Bi30  1  0.560341  0.507548  0.325984  1
  Bi  Bi31  1  0.069443  0.993803  0.172776  1
