# generated using pymatgen
data_Sc4Nb2Si7Ni16
_symmetry_space_group_name_H-M   'P 1'
_cell_length_a   8.02678171
_cell_length_b   8.02808624
_cell_length_c   8.02678104
_cell_angle_alpha   59.99461902
_cell_angle_beta   60.27656412
_cell_angle_gamma   59.99462027
_symmetry_Int_Tables_number   1
_chemical_formula_structural   Sc4Nb2Si7Ni16
_chemical_formula_sum   'Sc4 Nb2 Si7 Ni16'
_cell_volume   366.47465671
_cell_formula_units_Z   1
loop_
 _symmetry_equiv_pos_site_id
 _symmetry_equiv_pos_as_xyz
  1  'x, y, z'
loop_
 _atom_site_type_symbol
 _atom_site_label
 _atom_site_symmetry_multiplicity
 _atom_site_fract_x
 _atom_site_fract_y
 _atom_site_fract_z
 _atom_site_occupancy
  Sc  Sc0  1  0.794485  0.791810  0.205515  1
  Sc  Sc1  1  0.799737  0.202142  0.795979  1
  Sc  Sc2  1  0.204021  0.797858  0.200263  1
  Sc  Sc3  1  0.794485  0.208190  0.205515  1
  Nb  Nb4  1  0.205923  0.799482  0.794077  1
  Nb  Nb5  1  0.205923  0.200518  0.794077  1
  Si  Si6  1  0.506629  0.500000  0.493371  1
  Si  Si7  1  0.497632  0.000000  0.502368  1
  Si  Si8  1  0.005066  0.500000  0.994934  1
  Si  Si9  1  0.001297  0.996871  0.503389  1
  Si  Si10  1  0.496611  0.003129  0.998703  1
  Si  Si11  1  0.001297  0.498443  0.503389  1
  Si  Si12  1  0.496611  0.501557  0.998703  1
  Ni  Ni13  1  0.167753  0.169184  0.493880  1
  Ni  Ni14  1  0.492859  0.169035  0.169073  1
  Ni  Ni15  1  0.167058  0.168452  0.168803  1
  Ni  Ni16  1  0.506120  0.830816  0.832247  1
  Ni  Ni17  1  0.831197  0.831548  0.832942  1
  Ni  Ni18  1  0.830927  0.830965  0.507141  1
  Ni  Ni19  1  0.167058  0.495688  0.168803  1
  Ni  Ni20  1  0.614272  0.145984  0.620184  1
  Ni  Ni21  1  0.380860  0.384548  0.850043  1
  Ni  Ni22  1  0.858681  0.379881  0.381558  1
  Ni  Ni23  1  0.379816  0.380440  0.385728  1
  Ni  Ni24  1  0.149957  0.615452  0.619140  1
  Ni  Ni25  1  0.614272  0.619560  0.620184  1
  Ni  Ni26  1  0.618442  0.620119  0.141319  1
  Ni  Ni27  1  0.379816  0.854016  0.385728  1
  Ni  Ni28  1  0.831197  0.504312  0.832942  1
