# generated using pymatgen
data_Ce10Pb6AuS
_symmetry_space_group_name_H-M   'P 1'
_cell_length_a   9.56427200
_cell_length_b   9.56427155
_cell_length_c   6.74314500
_cell_angle_alpha   90.00000000
_cell_angle_beta   90.00000000
_cell_angle_gamma   120.00000156
_symmetry_Int_Tables_number   1
_chemical_formula_structural   Ce10Pb6AuS
_chemical_formula_sum   'Ce10 Pb6 Au1 S1'
_cell_volume   534.19145922
_cell_formula_units_Z   1
loop_
 _symmetry_equiv_pos_site_id
 _symmetry_equiv_pos_as_xyz
  1  'x, y, z'
loop_
 _atom_site_type_symbol
 _atom_site_label
 _atom_site_symmetry_multiplicity
 _atom_site_fract_x
 _atom_site_fract_y
 _atom_site_fract_z
 _atom_site_occupancy
  Ce  Ce0  1  0.745170  0.745170  0.738107  1
  Ce  Ce1  1  0.254830  0.000000  0.738107  1
  Ce  Ce2  1  0.000000  0.254830  0.738107  1
  Ce  Ce3  1  0.254830  0.254830  0.261893  1
  Ce  Ce4  1  0.745170  0.000000  0.261893  1
  Ce  Ce5  1  0.000000  0.745170  0.261893  1
  Ce  Ce6  1  0.666667  0.333333  0.000000  1
  Ce  Ce7  1  0.333333  0.666667  0.000000  1
  Ce  Ce8  1  0.333333  0.666667  0.500000  1
  Ce  Ce9  1  0.666667  0.333333  0.500000  1
  Pb  Pb10  1  0.389137  0.389137  0.751821  1
  Pb  Pb11  1  0.610863  0.000000  0.751821  1
  Pb  Pb12  1  0.000000  0.610863  0.751821  1
  Pb  Pb13  1  0.610863  0.610863  0.248179  1
  Pb  Pb14  1  0.389137  0.000000  0.248179  1
  Pb  Pb15  1  0.000000  0.389137  0.248179  1
  Au  Au16  1  0.000000  0.000000  0.000000  1
  S  S17  1  0.000000  0.000000  0.500000  1
