# generated using pymatgen
data_CaLa11(GePd)12
_symmetry_space_group_name_H-M   'P 1'
_cell_length_a   4.55625100
_cell_length_b   7.75219474
_cell_length_c   22.39067927
_cell_angle_alpha   90.07766941
_cell_angle_beta   90.00000000
_cell_angle_gamma   90.00000000
_symmetry_Int_Tables_number   1
_chemical_formula_structural   CaLa11(GePd)12
_chemical_formula_sum   'Ca1 La11 Ge12 Pd12'
_cell_volume   790.85922490
_cell_formula_units_Z   1
loop_
 _symmetry_equiv_pos_site_id
 _symmetry_equiv_pos_as_xyz
  1  'x, y, z'
loop_
 _atom_site_type_symbol
 _atom_site_label
 _atom_site_symmetry_multiplicity
 _atom_site_fract_x
 _atom_site_fract_y
 _atom_site_fract_z
 _atom_site_occupancy
  Ca  Ca0  1  0.250000  0.781926  0.501222  1
  La  La1  1  0.250000  0.710375  0.333793  1
  La  La2  1  0.750000  0.290261  0.666802  1
  La  La3  1  0.750000  0.209613  0.167018  1
  La  La4  1  0.250000  0.789989  0.832857  1
  La  La5  1  0.250000  0.791892  0.166663  1
  La  La6  1  0.750000  0.208003  0.833355  1
  La  La7  1  0.750000  0.292679  0.333972  1
  La  La8  1  0.250000  0.710231  0.665140  1
  La  La9  1  0.250000  0.715376  0.001900  1
  La  La10  1  0.750000  0.285235  0.998208  1
  La  La11  1  0.750000  0.209871  0.498582  1
  Ge  Ge12  1  0.250000  0.088509  0.071088  1
  Ge  Ge13  1  0.750000  0.911151  0.929203  1
  Ge  Ge14  1  0.750000  0.592388  0.430302  1
  Ge  Ge15  1  0.250000  0.413569  0.570678  1
  Ge  Ge16  1  0.250000  0.083085  0.270518  1
  Ge  Ge17  1  0.750000  0.916125  0.729277  1
  Ge  Ge18  1  0.750000  0.583518  0.229599  1
  Ge  Ge19  1  0.250000  0.416973  0.770123  1
  Ge  Ge20  1  0.250000  0.083436  0.396758  1
  Ge  Ge21  1  0.750000  0.914876  0.602845  1
  Ge  Ge22  1  0.750000  0.585144  0.104124  1
  Ge  Ge23  1  0.250000  0.415385  0.895712  1
  Pd  Pd24  1  0.250000  0.416717  0.237873  1
  Pd  Pd25  1  0.750000  0.583122  0.762346  1
  Pd  Pd26  1  0.750000  0.916688  0.262685  1
  Pd  Pd27  1  0.250000  0.083241  0.737532  1
  Pd  Pd28  1  0.250000  0.416669  0.435981  1
  Pd  Pd29  1  0.750000  0.584895  0.563730  1
  Pd  Pd30  1  0.750000  0.916270  0.064875  1
  Pd  Pd31  1  0.250000  0.083699  0.935125  1
  Pd  Pd32  1  0.250000  0.419696  0.093394  1
  Pd  Pd33  1  0.750000  0.580038  0.906556  1
  Pd  Pd34  1  0.750000  0.918972  0.406994  1
  Pd  Pd35  1  0.250000  0.080382  0.593172  1
