# generated using pymatgen
data_Er12TlInFe2Tc
_symmetry_space_group_name_H-M   'P 1'
_cell_length_a   8.30144973
_cell_length_b   8.30144912
_cell_length_c   8.30144936
_cell_angle_alpha   108.70584496
_cell_angle_beta   109.06425717
_cell_angle_gamma   110.65022571
_symmetry_Int_Tables_number   1
_chemical_formula_structural   Er12TlInFe2Tc
_chemical_formula_sum   'Er12 Tl1 In1 Fe2 Tc1'
_cell_volume   440.24805836
_cell_formula_units_Z   1
loop_
 _symmetry_equiv_pos_site_id
 _symmetry_equiv_pos_as_xyz
  1  'x, y, z'
loop_
 _atom_site_type_symbol
 _atom_site_label
 _atom_site_symmetry_multiplicity
 _atom_site_fract_x
 _atom_site_fract_y
 _atom_site_fract_z
 _atom_site_occupancy
  Er  Er0  1  0.306997  0.308564  0.615559  1
  Er  Er1  1  0.693003  0.691436  0.384441  1
  Er  Er2  1  0.306997  0.691436  0.998433  1
  Er  Er3  1  0.693003  0.308564  0.001567  1
  Er  Er4  1  0.432805  0.193194  0.239609  1
  Er  Er5  1  0.567195  0.806806  0.760391  1
  Er  Er6  1  0.953585  0.193194  0.760391  1
  Er  Er7  1  0.192423  0.954754  0.762332  1
  Er  Er8  1  0.046415  0.806806  0.239609  1
  Er  Er9  1  0.807577  0.045246  0.237668  1
  Er  Er10  1  0.192423  0.430092  0.237668  1
  Er  Er11  1  0.807577  0.569908  0.762332  1
  Tl  Tl12  1  0.500000  0.000000  0.500000  1
  In  In13  1  0.000000  0.500000  0.500000  1
  Fe  Fe14  1  0.385276  0.385276  0.000000  1
  Fe  Fe15  1  0.614724  0.614724  0.000000  1
  Tc  Tc16  1  0.000000  0.000000  0.000000  1
