# generated using pymatgen
data_Tb2YSn3HgRh2
_symmetry_space_group_name_H-M   'P 1'
_cell_length_a   7.71676841
_cell_length_b   7.71549601
_cell_length_c   3.93402300
_cell_angle_alpha   90.00000000
_cell_angle_beta   90.00000000
_cell_angle_gamma   119.93613675
_symmetry_Int_Tables_number   1
_chemical_formula_structural   Tb2YSn3HgRh2
_chemical_formula_sum   'Tb2 Y1 Sn3 Hg1 Rh2'
_cell_volume   202.97659618
_cell_formula_units_Z   1
loop_
 _symmetry_equiv_pos_site_id
 _symmetry_equiv_pos_as_xyz
  1  'x, y, z'
loop_
 _atom_site_type_symbol
 _atom_site_label
 _atom_site_symmetry_multiplicity
 _atom_site_fract_x
 _atom_site_fract_y
 _atom_site_fract_z
 _atom_site_occupancy
  Tb  Tb0  1  0.979582  0.391305  0.500000  1
  Tb  Tb1  1  0.608411  0.588323  0.500000  1
  Y  Y2  1  0.411169  0.019722  0.500000  1
  Sn  Sn3  1  0.751136  0.008005  0.000000  1
  Sn  Sn4  1  0.991883  0.743342  0.000000  1
  Sn  Sn5  1  0.256877  0.248484  0.000000  1
  Hg  Hg6  1  0.333512  0.666832  0.000000  1
  Rh  Rh7  1  0.667387  0.333955  0.000000  1
  Rh  Rh8  1  0.000043  0.000034  0.500000  1
