# generated using pymatgen
data_Tm12Al3Fe2
_symmetry_space_group_name_H-M   'P 1'
_cell_length_a   8.23563617
_cell_length_b   8.23563659
_cell_length_c   8.23563604
_cell_angle_alpha   109.88668170
_cell_angle_beta   109.88668140
_cell_angle_gamma   108.64344962
_symmetry_Int_Tables_number   1
_chemical_formula_structural   Tm12Al3Fe2
_chemical_formula_sum   'Tm12 Al3 Fe2'
_cell_volume   429.93395439
_cell_formula_units_Z   1
loop_
 _symmetry_equiv_pos_site_id
 _symmetry_equiv_pos_as_xyz
  1  'x, y, z'
loop_
 _atom_site_type_symbol
 _atom_site_label
 _atom_site_symmetry_multiplicity
 _atom_site_fract_x
 _atom_site_fract_y
 _atom_site_fract_z
 _atom_site_occupancy
  Tm  Tm0  1  0.450580  0.201987  0.248593  1
  Tm  Tm1  1  0.549420  0.798013  0.751407  1
  Tm  Tm2  1  0.953394  0.201987  0.751407  1
  Tm  Tm3  1  0.201987  0.953394  0.751407  1
  Tm  Tm4  1  0.046606  0.798013  0.248593  1
  Tm  Tm5  1  0.798013  0.046606  0.248593  1
  Tm  Tm6  1  0.201987  0.450580  0.248593  1
  Tm  Tm7  1  0.798013  0.549420  0.751407  1
  Tm  Tm8  1  0.304137  0.304137  0.608272  1
  Tm  Tm9  1  0.695863  0.695863  0.391728  1
  Tm  Tm10  1  0.304137  0.695863  0.000000  1
  Tm  Tm11  1  0.695863  0.304137  0.000000  1
  Al  Al12  1  0.500000  0.000000  0.500000  1
  Al  Al13  1  0.000000  0.500000  0.500000  1
  Al  Al14  1  0.000000  0.000000  0.000000  1
  Fe  Fe15  1  0.385734  0.385734  0.000000  1
  Fe  Fe16  1  0.614266  0.614266  0.000000  1
