# generated using pymatgen
data_Co(TcGe2)5
_symmetry_space_group_name_H-M   'P 1'
_cell_length_a   5.87716700
_cell_length_b   5.87716700
_cell_length_c   14.18743500
_cell_angle_alpha   90.00000000
_cell_angle_beta   90.00000000
_cell_angle_gamma   90.00000000
_symmetry_Int_Tables_number   1
_chemical_formula_structural   Co(TcGe2)5
_chemical_formula_sum   'Co2 Tc10 Ge20'
_cell_volume   490.04949681
_cell_formula_units_Z   2
loop_
 _symmetry_equiv_pos_site_id
 _symmetry_equiv_pos_as_xyz
  1  'x, y, z'
loop_
 _atom_site_type_symbol
 _atom_site_label
 _atom_site_symmetry_multiplicity
 _atom_site_fract_x
 _atom_site_fract_y
 _atom_site_fract_z
 _atom_site_occupancy
  Co  Co0  1  0.500000  0.000000  0.749984  1
  Co  Co1  1  0.000000  0.500000  0.250016  1
  Tc  Tc2  1  0.000000  0.000000  0.000000  1
  Tc  Tc3  1  0.500000  0.500000  0.500000  1
  Tc  Tc4  1  0.500000  0.000000  0.086606  1
  Tc  Tc5  1  0.000000  0.500000  0.913394  1
  Tc  Tc6  1  0.000000  0.500000  0.586605  1
  Tc  Tc7  1  0.500000  0.000000  0.413395  1
  Tc  Tc8  1  0.000000  0.000000  0.326105  1
  Tc  Tc9  1  0.000000  0.000000  0.673895  1
  Tc  Tc10  1  0.500000  0.500000  0.826106  1
  Tc  Tc11  1  0.500000  0.500000  0.173894  1
  Ge  Ge12  1  0.663149  0.163150  0.249999  1
  Ge  Ge13  1  0.836850  0.663149  0.750001  1
  Ge  Ge14  1  0.336851  0.836850  0.249999  1
  Ge  Ge15  1  0.163150  0.336851  0.750001  1
  Ge  Ge16  1  0.151349  0.196320  0.155985  1
  Ge  Ge17  1  0.803680  0.151349  0.844015  1
  Ge  Ge18  1  0.848651  0.803680  0.155985  1
  Ge  Ge19  1  0.196320  0.848651  0.844015  1
  Ge  Ge20  1  0.348648  0.696304  0.655976  1
  Ge  Ge21  1  0.696304  0.651352  0.344024  1
  Ge  Ge22  1  0.651352  0.303696  0.655976  1
  Ge  Ge23  1  0.303696  0.348648  0.344024  1
  Ge  Ge24  1  0.348372  0.232960  0.948962  1
  Ge  Ge25  1  0.767040  0.348372  0.051038  1
  Ge  Ge26  1  0.651628  0.767040  0.948962  1
  Ge  Ge27  1  0.232960  0.651628  0.051038  1
  Ge  Ge28  1  0.151618  0.732951  0.448957  1
  Ge  Ge29  1  0.732951  0.848382  0.551043  1
  Ge  Ge30  1  0.848382  0.267049  0.448957  1
  Ge  Ge31  1  0.267049  0.151618  0.551043  1
