# generated using pymatgen
data_PmCuSeS
_symmetry_space_group_name_H-M   'P 1'
_cell_length_a   6.25510800
_cell_length_b   7.33503600
_cell_length_c   7.27598207
_cell_angle_alpha   89.99930284
_cell_angle_beta   94.52747508
_cell_angle_gamma   89.99911447
_symmetry_Int_Tables_number   1
_chemical_formula_structural   PmCuSeS
_chemical_formula_sum   'Pm4 Cu4 Se4 S4'
_cell_volume   332.79085928
_cell_formula_units_Z   4
loop_
 _symmetry_equiv_pos_site_id
 _symmetry_equiv_pos_as_xyz
  1  'x, y, z'
loop_
 _atom_site_type_symbol
 _atom_site_label
 _atom_site_symmetry_multiplicity
 _atom_site_fract_x
 _atom_site_fract_y
 _atom_site_fract_z
 _atom_site_occupancy
  Pm  Pm0  1  0.335668  0.035709  0.220023  1
  Pm  Pm1  1  0.664338  0.535705  0.279980  1
  Pm  Pm2  1  0.335661  0.464293  0.720021  1
  Pm  Pm3  1  0.664332  0.964290  0.779976  1
  Cu  Cu4  1  0.059341  0.672710  0.036745  1
  Cu  Cu5  1  0.940348  0.172630  0.462882  1
  Cu  Cu6  1  0.059653  0.827371  0.537118  1
  Cu  Cu7  1  0.940660  0.327290  0.963254  1
  Se  Se8  1  0.884563  0.894835  0.227768  1
  Se  Se9  1  0.115423  0.394845  0.272214  1
  Se  Se10  1  0.884578  0.605154  0.727785  1
  Se  Se11  1  0.115436  0.105166  0.772233  1
  S  S12  1  0.584206  0.269533  0.000740  1
  S  S13  1  0.415780  0.769535  0.499260  1
  S  S14  1  0.584223  0.230467  0.500743  1
  S  S15  1  0.415793  0.730466  0.999259  1
