# generated using pymatgen
data_Rb3MnIrBr9
_symmetry_space_group_name_H-M   'P 1'
_cell_length_a   7.53318000
_cell_length_b   7.52685509
_cell_length_c   19.43058300
_cell_angle_alpha   90.00000000
_cell_angle_beta   90.00000000
_cell_angle_gamma   120.02402635
_symmetry_Int_Tables_number   1
_chemical_formula_structural   Rb3MnIrBr9
_chemical_formula_sum   'Rb6 Mn2 Ir2 Br18'
_cell_volume   953.90069839
_cell_formula_units_Z   2
loop_
 _symmetry_equiv_pos_site_id
 _symmetry_equiv_pos_as_xyz
  1  'x, y, z'
loop_
 _atom_site_type_symbol
 _atom_site_label
 _atom_site_symmetry_multiplicity
 _atom_site_fract_x
 _atom_site_fract_y
 _atom_site_fract_z
 _atom_site_occupancy
  Rb  Rb0  1  0.666689  0.333401  0.937312  1
  Rb  Rb1  1  0.333311  0.666599  0.437312  1
  Rb  Rb2  1  0.666677  0.333295  0.559044  1
  Rb  Rb3  1  0.333323  0.666705  0.059044  1
  Rb  Rb4  1  0.000038  0.000102  0.751218  1
  Rb  Rb5  1  0.999962  0.999898  0.251218  1
  Mn  Mn6  1  0.333656  0.666788  0.659871  1
  Mn  Mn7  1  0.666344  0.333212  0.159871  1
  Ir  Ir8  1  0.666646  0.333264  0.332720  1
  Ir  Ir9  1  0.333354  0.666736  0.832720  1
  Br  Br10  1  0.829610  0.659371  0.093395  1
  Br  Br11  1  0.170921  0.829486  0.593528  1
  Br  Br12  1  0.659291  0.829811  0.593417  1
  Br  Br13  1  0.340709  0.170189  0.093417  1
  Br  Br14  1  0.829079  0.170514  0.093528  1
  Br  Br15  1  0.176539  0.353020  0.906664  1
  Br  Br16  1  0.176789  0.823459  0.906675  1
  Br  Br17  1  0.170390  0.340629  0.593395  1
  Br  Br18  1  0.646698  0.823434  0.906665  1
  Br  Br19  1  0.353302  0.176566  0.406665  1
  Br  Br20  1  0.823461  0.646980  0.406664  1
  Br  Br21  1  0.823211  0.176541  0.406675  1
  Br  Br22  1  0.512573  0.025104  0.253278  1
  Br  Br23  1  0.486930  0.513006  0.753033  1
  Br  Br24  1  0.025769  0.512862  0.753180  1
  Br  Br25  1  0.974231  0.487138  0.253180  1
  Br  Br26  1  0.513070  0.486994  0.253033  1
  Br  Br27  1  0.487427  0.974896  0.753278  1
