# generated using pymatgen
data_YbHo2Tm(B4Os)4
_symmetry_space_group_name_H-M   'P 1'
_cell_length_a   3.55255500
_cell_length_b   5.96317532
_cell_length_c   11.52309693
_cell_angle_alpha   89.97190809
_cell_angle_beta   90.00000000
_cell_angle_gamma   90.00000000
_symmetry_Int_Tables_number   1
_chemical_formula_structural   YbHo2Tm(B4Os)4
_chemical_formula_sum   'Yb1 Ho2 Tm1 B16 Os4'
_cell_volume   244.11111310
_cell_formula_units_Z   1
loop_
 _symmetry_equiv_pos_site_id
 _symmetry_equiv_pos_as_xyz
  1  'x, y, z'
loop_
 _atom_site_type_symbol
 _atom_site_label
 _atom_site_symmetry_multiplicity
 _atom_site_fract_x
 _atom_site_fract_y
 _atom_site_fract_z
 _atom_site_occupancy
  Yb  Yb0  1  0.000000  0.370476  0.149094  1
  Ho  Ho1  1  0.000000  0.127919  0.650218  1
  Ho  Ho2  1  0.000000  0.871546  0.348716  1
  Tm  Tm3  1  0.000000  0.627960  0.851068  1
  B  B4  1  0.500000  0.475541  0.692359  1
  B  B5  1  0.500000  0.525271  0.308167  1
  B  B6  1  0.500000  0.974113  0.808737  1
  B  B7  1  0.500000  0.025175  0.190858  1
  B  B8  1  0.500000  0.290087  0.814895  1
  B  B9  1  0.500000  0.710964  0.185044  1
  B  B10  1  0.500000  0.788911  0.686634  1
  B  B11  1  0.500000  0.212161  0.313623  1
  B  B12  1  0.500000  0.364080  0.969975  1
  B  B13  1  0.500000  0.635637  0.029816  1
  B  B14  1  0.500000  0.863721  0.530313  1
  B  B15  1  0.500000  0.136067  0.470128  1
  B  B16  1  0.500000  0.387200  0.547355  1
  B  B17  1  0.500000  0.612210  0.452846  1
  B  B18  1  0.500000  0.886874  0.953383  1
  B  B19  1  0.500000  0.114025  0.047020  1
  Os  Os20  1  0.000000  0.141234  0.906435  1
  Os  Os21  1  0.000000  0.859246  0.091582  1
  Os  Os22  1  0.000000  0.641452  0.593829  1
  Os  Os23  1  0.000000  0.358131  0.407904  1
