# generated using pymatgen
data_Cr20Ga(ReC3)2
_symmetry_space_group_name_H-M   'P 1'
_cell_length_a   7.52137884
_cell_length_b   7.52121241
_cell_length_c   7.52133000
_cell_angle_alpha   59.99855049
_cell_angle_beta   59.99927404
_cell_angle_gamma   59.99865325
_symmetry_Int_Tables_number   1
_chemical_formula_structural   Cr20Ga(ReC3)2
_chemical_formula_sum   'Cr20 Ga1 Re2 C6'
_cell_volume   300.85234650
_cell_formula_units_Z   1
loop_
 _symmetry_equiv_pos_site_id
 _symmetry_equiv_pos_as_xyz
  1  'x, y, z'
loop_
 _atom_site_type_symbol
 _atom_site_label
 _atom_site_symmetry_multiplicity
 _atom_site_fract_x
 _atom_site_fract_y
 _atom_site_fract_z
 _atom_site_occupancy
  Cr  Cr0  1  0.616700  0.616671  0.149931  1
  Cr  Cr1  1  0.616682  0.149953  0.616684  1
  Cr  Cr2  1  0.149923  0.616664  0.616691  1
  Cr  Cr3  1  0.616721  0.616664  0.616683  1
  Cr  Cr4  1  0.383300  0.383329  0.850069  1
  Cr  Cr5  1  0.383318  0.850047  0.383316  1
  Cr  Cr6  1  0.850077  0.383336  0.383309  1
  Cr  Cr7  1  0.383279  0.383336  0.383317  1
  Cr  Cr8  1  0.000007  0.999991  0.341874  1
  Cr  Cr9  1  0.658142  0.999981  0.341878  1
  Cr  Cr10  1  0.999998  0.658085  0.341919  1
  Cr  Cr11  1  0.658123  0.341893  0.999983  1
  Cr  Cr12  1  0.000010  0.341888  0.999990  1
  Cr  Cr13  1  0.000002  0.341915  0.658081  1
  Cr  Cr14  1  0.341877  0.658107  0.000017  1
  Cr  Cr15  1  0.341858  0.000019  0.658122  1
  Cr  Cr16  1  0.341867  0.000008  0.000006  1
  Cr  Cr17  1  0.999993  0.000009  0.658126  1
  Cr  Cr18  1  0.999990  0.658112  0.000010  1
  Cr  Cr19  1  0.658133  0.999992  0.999994  1
  Ga  Ga20  1  0.000000  0.000000  0.000000  1
  Re  Re21  1  0.750015  0.749969  0.749986  1
  Re  Re22  1  0.249985  0.250031  0.250014  1
  C  C23  1  0.722140  0.722115  0.277891  1
  C  C24  1  0.277862  0.722107  0.277894  1
  C  C25  1  0.722111  0.277884  0.277890  1
  C  C26  1  0.277860  0.277885  0.722109  1
  C  C27  1  0.722138  0.277893  0.722106  1
  C  C28  1  0.277889  0.722116  0.722110  1
