# generated using pymatgen
data_La4Al3ZnPt4
_symmetry_space_group_name_H-M   'P 1'
_cell_length_a   4.56615700
_cell_length_b   7.21238244
_cell_length_c   7.99467532
_cell_angle_alpha   89.46781261
_cell_angle_beta   90.00000000
_cell_angle_gamma   90.00000000
_symmetry_Int_Tables_number   1
_chemical_formula_structural   La4Al3ZnPt4
_chemical_formula_sum   'La4 Al3 Zn1 Pt4'
_cell_volume   263.27625003
_cell_formula_units_Z   1
loop_
 _symmetry_equiv_pos_site_id
 _symmetry_equiv_pos_as_xyz
  1  'x, y, z'
loop_
 _atom_site_type_symbol
 _atom_site_label
 _atom_site_symmetry_multiplicity
 _atom_site_fract_x
 _atom_site_fract_y
 _atom_site_fract_z
 _atom_site_occupancy
  La  La0  1  0.250000  0.033651  0.686808  1
  La  La1  1  0.250000  0.532858  0.818958  1
  La  La2  1  0.750000  0.967902  0.314689  1
  La  La3  1  0.750000  0.463199  0.179938  1
  Al  Al4  1  0.250000  0.645905  0.433948  1
  Al  Al5  1  0.750000  0.854290  0.933825  1
  Al  Al6  1  0.750000  0.357866  0.564478  1
  Zn  Zn7  1  0.250000  0.149479  0.069565  1
  Pt  Pt8  1  0.250000  0.286770  0.396239  1
  Pt  Pt9  1  0.250000  0.774241  0.112418  1
  Pt  Pt10  1  0.750000  0.716688  0.612093  1
  Pt  Pt11  1  0.750000  0.217151  0.877040  1
