# generated using pymatgen
data_Y6Ho4Si5Ge
_symmetry_space_group_name_H-M   'P 1'
_cell_length_a   8.44929000
_cell_length_b   8.45115308
_cell_length_c   6.35870100
_cell_angle_alpha   90.00000000
_cell_angle_beta   90.00000000
_cell_angle_gamma   119.99270776
_symmetry_Int_Tables_number   1
_chemical_formula_structural   Y6Ho4Si5Ge
_chemical_formula_sum   'Y6 Ho4 Si5 Ge1'
_cell_volume   393.24854836
_cell_formula_units_Z   1
loop_
 _symmetry_equiv_pos_site_id
 _symmetry_equiv_pos_as_xyz
  1  'x, y, z'
loop_
 _atom_site_type_symbol
 _atom_site_label
 _atom_site_symmetry_multiplicity
 _atom_site_fract_x
 _atom_site_fract_y
 _atom_site_fract_z
 _atom_site_occupancy
  Y  Y0  1  0.998897  0.755842  0.750000  1
  Y  Y1  1  0.999936  0.243343  0.250000  1
  Y  Y2  1  0.756593  0.756657  0.250000  1
  Y  Y3  1  0.757491  0.000000  0.750000  1
  Y  Y4  1  0.243055  0.244158  0.750000  1
  Y  Y5  1  0.243008  0.000000  0.250000  1
  Ho  Ho6  1  0.333201  0.665862  0.499348  1
  Ho  Ho7  1  0.667340  0.334138  0.000652  1
  Ho  Ho8  1  0.667340  0.334138  0.499348  1
  Ho  Ho9  1  0.333201  0.665862  0.000652  1
  Si  Si10  1  0.394719  0.394681  0.250000  1
  Si  Si11  1  0.000038  0.605319  0.250000  1
  Si  Si12  1  0.999967  0.394715  0.750000  1
  Si  Si13  1  0.605252  0.605285  0.750000  1
  Si  Si14  1  0.605416  0.000000  0.250000  1
  Ge  Ge15  1  0.394544  0.000000  0.750000  1
