# generated using pymatgen
data_NaCe2(AsO4)3
_symmetry_space_group_name_H-M   'P 1'
_cell_length_a   9.81077266
_cell_length_b   9.81077320
_cell_length_c   9.81077200
_cell_angle_alpha   58.53760201
_cell_angle_beta   58.53760008
_cell_angle_gamma   58.53760659
_symmetry_Int_Tables_number   1
_chemical_formula_structural   NaCe2(AsO4)3
_chemical_formula_sum   'Na2 Ce4 As6 O24'
_cell_volume   645.38745901
_cell_formula_units_Z   2
loop_
 _symmetry_equiv_pos_site_id
 _symmetry_equiv_pos_as_xyz
  1  'x, y, z'
loop_
 _atom_site_type_symbol
 _atom_site_label
 _atom_site_symmetry_multiplicity
 _atom_site_fract_x
 _atom_site_fract_y
 _atom_site_fract_z
 _atom_site_occupancy
  Na  Na0  1  0.000000  0.000000  0.000000  1
  Na  Na1  1  0.500000  0.500000  0.500000  1
  Ce  Ce2  1  0.856151  0.856151  0.856151  1
  Ce  Ce3  1  0.643849  0.643849  0.643849  1
  Ce  Ce4  1  0.356151  0.356151  0.356151  1
  Ce  Ce5  1  0.143849  0.143849  0.143849  1
  As  As6  1  0.750000  0.046725  0.453275  1
  As  As7  1  0.953275  0.546725  0.250000  1
  As  As8  1  0.046725  0.453275  0.750000  1
  As  As9  1  0.250000  0.953275  0.546725  1
  As  As10  1  0.453275  0.750000  0.046725  1
  As  As11  1  0.546725  0.250000  0.953275  1
  O  O12  1  0.885140  0.497006  0.694463  1
  O  O13  1  0.263087  0.914958  0.063295  1
  O  O14  1  0.805537  0.002994  0.614860  1
  O  O15  1  0.585042  0.236913  0.436705  1
  O  O16  1  0.114860  0.502994  0.305537  1
  O  O17  1  0.914958  0.063295  0.263087  1
  O  O18  1  0.736913  0.085042  0.936705  1
  O  O19  1  0.763087  0.563295  0.414958  1
  O  O20  1  0.414958  0.763087  0.563295  1
  O  O21  1  0.497006  0.694463  0.885140  1
  O  O22  1  0.085042  0.936705  0.736913  1
  O  O23  1  0.194463  0.997006  0.385140  1
  O  O24  1  0.997006  0.385140  0.194463  1
  O  O25  1  0.385140  0.194463  0.997006  1
  O  O26  1  0.936705  0.736913  0.085042  1
  O  O27  1  0.502994  0.305537  0.114860  1
  O  O28  1  0.236913  0.436705  0.585042  1
  O  O29  1  0.614860  0.805537  0.002994  1
  O  O30  1  0.002994  0.614860  0.805537  1
  O  O31  1  0.436705  0.585042  0.236913  1
  O  O32  1  0.563295  0.414958  0.763087  1
  O  O33  1  0.694463  0.885140  0.497006  1
  O  O34  1  0.305537  0.114860  0.502994  1
  O  O35  1  0.063295  0.263087  0.914958  1
