# generated using pymatgen
data_Er4Tm8GaCo4Os
_symmetry_space_group_name_H-M   'P 1'
_cell_length_a   8.12179964
_cell_length_b   8.11731961
_cell_length_c   8.11832230
_cell_angle_alpha   111.30353950
_cell_angle_beta   110.58387777
_cell_angle_gamma   106.57012510
_symmetry_Int_Tables_number   1
_chemical_formula_structural   Er4Tm8GaCo4Os
_chemical_formula_sum   'Er4 Tm8 Ga1 Co4 Os1'
_cell_volume   411.18299157
_cell_formula_units_Z   1
loop_
 _symmetry_equiv_pos_site_id
 _symmetry_equiv_pos_as_xyz
  1  'x, y, z'
loop_
 _atom_site_type_symbol
 _atom_site_label
 _atom_site_symmetry_multiplicity
 _atom_site_fract_x
 _atom_site_fract_y
 _atom_site_fract_z
 _atom_site_occupancy
  Er  Er0  1  0.578189  0.270956  0.306472  1
  Er  Er1  1  0.180782  0.223667  0.405397  1
  Er  Er2  1  0.181559  0.775722  0.957417  1
  Er  Er3  1  0.683414  0.487256  0.804398  1
  Tm  Tm4  1  0.682739  0.878130  0.195949  1
  Tm  Tm5  1  0.964371  0.270679  0.693212  1
  Tm  Tm6  1  0.036008  0.728776  0.307638  1
  Tm  Tm7  1  0.316842  0.121379  0.804084  1
  Tm  Tm8  1  0.317149  0.513177  0.195500  1
  Tm  Tm9  1  0.819003  0.223974  0.042885  1
  Tm  Tm10  1  0.819014  0.776439  0.594518  1
  Tm  Tm11  1  0.421859  0.729358  0.692909  1
  Ga  Ga12  1  0.499948  0.999471  0.500032  1
  Co  Co13  1  0.886546  0.887110  0.999755  1
  Co  Co14  1  0.371348  0.499925  0.871951  1
  Co  Co15  1  0.628375  0.500250  0.128648  1
  Co  Co16  1  0.112360  0.113198  0.999107  1
  Os  Os17  1  0.000493  0.500531  0.500126  1
