# generated using pymatgen
data_Tb5Er11In5Co2Hg
_symmetry_space_group_name_H-M   'P 1'
_cell_length_a   10.28147101
_cell_length_b   10.29284041
_cell_length_c   7.04257127
_cell_angle_alpha   90.06013647
_cell_angle_beta   89.99697640
_cell_angle_gamma   119.96875485
_symmetry_Int_Tables_number   1
_chemical_formula_structural   Tb5Er11In5Co2Hg
_chemical_formula_sum   'Tb5 Er11 In5 Co2 Hg1'
_cell_volume   645.63746512
_cell_formula_units_Z   1
loop_
 _symmetry_equiv_pos_site_id
 _symmetry_equiv_pos_as_xyz
  1  'x, y, z'
loop_
 _atom_site_type_symbol
 _atom_site_label
 _atom_site_symmetry_multiplicity
 _atom_site_fract_x
 _atom_site_fract_y
 _atom_site_fract_z
 _atom_site_occupancy
  Tb  Tb0  1  0.533716  0.067681  0.791509  1
  Tb  Tb1  1  0.927644  0.468425  0.791520  1
  Tb  Tb2  1  0.540494  0.468769  0.792201  1
  Tb  Tb3  1  0.464797  0.929279  0.287878  1
  Tb  Tb4  1  0.072071  0.533815  0.292706  1
  Er  Er5  1  0.461511  0.534165  0.293442  1
  Er  Er6  1  0.821717  0.644193  0.481989  1
  Er  Er7  1  0.357427  0.179048  0.497439  1
  Er  Er8  1  0.821223  0.177829  0.497927  1
  Er  Er9  1  0.178368  0.356464  0.995475  1
  Er  Er10  1  0.648383  0.819421  0.001472  1
  Er  Er11  1  0.171305  0.820025  0.000936  1
  Er  Er12  1  0.667776  0.336497  0.181007  1
  Er  Er13  1  0.334151  0.667326  0.684797  1
  Er  Er14  1  0.999074  0.998344  0.777971  1
  Er  Er15  1  0.001752  0.003484  0.278997  1
  In  In16  1  0.326191  0.163111  0.041008  1
  In  In17  1  0.836158  0.162562  0.040863  1
  In  In18  1  0.162927  0.325381  0.544223  1
  In  In19  1  0.673317  0.836044  0.541904  1
  In  In20  1  0.163597  0.837610  0.542805  1
  Co  Co21  1  0.666851  0.333612  0.564047  1
  Co  Co22  1  0.334007  0.665979  0.065613  1
  Hg  Hg23  1  0.835545  0.670933  0.048178  1
