# generated using pymatgen
data_Tb4HoZn2Bi
_symmetry_space_group_name_H-M   'P 1'
_cell_length_a   8.63401644
_cell_length_b   8.63401700
_cell_length_c   8.63401684
_cell_angle_alpha   123.23401765
_cell_angle_beta   123.23401240
_cell_angle_gamma   84.48422766
_symmetry_Int_Tables_number   1
_chemical_formula_structural   Tb4HoZn2Bi
_chemical_formula_sum   'Tb8 Ho2 Zn4 Bi2'
_cell_volume   430.68877014
_cell_formula_units_Z   2
loop_
 _symmetry_equiv_pos_site_id
 _symmetry_equiv_pos_as_xyz
  1  'x, y, z'
loop_
 _atom_site_type_symbol
 _atom_site_label
 _atom_site_symmetry_multiplicity
 _atom_site_fract_x
 _atom_site_fract_y
 _atom_site_fract_z
 _atom_site_occupancy
  Tb  Tb0  1  0.509356  0.009356  0.803763  1
  Tb  Tb1  1  0.205594  0.705594  0.196237  1
  Tb  Tb2  1  0.009356  0.205594  0.500000  1
  Tb  Tb3  1  0.705594  0.509356  0.500000  1
  Tb  Tb4  1  0.490644  0.990644  0.196237  1
  Tb  Tb5  1  0.794406  0.294406  0.803763  1
  Tb  Tb6  1  0.990644  0.794406  0.500000  1
  Tb  Tb7  1  0.294406  0.490644  0.500000  1
  Ho  Ho8  1  0.500000  0.500000  0.000000  1
  Ho  Ho9  1  0.000000  0.000000  0.000000  1
  Zn  Zn10  1  0.140813  0.640813  0.781625  1
  Zn  Zn11  1  0.859187  0.359187  0.218375  1
  Zn  Zn12  1  0.640813  0.859187  0.500000  1
  Zn  Zn13  1  0.359187  0.140813  0.500000  1
  Bi  Bi14  1  0.250000  0.250000  0.000000  1
  Bi  Bi15  1  0.750000  0.750000  0.000000  1
