# generated using pymatgen
data_Y6Pb5
_symmetry_space_group_name_H-M   'P 1'
_cell_length_a   11.78751728
_cell_length_b   11.78751741
_cell_length_c   11.78751709
_cell_angle_alpha   146.83896929
_cell_angle_beta   132.77957400
_cell_angle_gamma   58.91452650
_symmetry_Int_Tables_number   1
_chemical_formula_structural   Y6Pb5
_chemical_formula_sum   'Y12 Pb10'
_cell_volume   651.95807760
_cell_formula_units_Z   2
loop_
 _symmetry_equiv_pos_site_id
 _symmetry_equiv_pos_as_xyz
  1  'x, y, z'
loop_
 _atom_site_type_symbol
 _atom_site_label
 _atom_site_symmetry_multiplicity
 _atom_site_fract_x
 _atom_site_fract_y
 _atom_site_fract_z
 _atom_site_occupancy
  Y  Y0  1  0.696587  0.946587  0.250000  1
  Y  Y1  1  0.250353  0.637056  0.613296  1
  Y  Y2  1  0.682018  0.941588  0.740429  1
  Y  Y3  1  0.023761  0.137056  0.886704  1
  Y  Y4  1  0.976239  0.862944  0.113296  1
  Y  Y5  1  0.798841  0.558412  0.240429  1
  Y  Y6  1  0.201159  0.441588  0.759571  1
  Y  Y7  1  0.303413  0.053413  0.750000  1
  Y  Y8  1  0.317982  0.058412  0.259571  1
  Y  Y9  1  0.303413  0.553413  0.250000  1
  Y  Y10  1  0.749647  0.362944  0.386704  1
  Y  Y11  1  0.696587  0.446587  0.750000  1
  Pb  Pb12  1  0.482190  0.574038  0.908153  1
  Pb  Pb13  1  0.599403  0.794886  0.804517  1
  Pb  Pb14  1  0.665885  0.074038  0.591847  1
  Pb  Pb15  1  0.000000  0.750000  0.750000  1
  Pb  Pb16  1  0.990369  0.294886  0.695483  1
  Pb  Pb17  1  0.517810  0.425962  0.091847  1
  Pb  Pb18  1  0.009631  0.705114  0.304517  1
  Pb  Pb19  1  0.400597  0.205114  0.195483  1
  Pb  Pb20  1  0.334115  0.925962  0.408153  1
  Pb  Pb21  1  0.000000  0.250000  0.250000  1
