# generated using pymatgen
data_DyFe3P3Rh2
_symmetry_space_group_name_H-M   'P 1'
_cell_length_a   3.76292900
_cell_length_b   10.34652400
_cell_length_c   12.16843100
_cell_angle_alpha   90.00000000
_cell_angle_beta   90.00000000
_cell_angle_gamma   90.00000000
_symmetry_Int_Tables_number   1
_chemical_formula_structural   DyFe3P3Rh2
_chemical_formula_sum   'Dy4 Fe12 P12 Rh8'
_cell_volume   473.75638625
_cell_formula_units_Z   4
loop_
 _symmetry_equiv_pos_site_id
 _symmetry_equiv_pos_as_xyz
  1  'x, y, z'
loop_
 _atom_site_type_symbol
 _atom_site_label
 _atom_site_symmetry_multiplicity
 _atom_site_fract_x
 _atom_site_fract_y
 _atom_site_fract_z
 _atom_site_occupancy
  Dy  Dy0  1  0.250000  0.581147  0.710831  1
  Dy  Dy1  1  0.250000  0.918853  0.210831  1
  Dy  Dy2  1  0.750000  0.418853  0.289169  1
  Dy  Dy3  1  0.750000  0.081147  0.789169  1
  Fe  Fe4  1  0.250000  0.223996  0.171210  1
  Fe  Fe5  1  0.250000  0.276004  0.671210  1
  Fe  Fe6  1  0.750000  0.776004  0.828790  1
  Fe  Fe7  1  0.750000  0.723996  0.328790  1
  Fe  Fe8  1  0.250000  0.877811  0.697094  1
  Fe  Fe9  1  0.250000  0.622189  0.197094  1
  Fe  Fe10  1  0.750000  0.122189  0.302906  1
  Fe  Fe11  1  0.750000  0.377811  0.802906  1
  Fe  Fe12  1  0.250000  0.459256  0.935483  1
  Fe  Fe13  1  0.250000  0.040744  0.435483  1
  Fe  Fe14  1  0.750000  0.540744  0.064517  1
  Fe  Fe15  1  0.750000  0.959256  0.564517  1
  P  P16  1  0.250000  0.429370  0.112798  1
  P  P17  1  0.250000  0.070630  0.612798  1
  P  P18  1  0.750000  0.570630  0.887202  1
  P  P19  1  0.750000  0.929370  0.387202  1
  P  P20  1  0.250000  0.273965  0.853282  1
  P  P21  1  0.250000  0.226035  0.353282  1
  P  P22  1  0.750000  0.726035  0.146718  1
  P  P23  1  0.750000  0.773965  0.646718  1
  P  P24  1  0.250000  0.605985  0.377559  1
  P  P25  1  0.250000  0.894015  0.877559  1
  P  P26  1  0.750000  0.394015  0.622441  1
  P  P27  1  0.750000  0.105985  0.122441  1
  Rh  Rh28  1  0.250000  0.707456  0.984975  1
  Rh  Rh29  1  0.250000  0.792544  0.484975  1
  Rh  Rh30  1  0.750000  0.292544  0.015025  1
  Rh  Rh31  1  0.750000  0.207456  0.515025  1
  Rh  Rh32  1  0.250000  0.404901  0.479312  1
  Rh  Rh33  1  0.250000  0.095099  0.979312  1
  Rh  Rh34  1  0.750000  0.595099  0.520688  1
  Rh  Rh35  1  0.750000  0.904901  0.020688  1
