# generated using pymatgen
data_Be6Co2Mo3Os
_symmetry_space_group_name_H-M   'P 1'
_cell_length_a   4.53066200
_cell_length_b   4.53066303
_cell_length_c   7.15983900
_cell_angle_alpha   90.00000000
_cell_angle_beta   90.00000000
_cell_angle_gamma   120.00000708
_symmetry_Int_Tables_number   1
_chemical_formula_structural   Be6Co2Mo3Os
_chemical_formula_sum   'Be6 Co2 Mo3 Os1'
_cell_volume   127.27915509
_cell_formula_units_Z   1
loop_
 _symmetry_equiv_pos_site_id
 _symmetry_equiv_pos_as_xyz
  1  'x, y, z'
loop_
 _atom_site_type_symbol
 _atom_site_label
 _atom_site_symmetry_multiplicity
 _atom_site_fract_x
 _atom_site_fract_y
 _atom_site_fract_z
 _atom_site_occupancy
  Be  Be0  1  0.832150  0.167850  0.253040  1
  Be  Be1  1  0.832150  0.664298  0.253040  1
  Be  Be2  1  0.335702  0.167850  0.253040  1
  Be  Be3  1  0.168884  0.831116  0.748353  1
  Be  Be4  1  0.168884  0.337769  0.748353  1
  Be  Be5  1  0.662231  0.831116  0.748353  1
  Co  Co6  1  0.000000  0.000000  0.499942  1
  Co  Co7  1  0.000000  0.000000  0.003205  1
  Mo  Mo8  1  0.666667  0.333333  0.566954  1
  Mo  Mo9  1  0.666667  0.333333  0.928307  1
  Mo  Mo10  1  0.333333  0.666667  0.071404  1
  Os  Os11  1  0.333333  0.666667  0.426011  1
