# generated using pymatgen
data_YbTiB6Os
_symmetry_space_group_name_H-M   'P 1'
_cell_length_a   3.47798300
_cell_length_b   8.86048500
_cell_length_c   11.21817100
_cell_angle_alpha   90.00000000
_cell_angle_beta   90.00000000
_cell_angle_gamma   90.00000000
_symmetry_Int_Tables_number   1
_chemical_formula_structural   YbTiB6Os
_chemical_formula_sum   'Yb4 Ti4 B24 Os4'
_cell_volume   345.70607019
_cell_formula_units_Z   4
loop_
 _symmetry_equiv_pos_site_id
 _symmetry_equiv_pos_as_xyz
  1  'x, y, z'
loop_
 _atom_site_type_symbol
 _atom_site_label
 _atom_site_symmetry_multiplicity
 _atom_site_fract_x
 _atom_site_fract_y
 _atom_site_fract_z
 _atom_site_occupancy
  Yb  Yb0  1  0.000000  0.321102  0.414408  1
  Yb  Yb1  1  0.000000  0.678898  0.585592  1
  Yb  Yb2  1  0.000000  0.821102  0.085592  1
  Yb  Yb3  1  0.000000  0.178898  0.914408  1
  Ti  Ti4  1  0.000000  0.946031  0.374675  1
  Ti  Ti5  1  0.000000  0.053969  0.625326  1
  Ti  Ti6  1  0.000000  0.446031  0.125325  1
  Ti  Ti7  1  0.000000  0.553969  0.874674  1
  B  B8  1  0.500000  0.554537  0.432934  1
  B  B9  1  0.500000  0.445463  0.567066  1
  B  B10  1  0.500000  0.054537  0.067066  1
  B  B11  1  0.500000  0.945463  0.932934  1
  B  B12  1  0.500000  0.755688  0.417444  1
  B  B13  1  0.500000  0.244312  0.582556  1
  B  B14  1  0.500000  0.255688  0.082556  1
  B  B15  1  0.500000  0.744312  0.917444  1
  B  B16  1  0.500000  0.796710  0.263341  1
  B  B17  1  0.500000  0.203290  0.736659  1
  B  B18  1  0.500000  0.296709  0.236659  1
  B  B19  1  0.500000  0.703290  0.763341  1
  B  B20  1  0.500000  0.629024  0.180255  1
  B  B21  1  0.500000  0.370976  0.819745  1
  B  B22  1  0.500000  0.129024  0.319745  1
  B  B23  1  0.500000  0.870976  0.680255  1
  B  B24  1  0.500000  0.981616  0.214187  1
  B  B25  1  0.500000  0.018384  0.785813  1
  B  B26  1  0.500000  0.481616  0.285813  1
  B  B27  1  0.500000  0.518384  0.714187  1
  B  B28  1  0.500000  0.596731  0.025397  1
  B  B29  1  0.500000  0.403269  0.974603  1
  B  B30  1  0.500000  0.096731  0.474603  1
  B  B31  1  0.500000  0.903269  0.525397  1
  Os  Os32  1  0.000000  0.642928  0.316304  1
  Os  Os33  1  0.000000  0.357072  0.683696  1
  Os  Os34  1  0.000000  0.142928  0.183696  1
  Os  Os35  1  0.000000  0.857072  0.816304  1
