# generated using pymatgen
data_Na2V3Ni9AsP6
_symmetry_space_group_name_H-M   'P 1'
_cell_length_a   9.17507552
_cell_length_b   9.21532237
_cell_length_c   3.63337000
_cell_angle_alpha   90.00000000
_cell_angle_beta   90.00000000
_cell_angle_gamma   119.98110176
_symmetry_Int_Tables_number   1
_chemical_formula_structural   Na2V3Ni9AsP6
_chemical_formula_sum   'Na2 V3 Ni9 As1 P6'
_cell_volume   266.09891837
_cell_formula_units_Z   1
loop_
 _symmetry_equiv_pos_site_id
 _symmetry_equiv_pos_as_xyz
  1  'x, y, z'
loop_
 _atom_site_type_symbol
 _atom_site_label
 _atom_site_symmetry_multiplicity
 _atom_site_fract_x
 _atom_site_fract_y
 _atom_site_fract_z
 _atom_site_occupancy
  Na  Na0  1  0.337910  0.665498  0.000000  1
  Na  Na1  1  0.666164  0.333636  0.500000  1
  V  V2  1  0.219508  0.123002  0.500000  1
  V  V3  1  0.877949  0.095464  0.500000  1
  V  V4  1  0.898282  0.783087  0.500000  1
  Ni  Ni5  1  0.122241  0.278480  0.000000  1
  Ni  Ni6  1  0.718104  0.842430  0.000000  1
  Ni  Ni7  1  0.158521  0.884777  0.000000  1
  Ni  Ni8  1  0.433720  0.374109  0.000000  1
  Ni  Ni9  1  0.627952  0.060906  0.000000  1
  Ni  Ni10  1  0.931087  0.559816  0.000000  1
  Ni  Ni11  1  0.047456  0.425152  0.500000  1
  Ni  Ni12  1  0.562298  0.614099  0.500000  1
  Ni  Ni13  1  0.394647  0.959284  0.500000  1
  As  As14  1  0.121342  0.707204  0.500000  1
  P  P15  1  0.291181  0.406044  0.500000  1
  P  P16  1  0.593831  0.884546  0.500000  1
  P  P17  1  0.411278  0.118386  0.000000  1
  P  P18  1  0.883044  0.292287  0.000000  1
  P  P19  1  0.704820  0.591332  0.000000  1
  P  P20  1  0.998663  0.000459  0.000000  1
