# generated using pymatgen
data_K3ScSb2
_symmetry_space_group_name_H-M   'P 1'
_cell_length_a   9.71142851
_cell_length_b   9.71142932
_cell_length_c   9.71142962
_cell_angle_alpha   128.25180642
_cell_angle_beta   70.25831470
_cell_angle_gamma   135.94407287
_symmetry_Int_Tables_number   1
_chemical_formula_structural   K3ScSb2
_chemical_formula_sum   'K6 Sc2 Sb4'
_cell_volume   490.41787820
_cell_formula_units_Z   2
loop_
 _symmetry_equiv_pos_site_id
 _symmetry_equiv_pos_as_xyz
  1  'x, y, z'
loop_
 _atom_site_type_symbol
 _atom_site_label
 _atom_site_symmetry_multiplicity
 _atom_site_fract_x
 _atom_site_fract_y
 _atom_site_fract_z
 _atom_site_occupancy
  K  K0  1  0.813945  0.193150  0.007094  1
  K  K1  1  0.686056  0.693150  0.379203  1
  K  K2  1  0.750000  0.250000  0.500000  1
  K  K3  1  0.250000  0.750000  0.499999  1
  K  K4  1  0.313945  0.306851  0.620796  1
  K  K5  1  0.186055  0.806851  0.992906  1
  Sc  Sc6  1  0.250000  0.250000  0.000000  1
  Sc  Sc7  1  0.750000  0.750000  0.000000  1
  Sb  Sb8  1  0.402336  0.693555  0.095892  1
  Sb  Sb9  1  0.097663  0.193556  0.291219  1
  Sb  Sb10  1  0.902336  0.806444  0.708782  1
  Sb  Sb11  1  0.597663  0.306444  0.904107  1
