# generated using pymatgen
data_Sm3ScRuC6
_symmetry_space_group_name_H-M   'P 1'
_cell_length_a   8.55009600
_cell_length_b   8.55009384
_cell_length_c   5.24340400
_cell_angle_alpha   90.00000000
_cell_angle_beta   90.00000000
_cell_angle_gamma   119.99999289
_symmetry_Int_Tables_number   1
_chemical_formula_structural   Sm3ScRuC6
_chemical_formula_sum   'Sm6 Sc2 Ru2 C12'
_cell_volume   331.96007656
_cell_formula_units_Z   2
loop_
 _symmetry_equiv_pos_site_id
 _symmetry_equiv_pos_as_xyz
  1  'x, y, z'
loop_
 _atom_site_type_symbol
 _atom_site_label
 _atom_site_symmetry_multiplicity
 _atom_site_fract_x
 _atom_site_fract_y
 _atom_site_fract_z
 _atom_site_occupancy
  Sm  Sm0  1  0.620199  0.676027  0.750000  1
  Sm  Sm1  1  0.944174  0.620199  0.250000  1
  Sm  Sm2  1  0.676027  0.055826  0.250000  1
  Sm  Sm3  1  0.323973  0.944174  0.750000  1
  Sm  Sm4  1  0.055826  0.379801  0.750000  1
  Sm  Sm5  1  0.379801  0.323973  0.250000  1
  Sc  Sc6  1  0.000000  0.000000  0.500000  1
  Sc  Sc7  1  0.000000  0.000000  0.000000  1
  Ru  Ru8  1  0.666667  0.333333  0.750000  1
  Ru  Ru9  1  0.333333  0.666667  0.250000  1
  C  C10  1  0.964414  0.757754  0.750000  1
  C  C11  1  0.206660  0.964414  0.250000  1
  C  C12  1  0.757754  0.793340  0.250000  1
  C  C13  1  0.242246  0.206660  0.750000  1
  C  C14  1  0.793340  0.035586  0.750000  1
  C  C15  1  0.035586  0.242246  0.250000  1
  C  C16  1  0.870623  0.575805  0.750000  1
  C  C17  1  0.294818  0.870623  0.250000  1
  C  C18  1  0.575805  0.705182  0.250000  1
  C  C19  1  0.424195  0.294818  0.750000  1
  C  C20  1  0.129377  0.424195  0.250000  1
  C  C21  1  0.705182  0.129377  0.750000  1
