# generated using pymatgen
data_Tb3Ho2Er3(CdIr)2
_symmetry_space_group_name_H-M   'P 1'
_cell_length_a   9.60952768
_cell_length_b   9.60952826
_cell_length_c   9.60952900
_cell_angle_alpha   60.00000089
_cell_angle_beta   59.99999891
_cell_angle_gamma   59.99999927
_symmetry_Int_Tables_number   1
_chemical_formula_structural   Tb3Ho2Er3(CdIr)2
_chemical_formula_sum   'Tb6 Ho4 Er6 Cd4 Ir4'
_cell_volume   627.46746410
_cell_formula_units_Z   2
loop_
 _symmetry_equiv_pos_site_id
 _symmetry_equiv_pos_as_xyz
  1  'x, y, z'
loop_
 _atom_site_type_symbol
 _atom_site_label
 _atom_site_symmetry_multiplicity
 _atom_site_fract_x
 _atom_site_fract_y
 _atom_site_fract_z
 _atom_site_occupancy
  Tb  Tb0  1  0.188559  0.811441  0.811441  1
  Tb  Tb1  1  0.811441  0.188559  0.188559  1
  Tb  Tb2  1  0.811441  0.188559  0.811441  1
  Tb  Tb3  1  0.188559  0.811441  0.188559  1
  Tb  Tb4  1  0.811441  0.811441  0.188559  1
  Tb  Tb5  1  0.188559  0.188559  0.811441  1
  Ho  Ho6  1  0.598993  0.598993  0.598993  1
  Ho  Ho7  1  0.598993  0.598993  0.203022  1
  Ho  Ho8  1  0.598993  0.203022  0.598993  1
  Ho  Ho9  1  0.203022  0.598993  0.598993  1
  Er  Er10  1  0.061418  0.438582  0.438582  1
  Er  Er11  1  0.438582  0.061418  0.061418  1
  Er  Er12  1  0.438582  0.061418  0.438582  1
  Er  Er13  1  0.061418  0.438582  0.061418  1
  Er  Er14  1  0.438582  0.438582  0.061418  1
  Er  Er15  1  0.061418  0.061418  0.438582  1
  Cd  Cd16  1  0.830778  0.830778  0.830778  1
  Cd  Cd17  1  0.830778  0.830778  0.507668  1
  Cd  Cd18  1  0.830778  0.507668  0.830778  1
  Cd  Cd19  1  0.507668  0.830778  0.830778  1
  Ir  Ir20  1  0.391502  0.391502  0.391502  1
  Ir  Ir21  1  0.391502  0.391502  0.825494  1
  Ir  Ir22  1  0.391502  0.825494  0.391502  1
  Ir  Ir23  1  0.825494  0.391502  0.391502  1
