# generated using pymatgen
data_NaZrP7Ru12
_symmetry_space_group_name_H-M   'P 1'
_cell_length_a   9.39987800
_cell_length_b   9.39987724
_cell_length_c   3.92573600
_cell_angle_alpha   90.00000000
_cell_angle_beta   90.00000000
_cell_angle_gamma   119.99999373
_symmetry_Int_Tables_number   1
_chemical_formula_structural   NaZrP7Ru12
_chemical_formula_sum   'Na1 Zr1 P7 Ru12'
_cell_volume   300.39738567
_cell_formula_units_Z   1
loop_
 _symmetry_equiv_pos_site_id
 _symmetry_equiv_pos_as_xyz
  1  'x, y, z'
loop_
 _atom_site_type_symbol
 _atom_site_label
 _atom_site_symmetry_multiplicity
 _atom_site_fract_x
 _atom_site_fract_y
 _atom_site_fract_z
 _atom_site_occupancy
  Na  Na0  1  0.333333  0.666667  0.000000  1
  Zr  Zr1  1  0.666667  0.333333  0.500000  1
  P  P2  1  0.602903  0.721060  0.500000  1
  P  P3  1  0.000000  0.000000  0.000000  1
  P  P4  1  0.278940  0.881844  0.500000  1
  P  P5  1  0.118156  0.397097  0.500000  1
  P  P6  1  0.888769  0.571216  0.000000  1
  P  P7  1  0.428784  0.317553  0.000000  1
  P  P8  1  0.682447  0.111231  0.000000  1
  Ru  Ru9  1  0.557588  0.958426  0.500000  1
  Ru  Ru10  1  0.400839  0.442412  0.500000  1
  Ru  Ru11  1  0.915336  0.120246  0.500000  1
  Ru  Ru12  1  0.204911  0.084664  0.500000  1
  Ru  Ru13  1  0.879754  0.795089  0.500000  1
  Ru  Ru14  1  0.726646  0.889480  0.000000  1
  Ru  Ru15  1  0.110520  0.837164  0.000000  1
  Ru  Ru16  1  0.162836  0.273354  0.000000  1
  Ru  Ru17  1  0.424133  0.075241  0.000000  1
  Ru  Ru18  1  0.924759  0.348893  0.000000  1
  Ru  Ru19  1  0.651107  0.575867  0.000000  1
  Ru  Ru20  1  0.041574  0.599161  0.500000  1
