# generated using pymatgen
data_Cu(NiSn)5
_symmetry_space_group_name_H-M   'P 1'
_cell_length_a   6.54291868
_cell_length_b   6.54291811
_cell_length_c   9.62800710
_cell_angle_alpha   80.73914498
_cell_angle_beta   80.73914452
_cell_angle_gamma   65.13405592
_symmetry_Int_Tables_number   1
_chemical_formula_structural   Cu(NiSn)5
_chemical_formula_sum   'Cu2 Ni10 Sn10'
_cell_volume   367.08068136
_cell_formula_units_Z   2
loop_
 _symmetry_equiv_pos_site_id
 _symmetry_equiv_pos_as_xyz
  1  'x, y, z'
loop_
 _atom_site_type_symbol
 _atom_site_label
 _atom_site_symmetry_multiplicity
 _atom_site_fract_x
 _atom_site_fract_y
 _atom_site_fract_z
 _atom_site_occupancy
  Cu  Cu0  1  0.000000  0.000000  0.500000  1
  Cu  Cu1  1  0.000000  0.000000  0.000000  1
  Ni  Ni2  1  0.383306  0.418753  0.699162  1
  Ni  Ni3  1  0.581247  0.616694  0.800838  1
  Ni  Ni4  1  0.616694  0.581247  0.300838  1
  Ni  Ni5  1  0.418753  0.383306  0.199162  1
  Ni  Ni6  1  0.198185  0.188908  0.102867  1
  Ni  Ni7  1  0.811092  0.801815  0.397133  1
  Ni  Ni8  1  0.801815  0.811092  0.897133  1
  Ni  Ni9  1  0.188908  0.198185  0.602867  1
  Ni  Ni10  1  0.156460  0.843540  0.750000  1
  Ni  Ni11  1  0.843540  0.156460  0.250000  1
  Sn  Sn12  1  0.763855  0.457723  0.036767  1
  Sn  Sn13  1  0.542277  0.236145  0.463233  1
  Sn  Sn14  1  0.236145  0.542277  0.963233  1
  Sn  Sn15  1  0.457723  0.763855  0.536767  1
  Sn  Sn16  1  0.373349  0.047244  0.849932  1
  Sn  Sn17  1  0.952756  0.626651  0.650068  1
  Sn  Sn18  1  0.626651  0.952756  0.150068  1
  Sn  Sn19  1  0.047244  0.373349  0.349932  1
  Sn  Sn20  1  0.796997  0.203003  0.750000  1
  Sn  Sn21  1  0.203003  0.796997  0.250000  1
