# generated using pymatgen
data_Tb2Sm4Fe3Co14P12Ru
_symmetry_space_group_name_H-M   'P 1'
_cell_length_a   3.74216200
_cell_length_b   10.64183600
_cell_length_c   12.23368700
_cell_angle_alpha   90.00000000
_cell_angle_beta   90.00000000
_cell_angle_gamma   90.00000000
_symmetry_Int_Tables_number   1
_chemical_formula_structural   Tb2Sm4Fe3Co14P12Ru
_chemical_formula_sum   'Tb2 Sm4 Fe3 Co14 P12 Ru1'
_cell_volume   487.18791971
_cell_formula_units_Z   1
loop_
 _symmetry_equiv_pos_site_id
 _symmetry_equiv_pos_as_xyz
  1  'x, y, z'
loop_
 _atom_site_type_symbol
 _atom_site_label
 _atom_site_symmetry_multiplicity
 _atom_site_fract_x
 _atom_site_fract_y
 _atom_site_fract_z
 _atom_site_occupancy
  Tb  Tb0  1  0.000000  0.680911  0.795903  1
  Tb  Tb1  1  0.000000  0.319089  0.795903  1
  Sm  Sm2  1  0.000000  0.500000  0.525075  1
  Sm  Sm3  1  0.500000  0.000000  0.479208  1
  Sm  Sm4  1  0.500000  0.818655  0.204419  1
  Sm  Sm5  1  0.500000  0.181345  0.204419  1
  Fe  Fe6  1  0.000000  0.000000  0.844998  1
  Fe  Fe7  1  0.000000  0.500000  0.987761  1
  Fe  Fe8  1  0.500000  0.000000  0.010204  1
  Co  Co9  1  0.500000  0.500000  0.702876  1
  Co  Co10  1  0.000000  0.000000  0.297789  1
  Co  Co11  1  0.500000  0.332136  0.991224  1
  Co  Co12  1  0.500000  0.667864  0.991224  1
  Co  Co13  1  0.000000  0.168592  0.003483  1
  Co  Co14  1  0.000000  0.831408  0.003483  1
  Co  Co15  1  0.500000  0.297193  0.430350  1
  Co  Co16  1  0.500000  0.702807  0.430350  1
  Co  Co17  1  0.000000  0.204454  0.570498  1
  Co  Co18  1  0.000000  0.795546  0.570498  1
  Co  Co19  1  0.500000  0.878825  0.710905  1
  Co  Co20  1  0.500000  0.121175  0.710905  1
  Co  Co21  1  0.000000  0.619488  0.290664  1
  Co  Co22  1  0.000000  0.380512  0.290664  1
  P  P23  1  0.500000  0.500000  0.883648  1
  P  P24  1  0.000000  0.000000  0.112058  1
  P  P25  1  0.500000  0.500000  0.345926  1
  P  P26  1  0.000000  0.000000  0.661364  1
  P  P27  1  0.500000  0.308171  0.617530  1
  P  P28  1  0.500000  0.691829  0.617530  1
  P  P29  1  0.000000  0.191444  0.385318  1
  P  P30  1  0.000000  0.808556  0.385318  1
  P  P31  1  0.500000  0.847769  0.893502  1
  P  P32  1  0.500000  0.152231  0.893502  1
  P  P33  1  0.000000  0.653658  0.102801  1
  P  P34  1  0.000000  0.346342  0.102801  1
  Ru  Ru35  1  0.500000  0.500000  0.155900  1
