# generated using pymatgen
data_Ho10CoAu3
_symmetry_space_group_name_H-M   'P 1'
_cell_length_a   9.36789500
_cell_length_b   9.36789557
_cell_length_c   9.45009800
_cell_angle_alpha   90.00000000
_cell_angle_beta   90.00000000
_cell_angle_gamma   119.99999445
_symmetry_Int_Tables_number   1
_chemical_formula_structural   Ho10CoAu3
_chemical_formula_sum   'Ho20 Co2 Au6'
_cell_volume   718.20929833
_cell_formula_units_Z   2
loop_
 _symmetry_equiv_pos_site_id
 _symmetry_equiv_pos_as_xyz
  1  'x, y, z'
loop_
 _atom_site_type_symbol
 _atom_site_label
 _atom_site_symmetry_multiplicity
 _atom_site_fract_x
 _atom_site_fract_y
 _atom_site_fract_z
 _atom_site_occupancy
  Ho  Ho0  1  0.000000  0.000000  0.500000  1
  Ho  Ho1  1  0.000000  0.000000  0.000000  1
  Ho  Ho2  1  0.542970  0.457030  0.250000  1
  Ho  Ho3  1  0.542970  0.085940  0.250000  1
  Ho  Ho4  1  0.914060  0.457030  0.250000  1
  Ho  Ho5  1  0.457030  0.542970  0.750000  1
  Ho  Ho6  1  0.457030  0.914060  0.750000  1
  Ho  Ho7  1  0.085940  0.542970  0.750000  1
  Ho  Ho8  1  0.209338  0.790662  0.437157  1
  Ho  Ho9  1  0.209338  0.418677  0.437157  1
  Ho  Ho10  1  0.581323  0.790662  0.437157  1
  Ho  Ho11  1  0.790662  0.209338  0.562843  1
  Ho  Ho12  1  0.790662  0.581323  0.562843  1
  Ho  Ho13  1  0.418677  0.209338  0.562843  1
  Ho  Ho14  1  0.790662  0.209338  0.937157  1
  Ho  Ho15  1  0.790662  0.581323  0.937157  1
  Ho  Ho16  1  0.418677  0.209338  0.937157  1
  Ho  Ho17  1  0.209338  0.790662  0.062843  1
  Ho  Ho18  1  0.209338  0.418677  0.062843  1
  Ho  Ho19  1  0.581323  0.790662  0.062843  1
  Co  Co20  1  0.333333  0.666667  0.250000  1
  Co  Co21  1  0.666667  0.333333  0.750000  1
  Au  Au22  1  0.880417  0.119583  0.250000  1
  Au  Au23  1  0.880417  0.760834  0.250000  1
  Au  Au24  1  0.239166  0.119583  0.250000  1
  Au  Au25  1  0.119583  0.880417  0.750000  1
  Au  Au26  1  0.119583  0.239166  0.750000  1
  Au  Au27  1  0.760834  0.880417  0.750000  1
