# generated using pymatgen
data_Ti3Nb3Ga4(AuC)2
_symmetry_space_group_name_H-M   'P 1'
_cell_length_a   8.39907046
_cell_length_b   8.39904963
_cell_length_c   8.39981900
_cell_angle_alpha   59.99676885
_cell_angle_beta   59.99703265
_cell_angle_gamma   60.03653069
_symmetry_Int_Tables_number   1
_chemical_formula_structural   Ti3Nb3Ga4(AuC)2
_chemical_formula_sum   'Ti6 Nb6 Ga8 Au4 C4'
_cell_volume   419.09810951
_cell_formula_units_Z   2
loop_
 _symmetry_equiv_pos_site_id
 _symmetry_equiv_pos_as_xyz
  1  'x, y, z'
loop_
 _atom_site_type_symbol
 _atom_site_label
 _atom_site_symmetry_multiplicity
 _atom_site_fract_x
 _atom_site_fract_y
 _atom_site_fract_z
 _atom_site_occupancy
  Ti  Ti0  1  0.570550  0.929400  0.569898  1
  Ti  Ti1  1  0.570540  0.929417  0.930156  1
  Ti  Ti2  1  0.929389  0.570513  0.569969  1
  Ti  Ti3  1  0.929377  0.570520  0.930128  1
  Ti  Ti4  1  0.320969  0.321007  0.679012  1
  Ti  Ti5  1  0.570084  0.569991  0.929962  1
  Nb  Nb6  1  0.930298  0.930281  0.569711  1
  Nb  Nb7  1  0.681959  0.318625  0.320115  1
  Nb  Nb8  1  0.318602  0.681946  0.679309  1
  Nb  Nb9  1  0.678302  0.678286  0.321704  1
  Nb  Nb10  1  0.681961  0.318622  0.679300  1
  Nb  Nb11  1  0.318601  0.681948  0.320139  1
  Ga  Ga12  1  0.907874  0.273125  0.909504  1
  Ga  Ga13  1  0.338374  0.338393  0.983177  1
  Ga  Ga14  1  0.988890  0.336300  0.337402  1
  Ga  Ga15  1  0.338374  0.338393  0.340056  1
  Ga  Ga16  1  0.273082  0.907880  0.909520  1
  Ga  Ga17  1  0.909330  0.909325  0.911805  1
  Ga  Ga18  1  0.909331  0.909329  0.269540  1
  Ga  Ga19  1  0.336292  0.988901  0.337403  1
  Au  Au20  1  0.125719  0.625204  0.124540  1
  Au  Au21  1  0.126277  0.126287  0.628671  1
  Au  Au22  1  0.625184  0.125729  0.124543  1
  Au  Au23  1  0.126282  0.126284  0.118766  1
  C  C24  1  0.617667  0.122049  0.630140  1
  C  C25  1  0.627336  0.627303  0.115920  1
  C  C26  1  0.122014  0.617647  0.630169  1
  C  C27  1  0.627344  0.627294  0.629440  1
