# generated using pymatgen
data_Th2SiTc8Ge3
_symmetry_space_group_name_H-M   'P 1'
_cell_length_a   4.18783400
_cell_length_b   7.32273648
_cell_length_c   15.79376148
_cell_angle_alpha   89.55835170
_cell_angle_beta   90.00000000
_cell_angle_gamma   90.00000000
_symmetry_Int_Tables_number   1
_chemical_formula_structural   Th2SiTc8Ge3
_chemical_formula_sum   'Th4 Si2 Tc16 Ge6'
_cell_volume   484.32349433
_cell_formula_units_Z   2
loop_
 _symmetry_equiv_pos_site_id
 _symmetry_equiv_pos_as_xyz
  1  'x, y, z'
loop_
 _atom_site_type_symbol
 _atom_site_label
 _atom_site_symmetry_multiplicity
 _atom_site_fract_x
 _atom_site_fract_y
 _atom_site_fract_z
 _atom_site_occupancy
  Th  Th0  1  0.000000  0.595211  0.119839  1
  Th  Th1  1  0.000000  0.404789  0.880161  1
  Th  Th2  1  0.500000  0.093444  0.379737  1
  Th  Th3  1  0.500000  0.906556  0.620263  1
  Si  Si4  1  0.500000  0.811876  0.225866  1
  Si  Si5  1  0.500000  0.188124  0.774134  1
  Tc  Tc6  1  0.000000  0.135775  0.051231  1
  Tc  Tc7  1  0.000000  0.864225  0.948769  1
  Tc  Tc8  1  0.500000  0.637154  0.448912  1
  Tc  Tc9  1  0.500000  0.362846  0.551088  1
  Tc  Tc10  1  0.000000  0.731472  0.318609  1
  Tc  Tc11  1  0.000000  0.268528  0.681391  1
  Tc  Tc12  1  0.500000  0.225428  0.180251  1
  Tc  Tc13  1  0.500000  0.774572  0.819749  1
  Tc  Tc14  1  0.000000  0.434132  0.421631  1
  Tc  Tc15  1  0.000000  0.565868  0.578369  1
  Tc  Tc16  1  0.500000  0.930079  0.079178  1
  Tc  Tc17  1  0.500000  0.069921  0.920822  1
  Tc  Tc18  1  0.000000  0.999096  0.204671  1
  Tc  Tc19  1  0.000000  0.000904  0.795329  1
  Tc  Tc20  1  0.500000  0.511729  0.295216  1
  Tc  Tc21  1  0.500000  0.488271  0.704784  1
  Ge  Ge22  1  0.000000  0.830830  0.472505  1
  Ge  Ge23  1  0.000000  0.169170  0.527495  1
  Ge  Ge24  1  0.500000  0.330871  0.027983  1
  Ge  Ge25  1  0.500000  0.669129  0.972017  1
  Ge  Ge26  1  0.000000  0.309847  0.272208  1
  Ge  Ge27  1  0.000000  0.690153  0.727792  1
