# generated using pymatgen
data_Hf16Ta2IrPt5
_symmetry_space_group_name_H-M   'P 1'
_cell_length_a   8.78157566
_cell_length_b   8.88773193
_cell_length_c   8.88773200
_cell_angle_alpha   60.35175829
_cell_angle_beta   60.42802195
_cell_angle_gamma   60.42803062
_symmetry_Int_Tables_number   1
_chemical_formula_structural   Hf16Ta2IrPt5
_chemical_formula_sum   'Hf16 Ta2 Ir1 Pt5'
_cell_volume   494.96559500
_cell_formula_units_Z   1
loop_
 _symmetry_equiv_pos_site_id
 _symmetry_equiv_pos_as_xyz
  1  'x, y, z'
loop_
 _atom_site_type_symbol
 _atom_site_label
 _atom_site_symmetry_multiplicity
 _atom_site_fract_x
 _atom_site_fract_y
 _atom_site_fract_z
 _atom_site_occupancy
  Hf  Hf0  1  0.165573  0.612538  0.612538  1
  Hf  Hf1  1  0.613836  0.155595  0.618273  1
  Hf  Hf2  1  0.613836  0.618273  0.155595  1
  Hf  Hf3  1  0.609123  0.611998  0.611998  1
  Hf  Hf4  1  0.817635  0.817454  0.185555  1
  Hf  Hf5  1  0.175659  0.187070  0.818978  1
  Hf  Hf6  1  0.817635  0.185555  0.817454  1
  Hf  Hf7  1  0.175659  0.818978  0.187070  1
  Hf  Hf8  1  0.177060  0.818428  0.818428  1
  Hf  Hf9  1  0.818070  0.182436  0.182436  1
  Hf  Hf10  1  0.452288  0.446122  0.051648  1
  Hf  Hf11  1  0.047069  0.047730  0.451418  1
  Hf  Hf12  1  0.452288  0.051648  0.446122  1
  Hf  Hf13  1  0.047069  0.451418  0.047730  1
  Hf  Hf14  1  0.040301  0.459718  0.459718  1
  Hf  Hf15  1  0.454226  0.047346  0.047346  1
  Ta  Ta16  1  0.836012  0.493858  0.835130  1
  Ta  Ta17  1  0.836012  0.835130  0.493858  1
  Ir  Ir18  1  0.843968  0.833052  0.833052  1
  Pt  Pt19  1  0.812735  0.394283  0.394283  1
  Pt  Pt20  1  0.397800  0.816076  0.389378  1
  Pt  Pt21  1  0.397800  0.389378  0.816076  1
  Pt  Pt22  1  0.399175  0.394481  0.394481  1
  Pt  Pt23  1  0.499178  0.831433  0.831433  1
