# generated using pymatgen
data_LiMnCr(NiAs)3
_symmetry_space_group_name_H-M   'P 1'
_cell_length_a   6.21229773
_cell_length_b   6.15583060
_cell_length_c   3.65700900
_cell_angle_alpha   90.00000000
_cell_angle_beta   90.00000000
_cell_angle_gamma   120.57690384
_symmetry_Int_Tables_number   1
_chemical_formula_structural   LiMnCr(NiAs)3
_chemical_formula_sum   'Li1 Mn1 Cr1 Ni3 As3'
_cell_volume   120.40414696
_cell_formula_units_Z   1
loop_
 _symmetry_equiv_pos_site_id
 _symmetry_equiv_pos_as_xyz
  1  'x, y, z'
loop_
 _atom_site_type_symbol
 _atom_site_label
 _atom_site_symmetry_multiplicity
 _atom_site_fract_x
 _atom_site_fract_y
 _atom_site_fract_z
 _atom_site_occupancy
  Li  Li0  1  0.417522  0.417078  0.500000  1
  Mn  Mn1  1  0.999973  0.586783  0.500000  1
  Cr  Cr2  1  0.588644  0.000323  0.500000  1
  Ni  Ni3  1  0.743220  0.744523  0.000000  1
  Ni  Ni4  1  0.247867  0.002054  0.000000  1
  Ni  Ni5  1  0.002737  0.250546  0.000000  1
  As  As6  1  0.670828  0.330153  0.000000  1
  As  As7  1  0.333509  0.672947  0.000000  1
  As  As8  1  0.995699  0.995591  0.500000  1
