# generated using pymatgen
data_HoNp7F30
_symmetry_space_group_name_H-M   'P 1'
_cell_length_a   8.65410276
_cell_length_b   8.66573134
_cell_length_c   8.65410328
_cell_angle_alpha   100.65514991
_cell_angle_beta   99.97533797
_cell_angle_gamma   100.65514298
_symmetry_Int_Tables_number   1
_chemical_formula_structural   HoNp7F30
_chemical_formula_sum   'Ho1 Np7 F30'
_cell_volume   612.19461699
_cell_formula_units_Z   1
loop_
 _symmetry_equiv_pos_site_id
 _symmetry_equiv_pos_as_xyz
  1  'x, y, z'
loop_
 _atom_site_type_symbol
 _atom_site_label
 _atom_site_symmetry_multiplicity
 _atom_site_fract_x
 _atom_site_fract_y
 _atom_site_fract_z
 _atom_site_occupancy
  Ho  Ho0  1  0.823743  0.250000  0.676257  1
  Np  Np1  1  0.250640  0.250000  0.249360  1
  Np  Np2  1  0.177255  0.750000  0.322745  1
  Np  Np3  1  0.246318  0.675478  0.822662  1
  Np  Np4  1  0.677338  0.824522  0.253682  1
  Np  Np5  1  0.749676  0.750000  0.750324  1
  Np  Np6  1  0.324042  0.179174  0.747821  1
  Np  Np7  1  0.752179  0.320826  0.175958  1
  F  F8  1  0.968818  0.530239  0.251851  1
  F  F9  1  0.815734  0.335506  0.443172  1
  F  F10  1  0.487318  0.716436  0.717553  1
  F  F11  1  0.343463  0.449295  0.826045  1
  F  F12  1  0.012875  0.784768  0.784066  1
  F  F13  1  0.752915  0.031047  0.466826  1
  F  F14  1  0.946136  0.838588  0.322395  1
  F  F15  1  0.218511  0.219020  0.989689  1
  F  F16  1  0.780914  0.007644  0.777028  1
  F  F17  1  0.323614  0.946601  0.837945  1
  F  F18  1  0.282707  0.286234  0.512053  1
  F  F19  1  0.446958  0.825204  0.343183  1
  F  F20  1  0.529420  0.250000  0.970580  1
  F  F21  1  0.283519  0.512363  0.280975  1
  F  F22  1  0.156817  0.674796  0.053042  1
  F  F23  1  0.839084  0.318584  0.945568  1
  F  F24  1  0.722972  0.492356  0.719086  1
  F  F25  1  0.465173  0.750000  0.034827  1
  F  F26  1  0.554432  0.181416  0.660916  1
  F  F27  1  0.715934  0.715232  0.487125  1
  F  F28  1  0.673955  0.050705  0.156537  1
  F  F29  1  0.219025  0.987637  0.216481  1
  F  F30  1  0.782447  0.783564  0.012682  1
  F  F31  1  0.056828  0.164494  0.684266  1
  F  F32  1  0.248149  0.969761  0.531182  1
  F  F33  1  0.987947  0.213766  0.217293  1
  F  F34  1  0.662055  0.553399  0.176386  1
  F  F35  1  0.510311  0.280980  0.281489  1
  F  F36  1  0.177605  0.661412  0.553864  1
  F  F37  1  0.033174  0.468953  0.747085  1
