# generated using pymatgen
data_HoTm8LuRu4
_symmetry_space_group_name_H-M   'P 1'
_cell_length_a   6.24721055
_cell_length_b   7.22359625
_cell_length_c   8.34884149
_cell_angle_alpha   96.91026081
_cell_angle_beta   112.01487471
_cell_angle_gamma   89.95452250
_symmetry_Int_Tables_number   1
_chemical_formula_structural   HoTm8LuRu4
_chemical_formula_sum   'Ho1 Tm8 Lu1 Ru4'
_cell_volume   346.35063203
_cell_formula_units_Z   1
loop_
 _symmetry_equiv_pos_site_id
 _symmetry_equiv_pos_as_xyz
  1  'x, y, z'
loop_
 _atom_site_type_symbol
 _atom_site_label
 _atom_site_symmetry_multiplicity
 _atom_site_fract_x
 _atom_site_fract_y
 _atom_site_fract_z
 _atom_site_occupancy
  Ho  Ho0  1  0.523031  0.083276  0.813654  1
  Tm  Tm1  1  0.477653  0.915642  0.186437  1
  Tm  Tm2  1  0.708856  0.416744  0.186420  1
  Tm  Tm3  1  0.291320  0.584116  0.813774  1
  Tm  Tm4  1  0.296547  0.314383  0.434190  1
  Tm  Tm5  1  0.703228  0.685936  0.565923  1
  Tm  Tm6  1  0.862203  0.185760  0.565236  1
  Tm  Tm7  1  0.137242  0.813810  0.433885  1
  Tm  Tm8  1  0.080774  0.250413  0.000392  1
  Lu  Lu9  1  0.920792  0.749632  0.999972  1
  Ru  Ru10  1  0.322173  0.576827  0.220203  1
  Ru  Ru11  1  0.677684  0.424582  0.780150  1
  Ru  Ru12  1  0.101021  0.923174  0.779607  1
  Ru  Ru13  1  0.897478  0.075705  0.220156  1
