# generated using pymatgen
data_Cs5(CdAg)3
_symmetry_space_group_name_H-M   'P 1'
_cell_length_a   18.89763912
_cell_length_b   18.89763933
_cell_length_c   5.92048700
_cell_angle_alpha   90.00000000
_cell_angle_beta   90.00000000
_cell_angle_gamma   165.48574001
_symmetry_Int_Tables_number   1
_chemical_formula_structural   Cs5(CdAg)3
_chemical_formula_sum   'Cs5 Cd3 Ag3'
_cell_volume   529.89511414
_cell_formula_units_Z   1
loop_
 _symmetry_equiv_pos_site_id
 _symmetry_equiv_pos_as_xyz
  1  'x, y, z'
loop_
 _atom_site_type_symbol
 _atom_site_label
 _atom_site_symmetry_multiplicity
 _atom_site_fract_x
 _atom_site_fract_y
 _atom_site_fract_z
 _atom_site_occupancy
  Cs  Cs0  1  0.000600  0.999400  0.000000  1
  Cs  Cs1  1  0.613293  0.386705  0.000000  1
  Cs  Cs2  1  0.386264  0.613734  0.000000  1
  Cs  Cs3  1  0.805815  0.194183  0.500001  1
  Cs  Cs4  1  0.194776  0.805222  0.500001  1
  Cd  Cd5  1  0.730187  0.269811  0.000000  1
  Cd  Cd6  1  0.922098  0.077901  0.500001  1
  Cd  Cd7  1  0.538831  0.461167  0.500001  1
  Ag  Ag8  1  0.269233  0.730765  0.000000  1
  Ag  Ag9  1  0.461199  0.538799  0.500001  1
  Ag  Ag10  1  0.077694  0.922305  0.500001  1
