# generated using pymatgen
data_Rb(ThTe3)2
_symmetry_space_group_name_H-M   'P 1'
_cell_length_a   12.37733816
_cell_length_b   12.37733888
_cell_length_c   6.19938900
_cell_angle_alpha   90.00000000
_cell_angle_beta   90.00000000
_cell_angle_gamma   158.77053382
_symmetry_Int_Tables_number   1
_chemical_formula_structural   Rb(ThTe3)2
_chemical_formula_sum   'Rb1 Th2 Te6'
_cell_volume   343.90362065
_cell_formula_units_Z   1
loop_
 _symmetry_equiv_pos_site_id
 _symmetry_equiv_pos_as_xyz
  1  'x, y, z'
loop_
 _atom_site_type_symbol
 _atom_site_label
 _atom_site_symmetry_multiplicity
 _atom_site_fract_x
 _atom_site_fract_y
 _atom_site_fract_z
 _atom_site_occupancy
  Rb  Rb0  1  0.504608  0.495392  0.500000  1
  Th  Th1  1  0.320238  0.679762  0.500000  1
  Th  Th2  1  0.679822  0.320178  0.000000  1
  Te  Te3  1  0.726557  0.273443  0.500000  1
  Te  Te4  1  0.273027  0.726973  0.000000  1
  Te  Te5  1  0.889977  0.110023  0.251907  1
  Te  Te6  1  0.110047  0.889953  0.245472  1
  Te  Te7  1  0.889977  0.110023  0.748093  1
  Te  Te8  1  0.110047  0.889953  0.754528  1
