# generated using pymatgen
data_Pr3Dy(Tm4Bi3)4
_symmetry_space_group_name_H-M   'P 1'
_cell_length_a   8.27237318
_cell_length_b   9.45786400
_cell_length_c   12.03894825
_cell_angle_alpha   90.00000000
_cell_angle_beta   90.02350981
_cell_angle_gamma   90.00000000
_symmetry_Int_Tables_number   1
_chemical_formula_structural   Pr3Dy(Tm4Bi3)4
_chemical_formula_sum   'Pr3 Dy1 Tm16 Bi12'
_cell_volume   941.91495760
_cell_formula_units_Z   1
loop_
 _symmetry_equiv_pos_site_id
 _symmetry_equiv_pos_as_xyz
  1  'x, y, z'
loop_
 _atom_site_type_symbol
 _atom_site_label
 _atom_site_symmetry_multiplicity
 _atom_site_fract_x
 _atom_site_fract_y
 _atom_site_fract_z
 _atom_site_occupancy
  Pr  Pr0  1  0.315488  0.250000  0.219397  1
  Pr  Pr1  1  0.815269  0.250000  0.280516  1
  Pr  Pr2  1  0.684979  0.750000  0.780758  1
  Dy  Dy3  1  0.186553  0.750000  0.717734  1
  Tm  Tm4  1  0.351488  0.750000  0.217915  1
  Tm  Tm5  1  0.852082  0.750000  0.282507  1
  Tm  Tm6  1  0.647333  0.250000  0.781108  1
  Tm  Tm7  1  0.148245  0.250000  0.718327  1
  Tm  Tm8  1  0.691319  0.566479  0.060451  1
  Tm  Tm9  1  0.192267  0.933859  0.439934  1
  Tm  Tm10  1  0.308317  0.066175  0.938946  1
  Tm  Tm11  1  0.807491  0.433925  0.560646  1
  Tm  Tm12  1  0.308317  0.433825  0.938946  1
  Tm  Tm13  1  0.807491  0.066075  0.560646  1
  Tm  Tm14  1  0.691319  0.933521  0.060451  1
  Tm  Tm15  1  0.192267  0.566141  0.439934  1
  Tm  Tm16  1  0.476192  0.250000  0.489597  1
  Tm  Tm17  1  0.977133  0.250000  0.010717  1
  Tm  Tm18  1  0.523221  0.750000  0.512129  1
  Tm  Tm19  1  0.023315  0.750000  0.988463  1
  Bi  Bi20  1  0.401021  0.750000  0.961870  1
  Bi  Bi21  1  0.907282  0.750000  0.539224  1
  Bi  Bi22  1  0.596974  0.250000  0.035991  1
  Bi  Bi23  1  0.096372  0.250000  0.463912  1
  Bi  Bi24  1  0.564682  0.989694  0.328305  1
  Bi  Bi25  1  0.064435  0.510130  0.172173  1
  Bi  Bi26  1  0.431576  0.492655  0.672789  1
  Bi  Bi27  1  0.938440  0.007792  0.826674  1
  Bi  Bi28  1  0.431576  0.007345  0.672789  1
  Bi  Bi29  1  0.938440  0.492208  0.826674  1
  Bi  Bi30  1  0.564682  0.510306  0.328305  1
  Bi  Bi31  1  0.064435  0.989870  0.172173  1
