# generated using pymatgen
data_Sc3CoP2Ir3
_symmetry_space_group_name_H-M   'P 1'
_cell_length_a   6.36547000
_cell_length_b   6.36547074
_cell_length_c   3.93134100
_cell_angle_alpha   90.00000000
_cell_angle_beta   90.00000000
_cell_angle_gamma   120.00000657
_symmetry_Int_Tables_number   1
_chemical_formula_structural   Sc3CoP2Ir3
_chemical_formula_sum   'Sc3 Co1 P2 Ir3'
_cell_volume   137.95337194
_cell_formula_units_Z   1
loop_
 _symmetry_equiv_pos_site_id
 _symmetry_equiv_pos_as_xyz
  1  'x, y, z'
loop_
 _atom_site_type_symbol
 _atom_site_label
 _atom_site_symmetry_multiplicity
 _atom_site_fract_x
 _atom_site_fract_y
 _atom_site_fract_z
 _atom_site_occupancy
  Sc  Sc0  1  0.000000  0.395671  0.500000  1
  Sc  Sc1  1  0.604329  0.604329  0.500000  1
  Sc  Sc2  1  0.395671  0.000000  0.500000  1
  Co  Co3  1  0.000000  0.000000  0.500000  1
  P  P4  1  0.666667  0.333333  0.000000  1
  P  P5  1  0.333333  0.666667  0.000000  1
  Ir  Ir6  1  0.000000  0.754484  0.000000  1
  Ir  Ir7  1  0.245516  0.245516  0.000000  1
  Ir  Ir8  1  0.754484  0.000000  0.000000  1
