# generated using pymatgen
data_DyPa2Zn11
_symmetry_space_group_name_H-M   'P 1'
_cell_length_a   8.10077938
_cell_length_b   8.10077847
_cell_length_c   8.10077878
_cell_angle_alpha   148.40348233
_cell_angle_beta   112.93388288
_cell_angle_gamma   76.02919933
_symmetry_Int_Tables_number   1
_chemical_formula_structural   DyPa2Zn11
_chemical_formula_sum   'Dy1 Pa2 Zn11'
_cell_volume   251.95519840
_cell_formula_units_Z   1
loop_
 _symmetry_equiv_pos_site_id
 _symmetry_equiv_pos_as_xyz
  1  'x, y, z'
loop_
 _atom_site_type_symbol
 _atom_site_label
 _atom_site_symmetry_multiplicity
 _atom_site_fract_x
 _atom_site_fract_y
 _atom_site_fract_z
 _atom_site_occupancy
  Dy  Dy0  1  0.000000  0.000000  0.000000  1
  Pa  Pa1  1  0.293358  0.293358  0.000000  1
  Pa  Pa2  1  0.706642  0.706642  0.000000  1
  Zn  Zn3  1  0.500000  0.000000  0.500000  1
  Zn  Zn4  1  0.683104  0.500000  0.183104  1
  Zn  Zn5  1  0.316896  0.500000  0.816896  1
  Zn  Zn6  1  0.705100  0.343596  0.361504  1
  Zn  Zn7  1  0.294900  0.656404  0.638496  1
  Zn  Zn8  1  0.982093  0.343596  0.638496  1
  Zn  Zn9  1  0.017907  0.656404  0.361504  1
  Zn  Zn10  1  0.426470  0.142507  0.283963  1
  Zn  Zn11  1  0.573530  0.857493  0.716037  1
  Zn  Zn12  1  0.858544  0.142507  0.716037  1
  Zn  Zn13  1  0.141456  0.857493  0.283963  1
