# generated using pymatgen
data_Ce6Lu2BiSb9
_symmetry_space_group_name_H-M   'P 1'
_cell_length_a   9.51765800
_cell_length_b   9.51765784
_cell_length_c   6.49906800
_cell_angle_alpha   90.00000000
_cell_angle_beta   90.00000000
_cell_angle_gamma   119.99999362
_symmetry_Int_Tables_number   1
_chemical_formula_structural   Ce6Lu2BiSb9
_chemical_formula_sum   'Ce6 Lu2 Bi1 Sb9'
_cell_volume   509.84941278
_cell_formula_units_Z   1
loop_
 _symmetry_equiv_pos_site_id
 _symmetry_equiv_pos_as_xyz
  1  'x, y, z'
loop_
 _atom_site_type_symbol
 _atom_site_label
 _atom_site_symmetry_multiplicity
 _atom_site_fract_x
 _atom_site_fract_y
 _atom_site_fract_z
 _atom_site_occupancy
  Ce  Ce0  1  0.618682  0.003722  0.252411  1
  Ce  Ce1  1  0.385040  0.003722  0.747589  1
  Ce  Ce2  1  0.996278  0.614960  0.252411  1
  Ce  Ce3  1  0.996278  0.381318  0.747589  1
  Ce  Ce4  1  0.385040  0.381318  0.252411  1
  Ce  Ce5  1  0.618682  0.614960  0.747589  1
  Lu  Lu6  1  0.000000  0.000000  0.000000  1
  Lu  Lu7  1  0.000000  0.000000  0.500000  1
  Bi  Bi8  1  0.333333  0.666667  0.000000  1
  Sb  Sb9  1  0.268056  0.998691  0.249367  1
  Sb  Sb10  1  0.730635  0.998691  0.750633  1
  Sb  Sb11  1  0.001309  0.269365  0.249367  1
  Sb  Sb12  1  0.001309  0.731944  0.750633  1
  Sb  Sb13  1  0.730635  0.731944  0.249367  1
  Sb  Sb14  1  0.268056  0.269365  0.750633  1
  Sb  Sb15  1  0.666667  0.333333  0.000000  1
  Sb  Sb16  1  0.666667  0.333333  0.500000  1
  Sb  Sb17  1  0.333333  0.666667  0.500000  1
