# generated using pymatgen
data_Ti8Cu(SiSb2)2
_symmetry_space_group_name_H-M   'P 1'
_cell_length_a   4.96539923
_cell_length_b   7.74112752
_cell_length_c   7.74112756
_cell_angle_alpha   95.90379112
_cell_angle_beta   108.70621014
_cell_angle_gamma   71.29380146
_symmetry_Int_Tables_number   1
_chemical_formula_structural   Ti8Cu(SiSb2)2
_chemical_formula_sum   'Ti8 Cu1 Si2 Sb4'
_cell_volume   266.94609986
_cell_formula_units_Z   1
loop_
 _symmetry_equiv_pos_site_id
 _symmetry_equiv_pos_as_xyz
  1  'x, y, z'
loop_
 _atom_site_type_symbol
 _atom_site_label
 _atom_site_symmetry_multiplicity
 _atom_site_fract_x
 _atom_site_fract_y
 _atom_site_fract_z
 _atom_site_occupancy
  Ti  Ti0  1  0.415269  0.875563  0.714794  1
  Ti  Ti1  1  0.576038  0.124437  0.285206  1
  Ti  Ti2  1  0.923962  0.285206  0.124437  1
  Ti  Ti3  1  0.084731  0.714794  0.875563  1
  Ti  Ti4  1  0.709168  0.714794  0.124437  1
  Ti  Ti5  1  0.299525  0.285206  0.875563  1
  Ti  Ti6  1  0.790832  0.124437  0.714794  1
  Ti  Ti7  1  0.200475  0.875563  0.285206  1
  Cu  Cu8  1  0.250000  0.500000  0.500000  1
  Si  Si9  1  0.250000  0.000000  0.000000  1
  Si  Si10  1  0.750000  0.000000  0.000000  1
  Sb  Sb11  1  0.375300  0.500000  0.199701  1
  Sb  Sb12  1  0.675599  0.500000  0.800299  1
  Sb  Sb13  1  0.824401  0.800299  0.500000  1
  Sb  Sb14  1  0.124700  0.199701  0.500000  1
