# generated using pymatgen
data_NaDy(BIr)4
_symmetry_space_group_name_H-M   'P 1'
_cell_length_a   7.11983870
_cell_length_b   6.14891908
_cell_length_c   5.47840139
_cell_angle_alpha   75.27038594
_cell_angle_beta   56.64185354
_cell_angle_gamma   48.08775517
_symmetry_Int_Tables_number   1
_chemical_formula_structural   NaDy(BIr)4
_chemical_formula_sum   'Na1 Dy1 B4 Ir4'
_cell_volume   146.59046257
_cell_formula_units_Z   1
loop_
 _symmetry_equiv_pos_site_id
 _symmetry_equiv_pos_as_xyz
  1  'x, y, z'
loop_
 _atom_site_type_symbol
 _atom_site_label
 _atom_site_symmetry_multiplicity
 _atom_site_fract_x
 _atom_site_fract_y
 _atom_site_fract_z
 _atom_site_occupancy
  Na  Na0  1  0.500000  0.500000  0.500000  1
  Dy  Dy1  1  0.750000  0.750000  0.750000  1
  B  B2  1  0.179213  0.820787  0.179213  1
  B  B3  1  0.072717  0.427283  0.072717  1
  B  B4  1  0.820787  0.179213  0.820787  1
  B  B5  1  0.427283  0.072717  0.427283  1
  Ir  Ir6  1  0.871480  0.871480  0.128520  1
  Ir  Ir7  1  0.128520  0.128520  0.871480  1
  Ir  Ir8  1  0.380051  0.380051  0.119949  1
  Ir  Ir9  1  0.119949  0.119949  0.380051  1
