# generated using pymatgen
data_NdThNi9Pt
_symmetry_space_group_name_H-M   'P 1'
_cell_length_a   4.01084400
_cell_length_b   4.91723700
_cell_length_c   8.80624900
_cell_angle_alpha   90.00000000
_cell_angle_beta   90.00000000
_cell_angle_gamma   90.00000000
_symmetry_Int_Tables_number   1
_chemical_formula_structural   NdThNi9Pt
_chemical_formula_sum   'Nd1 Th1 Ni9 Pt1'
_cell_volume   173.67922503
_cell_formula_units_Z   1
loop_
 _symmetry_equiv_pos_site_id
 _symmetry_equiv_pos_as_xyz
  1  'x, y, z'
loop_
 _atom_site_type_symbol
 _atom_site_label
 _atom_site_symmetry_multiplicity
 _atom_site_fract_x
 _atom_site_fract_y
 _atom_site_fract_z
 _atom_site_occupancy
  Nd  Nd0  1  0.000000  0.500000  0.500000  1
  Th  Th1  1  0.000000  0.000000  0.000000  1
  Ni  Ni2  1  0.000000  0.000000  0.313778  1
  Ni  Ni3  1  0.000000  0.500000  0.835703  1
  Ni  Ni4  1  0.000000  0.500000  0.164297  1
  Ni  Ni5  1  0.000000  0.000000  0.686222  1
  Ni  Ni6  1  0.500000  0.500000  0.000000  1
  Ni  Ni7  1  0.500000  0.250733  0.240297  1
  Ni  Ni8  1  0.500000  0.749267  0.759703  1
  Ni  Ni9  1  0.500000  0.749267  0.240297  1
  Ni  Ni10  1  0.500000  0.250733  0.759703  1
  Pt  Pt11  1  0.500000  0.000000  0.500000  1
