# generated using pymatgen
data_Nd3IrCl3
_symmetry_space_group_name_H-M   'P 1'
_cell_length_a   10.22516077
_cell_length_b   10.22516142
_cell_length_c   10.22516100
_cell_angle_alpha   109.47121981
_cell_angle_beta   109.47122109
_cell_angle_gamma   109.47122450
_symmetry_Int_Tables_number   1
_chemical_formula_structural   Nd3IrCl3
_chemical_formula_sum   'Nd12 Ir4 Cl12'
_cell_volume   822.97863961
_cell_formula_units_Z   4
loop_
 _symmetry_equiv_pos_site_id
 _symmetry_equiv_pos_as_xyz
  1  'x, y, z'
loop_
 _atom_site_type_symbol
 _atom_site_label
 _atom_site_symmetry_multiplicity
 _atom_site_fract_x
 _atom_site_fract_y
 _atom_site_fract_z
 _atom_site_occupancy
  Nd  Nd0  1  0.260885  0.750000  0.239115  1
  Nd  Nd1  1  0.489115  0.750000  0.010885  1
  Nd  Nd2  1  0.239115  0.478229  0.489115  1
  Nd  Nd3  1  0.010885  0.021771  0.260885  1
  Nd  Nd4  1  0.239115  0.260885  0.750000  1
  Nd  Nd5  1  0.010885  0.489115  0.750000  1
  Nd  Nd6  1  0.489115  0.239115  0.478229  1
  Nd  Nd7  1  0.260885  0.010885  0.021771  1
  Nd  Nd8  1  0.750000  0.239115  0.260885  1
  Nd  Nd9  1  0.750000  0.010885  0.489115  1
  Nd  Nd10  1  0.478229  0.489115  0.239115  1
  Nd  Nd11  1  0.021771  0.260885  0.010885  1
  Ir  Ir12  1  0.500000  0.000000  0.250000  1
  Ir  Ir13  1  0.250000  0.500000  0.000000  1
  Ir  Ir14  1  0.000000  0.250000  0.500000  1
  Ir  Ir15  1  0.250000  0.250000  0.250000  1
  Cl  Cl16  1  0.250000  0.998446  0.501554  1
  Cl  Cl17  1  0.503108  0.501554  0.751554  1
  Cl  Cl18  1  0.250000  0.751554  0.748446  1
  Cl  Cl19  1  0.996892  0.748446  0.998446  1
  Cl  Cl20  1  0.998446  0.501554  0.250000  1
  Cl  Cl21  1  0.748446  0.998446  0.996892  1
  Cl  Cl22  1  0.751554  0.748446  0.250000  1
  Cl  Cl23  1  0.501554  0.751554  0.503108  1
  Cl  Cl24  1  0.501554  0.250000  0.998446  1
  Cl  Cl25  1  0.751554  0.503108  0.501554  1
  Cl  Cl26  1  0.748446  0.250000  0.751554  1
  Cl  Cl27  1  0.998446  0.996892  0.748446  1
