# generated using pymatgen
data_Ce2Al20Os3Ru
_symmetry_space_group_name_H-M   'P 1'
_cell_length_a   6.88730835
_cell_length_b   6.88490277
_cell_length_c   9.18644839
_cell_angle_alpha   89.98238686
_cell_angle_beta   89.85886610
_cell_angle_gamma   97.10497953
_symmetry_Int_Tables_number   1
_chemical_formula_structural   Ce2Al20Os3Ru
_chemical_formula_sum   'Ce2 Al20 Os3 Ru1'
_cell_volume   432.26079142
_cell_formula_units_Z   1
loop_
 _symmetry_equiv_pos_site_id
 _symmetry_equiv_pos_as_xyz
  1  'x, y, z'
loop_
 _atom_site_type_symbol
 _atom_site_label
 _atom_site_symmetry_multiplicity
 _atom_site_fract_x
 _atom_site_fract_y
 _atom_site_fract_z
 _atom_site_occupancy
  Ce  Ce0  1  0.875643  0.125608  0.750163  1
  Ce  Ce1  1  0.124357  0.874392  0.249837  1
  Al  Al2  1  0.588395  0.859483  0.250621  1
  Al  Al3  1  0.779087  0.518934  0.250071  1
  Al  Al4  1  0.158878  0.841093  0.898426  1
  Al  Al5  1  0.411605  0.140517  0.749379  1
  Al  Al6  1  0.623079  0.376839  0.948537  1
  Al  Al7  1  0.840415  0.158645  0.398413  1
  Al  Al8  1  0.775272  0.775481  0.000291  1
  Al  Al9  1  0.859434  0.589138  0.749932  1
  Al  Al10  1  0.841122  0.158907  0.101574  1
  Al  Al11  1  0.220913  0.481066  0.749929  1
  Al  Al12  1  0.159585  0.841355  0.601587  1
  Al  Al13  1  0.774298  0.775322  0.500133  1
  Al  Al14  1  0.480938  0.221102  0.250033  1
  Al  Al15  1  0.622938  0.376694  0.551730  1
  Al  Al16  1  0.225702  0.224678  0.499867  1
  Al  Al17  1  0.377062  0.623306  0.448270  1
  Al  Al18  1  0.140566  0.410862  0.250068  1
  Al  Al19  1  0.519062  0.778898  0.749967  1
  Al  Al20  1  0.376921  0.623161  0.051463  1
  Al  Al21  1  0.224728  0.224519  0.999709  1
  Os  Os22  1  0.500000  0.000000  0.000000  1
  Os  Os23  1  0.000000  0.500000  0.000000  1
  Os  Os24  1  0.000000  0.500000  0.500000  1
  Ru  Ru25  1  0.500000  0.000000  0.500000  1
