# generated using pymatgen
data_YEr4Lu5(Si5Ir2)4
_symmetry_space_group_name_H-M   'P 1'
_cell_length_a   12.57241300
_cell_length_b   12.57241369
_cell_length_c   4.22385900
_cell_angle_alpha   90.00000000
_cell_angle_beta   90.00000000
_cell_angle_gamma   89.97022285
_symmetry_Int_Tables_number   1
_chemical_formula_structural   YEr4Lu5(Si5Ir2)4
_chemical_formula_sum   'Y1 Er4 Lu5 Si20 Ir8'
_cell_volume   667.64662143
_cell_formula_units_Z   1
loop_
 _symmetry_equiv_pos_site_id
 _symmetry_equiv_pos_as_xyz
  1  'x, y, z'
loop_
 _atom_site_type_symbol
 _atom_site_label
 _atom_site_symmetry_multiplicity
 _atom_site_fract_x
 _atom_site_fract_y
 _atom_site_fract_z
 _atom_site_occupancy
  Y  Y0  1  0.615815  0.884185  0.500000  1
  Er  Er1  1  0.823631  0.676369  0.500000  1
  Er  Er2  1  0.883650  0.383680  0.500000  1
  Er  Er3  1  0.116320  0.616350  0.500000  1
  Er  Er4  1  0.383754  0.116246  0.500000  1
  Lu  Lu5  1  0.499870  0.500159  0.000000  1
  Lu  Lu6  1  0.999841  0.000130  0.000000  1
  Lu  Lu7  1  0.676492  0.175816  0.500000  1
  Lu  Lu8  1  0.324184  0.823508  0.500000  1
  Lu  Lu9  1  0.176198  0.323802  0.500000  1
  Si  Si10  1  0.565896  0.066508  0.000000  1
  Si  Si11  1  0.433492  0.934104  0.000000  1
  Si  Si12  1  0.066363  0.433637  0.000000  1
  Si  Si13  1  0.934339  0.565661  0.000000  1
  Si  Si14  1  0.662487  0.701189  0.000000  1
  Si  Si15  1  0.336590  0.298716  0.000000  1
  Si  Si16  1  0.163822  0.799019  0.000000  1
  Si  Si17  1  0.836726  0.201536  0.000000  1
  Si  Si18  1  0.298464  0.663274  0.000000  1
  Si  Si19  1  0.700981  0.336178  0.000000  1
  Si  Si20  1  0.201284  0.163410  0.000000  1
  Si  Si21  1  0.798811  0.837513  0.000000  1
  Si  Si22  1  0.654190  0.502063  0.500000  1
  Si  Si23  1  0.345311  0.496058  0.500000  1
  Si  Si24  1  0.154179  0.995976  0.500000  1
  Si  Si25  1  0.845295  0.003344  0.500000  1
  Si  Si26  1  0.496656  0.654705  0.500000  1
  Si  Si27  1  0.504024  0.345821  0.500000  1
  Si  Si28  1  0.003942  0.154689  0.500000  1
  Si  Si29  1  0.997937  0.845810  0.500000  1
  Ir  Ir30  1  0.744699  0.521245  0.000000  1
  Ir  Ir31  1  0.254769  0.477807  0.000000  1
  Ir  Ir32  1  0.245244  0.978387  0.000000  1
  Ir  Ir33  1  0.755276  0.023092  0.000000  1
  Ir  Ir34  1  0.476908  0.744724  0.000000  1
  Ir  Ir35  1  0.521613  0.254756  0.000000  1
  Ir  Ir36  1  0.022193  0.245231  0.000000  1
  Ir  Ir37  1  0.978755  0.755301  0.000000  1
