# generated using pymatgen
data_LaNd7(Ho3Sn4)4
_symmetry_space_group_name_H-M   'P 1'
_cell_length_a   8.06528064
_cell_length_b   8.25087146
_cell_length_c   15.53713400
_cell_angle_alpha   90.01151350
_cell_angle_beta   90.05440246
_cell_angle_gamma   90.28668182
_symmetry_Int_Tables_number   1
_chemical_formula_structural   LaNd7(Ho3Sn4)4
_chemical_formula_sum   'La1 Nd7 Ho12 Sn16'
_cell_volume   1033.91437741
_cell_formula_units_Z   1
loop_
 _symmetry_equiv_pos_site_id
 _symmetry_equiv_pos_as_xyz
  1  'x, y, z'
loop_
 _atom_site_type_symbol
 _atom_site_label
 _atom_site_symmetry_multiplicity
 _atom_site_fract_x
 _atom_site_fract_y
 _atom_site_fract_z
 _atom_site_occupancy
  La  La0  1  0.010364  0.177355  0.904540  1
  Nd  Nd1  1  0.511548  0.322274  0.903649  1
  Nd  Nd2  1  0.010873  0.177507  0.596233  1
  Nd  Nd3  1  0.489116  0.678149  0.403871  1
  Nd  Nd4  1  0.988970  0.822114  0.096717  1
  Nd  Nd5  1  0.488646  0.678405  0.096439  1
  Nd  Nd6  1  0.989085  0.822372  0.403741  1
  Nd  Nd7  1  0.510752  0.322048  0.595549  1
  Ho  Ho8  1  0.355473  0.835274  0.876076  1
  Ho  Ho9  1  0.855184  0.665109  0.623482  1
  Ho  Ho10  1  0.645019  0.164763  0.376394  1
  Ho  Ho11  1  0.144894  0.335588  0.124088  1
  Ho  Ho12  1  0.645011  0.164804  0.123993  1
  Ho  Ho13  1  0.144793  0.334816  0.376095  1
  Ho  Ho14  1  0.354965  0.835100  0.623352  1
  Ho  Ho15  1  0.855252  0.664622  0.876050  1
  Ho  Ho16  1  0.187875  0.502007  0.749634  1
  Ho  Ho17  1  0.687983  0.997725  0.749531  1
  Ho  Ho18  1  0.812177  0.498218  0.250049  1
  Ho  Ho19  1  0.312085  0.002195  0.250147  1
  Sn  Sn20  1  0.309890  0.040175  0.042523  1
  Sn  Sn21  1  0.808630  0.459782  0.458275  1
  Sn  Sn22  1  0.692108  0.958911  0.541484  1
  Sn  Sn23  1  0.192832  0.541494  0.958491  1
  Sn  Sn24  1  0.690354  0.956901  0.959104  1
  Sn  Sn25  1  0.191306  0.539891  0.541450  1
  Sn  Sn26  1  0.307892  0.041020  0.458468  1
  Sn  Sn27  1  0.807301  0.460803  0.042190  1
  Sn  Sn28  1  0.553188  0.622780  0.749825  1
  Sn  Sn29  1  0.054009  0.877131  0.749669  1
  Sn  Sn30  1  0.446596  0.377532  0.250196  1
  Sn  Sn31  1  0.946086  0.122029  0.250116  1
  Sn  Sn32  1  0.320088  0.143738  0.749307  1
  Sn  Sn33  1  0.817782  0.357157  0.748838  1
  Sn  Sn34  1  0.680961  0.856408  0.250242  1
  Sn  Sn35  1  0.180911  0.643806  0.250194  1
