# generated using pymatgen
data_Ho3AlS6
_symmetry_space_group_name_H-M   'P 1'
_cell_length_a   8.49499037
_cell_length_b   8.49499043
_cell_length_c   6.43238900
_cell_angle_alpha   90.00000000
_cell_angle_beta   90.00000000
_cell_angle_gamma   102.36240979
_symmetry_Int_Tables_number   1
_chemical_formula_structural   Ho3AlS6
_chemical_formula_sum   'Ho6 Al2 S12'
_cell_volume   453.42920994
_cell_formula_units_Z   2
loop_
 _symmetry_equiv_pos_site_id
 _symmetry_equiv_pos_as_xyz
  1  'x, y, z'
loop_
 _atom_site_type_symbol
 _atom_site_label
 _atom_site_symmetry_multiplicity
 _atom_site_fract_x
 _atom_site_fract_y
 _atom_site_fract_z
 _atom_site_occupancy
  Ho  Ho0  1  0.284283  0.084945  0.225178  1
  Ho  Ho1  1  0.915055  0.715717  0.225178  1
  Ho  Ho2  1  0.715717  0.915055  0.725178  1
  Ho  Ho3  1  0.084945  0.284283  0.725178  1
  Ho  Ho4  1  0.400743  0.599257  0.139972  1
  Ho  Ho5  1  0.599257  0.400743  0.639972  1
  Al  Al6  1  0.201113  0.798887  0.763921  1
  Al  Al7  1  0.798887  0.201113  0.263921  1
  S  S8  1  0.568577  0.101483  0.439045  1
  S  S9  1  0.898517  0.431423  0.439045  1
  S  S10  1  0.431423  0.898517  0.939045  1
  S  S11  1  0.101483  0.568577  0.939045  1
  S  S12  1  0.633645  0.690708  0.432770  1
  S  S13  1  0.309292  0.366355  0.432770  1
  S  S14  1  0.366355  0.309292  0.932770  1
  S  S15  1  0.690708  0.633645  0.932770  1
  S  S16  1  0.217672  0.782328  0.414012  1
  S  S17  1  0.782328  0.217672  0.914012  1
  S  S18  1  0.958651  0.041349  0.403110  1
  S  S19  1  0.041349  0.958651  0.903110  1
