# generated using pymatgen
data_Ho5Er5In3Hg5Pd4
_symmetry_space_group_name_H-M   'P 1'
_cell_length_a   3.61801100
_cell_length_b   7.93507842
_cell_length_c   18.26096702
_cell_angle_alpha   89.68063680
_cell_angle_beta   90.00000000
_cell_angle_gamma   90.00000000
_symmetry_Int_Tables_number   1
_chemical_formula_structural   Ho5Er5In3Hg5Pd4
_chemical_formula_sum   'Ho5 Er5 In3 Hg5 Pd4'
_cell_volume   524.24962871
_cell_formula_units_Z   1
loop_
 _symmetry_equiv_pos_site_id
 _symmetry_equiv_pos_as_xyz
  1  'x, y, z'
loop_
 _atom_site_type_symbol
 _atom_site_label
 _atom_site_symmetry_multiplicity
 _atom_site_fract_x
 _atom_site_fract_y
 _atom_site_fract_z
 _atom_site_occupancy
  Ho  Ho0  1  0.000000  0.497354  0.501495  1
  Ho  Ho1  1  0.000000  0.001032  0.000578  1
  Ho  Ho2  1  0.000000  0.745537  0.284494  1
  Ho  Ho3  1  0.000000  0.265306  0.712246  1
  Ho  Ho4  1  0.000000  0.753576  0.782840  1
  Er  Er5  1  0.000000  0.246473  0.216239  1
  Er  Er6  1  0.000000  0.611669  0.083568  1
  Er  Er7  1  0.000000  0.387086  0.916447  1
  Er  Er8  1  0.000000  0.883167  0.585233  1
  Er  Er9  1  0.000000  0.108410  0.416899  1
  In  In10  1  0.500000  0.419918  0.351812  1
  In  In11  1  0.500000  0.921732  0.149469  1
  In  In12  1  0.500000  0.079343  0.849401  1
  Hg  Hg13  1  0.500000  0.713145  0.934311  1
  Hg  Hg14  1  0.500000  0.287796  0.066354  1
  Hg  Hg15  1  0.500000  0.784708  0.434310  1
  Hg  Hg16  1  0.500000  0.205399  0.563933  1
  Hg  Hg17  1  0.500000  0.581773  0.647902  1
  Pd  Pd18  1  0.500000  0.534139  0.197895  1
  Pd  Pd19  1  0.500000  0.465482  0.803910  1
  Pd  Pd20  1  0.500000  0.972938  0.697906  1
  Pd  Pd21  1  0.500000  0.034015  0.302759  1
