# generated using pymatgen
data_DyAs4Ru5Rh
_symmetry_space_group_name_H-M   'P 1'
_cell_length_a   7.18621465
_cell_length_b   7.18621438
_cell_length_c   3.87197900
_cell_angle_alpha   90.00000000
_cell_angle_beta   90.00000000
_cell_angle_gamma   120.42596255
_symmetry_Int_Tables_number   1
_chemical_formula_structural   DyAs4Ru5Rh
_chemical_formula_sum   'Dy1 As4 Ru5 Rh1'
_cell_volume   172.41848164
_cell_formula_units_Z   1
loop_
 _symmetry_equiv_pos_site_id
 _symmetry_equiv_pos_as_xyz
  1  'x, y, z'
loop_
 _atom_site_type_symbol
 _atom_site_label
 _atom_site_symmetry_multiplicity
 _atom_site_fract_x
 _atom_site_fract_y
 _atom_site_fract_z
 _atom_site_occupancy
  Dy  Dy0  1  0.999289  0.000711  0.000000  1
  As  As1  1  0.805893  0.616953  0.500000  1
  As  As2  1  0.336402  0.663598  0.000000  1
  As  As3  1  0.383047  0.194107  0.500000  1
  As  As4  1  0.809413  0.190587  0.500000  1
  Ru  Ru5  1  0.533121  0.068303  0.000000  1
  Ru  Ru6  1  0.600481  0.799789  0.500000  1
  Ru  Ru7  1  0.200211  0.399519  0.500000  1
  Ru  Ru8  1  0.535542  0.464458  0.000000  1
  Ru  Ru9  1  0.931697  0.466879  0.000000  1
  Rh  Rh10  1  0.198240  0.801760  0.500000  1
