# generated using pymatgen
data_Y3Er9Os3Rh
_symmetry_space_group_name_H-M   'P 1'
_cell_length_a   6.32485484
_cell_length_b   7.32862657
_cell_length_c   9.01651700
_cell_angle_alpha   90.00000000
_cell_angle_beta   90.00000000
_cell_angle_gamma   90.09734921
_symmetry_Int_Tables_number   1
_chemical_formula_structural   Y3Er9Os3Rh
_chemical_formula_sum   'Y3 Er9 Os3 Rh1'
_cell_volume   417.93749374
_cell_formula_units_Z   1
loop_
 _symmetry_equiv_pos_site_id
 _symmetry_equiv_pos_as_xyz
  1  'x, y, z'
loop_
 _atom_site_type_symbol
 _atom_site_label
 _atom_site_symmetry_multiplicity
 _atom_site_fract_x
 _atom_site_fract_y
 _atom_site_fract_z
 _atom_site_occupancy
  Y  Y0  1  0.870898  0.960955  0.750000  1
  Y  Y1  1  0.372718  0.536773  0.250000  1
  Y  Y2  1  0.628430  0.462379  0.750000  1
  Er  Er3  1  0.673900  0.175213  0.066631  1
  Er  Er4  1  0.165152  0.326841  0.938756  1
  Er  Er5  1  0.831587  0.676153  0.436065  1
  Er  Er6  1  0.330409  0.823509  0.560987  1
  Er  Er7  1  0.330409  0.823509  0.939013  1
  Er  Er8  1  0.831587  0.676153  0.063935  1
  Er  Er9  1  0.165152  0.326841  0.561244  1
  Er  Er10  1  0.673900  0.175213  0.433369  1
  Er  Er11  1  0.130939  0.038815  0.250000  1
  Os  Os12  1  0.044666  0.616633  0.750000  1
  Os  Os13  1  0.539437  0.885015  0.250000  1
  Os  Os14  1  0.959634  0.381854  0.250000  1
  Rh  Rh15  1  0.451180  0.114145  0.750000  1
