# generated using pymatgen
data_LiTm6Al12Si11Ru8
_symmetry_space_group_name_H-M   'P 1'
_cell_length_a   8.63629433
_cell_length_b   8.63629327
_cell_length_c   9.29481500
_cell_angle_alpha   90.00000000
_cell_angle_beta   90.00000000
_cell_angle_gamma   120.32312577
_symmetry_Int_Tables_number   1
_chemical_formula_structural   LiTm6Al12Si11Ru8
_chemical_formula_sum   'Li1 Tm6 Al12 Si11 Ru8'
_cell_volume   598.41558278
_cell_formula_units_Z   1
loop_
 _symmetry_equiv_pos_site_id
 _symmetry_equiv_pos_as_xyz
  1  'x, y, z'
loop_
 _atom_site_type_symbol
 _atom_site_label
 _atom_site_symmetry_multiplicity
 _atom_site_fract_x
 _atom_site_fract_y
 _atom_site_fract_z
 _atom_site_occupancy
  Li  Li0  1  0.432235  0.567765  0.750000  1
  Tm  Tm1  1  0.807520  0.192480  0.750000  1
  Tm  Tm2  1  0.195290  0.804710  0.250000  1
  Tm  Tm3  1  0.384329  0.191732  0.750000  1
  Tm  Tm4  1  0.614513  0.809602  0.250000  1
  Tm  Tm5  1  0.808268  0.615671  0.750000  1
  Tm  Tm6  1  0.190398  0.385487  0.250000  1
  Al  Al7  1  0.833901  0.166099  0.422080  1
  Al  Al8  1  0.164973  0.835027  0.578241  1
  Al  Al9  1  0.330729  0.164447  0.418877  1
  Al  Al10  1  0.164973  0.835027  0.921759  1
  Al  Al11  1  0.663687  0.826569  0.583408  1
  Al  Al12  1  0.833901  0.166099  0.077920  1
  Al  Al13  1  0.835553  0.669271  0.418877  1
  Al  Al14  1  0.663687  0.826569  0.916592  1
  Al  Al15  1  0.173431  0.336313  0.583408  1
  Al  Al16  1  0.330729  0.164447  0.081123  1
  Al  Al17  1  0.173431  0.336313  0.916592  1
  Al  Al18  1  0.835553  0.669271  0.081123  1
  Si  Si19  1  0.665016  0.334984  0.955247  1
  Si  Si20  1  0.336070  0.663930  0.040339  1
  Si  Si21  1  0.336070  0.663930  0.459661  1
  Si  Si22  1  0.665016  0.334984  0.544753  1
  Si  Si23  1  0.561890  0.438110  0.250000  1
  Si  Si24  1  0.127745  0.568574  0.750000  1
  Si  Si25  1  0.876573  0.438542  0.250000  1
  Si  Si26  1  0.431426  0.872255  0.750000  1
  Si  Si27  1  0.561458  0.123427  0.250000  1
  Si  Si28  1  0.999504  0.000496  0.750000  1
  Si  Si29  1  0.002115  0.997885  0.250000  1
  Ru  Ru30  1  0.502180  0.497820  0.013002  1
  Ru  Ru31  1  0.998736  0.500124  0.000822  1
  Ru  Ru32  1  0.502180  0.497820  0.486998  1
  Ru  Ru33  1  0.499876  0.001264  0.000822  1
  Ru  Ru34  1  0.998736  0.500124  0.499178  1
  Ru  Ru35  1  0.499876  0.001264  0.499178  1
  Ru  Ru36  1  0.999216  0.000784  0.999098  1
  Ru  Ru37  1  0.999216  0.000784  0.500902  1
