# generated using pymatgen
data_Cs17Dy5O16
_symmetry_space_group_name_H-M   'P 1'
_cell_length_a   20.82654951
_cell_length_b   20.82655045
_cell_length_c   7.76348600
_cell_angle_alpha   84.70718821
_cell_angle_beta   84.70719073
_cell_angle_gamma   158.61079362
_symmetry_Int_Tables_number   1
_chemical_formula_structural   Cs17Dy5O16
_chemical_formula_sum   'Cs17 Dy5 O16'
_cell_volume   1065.61432510
_cell_formula_units_Z   1
loop_
 _symmetry_equiv_pos_site_id
 _symmetry_equiv_pos_as_xyz
  1  'x, y, z'
loop_
 _atom_site_type_symbol
 _atom_site_label
 _atom_site_symmetry_multiplicity
 _atom_site_fract_x
 _atom_site_fract_y
 _atom_site_fract_z
 _atom_site_occupancy
  Cs  Cs0  1  0.386683  0.664077  0.060687  1
  Cs  Cs1  1  0.476323  0.568093  0.081085  1
  Cs  Cs2  1  0.317876  0.780152  0.067276  1
  Cs  Cs3  1  0.087180  0.915121  0.192158  1
  Cs  Cs4  1  0.168691  0.825131  0.473394  1
  Cs  Cs5  1  0.335759  0.608120  0.585724  1
  Cs  Cs6  1  0.223110  0.676792  0.610448  1
  Cs  Cs7  1  0.426045  0.517266  0.606270  1
  Cs  Cs8  1  0.664077  0.386683  0.060687  1
  Cs  Cs9  1  0.568093  0.476323  0.081085  1
  Cs  Cs10  1  0.780152  0.317876  0.067276  1
  Cs  Cs11  1  0.915121  0.087180  0.192158  1
  Cs  Cs12  1  0.825131  0.168691  0.473394  1
  Cs  Cs13  1  0.608120  0.335759  0.585724  1
  Cs  Cs14  1  0.676792  0.223110  0.610448  1
  Cs  Cs15  1  0.517266  0.426045  0.606270  1
  Cs  Cs16  1  0.993321  0.993321  0.487775  1
  Dy  Dy17  1  0.997337  0.997337  0.993865  1
  Dy  Dy18  1  0.085315  0.907152  0.686336  1
  Dy  Dy19  1  0.178192  0.821986  0.986649  1
  Dy  Dy20  1  0.907152  0.085315  0.686336  1
  Dy  Dy21  1  0.821986  0.178192  0.986649  1
  O  O22  1  0.083315  0.455745  0.001550  1
  O  O23  1  0.165786  0.350685  0.400709  1
  O  O24  1  0.455745  0.083315  0.001550  1
  O  O25  1  0.258664  0.258664  0.023497  1
  O  O26  1  0.548974  0.918470  0.268592  1
  O  O27  1  0.207644  0.781608  0.783060  1
  O  O28  1  0.040104  0.954404  0.827463  1
  O  O29  1  0.127796  0.870651  0.872557  1
  O  O30  1  0.350685  0.165786  0.400709  1
  O  O31  1  0.643227  0.827173  0.656975  1
  O  O32  1  0.918470  0.548974  0.268592  1
  O  O33  1  0.734030  0.734030  0.279493  1
  O  O34  1  0.781608  0.207644  0.783060  1
  O  O35  1  0.954404  0.040104  0.827463  1
  O  O36  1  0.870651  0.127796  0.872557  1
  O  O37  1  0.827173  0.643227  0.656975  1
