# generated using pymatgen
data_Tb2YbDyNi13C4
_symmetry_space_group_name_H-M   'P 1'
_cell_length_a   8.34407736
_cell_length_b   8.34407840
_cell_length_c   3.84913200
_cell_angle_alpha   90.00000000
_cell_angle_beta   90.00000000
_cell_angle_gamma   91.05049277
_symmetry_Int_Tables_number   1
_chemical_formula_structural   Tb2YbDyNi13C4
_chemical_formula_sum   'Tb2 Yb1 Dy1 Ni13 C4'
_cell_volume   267.94552164
_cell_formula_units_Z   1
loop_
 _symmetry_equiv_pos_site_id
 _symmetry_equiv_pos_as_xyz
  1  'x, y, z'
loop_
 _atom_site_type_symbol
 _atom_site_label
 _atom_site_symmetry_multiplicity
 _atom_site_fract_x
 _atom_site_fract_y
 _atom_site_fract_z
 _atom_site_occupancy
  Tb  Tb0  1  0.345601  0.348793  0.500000  1
  Tb  Tb1  1  0.651207  0.654399  0.500000  1
  Yb  Yb2  1  0.192261  0.807739  0.500000  1
  Dy  Dy3  1  0.813179  0.186821  0.500000  1
  Ni  Ni4  1  0.001129  0.998871  0.000000  1
  Ni  Ni5  1  0.214994  0.571266  0.000000  1
  Ni  Ni6  1  0.784301  0.430878  0.000000  1
  Ni  Ni7  1  0.428734  0.785006  0.000000  1
  Ni  Ni8  1  0.569122  0.215699  0.000000  1
  Ni  Ni9  1  0.996758  0.502061  0.500000  1
  Ni  Ni10  1  0.497939  0.003242  0.500000  1
  Ni  Ni11  1  0.072515  0.289879  0.000000  1
  Ni  Ni12  1  0.925701  0.709987  0.000000  1
  Ni  Ni13  1  0.710121  0.927485  0.000000  1
  Ni  Ni14  1  0.290013  0.074299  0.000000  1
  Ni  Ni15  1  0.124724  0.116086  0.500000  1
  Ni  Ni16  1  0.883914  0.875276  0.500000  1
  C  C17  1  0.000463  0.501033  0.000000  1
  C  C18  1  0.498967  0.999537  0.000000  1
  C  C19  1  0.442016  0.557984  0.000000  1
  C  C20  1  0.556340  0.443660  0.000000  1
