# generated using pymatgen
data_Ca6Cd7In5
_symmetry_space_group_name_H-M   'P 1'
_cell_length_a   6.28634694
_cell_length_b   6.28634853
_cell_length_c   17.37028219
_cell_angle_alpha   79.40443918
_cell_angle_beta   79.40443737
_cell_angle_gamma   46.31988703
_symmetry_Int_Tables_number   1
_chemical_formula_structural   Ca6Cd7In5
_chemical_formula_sum   'Ca6 Cd7 In5'
_cell_volume   486.41004342
_cell_formula_units_Z   1
loop_
 _symmetry_equiv_pos_site_id
 _symmetry_equiv_pos_as_xyz
  1  'x, y, z'
loop_
 _atom_site_type_symbol
 _atom_site_label
 _atom_site_symmetry_multiplicity
 _atom_site_fract_x
 _atom_site_fract_y
 _atom_site_fract_z
 _atom_site_occupancy
  Ca  Ca0  1  0.268382  0.268382  0.239810  1
  Ca  Ca1  1  0.603008  0.603008  0.573685  1
  Ca  Ca2  1  0.937909  0.937909  0.907547  1
  Ca  Ca3  1  0.062078  0.062078  0.092998  1
  Ca  Ca4  1  0.396397  0.396397  0.426396  1
  Ca  Ca5  1  0.730077  0.730077  0.760664  1
  Cd  Cd6  1  0.766000  0.766000  0.098688  1
  Cd  Cd7  1  0.095777  0.095777  0.432400  1
  Cd  Cd8  1  0.429643  0.429643  0.765440  1
  Cd  Cd9  1  0.377658  0.377658  0.042210  1
  Cd  Cd10  1  0.955483  0.955483  0.291802  1
  Cd  Cd11  1  0.289637  0.289637  0.625243  1
  Cd  Cd12  1  0.622407  0.622407  0.958665  1
  In  In13  1  0.711589  0.711589  0.375842  1
  In  In14  1  0.044786  0.044786  0.708533  1
  In  In15  1  0.569706  0.569706  0.233490  1
  In  In16  1  0.902691  0.902691  0.566737  1
  In  In17  1  0.236782  0.236782  0.899846  1
