# generated using pymatgen
data_Ho10IrOs3
_symmetry_space_group_name_H-M   'P 1'
_cell_length_a   6.36818832
_cell_length_b   7.35465477
_cell_length_c   8.37822829
_cell_angle_alpha   96.80060389
_cell_angle_beta   112.21725431
_cell_angle_gamma   90.00127367
_symmetry_Int_Tables_number   1
_chemical_formula_structural   Ho10IrOs3
_chemical_formula_sum   'Ho10 Ir1 Os3'
_cell_volume   360.28367185
_cell_formula_units_Z   1
loop_
 _symmetry_equiv_pos_site_id
 _symmetry_equiv_pos_as_xyz
  1  'x, y, z'
loop_
 _atom_site_type_symbol
 _atom_site_label
 _atom_site_symmetry_multiplicity
 _atom_site_fract_x
 _atom_site_fract_y
 _atom_site_fract_z
 _atom_site_occupancy
  Ho  Ho0  1  0.972035  0.915269  0.180260  1
  Ho  Ho1  1  0.790905  0.582590  0.817248  1
  Ho  Ho2  1  0.023686  0.083545  0.814173  1
  Ho  Ho3  1  0.207412  0.418451  0.180708  1
  Ho  Ho4  1  0.649318  0.816705  0.438967  1
  Ho  Ho5  1  0.210404  0.682263  0.562574  1
  Ho  Ho6  1  0.351413  0.181880  0.563918  1
  Ho  Ho7  1  0.792935  0.319322  0.438574  1
  Ho  Ho8  1  0.422585  0.748925  0.999371  1
  Ho  Ho9  1  0.577689  0.250400  0.999665  1
  Ir  Ir10  1  0.395011  0.076254  0.221397  1
  Os  Os11  1  0.823796  0.575506  0.218167  1
  Os  Os12  1  0.607185  0.924986  0.781933  1
  Os  Os13  1  0.175625  0.423902  0.783044  1
