# generated using pymatgen
data_Mn3VGaS8
_symmetry_space_group_name_H-M   'P 1'
_cell_length_a   6.75615454
_cell_length_b   6.75615488
_cell_length_c   6.75615392
_cell_angle_alpha   61.06989917
_cell_angle_beta   61.06990083
_cell_angle_gamma   61.06990423
_symmetry_Int_Tables_number   1
_chemical_formula_structural   Mn3VGaS8
_chemical_formula_sum   'Mn3 V1 Ga1 S8'
_cell_volume   223.31658265
_cell_formula_units_Z   1
loop_
 _symmetry_equiv_pos_site_id
 _symmetry_equiv_pos_as_xyz
  1  'x, y, z'
loop_
 _atom_site_type_symbol
 _atom_site_label
 _atom_site_symmetry_multiplicity
 _atom_site_fract_x
 _atom_site_fract_y
 _atom_site_fract_z
 _atom_site_occupancy
  Mn  Mn0  1  0.619719  0.619719  0.156901  1
  Mn  Mn1  1  0.619719  0.156901  0.619719  1
  Mn  Mn2  1  0.156901  0.619719  0.619719  1
  V  V3  1  0.595868  0.595868  0.595868  1
  Ga  Ga4  1  0.008270  0.008270  0.008270  1
  S  S5  1  0.859236  0.859236  0.418228  1
  S  S6  1  0.859236  0.418228  0.859236  1
  S  S7  1  0.418228  0.859236  0.859236  1
  S  S8  1  0.867964  0.867964  0.867964  1
  S  S9  1  0.366624  0.366624  0.878426  1
  S  S10  1  0.383183  0.383183  0.383183  1
  S  S11  1  0.878426  0.366624  0.366624  1
  S  S12  1  0.366624  0.878426  0.366624  1
