# generated using pymatgen
data_Y7Er3(Bi2Sb)2
_symmetry_space_group_name_H-M   'P 1'
_cell_length_a   8.17712700
_cell_length_b   9.45720805
_cell_length_c   12.01096706
_cell_angle_alpha   90.01127282
_cell_angle_beta   90.00000000
_cell_angle_gamma   90.00000000
_symmetry_Int_Tables_number   1
_chemical_formula_structural   Y7Er3(Bi2Sb)2
_chemical_formula_sum   'Y14 Er6 Bi8 Sb4'
_cell_volume   928.84159031
_cell_formula_units_Z   2
loop_
 _symmetry_equiv_pos_site_id
 _symmetry_equiv_pos_as_xyz
  1  'x, y, z'
loop_
 _atom_site_type_symbol
 _atom_site_label
 _atom_site_symmetry_multiplicity
 _atom_site_fract_x
 _atom_site_fract_y
 _atom_site_fract_z
 _atom_site_occupancy
  Y  Y0  1  0.183203  0.749955  0.718412  1
  Y  Y1  1  0.683203  0.750045  0.781588  1
  Y  Y2  1  0.816905  0.249804  0.281797  1
  Y  Y3  1  0.316905  0.250196  0.218203  1
  Y  Y4  1  0.690127  0.938834  0.058516  1
  Y  Y5  1  0.190127  0.561166  0.441484  1
  Y  Y6  1  0.690245  0.561033  0.058560  1
  Y  Y7  1  0.190245  0.938967  0.441440  1
  Y  Y8  1  0.309586  0.061357  0.941388  1
  Y  Y9  1  0.809586  0.438643  0.558612  1
  Y  Y10  1  0.353972  0.750055  0.212865  1
  Y  Y11  1  0.853972  0.749945  0.287135  1
  Y  Y12  1  0.646226  0.249899  0.786956  1
  Y  Y13  1  0.146226  0.250101  0.713044  1
  Er  Er14  1  0.028843  0.749948  0.988434  1
  Er  Er15  1  0.528843  0.750052  0.511566  1
  Er  Er16  1  0.971564  0.250235  0.011529  1
  Er  Er17  1  0.471564  0.249765  0.488471  1
  Er  Er18  1  0.309878  0.437339  0.941408  1
  Er  Er19  1  0.809878  0.062661  0.558592  1
  Bi  Bi20  1  0.434011  0.003684  0.672869  1
  Bi  Bi21  1  0.934011  0.496316  0.827131  1
  Bi  Bi22  1  0.566287  0.503736  0.327044  1
  Bi  Bi23  1  0.066287  0.996264  0.172956  1
  Bi  Bi24  1  0.566417  0.996215  0.327275  1
  Bi  Bi25  1  0.066417  0.503785  0.172725  1
  Bi  Bi26  1  0.433560  0.496217  0.673079  1
  Bi  Bi27  1  0.933560  0.003783  0.826921  1
  Sb  Sb28  1  0.408373  0.748594  0.958901  1
  Sb  Sb29  1  0.908373  0.751406  0.541099  1
  Sb  Sb30  1  0.590803  0.250381  0.040574  1
  Sb  Sb31  1  0.090803  0.249619  0.459426  1
