# generated using pymatgen
data_TbScAlB6
_symmetry_space_group_name_H-M   'P 1'
_cell_length_a   3.51848700
_cell_length_b   9.06943300
_cell_length_c   11.43354200
_cell_angle_alpha   90.00000000
_cell_angle_beta   90.00000000
_cell_angle_gamma   90.00000000
_symmetry_Int_Tables_number   1
_chemical_formula_structural   TbScAlB6
_chemical_formula_sum   'Tb4 Sc4 Al4 B24'
_cell_volume   364.85212413
_cell_formula_units_Z   4
loop_
 _symmetry_equiv_pos_site_id
 _symmetry_equiv_pos_as_xyz
  1  'x, y, z'
loop_
 _atom_site_type_symbol
 _atom_site_label
 _atom_site_symmetry_multiplicity
 _atom_site_fract_x
 _atom_site_fract_y
 _atom_site_fract_z
 _atom_site_occupancy
  Tb  Tb0  1  0.000000  0.820710  0.085633  1
  Tb  Tb1  1  0.000000  0.179290  0.914367  1
  Tb  Tb2  1  0.000000  0.320710  0.414367  1
  Tb  Tb3  1  0.000000  0.679290  0.585633  1
  Sc  Sc4  1  0.000000  0.444510  0.127991  1
  Sc  Sc5  1  0.000000  0.555490  0.872009  1
  Sc  Sc6  1  0.000000  0.944510  0.372009  1
  Sc  Sc7  1  0.000000  0.055490  0.627991  1
  Al  Al8  1  0.000000  0.141987  0.181941  1
  Al  Al9  1  0.000000  0.858013  0.818059  1
  Al  Al10  1  0.000000  0.641987  0.318059  1
  Al  Al11  1  0.000000  0.358013  0.681941  1
  B  B12  1  0.500000  0.051939  0.065251  1
  B  B13  1  0.500000  0.948061  0.934749  1
  B  B14  1  0.500000  0.551939  0.434749  1
  B  B15  1  0.500000  0.448061  0.565251  1
  B  B16  1  0.500000  0.255594  0.081224  1
  B  B17  1  0.500000  0.744406  0.918776  1
  B  B18  1  0.500000  0.755594  0.418776  1
  B  B19  1  0.500000  0.244406  0.581224  1
  B  B20  1  0.500000  0.298120  0.236374  1
  B  B21  1  0.500000  0.701880  0.763626  1
  B  B22  1  0.500000  0.798120  0.263626  1
  B  B23  1  0.500000  0.201880  0.736374  1
  B  B24  1  0.500000  0.129011  0.318769  1
  B  B25  1  0.500000  0.870989  0.681231  1
  B  B26  1  0.500000  0.629011  0.181231  1
  B  B27  1  0.500000  0.370989  0.818769  1
  B  B28  1  0.500000  0.479731  0.285570  1
  B  B29  1  0.500000  0.520269  0.714430  1
  B  B30  1  0.500000  0.979731  0.214430  1
  B  B31  1  0.500000  0.020269  0.785570  1
  B  B32  1  0.500000  0.097242  0.473672  1
  B  B33  1  0.500000  0.902758  0.526328  1
  B  B34  1  0.500000  0.597242  0.026328  1
  B  B35  1  0.500000  0.402758  0.973672  1
