# generated using pymatgen
data_Li2TiS3
_symmetry_space_group_name_H-M   'P 1'
_cell_length_a   6.18833559
_cell_length_b   6.18829603
_cell_length_c   6.34693782
_cell_angle_alpha   99.43225187
_cell_angle_beta   99.43196465
_cell_angle_gamma   120.04796370
_symmetry_Int_Tables_number   1
_chemical_formula_structural   Li2TiS3
_chemical_formula_sum   'Li4 Ti2 S6'
_cell_volume   198.75319252
_cell_formula_units_Z   2
loop_
 _symmetry_equiv_pos_site_id
 _symmetry_equiv_pos_as_xyz
  1  'x, y, z'
loop_
 _atom_site_type_symbol
 _atom_site_label
 _atom_site_symmetry_multiplicity
 _atom_site_fract_x
 _atom_site_fract_y
 _atom_site_fract_z
 _atom_site_occupancy
  Li  Li0  1  0.499234  0.500759  0.000004  1
  Li  Li1  1  0.002999  0.996999  0.499999  1
  Li  Li2  1  0.661270  0.338728  0.499998  1
  Li  Li3  1  0.336557  0.663443  0.499999  1
  Ti  Ti4  1  0.833124  0.166875  0.999996  1
  Ti  Ti5  1  0.168872  0.831135  0.000005  1
  S  S6  1  0.930203  0.578150  0.232216  1
  S  S7  1  0.578078  0.931535  0.233331  1
  S  S8  1  0.225213  0.225862  0.233721  1
  S  S9  1  0.774145  0.774793  0.766283  1
  S  S10  1  0.068456  0.421921  0.766663  1
  S  S11  1  0.421862  0.069805  0.767790  1
