# generated using pymatgen
data_K2Rb4DyInBi4
_symmetry_space_group_name_H-M   'P 1'
_cell_length_a   10.36059233
_cell_length_b   10.36061432
_cell_length_c   10.36058573
_cell_angle_alpha   131.53411982
_cell_angle_beta   66.50897851
_cell_angle_gamma   137.35286720
_symmetry_Int_Tables_number   1
_chemical_formula_structural   K2Rb4DyInBi4
_chemical_formula_sum   'K2 Rb4 Dy1 In1 Bi4'
_cell_volume   555.22553235
_cell_formula_units_Z   1
loop_
 _symmetry_equiv_pos_site_id
 _symmetry_equiv_pos_as_xyz
  1  'x, y, z'
loop_
 _atom_site_type_symbol
 _atom_site_label
 _atom_site_symmetry_multiplicity
 _atom_site_fract_x
 _atom_site_fract_y
 _atom_site_fract_z
 _atom_site_occupancy
  K  K0  1  0.250011  0.250011  0.000004  1
  K  K1  1  0.749990  0.749988  0.999993  1
  Rb  Rb2  1  0.828841  0.289397  0.101617  1
  Rb  Rb3  1  0.671159  0.772777  0.460559  1
  Rb  Rb4  1  0.312220  0.210599  0.539440  1
  Rb  Rb5  1  0.187779  0.727227  0.898388  1
  Dy  Dy6  1  0.750003  0.250002  0.500000  1
  In  In7  1  0.249993  0.749994  0.499998  1
  Bi  Bi8  1  0.392572  0.792482  0.196464  1
  Bi  Bi9  1  0.107431  0.303895  0.399910  1
  Bi  Bi10  1  0.903984  0.707521  0.600091  1
  Bi  Bi11  1  0.596019  0.196109  0.803537  1
