# generated using pymatgen
data_Ho6Al12V4Os7
_symmetry_space_group_name_H-M   'P 1'
_cell_length_a   8.90926937
_cell_length_b   8.90927000
_cell_length_c   8.90927000
_cell_angle_alpha   60.00000741
_cell_angle_beta   60.00000509
_cell_angle_gamma   60.00000357
_symmetry_Int_Tables_number   1
_chemical_formula_structural   Ho6Al12V4Os7
_chemical_formula_sum   'Ho6 Al12 V4 Os7'
_cell_volume   500.04764463
_cell_formula_units_Z   1
loop_
 _symmetry_equiv_pos_site_id
 _symmetry_equiv_pos_as_xyz
  1  'x, y, z'
loop_
 _atom_site_type_symbol
 _atom_site_label
 _atom_site_symmetry_multiplicity
 _atom_site_fract_x
 _atom_site_fract_y
 _atom_site_fract_z
 _atom_site_occupancy
  Ho  Ho0  1  0.709806  0.709806  0.290194  1
  Ho  Ho1  1  0.290194  0.709806  0.290194  1
  Ho  Ho2  1  0.709806  0.290194  0.290194  1
  Ho  Ho3  1  0.290194  0.290194  0.709806  1
  Ho  Ho4  1  0.709806  0.290194  0.709806  1
  Ho  Ho5  1  0.290194  0.709806  0.709806  1
  Al  Al6  1  0.119775  0.119775  0.640675  1
  Al  Al7  1  0.119775  0.640675  0.119775  1
  Al  Al8  1  0.640675  0.119775  0.119775  1
  Al  Al9  1  0.119775  0.119775  0.119775  1
  Al  Al10  1  0.668386  0.668386  0.994841  1
  Al  Al11  1  0.668386  0.994841  0.668386  1
  Al  Al12  1  0.994841  0.668386  0.668386  1
  Al  Al13  1  0.668386  0.668386  0.668386  1
  Al  Al14  1  0.331443  0.331443  0.005669  1
  Al  Al15  1  0.331443  0.005669  0.331443  1
  Al  Al16  1  0.005669  0.331443  0.331443  1
  Al  Al17  1  0.331443  0.331443  0.331443  1
  V  V18  1  0.879620  0.879620  0.361141  1
  V  V19  1  0.879620  0.361141  0.879620  1
  V  V20  1  0.361141  0.879620  0.879620  1
  V  V21  1  0.879620  0.879620  0.879620  1
  Os  Os22  1  0.000000  0.000000  0.000000  1
  Os  Os23  1  0.996074  0.996074  0.503926  1
  Os  Os24  1  0.503926  0.996074  0.503926  1
  Os  Os25  1  0.996074  0.503926  0.503926  1
  Os  Os26  1  0.503926  0.503926  0.996074  1
  Os  Os27  1  0.996074  0.503926  0.996074  1
  Os  Os28  1  0.503926  0.996074  0.996074  1
