# generated using pymatgen
data_Er3Tm(RuO4)4
_symmetry_space_group_name_H-M   'P 1'
_cell_length_a   5.31832212
_cell_length_b   7.38551927
_cell_length_c   7.61142100
_cell_angle_alpha   80.30804782
_cell_angle_beta   90.57532443
_cell_angle_gamma   90.05850964
_symmetry_Int_Tables_number   1
_chemical_formula_structural   Er3Tm(RuO4)4
_chemical_formula_sum   'Er3 Tm1 Ru4 O16'
_cell_volume   294.68371086
_cell_formula_units_Z   1
loop_
 _symmetry_equiv_pos_site_id
 _symmetry_equiv_pos_as_xyz
  1  'x, y, z'
loop_
 _atom_site_type_symbol
 _atom_site_label
 _atom_site_symmetry_multiplicity
 _atom_site_fract_x
 _atom_site_fract_y
 _atom_site_fract_z
 _atom_site_occupancy
  Er  Er0  1  0.287641  0.390686  0.346596  1
  Er  Er1  1  0.216804  0.889931  0.352546  1
  Er  Er2  1  0.780453  0.111362  0.646124  1
  Tm  Tm3  1  0.710439  0.610274  0.652433  1
  Ru  Ru4  1  0.770172  0.199020  0.161288  1
  Ru  Ru5  1  0.732903  0.699780  0.160746  1
  Ru  Ru6  1  0.266292  0.300620  0.838565  1
  Ru  Ru7  1  0.229419  0.799878  0.838385  1
  O  O8  1  0.095481  0.304109  0.061881  1
  O  O9  1  0.405135  0.804988  0.061016  1
  O  O10  1  0.629055  0.444435  0.170081  1
  O  O11  1  0.876231  0.945149  0.168310  1
  O  O12  1  0.491221  0.119314  0.316229  1
  O  O13  1  0.983332  0.176078  0.391115  1
  O  O14  1  0.018084  0.620717  0.310511  1
  O  O15  1  0.525861  0.677749  0.389604  1
  O  O16  1  0.476429  0.327256  0.610157  1
  O  O17  1  0.979660  0.381026  0.690959  1
  O  O18  1  0.018518  0.819592  0.609445  1
  O  O19  1  0.512323  0.878761  0.687072  1
  O  O20  1  0.125335  0.055578  0.826300  1
  O  O21  1  0.373889  0.554828  0.832135  1
  O  O22  1  0.591215  0.194245  0.940465  1
  O  O23  1  0.904108  0.694627  0.938036  1
