# generated using pymatgen
data_Tm4Lu3Mg(B6Rh)4
_symmetry_space_group_name_H-M   'P 1'
_cell_length_a   3.58914200
_cell_length_b   9.03303757
_cell_length_c   11.37765872
_cell_angle_alpha   90.04080916
_cell_angle_beta   90.00000000
_cell_angle_gamma   90.00000000
_symmetry_Int_Tables_number   1
_chemical_formula_structural   Tm4Lu3Mg(B6Rh)4
_chemical_formula_sum   'Tm4 Lu3 Mg1 B24 Rh4'
_cell_volume   368.87332485
_cell_formula_units_Z   1
loop_
 _symmetry_equiv_pos_site_id
 _symmetry_equiv_pos_as_xyz
  1  'x, y, z'
loop_
 _atom_site_type_symbol
 _atom_site_label
 _atom_site_symmetry_multiplicity
 _atom_site_fract_x
 _atom_site_fract_y
 _atom_site_fract_z
 _atom_site_occupancy
  Tm  Tm0  1  0.500000  0.322288  0.412780  1
  Tm  Tm1  1  0.500000  0.677917  0.586086  1
  Tm  Tm2  1  0.500000  0.179387  0.914873  1
  Tm  Tm3  1  0.500000  0.820674  0.086598  1
  Lu  Lu4  1  0.500000  0.554107  0.876750  1
  Lu  Lu5  1  0.500000  0.055479  0.626338  1
  Lu  Lu6  1  0.500000  0.943874  0.372570  1
  Mg  Mg7  1  0.500000  0.445965  0.123662  1
  B  B8  1  0.000000  0.107383  0.470710  1
  B  B9  1  0.000000  0.892531  0.528849  1
  B  B10  1  0.000000  0.395166  0.973448  1
  B  B11  1  0.000000  0.602910  0.029899  1
  B  B12  1  0.000000  0.132798  0.315952  1
  B  B13  1  0.000000  0.867413  0.683194  1
  B  B14  1  0.000000  0.367474  0.819010  1
  B  B15  1  0.000000  0.629460  0.181646  1
  B  B16  1  0.000000  0.055072  0.066136  1
  B  B17  1  0.000000  0.946676  0.935584  1
  B  B18  1  0.000000  0.446107  0.564861  1
  B  B19  1  0.000000  0.553215  0.433727  1
  B  B20  1  0.000000  0.481235  0.284706  1
  B  B21  1  0.000000  0.518027  0.714165  1
  B  B22  1  0.000000  0.018440  0.787323  1
  B  B23  1  0.000000  0.982824  0.212575  1
  B  B24  1  0.000000  0.254218  0.080150  1
  B  B25  1  0.000000  0.748414  0.922068  1
  B  B26  1  0.000000  0.249535  0.579215  1
  B  B27  1  0.000000  0.749786  0.419561  1
  B  B28  1  0.000000  0.297111  0.234311  1
  B  B29  1  0.000000  0.704332  0.764461  1
  B  B30  1  0.000000  0.205581  0.737284  1
  B  B31  1  0.000000  0.792743  0.263311  1
  Rh  Rh32  1  0.500000  0.144687  0.180797  1
  Rh  Rh33  1  0.500000  0.859985  0.819937  1
  Rh  Rh34  1  0.500000  0.360422  0.678877  1
  Rh  Rh35  1  0.500000  0.636764  0.318585  1
