# generated using pymatgen
data_Tb3Ho7Ga3CoBi2
_symmetry_space_group_name_H-M   'P 1'
_cell_length_a   8.60183233
_cell_length_b   8.59718291
_cell_length_c   8.77262614
_cell_angle_alpha   124.79704932
_cell_angle_beta   124.81250366
_cell_angle_gamma   80.52919651
_symmetry_Int_Tables_number   1
_chemical_formula_structural   Tb3Ho7Ga3CoBi2
_chemical_formula_sum   'Tb3 Ho7 Ga3 Co1 Bi2'
_cell_volume   424.69813956
_cell_formula_units_Z   1
loop_
 _symmetry_equiv_pos_site_id
 _symmetry_equiv_pos_as_xyz
  1  'x, y, z'
loop_
 _atom_site_type_symbol
 _atom_site_label
 _atom_site_symmetry_multiplicity
 _atom_site_fract_x
 _atom_site_fract_y
 _atom_site_fract_z
 _atom_site_occupancy
  Tb  Tb0  1  0.703136  0.517209  0.500000  1
  Tb  Tb1  1  0.480796  0.000128  0.202850  1
  Tb  Tb2  1  0.777946  0.297278  0.797150  1
  Ho  Ho3  1  0.499193  0.019099  0.795321  1
  Ho  Ho4  1  0.997181  0.998584  0.995943  1
  Ho  Ho5  1  0.049669  0.191173  0.500000  1
  Ho  Ho6  1  0.307607  0.451543  0.500000  1
  Ho  Ho7  1  0.203873  0.723778  0.204679  1
  Ho  Ho8  1  0.982997  0.795888  0.500000  1
  Ho  Ho9  1  0.501238  0.502642  0.004057  1
  Ga  Ga10  1  0.141437  0.641731  0.783097  1
  Ga  Ga11  1  0.858339  0.358633  0.216903  1
  Ga  Ga12  1  0.632292  0.867280  0.500000  1
  Co  Co13  1  0.377678  0.121151  0.500000  1
  Bi  Bi14  1  0.243091  0.256723  0.999563  1
  Bi  Bi15  1  0.743528  0.757160  0.000437  1
