# generated using pymatgen
data_HoInNi3Pt
_symmetry_space_group_name_H-M   'P 1'
_cell_length_a   5.16249535
_cell_length_b   5.16249578
_cell_length_c   5.16249567
_cell_angle_alpha   58.14065997
_cell_angle_beta   58.14066221
_cell_angle_gamma   58.14066261
_symmetry_Int_Tables_number   1
_chemical_formula_structural   HoInNi3Pt
_chemical_formula_sum   'Ho1 In1 Ni3 Pt1'
_cell_volume   93.14275412
_cell_formula_units_Z   1
loop_
 _symmetry_equiv_pos_site_id
 _symmetry_equiv_pos_as_xyz
  1  'x, y, z'
loop_
 _atom_site_type_symbol
 _atom_site_label
 _atom_site_symmetry_multiplicity
 _atom_site_fract_x
 _atom_site_fract_y
 _atom_site_fract_z
 _atom_site_occupancy
  Ho  Ho0  1  0.248730  0.248730  0.248730  1
  In  In1  1  0.005739  0.005739  0.005739  1
  Ni  Ni2  1  0.624352  0.624352  0.122096  1
  Ni  Ni3  1  0.624352  0.122096  0.624352  1
  Ni  Ni4  1  0.122096  0.624352  0.624352  1
  Pt  Pt5  1  0.624732  0.624732  0.624732  1
