# generated using pymatgen
data_Tm3Lu5In3Co
_symmetry_space_group_name_H-M   'P 1'
_cell_length_a   10.17393800
_cell_length_b   10.17393734
_cell_length_c   6.87341800
_cell_angle_alpha   90.00000000
_cell_angle_beta   90.00000000
_cell_angle_gamma   120.00000215
_symmetry_Int_Tables_number   1
_chemical_formula_structural   Tm3Lu5In3Co
_chemical_formula_sum   'Tm6 Lu10 In6 Co2'
_cell_volume   616.14300639
_cell_formula_units_Z   2
loop_
 _symmetry_equiv_pos_site_id
 _symmetry_equiv_pos_as_xyz
  1  'x, y, z'
loop_
 _atom_site_type_symbol
 _atom_site_label
 _atom_site_symmetry_multiplicity
 _atom_site_fract_x
 _atom_site_fract_y
 _atom_site_fract_z
 _atom_site_occupancy
  Tm  Tm0  1  0.533901  0.067803  0.522225  1
  Tm  Tm1  1  0.932197  0.466099  0.522225  1
  Tm  Tm2  1  0.533901  0.466099  0.522225  1
  Tm  Tm3  1  0.466099  0.932197  0.022225  1
  Tm  Tm4  1  0.067803  0.533901  0.022225  1
  Tm  Tm5  1  0.466099  0.533901  0.022225  1
  Lu  Lu6  1  0.178864  0.357729  0.729218  1
  Lu  Lu7  1  0.642271  0.821136  0.729218  1
  Lu  Lu8  1  0.178864  0.821136  0.729218  1
  Lu  Lu9  1  0.821136  0.642271  0.229218  1
  Lu  Lu10  1  0.357729  0.178864  0.229218  1
  Lu  Lu11  1  0.821136  0.178864  0.229218  1
  Lu  Lu12  1  0.666667  0.333333  0.911724  1
  Lu  Lu13  1  0.333333  0.666667  0.411724  1
  Lu  Lu14  1  0.000000  0.000000  0.507700  1
  Lu  Lu15  1  0.000000  0.000000  0.007700  1
  In  In16  1  0.837284  0.674567  0.769446  1
  In  In17  1  0.325433  0.162716  0.769446  1
  In  In18  1  0.837284  0.162716  0.769446  1
  In  In19  1  0.162716  0.325433  0.269446  1
  In  In20  1  0.674567  0.837284  0.269446  1
  In  In21  1  0.162716  0.837284  0.269446  1
  Co  Co22  1  0.666667  0.333333  0.295747  1
  Co  Co23  1  0.333333  0.666667  0.795747  1
