# generated using pymatgen
data_Ba6Zr2RuO12
_symmetry_space_group_name_H-M   'P 1'
_cell_length_a   9.38456620
_cell_length_b   9.38456609
_cell_length_c   7.41238500
_cell_angle_alpha   67.67481262
_cell_angle_beta   67.67481948
_cell_angle_gamma   36.88937894
_symmetry_Int_Tables_number   1
_chemical_formula_structural   Ba6Zr2RuO12
_chemical_formula_sum   'Ba6 Zr2 Ru1 O12'
_cell_volume   359.07437700
_cell_formula_units_Z   1
loop_
 _symmetry_equiv_pos_site_id
 _symmetry_equiv_pos_as_xyz
  1  'x, y, z'
loop_
 _atom_site_type_symbol
 _atom_site_label
 _atom_site_symmetry_multiplicity
 _atom_site_fract_x
 _atom_site_fract_y
 _atom_site_fract_z
 _atom_site_occupancy
  Ba  Ba0  1  0.212813  0.212813  0.710028  1
  Ba  Ba1  1  0.883388  0.883388  0.710663  1
  Ba  Ba2  1  0.547923  0.547923  0.713090  1
  Ba  Ba3  1  0.787187  0.787187  0.289972  1
  Ba  Ba4  1  0.452077  0.452077  0.286910  1
  Ba  Ba5  1  0.116612  0.116612  0.289337  1
  Zr  Zr6  1  0.664823  0.664823  0.000223  1
  Zr  Zr7  1  0.335177  0.335177  0.999777  1
  Ru  Ru8  1  0.000000  0.000000  0.000000  1
  O  O9  1  0.281271  0.281271  0.315108  1
  O  O10  1  0.951476  0.951476  0.296209  1
  O  O11  1  0.612656  0.612656  0.316260  1
  O  O12  1  0.718729  0.718729  0.684892  1
  O  O13  1  0.387344  0.387344  0.683740  1
  O  O14  1  0.048524  0.048524  0.703791  1
  O  O15  1  0.000000  0.500000  0.000000  1
  O  O16  1  0.672645  0.163577  0.999185  1
  O  O17  1  0.327355  0.836423  0.000815  1
  O  O18  1  0.500000  0.000000  0.000000  1
  O  O19  1  0.163577  0.672645  0.999185  1
  O  O20  1  0.836423  0.327355  0.000815  1
