# generated using pymatgen
data_MgNb3(SiRh2)8
_symmetry_space_group_name_H-M   'P 1'
_cell_length_a   4.00456800
_cell_length_b   8.86567338
_cell_length_c   11.26910646
_cell_angle_alpha   90.36437071
_cell_angle_beta   90.00000000
_cell_angle_gamma   90.00000000
_symmetry_Int_Tables_number   1
_chemical_formula_structural   MgNb3(SiRh2)8
_chemical_formula_sum   'Mg1 Nb3 Si8 Rh16'
_cell_volume   400.08115875
_cell_formula_units_Z   1
loop_
 _symmetry_equiv_pos_site_id
 _symmetry_equiv_pos_as_xyz
  1  'x, y, z'
loop_
 _atom_site_type_symbol
 _atom_site_label
 _atom_site_symmetry_multiplicity
 _atom_site_fract_x
 _atom_site_fract_y
 _atom_site_fract_z
 _atom_site_occupancy
  Mg  Mg0  1  0.750000  0.622722  0.689358  1
  Nb  Nb1  1  0.250000  0.119739  0.808905  1
  Nb  Nb2  1  0.250000  0.360837  0.323732  1
  Nb  Nb3  1  0.750000  0.860216  0.175248  1
  Si  Si4  1  0.250000  0.410121  0.647960  1
  Si  Si5  1  0.250000  0.079041  0.127917  1
  Si  Si6  1  0.750000  0.577597  0.377472  1
  Si  Si7  1  0.750000  0.903706  0.848469  1
  Si  Si8  1  0.250000  0.632491  0.069693  1
  Si  Si9  1  0.250000  0.885959  0.548544  1
  Si  Si10  1  0.750000  0.392104  0.952428  1
  Si  Si11  1  0.750000  0.135865  0.429595  1
  Rh  Rh12  1  0.250000  0.618758  0.513113  1
  Rh  Rh13  1  0.250000  0.892008  0.985017  1
  Rh  Rh14  1  0.750000  0.387212  0.519482  1
  Rh  Rh15  1  0.750000  0.119851  0.981520  1
  Rh  Rh16  1  0.250000  0.697801  0.275052  1
  Rh  Rh17  1  0.250000  0.801017  0.749811  1
  Rh  Rh18  1  0.750000  0.289286  0.752643  1
  Rh  Rh19  1  0.750000  0.195249  0.222773  1
  Rh  Rh20  1  0.250000  0.170155  0.549321  1
  Rh  Rh21  1  0.250000  0.331416  0.069113  1
  Rh  Rh22  1  0.750000  0.834934  0.429059  1
  Rh  Rh23  1  0.750000  0.672700  0.952499  1
  Rh  Rh24  1  0.250000  0.011143  0.329299  1
  Rh  Rh25  1  0.250000  0.488617  0.848962  1
  Rh  Rh26  1  0.750000  0.999365  0.650838  1
  Rh  Rh27  1  0.750000  0.510092  0.172178  1
