# generated using pymatgen
data_ErTm3(ReC2)2
_symmetry_space_group_name_H-M   'P 1'
_cell_length_a   5.03283200
_cell_length_b   6.52221500
_cell_length_c   9.75298300
_cell_angle_alpha   90.00000000
_cell_angle_beta   90.00000000
_cell_angle_gamma   90.00000000
_symmetry_Int_Tables_number   1
_chemical_formula_structural   ErTm3(ReC2)2
_chemical_formula_sum   'Er2 Tm6 Re4 C8'
_cell_volume   320.14373815
_cell_formula_units_Z   2
loop_
 _symmetry_equiv_pos_site_id
 _symmetry_equiv_pos_as_xyz
  1  'x, y, z'
loop_
 _atom_site_type_symbol
 _atom_site_label
 _atom_site_symmetry_multiplicity
 _atom_site_fract_x
 _atom_site_fract_y
 _atom_site_fract_z
 _atom_site_occupancy
  Er  Er0  1  0.250000  0.465999  0.217201  1
  Er  Er1  1  0.750000  0.034001  0.717201  1
  Tm  Tm2  1  0.750000  0.534059  0.782672  1
  Tm  Tm3  1  0.250000  0.965941  0.282672  1
  Tm  Tm4  1  0.750000  0.677811  0.442338  1
  Tm  Tm5  1  0.250000  0.822189  0.942338  1
  Tm  Tm6  1  0.750000  0.177569  0.057638  1
  Tm  Tm7  1  0.250000  0.322431  0.557638  1
  Re  Re8  1  0.250000  0.282015  0.868731  1
  Re  Re9  1  0.250000  0.781944  0.631355  1
  Re  Re10  1  0.750000  0.217985  0.368731  1
  Re  Re11  1  0.750000  0.718056  0.131355  1
  C  C12  1  0.250000  0.674260  0.446881  1
  C  C13  1  0.250000  0.549217  0.759115  1
  C  C14  1  0.750000  0.450729  0.241029  1
  C  C15  1  0.750000  0.825740  0.946881  1
  C  C16  1  0.250000  0.049271  0.741029  1
  C  C17  1  0.250000  0.173208  0.053041  1
  C  C18  1  0.750000  0.326792  0.553041  1
  C  C19  1  0.750000  0.950783  0.259115  1
