# generated using pymatgen
data_Lu8TaSi16Mo11
_symmetry_space_group_name_H-M   'P 1'
_cell_length_a   6.70408895
_cell_length_b   6.91318244
_cell_length_c   12.85351600
_cell_angle_alpha   90.00000000
_cell_angle_beta   90.00000000
_cell_angle_gamma   89.75792202
_symmetry_Int_Tables_number   1
_chemical_formula_structural   Lu8TaSi16Mo11
_chemical_formula_sum   'Lu8 Ta1 Si16 Mo11'
_cell_volume   595.71131872
_cell_formula_units_Z   1
loop_
 _symmetry_equiv_pos_site_id
 _symmetry_equiv_pos_as_xyz
  1  'x, y, z'
loop_
 _atom_site_type_symbol
 _atom_site_label
 _atom_site_symmetry_multiplicity
 _atom_site_fract_x
 _atom_site_fract_y
 _atom_site_fract_z
 _atom_site_occupancy
  Lu  Lu0  1  0.496732  0.331480  0.093479  1
  Lu  Lu1  1  0.996316  0.168516  0.406237  1
  Lu  Lu2  1  0.503976  0.669710  0.593720  1
  Lu  Lu3  1  0.001956  0.831079  0.906170  1
  Lu  Lu4  1  0.503976  0.669710  0.906280  1
  Lu  Lu5  1  0.001956  0.831079  0.593830  1
  Lu  Lu6  1  0.496732  0.331480  0.406521  1
  Lu  Lu7  1  0.996316  0.168516  0.093763  1
  Ta  Ta8  1  0.662398  0.003485  0.750000  1
  Si  Si9  1  0.662819  0.040329  0.543198  1
  Si  Si10  1  0.162434  0.460265  0.953330  1
  Si  Si11  1  0.337899  0.959048  0.046506  1
  Si  Si12  1  0.838717  0.539593  0.453033  1
  Si  Si13  1  0.337899  0.959048  0.453494  1
  Si  Si14  1  0.838717  0.539593  0.046967  1
  Si  Si15  1  0.662819  0.040329  0.956802  1
  Si  Si16  1  0.162434  0.460265  0.546670  1
  Si  Si17  1  0.532121  0.375479  0.750000  1
  Si  Si18  1  0.037917  0.130579  0.750000  1
  Si  Si19  1  0.465914  0.630403  0.250000  1
  Si  Si20  1  0.967069  0.869399  0.250000  1
  Si  Si21  1  0.801632  0.629611  0.750000  1
  Si  Si22  1  0.296360  0.863502  0.750000  1
  Si  Si23  1  0.198350  0.366919  0.250000  1
  Si  Si24  1  0.697566  0.133452  0.250000  1
  Mo  Mo25  1  0.830934  0.333119  0.623935  1
  Mo  Mo26  1  0.329975  0.163681  0.875831  1
  Mo  Mo27  1  0.170087  0.665425  0.124831  1
  Mo  Mo28  1  0.671004  0.835563  0.374331  1
  Mo  Mo29  1  0.170087  0.665425  0.375169  1
  Mo  Mo30  1  0.671004  0.835563  0.125669  1
  Mo  Mo31  1  0.830934  0.333119  0.876065  1
  Mo  Mo32  1  0.329975  0.163681  0.624169  1
  Mo  Mo33  1  0.166840  0.503122  0.750000  1
  Mo  Mo34  1  0.334795  0.003292  0.250000  1
  Mo  Mo35  1  0.833335  0.495140  0.250000  1
