# generated using pymatgen
data_Sm2Si14Ir5Rh
_symmetry_space_group_name_H-M   'P 1'
_cell_length_a   8.04497087
_cell_length_b   8.04496916
_cell_length_c   8.05726700
_cell_angle_alpha   56.57353827
_cell_angle_beta   56.57352924
_cell_angle_gamma   56.52719275
_symmetry_Int_Tables_number   1
_chemical_formula_structural   Sm2Si14Ir5Rh
_chemical_formula_sum   'Sm2 Si14 Ir5 Rh1'
_cell_volume   339.41391366
_cell_formula_units_Z   1
loop_
 _symmetry_equiv_pos_site_id
 _symmetry_equiv_pos_as_xyz
  1  'x, y, z'
loop_
 _atom_site_type_symbol
 _atom_site_label
 _atom_site_symmetry_multiplicity
 _atom_site_fract_x
 _atom_site_fract_y
 _atom_site_fract_z
 _atom_site_occupancy
  Sm  Sm0  1  0.000235  0.999823  0.999895  1
  Sm  Sm1  1  0.500177  0.499765  0.500105  1
  Si  Si2  1  0.751169  0.748831  0.750000  1
  Si  Si3  1  0.250099  0.249901  0.250000  1
  Si  Si4  1  0.850534  0.064184  0.672277  1
  Si  Si5  1  0.672061  0.851010  0.063755  1
  Si  Si6  1  0.062795  0.672421  0.850581  1
  Si  Si7  1  0.648990  0.827939  0.436245  1
  Si  Si8  1  0.435816  0.649466  0.827723  1
  Si  Si9  1  0.827579  0.437205  0.649419  1
  Si  Si10  1  0.172996  0.562593  0.351047  1
  Si  Si11  1  0.564670  0.350493  0.171841  1
  Si  Si12  1  0.350338  0.173526  0.564386  1
  Si  Si13  1  0.937407  0.327004  0.148953  1
  Si  Si14  1  0.326474  0.149662  0.935614  1
  Si  Si15  1  0.149507  0.935330  0.328159  1
  Ir  Ir16  1  0.249782  0.931550  0.569147  1
  Ir  Ir17  1  0.568450  0.250218  0.930853  1
  Ir  Ir18  1  0.930366  0.569634  0.250000  1
  Ir  Ir19  1  0.431161  0.749626  0.069183  1
  Ir  Ir20  1  0.750374  0.068839  0.430817  1
  Rh  Rh21  1  0.069021  0.430979  0.750000  1
