# generated using pymatgen
data_Ba10Si17As
_symmetry_space_group_name_H-M   'P 1'
_cell_length_a   6.67358916
_cell_length_b   6.67358971
_cell_length_c   17.96547485
_cell_angle_alpha   81.71657105
_cell_angle_beta   81.71657239
_cell_angle_gamma   100.26703397
_symmetry_Int_Tables_number   1
_chemical_formula_structural   Ba10Si17As
_chemical_formula_sum   'Ba10 Si17 As1'
_cell_volume   767.16920264
_cell_formula_units_Z   1
loop_
 _symmetry_equiv_pos_site_id
 _symmetry_equiv_pos_as_xyz
  1  'x, y, z'
loop_
 _atom_site_type_symbol
 _atom_site_label
 _atom_site_symmetry_multiplicity
 _atom_site_fract_x
 _atom_site_fract_y
 _atom_site_fract_z
 _atom_site_occupancy
  Ba  Ba0  1  0.747653  0.251909  0.000087  1
  Ba  Ba1  1  0.110707  0.580841  0.790676  1
  Ba  Ba2  1  0.288257  0.710876  0.499656  1
  Ba  Ba3  1  0.758336  0.758336  0.647167  1
  Ba  Ba4  1  0.244346  0.244346  0.352712  1
  Ba  Ba5  1  0.580841  0.110707  0.790676  1
  Ba  Ba6  1  0.251909  0.747653  0.000087  1
  Ba  Ba7  1  0.710876  0.288257  0.499656  1
  Ba  Ba8  1  0.416612  0.893302  0.209522  1
  Ba  Ba9  1  0.893302  0.416612  0.209522  1
  Si  Si10  1  0.925607  0.925607  0.264197  1
  Si  Si11  1  0.075109  0.075109  0.736100  1
  Si  Si12  1  0.776932  0.776932  0.930814  1
  Si  Si13  1  0.347408  0.347408  0.648432  1
  Si  Si14  1  0.295805  0.295805  0.926193  1
  Si  Si15  1  0.923592  0.923592  0.133157  1
  Si  Si16  1  0.651480  0.651480  0.353445  1
  Si  Si17  1  0.440603  0.440603  0.145758  1
  Si  Si18  1  0.058576  0.058576  0.869297  1
  Si  Si19  1  0.817625  0.817625  0.449664  1
  Si  Si20  1  0.330528  0.972290  0.643794  1
  Si  Si21  1  0.666562  0.025910  0.356193  1
  Si  Si22  1  0.182243  0.182243  0.550741  1
  Si  Si23  1  0.972290  0.330528  0.643794  1
  Si  Si24  1  0.025910  0.666562  0.356193  1
  Si  Si25  1  0.706951  0.706951  0.067398  1
  Si  Si26  1  0.577804  0.577804  0.855670  1
  As  As27  1  0.222133  0.222133  0.069401  1
