# generated using pymatgen
data_SmPa3O8
_symmetry_space_group_name_H-M   'P 1'
_cell_length_a   5.46474757
_cell_length_b   5.46474757
_cell_length_c   5.46474757
_cell_angle_alpha   90.06138146
_cell_angle_beta   90.06138146
_cell_angle_gamma   90.06138146
_symmetry_Int_Tables_number   1
_chemical_formula_structural   SmPa3O8
_chemical_formula_sum   'Sm1 Pa3 O8'
_cell_volume   163.19602202
_cell_formula_units_Z   1
loop_
 _symmetry_equiv_pos_site_id
 _symmetry_equiv_pos_as_xyz
  1  'x, y, z'
loop_
 _atom_site_type_symbol
 _atom_site_label
 _atom_site_symmetry_multiplicity
 _atom_site_fract_x
 _atom_site_fract_y
 _atom_site_fract_z
 _atom_site_occupancy
  Sm  Sm0  1  0.000000  0.000000  0.000000  1
  Pa  Pa1  1  0.500000  0.500000  0.000000  1
  Pa  Pa2  1  0.500000  0.000000  0.500000  1
  Pa  Pa3  1  0.000000  0.500000  0.500000  1
  O  O4  1  0.746191  0.258242  0.253042  1
  O  O5  1  0.741757  0.746957  0.253808  1
  O  O6  1  0.257119  0.257119  0.257119  1
  O  O7  1  0.253042  0.746191  0.258242  1
  O  O8  1  0.746957  0.253808  0.741757  1
  O  O9  1  0.742880  0.742880  0.742880  1
  O  O10  1  0.258242  0.253042  0.746191  1
  O  O11  1  0.253808  0.741757  0.746957  1
