# generated using pymatgen
data_CeDy9(SiB4)4
_symmetry_space_group_name_H-M   'P 1'
_cell_length_a   7.24353105
_cell_length_b   7.24353128
_cell_length_c   8.13709200
_cell_angle_alpha   89.99729472
_cell_angle_beta   89.99730165
_cell_angle_gamma   90.03958115
_symmetry_Int_Tables_number   1
_chemical_formula_structural   CeDy9(SiB4)4
_chemical_formula_sum   'Ce1 Dy9 Si4 B16'
_cell_volume   426.94289209
_cell_formula_units_Z   1
loop_
 _symmetry_equiv_pos_site_id
 _symmetry_equiv_pos_as_xyz
  1  'x, y, z'
loop_
 _atom_site_type_symbol
 _atom_site_label
 _atom_site_symmetry_multiplicity
 _atom_site_fract_x
 _atom_site_fract_y
 _atom_site_fract_z
 _atom_site_occupancy
  Ce  Ce0  1  0.682187  0.182187  0.231187  1
  Dy  Dy1  1  0.318693  0.818693  0.777165  1
  Dy  Dy2  1  0.319531  0.819531  0.222582  1
  Dy  Dy3  1  0.819450  0.680592  0.222425  1
  Dy  Dy4  1  0.819604  0.680844  0.777383  1
  Dy  Dy5  1  0.680755  0.180755  0.776768  1
  Dy  Dy6  1  0.180844  0.319604  0.777383  1
  Dy  Dy7  1  0.180592  0.319450  0.222425  1
  Dy  Dy8  1  0.000676  0.999065  0.500417  1
  Dy  Dy9  1  0.499065  0.500676  0.500417  1
  Si  Si10  1  0.115798  0.615798  0.502015  1
  Si  Si11  1  0.886400  0.386400  0.500955  1
  Si  Si12  1  0.384662  0.114086  0.499985  1
  Si  Si13  1  0.614086  0.884662  0.499985  1
  B  B14  1  0.172564  0.038799  0.998802  1
  B  B15  1  0.827813  0.960799  0.999672  1
  B  B16  1  0.960806  0.171667  0.999470  1
  B  B17  1  0.327329  0.539692  0.998969  1
  B  B18  1  0.039692  0.827329  0.998969  1
  B  B19  1  0.671667  0.460806  0.999470  1
  B  B20  1  0.538799  0.672564  0.998802  1
  B  B21  1  0.460799  0.327813  0.999672  1
  B  B22  1  0.090113  0.590113  0.999182  1
  B  B23  1  0.909562  0.409562  0.001060  1
  B  B24  1  0.409726  0.089896  0.999181  1
  B  B25  1  0.589896  0.909726  0.999181  1
  B  B26  1  0.999724  0.999254  0.160859  1
  B  B27  1  0.000220  0.999691  0.837380  1
  B  B28  1  0.499691  0.500220  0.837380  1
  B  B29  1  0.499254  0.499724  0.160859  1
