# generated using pymatgen
data_Er5Cd4PdAu
_symmetry_space_group_name_H-M   'P 1'
_cell_length_a   3.61805000
_cell_length_b   8.02260183
_cell_length_c   18.38172139
_cell_angle_alpha   89.84824858
_cell_angle_beta   90.00000000
_cell_angle_gamma   90.00000000
_symmetry_Int_Tables_number   1
_chemical_formula_structural   Er5Cd4PdAu
_chemical_formula_sum   'Er10 Cd8 Pd2 Au2'
_cell_volume   533.54918234
_cell_formula_units_Z   2
loop_
 _symmetry_equiv_pos_site_id
 _symmetry_equiv_pos_as_xyz
  1  'x, y, z'
loop_
 _atom_site_type_symbol
 _atom_site_label
 _atom_site_symmetry_multiplicity
 _atom_site_fract_x
 _atom_site_fract_y
 _atom_site_fract_z
 _atom_site_occupancy
  Er  Er0  1  0.000000  0.500000  0.500000  1
  Er  Er1  1  0.000000  0.000000  0.000000  1
  Er  Er2  1  0.000000  0.749892  0.283771  1
  Er  Er3  1  0.000000  0.250108  0.716229  1
  Er  Er4  1  0.000000  0.767357  0.781156  1
  Er  Er5  1  0.000000  0.232643  0.218844  1
  Er  Er6  1  0.000000  0.616222  0.081385  1
  Er  Er7  1  0.000000  0.383778  0.918615  1
  Er  Er8  1  0.000000  0.885622  0.583367  1
  Er  Er9  1  0.000000  0.114378  0.416633  1
  Cd  Cd10  1  0.500000  0.715316  0.932615  1
  Cd  Cd11  1  0.500000  0.284684  0.067385  1
  Cd  Cd12  1  0.500000  0.786554  0.433127  1
  Cd  Cd13  1  0.500000  0.213446  0.566873  1
  Cd  Cd14  1  0.500000  0.576346  0.646629  1
  Cd  Cd15  1  0.500000  0.423654  0.353371  1
  Cd  Cd16  1  0.500000  0.925548  0.147714  1
  Cd  Cd17  1  0.500000  0.074452  0.852286  1
  Pd  Pd18  1  0.500000  0.971929  0.695294  1
  Pd  Pd19  1  0.500000  0.028071  0.304706  1
  Au  Au20  1  0.500000  0.528453  0.197470  1
  Au  Au21  1  0.500000  0.471547  0.802530  1
