# generated using pymatgen
data_Ho5In4CuOs
_symmetry_space_group_name_H-M   'P 1'
_cell_length_a   3.61999000
_cell_length_b   8.09262516
_cell_length_c   18.15512438
_cell_angle_alpha   90.02320700
_cell_angle_beta   90.00000000
_cell_angle_gamma   90.00000000
_symmetry_Int_Tables_number   1
_chemical_formula_structural   Ho5In4CuOs
_chemical_formula_sum   'Ho10 In8 Cu2 Os2'
_cell_volume   531.85835847
_cell_formula_units_Z   2
loop_
 _symmetry_equiv_pos_site_id
 _symmetry_equiv_pos_as_xyz
  1  'x, y, z'
loop_
 _atom_site_type_symbol
 _atom_site_label
 _atom_site_symmetry_multiplicity
 _atom_site_fract_x
 _atom_site_fract_y
 _atom_site_fract_z
 _atom_site_occupancy
  Ho  Ho0  1  0.000000  0.500000  0.500000  1
  Ho  Ho1  1  0.000000  0.000000  0.000000  1
  Ho  Ho2  1  0.000000  0.724933  0.278260  1
  Ho  Ho3  1  0.000000  0.275067  0.721740  1
  Ho  Ho4  1  0.000000  0.745211  0.780059  1
  Ho  Ho5  1  0.000000  0.254789  0.219941  1
  Ho  Ho6  1  0.000000  0.614162  0.086076  1
  Ho  Ho7  1  0.000000  0.385838  0.913924  1
  Ho  Ho8  1  0.000000  0.882555  0.584049  1
  Ho  Ho9  1  0.000000  0.117445  0.415951  1
  In  In10  1  0.500000  0.710304  0.930170  1
  In  In11  1  0.500000  0.289696  0.069830  1
  In  In12  1  0.500000  0.791775  0.431808  1
  In  In13  1  0.500000  0.208225  0.568192  1
  In  In14  1  0.500000  0.576316  0.648959  1
  In  In15  1  0.500000  0.423684  0.351041  1
  In  In16  1  0.500000  0.921020  0.151236  1
  In  In17  1  0.500000  0.078980  0.848764  1
  Cu  Cu18  1  0.500000  0.981080  0.697013  1
  Cu  Cu19  1  0.500000  0.018920  0.302987  1
  Os  Os20  1  0.500000  0.520324  0.196536  1
  Os  Os21  1  0.500000  0.479676  0.803464  1
