# generated using pymatgen
data_Mg2Fe3Co7P7Ru2
_symmetry_space_group_name_H-M   'P 1'
_cell_length_a   8.93015928
_cell_length_b   8.94239796
_cell_length_c   3.59394600
_cell_angle_alpha   90.00000000
_cell_angle_beta   90.00000000
_cell_angle_gamma   119.71545849
_symmetry_Int_Tables_number   1
_chemical_formula_structural   Mg2Fe3Co7P7Ru2
_chemical_formula_sum   'Mg2 Fe3 Co7 P7 Ru2'
_cell_volume   249.26050588
_cell_formula_units_Z   1
loop_
 _symmetry_equiv_pos_site_id
 _symmetry_equiv_pos_as_xyz
  1  'x, y, z'
loop_
 _atom_site_type_symbol
 _atom_site_label
 _atom_site_symmetry_multiplicity
 _atom_site_fract_x
 _atom_site_fract_y
 _atom_site_fract_z
 _atom_site_occupancy
  Mg  Mg0  1  0.997773  0.000432  0.000000  1
  Mg  Mg1  1  0.334096  0.668204  0.500000  1
  Fe  Fe2  1  0.055064  0.769255  0.500000  1
  Fe  Fe3  1  0.720147  0.945046  0.500000  1
  Fe  Fe4  1  0.891969  0.430240  0.500000  1
  Co  Co5  1  0.380948  0.210455  0.000000  1
  Co  Co6  1  0.788803  0.176591  0.000000  1
  Co  Co7  1  0.826879  0.611626  0.000000  1
  Co  Co8  1  0.601319  0.704118  0.000000  1
  Co  Co9  1  0.295603  0.896623  0.000000  1
  Co  Co10  1  0.104103  0.399543  0.000000  1
  Co  Co11  1  0.223096  0.279536  0.500000  1
  P  P12  1  0.251268  0.040624  0.500000  1
  P  P13  1  0.953243  0.212739  0.500000  1
  P  P14  1  0.793357  0.746940  0.500000  1
  P  P15  1  0.368078  0.449782  0.000000  1
  P  P16  1  0.554286  0.921234  0.000000  1
  P  P17  1  0.080441  0.630294  0.000000  1
  P  P18  1  0.667717  0.334198  0.000000  1
  Ru  Ru19  1  0.540573  0.114021  0.500000  1
  Ru  Ru20  1  0.571239  0.458494  0.500000  1
