# generated using pymatgen
data_PuMgB6Os
_symmetry_space_group_name_H-M   'P 1'
_cell_length_a   3.56779500
_cell_length_b   8.91603400
_cell_length_c   11.33126800
_cell_angle_alpha   90.00000000
_cell_angle_beta   90.00000000
_cell_angle_gamma   90.00000000
_symmetry_Int_Tables_number   1
_chemical_formula_structural   PuMgB6Os
_chemical_formula_sum   'Pu4 Mg4 B24 Os4'
_cell_volume   360.45422450
_cell_formula_units_Z   4
loop_
 _symmetry_equiv_pos_site_id
 _symmetry_equiv_pos_as_xyz
  1  'x, y, z'
loop_
 _atom_site_type_symbol
 _atom_site_label
 _atom_site_symmetry_multiplicity
 _atom_site_fract_x
 _atom_site_fract_y
 _atom_site_fract_z
 _atom_site_occupancy
  Pu  Pu0  1  0.000000  0.321071  0.414265  1
  Pu  Pu1  1  0.000000  0.678929  0.585735  1
  Pu  Pu2  1  0.000000  0.821071  0.085735  1
  Pu  Pu3  1  0.000000  0.178929  0.914265  1
  Mg  Mg4  1  0.000000  0.944762  0.373852  1
  Mg  Mg5  1  0.000000  0.055238  0.626149  1
  Mg  Mg6  1  0.000000  0.444762  0.126148  1
  Mg  Mg7  1  0.000000  0.555238  0.873851  1
  B  B8  1  0.500000  0.554860  0.432322  1
  B  B9  1  0.500000  0.445140  0.567678  1
  B  B10  1  0.500000  0.054860  0.067678  1
  B  B11  1  0.500000  0.945140  0.932322  1
  B  B12  1  0.500000  0.754459  0.418624  1
  B  B13  1  0.500000  0.245541  0.581376  1
  B  B14  1  0.500000  0.254459  0.081376  1
  B  B15  1  0.500000  0.745541  0.918624  1
  B  B16  1  0.500000  0.794508  0.263726  1
  B  B17  1  0.500000  0.205492  0.736274  1
  B  B18  1  0.500000  0.294507  0.236274  1
  B  B19  1  0.500000  0.705492  0.763726  1
  B  B20  1  0.500000  0.629080  0.182001  1
  B  B21  1  0.500000  0.370920  0.817999  1
  B  B22  1  0.500000  0.129080  0.317999  1
  B  B23  1  0.500000  0.870920  0.682001  1
  B  B24  1  0.500000  0.980793  0.213482  1
  B  B25  1  0.500000  0.019207  0.786518  1
  B  B26  1  0.500000  0.480793  0.286518  1
  B  B27  1  0.500000  0.519207  0.713482  1
  B  B28  1  0.500000  0.594051  0.025577  1
  B  B29  1  0.500000  0.405949  0.974423  1
  B  B30  1  0.500000  0.094051  0.474423  1
  B  B31  1  0.500000  0.905949  0.525577  1
  Os  Os32  1  0.000000  0.641100  0.317543  1
  Os  Os33  1  0.000000  0.358900  0.682457  1
  Os  Os34  1  0.000000  0.141100  0.182457  1
  Os  Os35  1  0.000000  0.858900  0.817543  1
