# generated using pymatgen
data_Er5Tm7TcOs3
_symmetry_space_group_name_H-M   'P 1'
_cell_length_a   7.36810940
_cell_length_b   8.90603533
_cell_length_c   6.22747024
_cell_angle_alpha   89.96872879
_cell_angle_beta   89.91036286
_cell_angle_gamma   89.99769189
_symmetry_Int_Tables_number   1
_chemical_formula_structural   Er5Tm7TcOs3
_chemical_formula_sum   'Er5 Tm7 Tc1 Os3'
_cell_volume   408.65003816
_cell_formula_units_Z   1
loop_
 _symmetry_equiv_pos_site_id
 _symmetry_equiv_pos_as_xyz
  1  'x, y, z'
loop_
 _atom_site_type_symbol
 _atom_site_label
 _atom_site_symmetry_multiplicity
 _atom_site_fract_x
 _atom_site_fract_y
 _atom_site_fract_z
 _atom_site_occupancy
  Er  Er0  1  0.039778  0.250225  0.627231  1
  Er  Er1  1  0.959398  0.749727  0.371462  1
  Er  Er2  1  0.460650  0.749712  0.128774  1
  Er  Er3  1  0.539387  0.250204  0.874875  1
  Er  Er4  1  0.174789  0.062314  0.164253  1
  Tm  Tm5  1  0.824764  0.937983  0.833663  1
  Tm  Tm6  1  0.325584  0.937227  0.664742  1
  Tm  Tm7  1  0.824924  0.561962  0.833837  1
  Tm  Tm8  1  0.675075  0.062529  0.335133  1
  Tm  Tm9  1  0.174510  0.437927  0.164015  1
  Tm  Tm10  1  0.675108  0.437520  0.335028  1
  Tm  Tm11  1  0.325482  0.562672  0.664689  1
  Tc  Tc12  1  0.382486  0.250168  0.463466  1
  Os  Os13  1  0.618837  0.750016  0.539616  1
  Os  Os14  1  0.117743  0.749600  0.960954  1
  Os  Os15  1  0.881483  0.250215  0.038260  1
