# generated using pymatgen
data_YbTa6(CS2)3
_symmetry_space_group_name_H-M   'P 1'
_cell_length_a   5.77357966
_cell_length_b   5.77357812
_cell_length_c   9.73370478
_cell_angle_alpha   84.34245038
_cell_angle_beta   84.34244980
_cell_angle_gamma   119.88609342
_symmetry_Int_Tables_number   1
_chemical_formula_structural   YbTa6(CS2)3
_chemical_formula_sum   'Yb1 Ta6 C3 S6'
_cell_volume   275.81422398
_cell_formula_units_Z   1
loop_
 _symmetry_equiv_pos_site_id
 _symmetry_equiv_pos_as_xyz
  1  'x, y, z'
loop_
 _atom_site_type_symbol
 _atom_site_label
 _atom_site_symmetry_multiplicity
 _atom_site_fract_x
 _atom_site_fract_y
 _atom_site_fract_z
 _atom_site_occupancy
  Yb  Yb0  1  0.000000  0.000000  0.000000  1
  Ta  Ta1  1  0.128069  0.128069  0.618689  1
  Ta  Ta2  1  0.460905  0.794842  0.619167  1
  Ta  Ta3  1  0.794842  0.460905  0.619167  1
  Ta  Ta4  1  0.205158  0.539095  0.380833  1
  Ta  Ta5  1  0.539095  0.205158  0.380833  1
  Ta  Ta6  1  0.871931  0.871931  0.381311  1
  C  C7  1  0.166783  0.833217  0.500000  1
  C  C8  1  0.500000  0.500000  0.500000  1
  C  C9  1  0.833217  0.166783  0.500000  1
  S  S10  1  0.267011  0.267011  0.209130  1
  S  S11  1  0.594000  0.930638  0.208944  1
  S  S12  1  0.930638  0.594000  0.208944  1
  S  S13  1  0.069362  0.406000  0.791056  1
  S  S14  1  0.406000  0.069362  0.791056  1
  S  S15  1  0.732989  0.732989  0.790870  1
