# generated using pymatgen
data_Pr9Nd3(GaI3)4
_symmetry_space_group_name_H-M   'P 1'
_cell_length_a   10.94143752
_cell_length_b   10.93944974
_cell_length_c   10.93859731
_cell_angle_alpha   109.44366692
_cell_angle_beta   109.47160947
_cell_angle_gamma   109.50205179
_symmetry_Int_Tables_number   1
_chemical_formula_structural   Pr9Nd3(GaI3)4
_chemical_formula_sum   'Pr9 Nd3 Ga4 I12'
_cell_volume   1007.83600385
_cell_formula_units_Z   1
loop_
 _symmetry_equiv_pos_site_id
 _symmetry_equiv_pos_as_xyz
  1  'x, y, z'
loop_
 _atom_site_type_symbol
 _atom_site_label
 _atom_site_symmetry_multiplicity
 _atom_site_fract_x
 _atom_site_fract_y
 _atom_site_fract_z
 _atom_site_occupancy
  Pr  Pr0  1  0.486158  0.749827  0.013903  1
  Pr  Pr1  1  0.749726  0.236019  0.263671  1
  Pr  Pr2  1  0.013340  0.486265  0.750066  1
  Pr  Pr3  1  0.236239  0.263587  0.750275  1
  Pr  Pr4  1  0.486190  0.236253  0.472710  1
  Pr  Pr5  1  0.472598  0.486470  0.236428  1
  Pr  Pr6  1  0.263636  0.013440  0.027337  1
  Pr  Pr7  1  0.013369  0.026988  0.263472  1
  Pr  Pr8  1  0.236147  0.472727  0.486319  1
  Nd  Nd9  1  0.028483  0.264338  0.014321  1
  Nd  Nd10  1  0.749845  0.014218  0.485725  1
  Nd  Nd11  1  0.264325  0.749918  0.235776  1
  Ga  Ga12  1  0.499982  0.999250  0.250794  1
  Ga  Ga13  1  0.249215  0.500028  0.000742  1
  Ga  Ga14  1  0.249251  0.249949  0.249239  1
  Ga  Ga15  1  0.999243  0.249228  0.500004  1
  I  I16  1  0.757277  0.743904  0.251318  1
  I  I17  1  0.993588  0.506996  0.248709  1
  I  I18  1  0.249998  0.757244  0.742762  1
  I  I19  1  0.757242  0.514510  0.507236  1
  I  I20  1  0.507259  0.250025  0.992777  1
  I  I21  1  0.743655  0.993701  0.985463  1
  I  I22  1  0.991592  0.986599  0.743006  1
  I  I23  1  0.514513  0.507287  0.757293  1
  I  I24  1  0.249925  0.991699  0.506271  1
  I  I25  1  0.743608  0.248611  0.757024  1
  I  I26  1  0.506995  0.758271  0.513379  1
  I  I27  1  0.986602  0.742650  0.993982  1
