# generated using pymatgen
data_Er7LuReOsBr8
_symmetry_space_group_name_H-M   'P 1'
_cell_length_a   8.87337636
_cell_length_b   8.89152808
_cell_length_c   6.53244822
_cell_angle_alpha   89.45978377
_cell_angle_beta   89.57885253
_cell_angle_gamma   89.32861828
_symmetry_Int_Tables_number   1
_chemical_formula_structural   Er7LuReOsBr8
_chemical_formula_sum   'Er7 Lu1 Re1 Os1 Br8'
_cell_volume   515.32448364
_cell_formula_units_Z   1
loop_
 _symmetry_equiv_pos_site_id
 _symmetry_equiv_pos_as_xyz
  1  'x, y, z'
loop_
 _atom_site_type_symbol
 _atom_site_label
 _atom_site_symmetry_multiplicity
 _atom_site_fract_x
 _atom_site_fract_y
 _atom_site_fract_z
 _atom_site_occupancy
  Er  Er0  1  0.750299  0.099079  0.989523  1
  Er  Er1  1  0.099496  0.751104  0.488180  1
  Er  Er2  1  0.901099  0.249256  0.510531  1
  Er  Er3  1  0.752059  0.902513  0.508200  1
  Er  Er4  1  0.248629  0.096985  0.490672  1
  Er  Er5  1  0.097986  0.247399  0.992278  1
  Er  Er6  1  0.903127  0.752003  0.009347  1
  Lu  Lu7  1  0.245432  0.902291  0.012530  1
  Re  Re8  1  0.994629  0.005649  0.249658  1
  Os  Os9  1  0.005917  0.994630  0.750924  1
  Br  Br10  1  0.421576  0.816162  0.404761  1
  Br  Br11  1  0.579070  0.183849  0.594408  1
  Br  Br12  1  0.184656  0.579068  0.093328  1
  Br  Br13  1  0.816203  0.420820  0.905565  1
  Br  Br14  1  0.417315  0.192385  0.096151  1
  Br  Br15  1  0.582284  0.807692  0.903586  1
  Br  Br16  1  0.807062  0.582886  0.403913  1
  Br  Br17  1  0.193160  0.416230  0.596444  1
