# generated using pymatgen
data_Lu3Al2IrC
_symmetry_space_group_name_H-M   'P 1'
_cell_length_a   8.94636357
_cell_length_b   8.94636354
_cell_length_c   8.94636200
_cell_angle_alpha   59.99999831
_cell_angle_beta   59.99999841
_cell_angle_gamma   59.99999671
_symmetry_Int_Tables_number   1
_chemical_formula_structural   Lu3Al2IrC
_chemical_formula_sum   'Lu12 Al8 Ir4 C4'
_cell_volume   506.31935974
_cell_formula_units_Z   4
loop_
 _symmetry_equiv_pos_site_id
 _symmetry_equiv_pos_as_xyz
  1  'x, y, z'
loop_
 _atom_site_type_symbol
 _atom_site_label
 _atom_site_symmetry_multiplicity
 _atom_site_fract_x
 _atom_site_fract_y
 _atom_site_fract_z
 _atom_site_occupancy
  Lu  Lu0  1  0.548563  0.951437  0.548563  1
  Lu  Lu1  1  0.298563  0.701437  0.701437  1
  Lu  Lu2  1  0.701437  0.298563  0.298563  1
  Lu  Lu3  1  0.298563  0.701437  0.298563  1
  Lu  Lu4  1  0.701437  0.701437  0.298563  1
  Lu  Lu5  1  0.298563  0.298563  0.701437  1
  Lu  Lu6  1  0.548563  0.548563  0.951437  1
  Lu  Lu7  1  0.951437  0.548563  0.548563  1
  Lu  Lu8  1  0.548563  0.951437  0.951437  1
  Lu  Lu9  1  0.951437  0.951437  0.548563  1
  Lu  Lu10  1  0.701437  0.298563  0.701437  1
  Lu  Lu11  1  0.951437  0.548563  0.951437  1
  Al  Al12  1  0.923454  0.923454  0.923454  1
  Al  Al13  1  0.020360  0.326546  0.326546  1
  Al  Al14  1  0.326546  0.020360  0.326546  1
  Al  Al15  1  0.326546  0.326546  0.020360  1
  Al  Al16  1  0.923454  0.229640  0.923454  1
  Al  Al17  1  0.923454  0.923454  0.229640  1
  Al  Al18  1  0.229640  0.923454  0.923454  1
  Al  Al19  1  0.326546  0.326546  0.326546  1
  Ir  Ir20  1  0.125000  0.125000  0.125000  1
  Ir  Ir21  1  0.625000  0.125000  0.125000  1
  Ir  Ir22  1  0.125000  0.625000  0.125000  1
  Ir  Ir23  1  0.125000  0.125000  0.625000  1
  C  C24  1  0.625000  0.625000  0.625000  1
  C  C25  1  0.125000  0.625000  0.625000  1
  C  C26  1  0.625000  0.125000  0.625000  1
  C  C27  1  0.625000  0.625000  0.125000  1
