# generated using pymatgen
data_K2CoH7
_symmetry_space_group_name_H-M   'P 1'
_cell_length_a   5.56181784
_cell_length_b   5.69319639
_cell_length_c   5.65940481
_cell_angle_alpha   96.88090309
_cell_angle_beta   115.31432974
_cell_angle_gamma   117.28713296
_symmetry_Int_Tables_number   1
_chemical_formula_structural   K2CoH7
_chemical_formula_sum   'K2 Co1 H7'
_cell_volume   132.37607835
_cell_formula_units_Z   1
loop_
 _symmetry_equiv_pos_site_id
 _symmetry_equiv_pos_as_xyz
  1  'x, y, z'
loop_
 _atom_site_type_symbol
 _atom_site_label
 _atom_site_symmetry_multiplicity
 _atom_site_fract_x
 _atom_site_fract_y
 _atom_site_fract_z
 _atom_site_occupancy
  K  K0  1  0.107794  0.083001  0.981371  1
  K  K1  1  0.111360  0.585148  0.476139  1
  Co  Co2  1  0.615180  0.344830  0.742152  1
  H  H3  1  0.632115  0.156333  0.551575  1
  H  H4  1  0.984920  0.516190  0.910594  1
  H  H5  1  0.480610  0.477941  0.855033  1
  H  H6  1  0.250656  0.130376  0.531215  1
  H  H7  1  0.605345  0.149259  0.911379  1
  H  H8  1  0.625486  0.522207  0.555030  1
  H  H9  1  0.705292  0.576519  0.995849  1
