# generated using pymatgen
data_PrDy4MnRuO12
_symmetry_space_group_name_H-M   'P 1'
_cell_length_a   6.91202335
_cell_length_b   6.91202248
_cell_length_c   7.34129740
_cell_angle_alpha   74.59026710
_cell_angle_beta   74.59026689
_cell_angle_gamma   50.11696841
_symmetry_Int_Tables_number   1
_chemical_formula_structural   PrDy4MnRuO12
_chemical_formula_sum   'Pr1 Dy4 Mn1 Ru1 O12'
_cell_volume   257.30169271
_cell_formula_units_Z   1
loop_
 _symmetry_equiv_pos_site_id
 _symmetry_equiv_pos_as_xyz
  1  'x, y, z'
loop_
 _atom_site_type_symbol
 _atom_site_label
 _atom_site_symmetry_multiplicity
 _atom_site_fract_x
 _atom_site_fract_y
 _atom_site_fract_z
 _atom_site_occupancy
  Pr  Pr0  1  0.997962  0.002038  0.500000  1
  Dy  Dy1  1  0.308623  0.297086  0.358560  1
  Dy  Dy2  1  0.702914  0.691377  0.641440  1
  Dy  Dy3  1  0.696029  0.695701  0.163821  1
  Dy  Dy4  1  0.304299  0.303971  0.836179  1
  Mn  Mn5  1  0.748764  0.251236  0.000000  1
  Ru  Ru6  1  0.242345  0.757655  0.000000  1
  O  O7  1  0.098647  0.586027  0.579368  1
  O  O8  1  0.993433  0.005107  0.175111  1
  O  O9  1  0.413973  0.901353  0.420632  1
  O  O10  1  0.503423  0.497093  0.182009  1
  O  O11  1  0.097833  0.575987  0.080422  1
  O  O12  1  0.906150  0.413141  0.419551  1
  O  O13  1  0.994893  0.006567  0.824889  1
  O  O14  1  0.586859  0.093849  0.580449  1
  O  O15  1  0.502907  0.496577  0.817991  1
  O  O16  1  0.578286  0.101353  0.079412  1
  O  O17  1  0.424013  0.902167  0.919578  1
  O  O18  1  0.898647  0.421714  0.920588  1
