# generated using pymatgen
data_Th4P5Se3
_symmetry_space_group_name_H-M   'P 1'
_cell_length_a   9.23307157
_cell_length_b   9.23307215
_cell_length_c   9.23307100
_cell_angle_alpha   143.34832796
_cell_angle_beta   143.34833277
_cell_angle_gamma   52.80289341
_symmetry_Int_Tables_number   1
_chemical_formula_structural   Th4P5Se3
_chemical_formula_sum   'Th4 P5 Se3'
_cell_volume   278.79385738
_cell_formula_units_Z   1
loop_
 _symmetry_equiv_pos_site_id
 _symmetry_equiv_pos_as_xyz
  1  'x, y, z'
loop_
 _atom_site_type_symbol
 _atom_site_label
 _atom_site_symmetry_multiplicity
 _atom_site_fract_x
 _atom_site_fract_y
 _atom_site_fract_z
 _atom_site_occupancy
  Th  Th0  1  0.965334  0.965334  0.000000  1
  Th  Th1  1  0.511290  0.511290  0.000000  1
  Th  Th2  1  0.231110  0.731110  0.500000  1
  Th  Th3  1  0.731110  0.231110  0.500000  1
  P  P4  1  0.689817  0.689817  0.000000  1
  P  P5  1  0.565589  0.565589  0.406546  1
  P  P6  1  0.565589  0.159043  0.000000  1
  P  P7  1  0.159043  0.565589  0.000000  1
  P  P8  1  0.159043  0.159043  0.593454  1
  Se  Se9  1  0.041794  0.541794  0.500000  1
  Se  Se10  1  0.541794  0.041794  0.500000  1
  Se  Se11  1  0.163392  0.163392  0.000000  1
