# generated using pymatgen
data_Sr2Ca4LaNi4Sn13
_symmetry_space_group_name_H-M   'P 1'
_cell_length_a   11.33923100
_cell_length_b   11.33923100
_cell_length_c   4.68571600
_cell_angle_alpha   90.00000000
_cell_angle_beta   90.00000000
_cell_angle_gamma   90.00000000
_symmetry_Int_Tables_number   1
_chemical_formula_structural   Sr2Ca4LaNi4Sn13
_chemical_formula_sum   'Sr2 Ca4 La1 Ni4 Sn13'
_cell_volume   602.48074002
_cell_formula_units_Z   1
loop_
 _symmetry_equiv_pos_site_id
 _symmetry_equiv_pos_as_xyz
  1  'x, y, z'
loop_
 _atom_site_type_symbol
 _atom_site_label
 _atom_site_symmetry_multiplicity
 _atom_site_fract_x
 _atom_site_fract_y
 _atom_site_fract_z
 _atom_site_occupancy
  Sr  Sr0  1  0.000000  0.500000  0.000000  1
  Sr  Sr1  1  0.500000  0.000000  0.000000  1
  Ca  Ca2  1  0.838128  0.169585  0.000000  1
  Ca  Ca3  1  0.830415  0.838128  0.000000  1
  Ca  Ca4  1  0.161872  0.830415  0.000000  1
  Ca  Ca5  1  0.169585  0.161872  0.000000  1
  La  La6  1  0.500000  0.500000  0.500000  1
  Ni  Ni7  1  0.776201  0.618584  0.500000  1
  Ni  Ni8  1  0.381416  0.776201  0.500000  1
  Ni  Ni9  1  0.618584  0.223799  0.500000  1
  Ni  Ni10  1  0.223799  0.381416  0.500000  1
  Sn  Sn11  1  0.018361  0.280665  0.500000  1
  Sn  Sn12  1  0.981639  0.719335  0.500000  1
  Sn  Sn13  1  0.216425  0.612931  0.500000  1
  Sn  Sn14  1  0.578904  0.307092  0.000000  1
  Sn  Sn15  1  0.692908  0.578904  0.000000  1
  Sn  Sn16  1  0.783575  0.387069  0.500000  1
  Sn  Sn17  1  0.719335  0.018361  0.500000  1
  Sn  Sn18  1  0.000000  0.000000  0.500000  1
  Sn  Sn19  1  0.280665  0.981639  0.500000  1
  Sn  Sn20  1  0.421096  0.692908  0.000000  1
  Sn  Sn21  1  0.612931  0.783575  0.500000  1
  Sn  Sn22  1  0.307092  0.421096  0.000000  1
  Sn  Sn23  1  0.387069  0.216425  0.500000  1
