# generated using pymatgen
data_YEr4IrPb3
_symmetry_space_group_name_H-M   'P 1'
_cell_length_a   9.17667600
_cell_length_b   9.17667590
_cell_length_c   6.83257100
_cell_angle_alpha   90.00000000
_cell_angle_beta   90.00000000
_cell_angle_gamma   119.99999315
_symmetry_Int_Tables_number   1
_chemical_formula_structural   YEr4IrPb3
_chemical_formula_sum   'Y2 Er8 Ir2 Pb6'
_cell_volume   498.29394169
_cell_formula_units_Z   2
loop_
 _symmetry_equiv_pos_site_id
 _symmetry_equiv_pos_as_xyz
  1  'x, y, z'
loop_
 _atom_site_type_symbol
 _atom_site_label
 _atom_site_symmetry_multiplicity
 _atom_site_fract_x
 _atom_site_fract_y
 _atom_site_fract_z
 _atom_site_occupancy
  Y  Y0  1  0.333333  0.666667  0.500000  1
  Y  Y1  1  0.666667  0.333333  0.500000  1
  Er  Er2  1  0.000000  0.764791  0.750299  1
  Er  Er3  1  0.235209  0.000000  0.249701  1
  Er  Er4  1  0.764791  0.000000  0.750299  1
  Er  Er5  1  0.000000  0.235209  0.249701  1
  Er  Er6  1  0.764791  0.764791  0.249701  1
  Er  Er7  1  0.235209  0.235209  0.750299  1
  Er  Er8  1  0.333333  0.666667  0.000000  1
  Er  Er9  1  0.666667  0.333333  0.000000  1
  Ir  Ir10  1  0.000000  0.000000  0.000000  1
  Ir  Ir11  1  0.000000  0.000000  0.500000  1
  Pb  Pb12  1  0.405178  0.405178  0.248756  1
  Pb  Pb13  1  0.000000  0.405178  0.751244  1
  Pb  Pb14  1  0.000000  0.594822  0.248756  1
  Pb  Pb15  1  0.594822  0.000000  0.248756  1
  Pb  Pb16  1  0.405178  0.000000  0.751244  1
  Pb  Pb17  1  0.594822  0.594822  0.751244  1
