# generated using pymatgen
data_Tb4LuIr2Ru
_symmetry_space_group_name_H-M   'P 1'
_cell_length_a   10.84736100
_cell_length_b   10.84736100
_cell_length_c   6.42745200
_cell_angle_alpha   90.00000000
_cell_angle_beta   90.00000000
_cell_angle_gamma   90.00000000
_symmetry_Int_Tables_number   1
_chemical_formula_structural   Tb4LuIr2Ru
_chemical_formula_sum   'Tb16 Lu4 Ir8 Ru4'
_cell_volume   756.28768644
_cell_formula_units_Z   4
loop_
 _symmetry_equiv_pos_site_id
 _symmetry_equiv_pos_as_xyz
  1  'x, y, z'
loop_
 _atom_site_type_symbol
 _atom_site_label
 _atom_site_symmetry_multiplicity
 _atom_site_fract_x
 _atom_site_fract_y
 _atom_site_fract_z
 _atom_site_occupancy
  Tb  Tb0  1  0.292142  0.086379  0.378050  1
  Tb  Tb1  1  0.292142  0.913621  0.878050  1
  Tb  Tb2  1  0.707858  0.086379  0.878050  1
  Tb  Tb3  1  0.707858  0.913621  0.378050  1
  Tb  Tb4  1  0.586379  0.792142  0.878050  1
  Tb  Tb5  1  0.586379  0.207858  0.378050  1
  Tb  Tb6  1  0.413621  0.792142  0.378050  1
  Tb  Tb7  1  0.413621  0.207858  0.878050  1
  Tb  Tb8  1  0.207858  0.413621  0.621950  1
  Tb  Tb9  1  0.207858  0.586379  0.121950  1
  Tb  Tb10  1  0.792142  0.413621  0.121950  1
  Tb  Tb11  1  0.792142  0.586379  0.621950  1
  Tb  Tb12  1  0.913621  0.707858  0.121950  1
  Tb  Tb13  1  0.913621  0.292142  0.621950  1
  Tb  Tb14  1  0.086379  0.707858  0.621950  1
  Tb  Tb15  1  0.086379  0.292142  0.121950  1
  Lu  Lu16  1  0.000000  0.000000  0.500000  1
  Lu  Lu17  1  0.000000  0.000000  0.000000  1
  Lu  Lu18  1  0.500000  0.500000  0.000000  1
  Lu  Lu19  1  0.500000  0.500000  0.500000  1
  Ir  Ir20  1  0.850426  0.149574  0.250000  1
  Ir  Ir21  1  0.850426  0.850426  0.750000  1
  Ir  Ir22  1  0.149574  0.149574  0.750000  1
  Ir  Ir23  1  0.149574  0.850426  0.250000  1
  Ir  Ir24  1  0.649574  0.350426  0.750000  1
  Ir  Ir25  1  0.649574  0.649574  0.250000  1
  Ir  Ir26  1  0.350426  0.350426  0.250000  1
  Ir  Ir27  1  0.350426  0.649574  0.750000  1
  Ru  Ru28  1  0.500000  0.000000  0.122189  1
  Ru  Ru29  1  0.500000  0.000000  0.622189  1
  Ru  Ru30  1  0.000000  0.500000  0.877811  1
  Ru  Ru31  1  0.000000  0.500000  0.377811  1
