# generated using pymatgen
data_NdSm7Sc12Si15Ni
_symmetry_space_group_name_H-M   'P 1'
_cell_length_a   7.14952612
_cell_length_b   7.51414344
_cell_length_c   14.06744563
_cell_angle_alpha   90.03134053
_cell_angle_beta   90.01356356
_cell_angle_gamma   89.97994153
_symmetry_Int_Tables_number   1
_chemical_formula_structural   NdSm7Sc12Si15Ni
_chemical_formula_sum   'Nd1 Sm7 Sc12 Si15 Ni1'
_cell_volume   755.73907919
_cell_formula_units_Z   1
loop_
 _symmetry_equiv_pos_site_id
 _symmetry_equiv_pos_as_xyz
  1  'x, y, z'
loop_
 _atom_site_type_symbol
 _atom_site_label
 _atom_site_symmetry_multiplicity
 _atom_site_fract_x
 _atom_site_fract_y
 _atom_site_fract_z
 _atom_site_occupancy
  Nd  Nd0  1  0.011691  0.175779  0.095907  1
  Sm  Sm1  1  0.989705  0.825520  0.903191  1
  Sm  Sm2  1  0.488869  0.676268  0.902691  1
  Sm  Sm3  1  0.989572  0.825461  0.596396  1
  Sm  Sm4  1  0.511582  0.324261  0.096108  1
  Sm  Sm5  1  0.011870  0.176709  0.403449  1
  Sm  Sm6  1  0.511676  0.324287  0.404281  1
  Sm  Sm7  1  0.488405  0.676361  0.596876  1
  Sc  Sc8  1  0.161036  0.503085  0.749912  1
  Sc  Sc9  1  0.839532  0.499233  0.250185  1
  Sc  Sc10  1  0.339145  0.002143  0.250241  1
  Sc  Sc11  1  0.669629  0.001973  0.749987  1
  Sc  Sc12  1  0.316970  0.172388  0.627856  1
  Sc  Sc13  1  0.671394  0.825983  0.374683  1
  Sc  Sc14  1  0.171497  0.676313  0.374614  1
  Sc  Sc15  1  0.671611  0.825901  0.125756  1
  Sc  Sc16  1  0.834878  0.319768  0.628055  1
  Sc  Sc17  1  0.317573  0.172622  0.871906  1
  Sc  Sc18  1  0.834212  0.320365  0.871729  1
  Sc  Sc19  1  0.171455  0.676029  0.125735  1
  Si  Si20  1  0.968252  0.878244  0.250568  1
  Si  Si21  1  0.468956  0.618943  0.250261  1
  Si  Si22  1  0.531975  0.381576  0.749729  1
  Si  Si23  1  0.282811  0.879508  0.749818  1
  Si  Si24  1  0.711070  0.124093  0.250823  1
  Si  Si25  1  0.213139  0.377353  0.250597  1
  Si  Si26  1  0.783862  0.621295  0.749727  1
  Si  Si27  1  0.155536  0.465310  0.539075  1
  Si  Si28  1  0.845917  0.536312  0.462219  1
  Si  Si29  1  0.346945  0.964122  0.461228  1
  Si  Si30  1  0.845187  0.537810  0.037302  1
  Si  Si31  1  0.654396  0.035869  0.540337  1
  Si  Si32  1  0.155830  0.466859  0.960354  1
  Si  Si33  1  0.653980  0.035755  0.959414  1
  Si  Si34  1  0.348676  0.962898  0.038390  1
  Ni  Ni35  1  0.031167  0.113605  0.750600  1
