# generated using pymatgen
data_CsTb2SmCBr6
_symmetry_space_group_name_H-M   'P 1'
_cell_length_a   8.91025921
_cell_length_b   8.94074182
_cell_length_c   9.53375731
_cell_angle_alpha   70.91383717
_cell_angle_beta   84.97261587
_cell_angle_gamma   89.21436065
_symmetry_Int_Tables_number   1
_chemical_formula_structural   CsTb2SmCBr6
_chemical_formula_sum   'Cs2 Tb4 Sm2 C2 Br12'
_cell_volume   714.89772548
_cell_formula_units_Z   2
loop_
 _symmetry_equiv_pos_site_id
 _symmetry_equiv_pos_as_xyz
  1  'x, y, z'
loop_
 _atom_site_type_symbol
 _atom_site_label
 _atom_site_symmetry_multiplicity
 _atom_site_fract_x
 _atom_site_fract_y
 _atom_site_fract_z
 _atom_site_occupancy
  Cs  Cs0  1  0.467462  0.364503  0.330585  1
  Cs  Cs1  1  0.532539  0.635497  0.669415  1
  Tb  Tb2  1  0.744124  0.085595  0.000939  1
  Tb  Tb3  1  0.255875  0.914405  0.999062  1
  Tb  Tb4  1  0.973630  0.886633  0.323543  1
  Tb  Tb5  1  0.026369  0.113367  0.676458  1
  Sm  Sm6  1  0.914480  0.739572  0.004578  1
  Sm  Sm7  1  0.085520  0.260428  0.995421  1
  C  C8  1  0.006319  0.026805  0.921313  1
  C  C9  1  0.993680  0.973195  0.078687  1
  Br  Br10  1  0.075222  0.194041  0.330656  1
  Br  Br11  1  0.924778  0.805959  0.669344  1
  Br  Br12  1  0.210175  0.594446  0.000760  1
  Br  Br13  1  0.789826  0.405554  0.999240  1
  Br  Br14  1  0.406286  0.196770  0.001683  1
  Br  Br15  1  0.593713  0.803231  0.998316  1
  Br  Br16  1  0.669207  0.000913  0.323738  1
  Br  Br17  1  0.330793  0.999087  0.676262  1
  Br  Br18  1  0.278766  0.777137  0.320468  1
  Br  Br19  1  0.721234  0.222863  0.679532  1
  Br  Br20  1  0.851592  0.590021  0.330444  1
  Br  Br21  1  0.148407  0.409979  0.669556  1
