# generated using pymatgen
data_Cs6DyY(TaS4)4
_symmetry_space_group_name_H-M   'P 1'
_cell_length_a   9.81998388
_cell_length_b   10.83671865
_cell_length_c   11.55269531
_cell_angle_alpha   107.48183550
_cell_angle_beta   103.81267505
_cell_angle_gamma   113.39018904
_symmetry_Int_Tables_number   1
_chemical_formula_structural   Cs6DyY(TaS4)4
_chemical_formula_sum   'Cs6 Dy1 Y1 Ta4 S16'
_cell_volume   982.14097929
_cell_formula_units_Z   1
loop_
 _symmetry_equiv_pos_site_id
 _symmetry_equiv_pos_as_xyz
  1  'x, y, z'
loop_
 _atom_site_type_symbol
 _atom_site_label
 _atom_site_symmetry_multiplicity
 _atom_site_fract_x
 _atom_site_fract_y
 _atom_site_fract_z
 _atom_site_occupancy
  Cs  Cs0  1  0.999993  0.500001  0.000006  1
  Cs  Cs1  1  0.500014  0.500007  0.000009  1
  Cs  Cs2  1  0.265628  0.015647  0.031189  1
  Cs  Cs3  1  0.483088  0.733089  0.466128  1
  Cs  Cs4  1  0.516911  0.266910  0.533871  1
  Cs  Cs5  1  0.734379  0.984363  0.968822  1
  Dy  Dy6  1  0.001078  0.751101  0.502121  1
  Y  Y7  1  0.998894  0.248866  0.497825  1
  Ta  Ta8  1  0.766660  0.356754  0.266520  1
  Ta  Ta9  1  0.999835  0.909745  0.266471  1
  Ta  Ta10  1  0.000165  0.090227  0.733527  1
  Ta  Ta11  1  0.233340  0.643273  0.733481  1
  S  S12  1  0.657268  0.275504  0.043988  1
  S  S13  1  0.886679  0.768437  0.043939  1
  S  S14  1  0.112339  0.159753  0.310007  1
  S  S15  1  0.697693  0.150268  0.310036  1
  S  S16  1  0.040945  0.503022  0.354403  1
  S  S17  1  0.813447  0.851419  0.354392  1
  S  S18  1  0.188030  0.858076  0.365946  1
  S  S19  1  0.677942  0.507950  0.365986  1
  S  S20  1  0.322349  0.492275  0.634154  1
  S  S21  1  0.811808  0.141831  0.634188  1
  S  S22  1  0.186655  0.148428  0.645688  1
  S  S23  1  0.959038  0.497215  0.645687  1
  S  S24  1  0.301990  0.849626  0.689757  1
  S  S25  1  0.887766  0.840142  0.689783  1
  S  S26  1  0.113321  0.231566  0.956057  1
  S  S27  1  0.342737  0.724500  0.956015  1
