# generated using pymatgen
data_Pr4NdBiPb2Br
_symmetry_space_group_name_H-M   'P 1'
_cell_length_a   9.73887070
_cell_length_b   9.73887145
_cell_length_c   6.84208504
_cell_angle_alpha   90.00601153
_cell_angle_beta   90.00600814
_cell_angle_gamma   120.31847357
_symmetry_Int_Tables_number   1
_chemical_formula_structural   Pr4NdBiPb2Br
_chemical_formula_sum   'Pr8 Nd2 Bi2 Pb4 Br2'
_cell_volume   560.18779385
_cell_formula_units_Z   2
loop_
 _symmetry_equiv_pos_site_id
 _symmetry_equiv_pos_as_xyz
  1  'x, y, z'
loop_
 _atom_site_type_symbol
 _atom_site_label
 _atom_site_symmetry_multiplicity
 _atom_site_fract_x
 _atom_site_fract_y
 _atom_site_fract_z
 _atom_site_occupancy
  Pr  Pr0  1  0.267058  0.997223  0.749738  1
  Pr  Pr1  1  0.732942  0.002777  0.250262  1
  Pr  Pr2  1  0.997223  0.267058  0.749738  1
  Pr  Pr3  1  0.002777  0.732942  0.250262  1
  Pr  Pr4  1  0.733443  0.733443  0.749783  1
  Pr  Pr5  1  0.266557  0.266557  0.250217  1
  Pr  Pr6  1  0.667821  0.332179  0.000000  1
  Pr  Pr7  1  0.332179  0.667821  0.000000  1
  Nd  Nd8  1  0.332162  0.667838  0.500000  1
  Nd  Nd9  1  0.667838  0.332162  0.500000  1
  Bi  Bi10  1  0.385149  0.385149  0.749415  1
  Bi  Bi11  1  0.614851  0.614851  0.250585  1
  Pb  Pb12  1  0.613289  0.999274  0.749379  1
  Pb  Pb13  1  0.386711  0.000726  0.250621  1
  Pb  Pb14  1  0.999274  0.613289  0.749379  1
  Pb  Pb15  1  0.000726  0.386711  0.250621  1
  Br  Br16  1  0.000000  0.000000  0.500000  1
  Br  Br17  1  0.000000  0.000000  0.000000  1
