# generated using pymatgen
data_DyEr2Cd(Ir2O7)2
_symmetry_space_group_name_H-M   'P 1'
_cell_length_a   7.18370200
_cell_length_b   7.17761800
_cell_length_c   7.17761868
_cell_angle_alpha   60.94908214
_cell_angle_beta   61.01416272
_cell_angle_gamma   61.01417324
_symmetry_Int_Tables_number   1
_chemical_formula_structural   DyEr2Cd(Ir2O7)2
_chemical_formula_sum   'Dy1 Er2 Cd1 Ir4 O14'
_cell_volume   267.54449360
_cell_formula_units_Z   1
loop_
 _symmetry_equiv_pos_site_id
 _symmetry_equiv_pos_as_xyz
  1  'x, y, z'
loop_
 _atom_site_type_symbol
 _atom_site_label
 _atom_site_symmetry_multiplicity
 _atom_site_fract_x
 _atom_site_fract_y
 _atom_site_fract_z
 _atom_site_occupancy
  Dy  Dy0  1  0.625000  0.125000  0.125000  1
  Er  Er1  1  0.125000  0.625000  0.125000  1
  Er  Er2  1  0.125000  0.125000  0.625000  1
  Cd  Cd3  1  0.125000  0.125000  0.125000  1
  Ir  Ir4  1  0.125000  0.625000  0.625000  1
  Ir  Ir5  1  0.625000  0.125000  0.625000  1
  Ir  Ir6  1  0.625000  0.625000  0.125000  1
  Ir  Ir7  1  0.625000  0.625000  0.625000  1
  O  O8  1  0.714350  0.710537  0.289436  1
  O  O9  1  0.294550  0.294684  0.697534  1
  O  O10  1  0.714350  0.289436  0.710537  1
  O  O11  1  0.294550  0.697534  0.294684  1
  O  O12  1  0.289203  0.712727  0.712727  1
  O  O13  1  0.699089  0.294870  0.294870  1
  O  O14  1  0.535650  0.539463  0.960564  1
  O  O15  1  0.955450  0.955316  0.552466  1
  O  O16  1  0.535650  0.960564  0.539463  1
  O  O17  1  0.955450  0.552466  0.955316  1
  O  O18  1  0.960797  0.537273  0.537273  1
  O  O19  1  0.550911  0.955130  0.955130  1
  O  O20  1  0.250163  0.253064  0.253064  1
  O  O21  1  0.999837  0.996936  0.996936  1
