# generated using pymatgen
data_Er4Sc16(Bi3Pb)3
_symmetry_space_group_name_H-M   'P 1'
_cell_length_a   7.86555307
_cell_length_b   9.07386906
_cell_length_c   11.52863911
_cell_angle_alpha   90.01030446
_cell_angle_beta   89.98804117
_cell_angle_gamma   89.99095584
_symmetry_Int_Tables_number   1
_chemical_formula_structural   Er4Sc16(Bi3Pb)3
_chemical_formula_sum   'Er4 Sc16 Bi9 Pb3'
_cell_volume   822.81044490
_cell_formula_units_Z   1
loop_
 _symmetry_equiv_pos_site_id
 _symmetry_equiv_pos_as_xyz
  1  'x, y, z'
loop_
 _atom_site_type_symbol
 _atom_site_label
 _atom_site_symmetry_multiplicity
 _atom_site_fract_x
 _atom_site_fract_y
 _atom_site_fract_z
 _atom_site_occupancy
  Er  Er0  1  0.314098  0.250637  0.218710  1
  Er  Er1  1  0.814167  0.249504  0.281222  1
  Er  Er2  1  0.684867  0.749863  0.781126  1
  Er  Er3  1  0.186549  0.749335  0.718351  1
  Sc  Sc4  1  0.348640  0.750271  0.220918  1
  Sc  Sc5  1  0.848831  0.749753  0.278843  1
  Sc  Sc6  1  0.650481  0.250846  0.779190  1
  Sc  Sc7  1  0.151958  0.250486  0.720348  1
  Sc  Sc8  1  0.694749  0.567513  0.061672  1
  Sc  Sc9  1  0.194503  0.932680  0.438213  1
  Sc  Sc10  1  0.306829  0.067318  0.938509  1
  Sc  Sc11  1  0.805387  0.432335  0.561882  1
  Sc  Sc12  1  0.306080  0.432109  0.937964  1
  Sc  Sc13  1  0.806131  0.067802  0.561391  1
  Sc  Sc14  1  0.693228  0.932364  0.062172  1
  Sc  Sc15  1  0.194011  0.567504  0.438044  1
  Sc  Sc16  1  0.483187  0.249344  0.489534  1
  Sc  Sc17  1  0.982884  0.250966  0.011004  1
  Sc  Sc18  1  0.517019  0.749397  0.510611  1
  Sc  Sc19  1  0.017664  0.749475  0.990228  1
  Bi  Bi20  1  0.401303  0.749968  0.965292  1
  Bi  Bi21  1  0.901622  0.750123  0.534897  1
  Bi  Bi22  1  0.598434  0.250049  0.034750  1
  Bi  Bi23  1  0.098344  0.250106  0.465175  1
  Bi  Bi24  1  0.936875  0.009176  0.827430  1
  Bi  Bi25  1  0.437097  0.009051  0.672612  1
  Bi  Bi26  1  0.937313  0.490864  0.827470  1
  Bi  Bi27  1  0.562468  0.508885  0.327528  1
  Bi  Bi28  1  0.062763  0.990951  0.172310  1
  Pb  Pb29  1  0.562472  0.991352  0.327494  1
  Pb  Pb30  1  0.062424  0.508680  0.172568  1
  Pb  Pb31  1  0.437625  0.491293  0.672544  1
