# generated using pymatgen
data_ZnBi3Sb2(RhO7)2
_symmetry_space_group_name_H-M   'P 1'
_cell_length_a   7.44538394
_cell_length_b   7.30908304
_cell_length_c   7.55597200
_cell_angle_alpha   58.87618522
_cell_angle_beta   59.50743034
_cell_angle_gamma   58.70108781
_symmetry_Int_Tables_number   1
_chemical_formula_structural   ZnBi3Sb2(RhO7)2
_chemical_formula_sum   'Zn1 Bi3 Sb2 Rh2 O14'
_cell_volume   284.27761960
_cell_formula_units_Z   1
loop_
 _symmetry_equiv_pos_site_id
 _symmetry_equiv_pos_as_xyz
  1  'x, y, z'
loop_
 _atom_site_type_symbol
 _atom_site_label
 _atom_site_symmetry_multiplicity
 _atom_site_fract_x
 _atom_site_fract_y
 _atom_site_fract_z
 _atom_site_occupancy
  Zn  Zn0  1  0.125000  0.625000  0.125000  1
  Bi  Bi1  1  0.125000  0.125000  0.125000  1
  Bi  Bi2  1  0.625000  0.125000  0.125000  1
  Bi  Bi3  1  0.125000  0.125000  0.625000  1
  Sb  Sb4  1  0.625000  0.625000  0.625000  1
  Sb  Sb5  1  0.625000  0.625000  0.125000  1
  Rh  Rh6  1  0.125000  0.625000  0.625000  1
  Rh  Rh7  1  0.625000  0.125000  0.625000  1
  O  O8  1  0.233388  0.293741  0.236436  1
  O  O9  1  0.298570  0.702964  0.295768  1
  O  O10  1  0.959105  0.961969  0.539463  1
  O  O11  1  0.543507  0.960855  0.538762  1
  O  O12  1  0.695007  0.700369  0.302313  1
  O  O13  1  0.951430  0.547036  0.547301  1
  O  O14  1  0.706493  0.289145  0.711238  1
  O  O15  1  0.290895  0.288031  0.710537  1
  O  O16  1  0.706493  0.289145  0.293124  1
  O  O17  1  0.298570  0.702964  0.702699  1
  O  O18  1  0.951430  0.547036  0.954232  1
  O  O19  1  0.554993  0.549631  0.947687  1
  O  O20  1  0.016612  0.956259  0.013564  1
  O  O21  1  0.543507  0.960855  0.956876  1
