# generated using pymatgen
data_Dy4As6Ir3Ru4
_symmetry_space_group_name_H-M   'P 1'
_cell_length_a   7.25695506
_cell_length_b   7.26057081
_cell_length_c   7.26057075
_cell_angle_alpha   109.48129799
_cell_angle_beta   109.46113257
_cell_angle_gamma   109.46114391
_symmetry_Int_Tables_number   1
_chemical_formula_structural   Dy4As6Ir3Ru4
_chemical_formula_sum   'Dy4 As6 Ir3 Ru4'
_cell_volume   294.52903287
_cell_formula_units_Z   1
loop_
 _symmetry_equiv_pos_site_id
 _symmetry_equiv_pos_as_xyz
  1  'x, y, z'
loop_
 _atom_site_type_symbol
 _atom_site_label
 _atom_site_symmetry_multiplicity
 _atom_site_fract_x
 _atom_site_fract_y
 _atom_site_fract_z
 _atom_site_occupancy
  Dy  Dy0  1  0.999890  0.999778  0.499890  1
  Dy  Dy1  1  0.500000  0.000000  0.000000  1
  Dy  Dy2  1  0.000110  0.500110  0.000222  1
  Dy  Dy3  1  0.500000  0.500110  0.499890  1
  As  As4  1  0.678794  0.678815  0.993841  1
  As  As5  1  0.315046  0.315025  0.993841  1
  As  As6  1  0.000022  0.678815  0.684975  1
  As  As7  1  0.999978  0.315025  0.321185  1
  As  As8  1  0.684954  0.006159  0.684975  1
  As  As9  1  0.321206  0.006159  0.321185  1
  Ir  Ir10  1  0.500000  0.750793  0.249207  1
  Ir  Ir11  1  0.749207  0.498415  0.249207  1
  Ir  Ir12  1  0.250793  0.750793  0.501585  1
  Ru  Ru13  1  0.000000  0.000000  0.000000  1
  Ru  Ru14  1  0.249729  0.499458  0.749729  1
  Ru  Ru15  1  0.750271  0.250271  0.500542  1
  Ru  Ru16  1  0.500000  0.250271  0.749729  1
