# generated using pymatgen
data_TmCo4Si3Ru
_symmetry_space_group_name_H-M   'P 1'
_cell_length_a   3.72477400
_cell_length_b   10.50266900
_cell_length_c   11.92701000
_cell_angle_alpha   90.00000000
_cell_angle_beta   90.00000000
_cell_angle_gamma   90.00000000
_symmetry_Int_Tables_number   1
_chemical_formula_structural   TmCo4Si3Ru
_chemical_formula_sum   'Tm4 Co16 Si12 Ru4'
_cell_volume   466.58544727
_cell_formula_units_Z   4
loop_
 _symmetry_equiv_pos_site_id
 _symmetry_equiv_pos_as_xyz
  1  'x, y, z'
loop_
 _atom_site_type_symbol
 _atom_site_label
 _atom_site_symmetry_multiplicity
 _atom_site_fract_x
 _atom_site_fract_y
 _atom_site_fract_z
 _atom_site_occupancy
  Tm  Tm0  1  0.250000  0.582437  0.703772  1
  Tm  Tm1  1  0.250000  0.917563  0.203772  1
  Tm  Tm2  1  0.750000  0.417563  0.296228  1
  Tm  Tm3  1  0.750000  0.082437  0.796228  1
  Co  Co4  1  0.250000  0.407342  0.489374  1
  Co  Co5  1  0.250000  0.092658  0.989374  1
  Co  Co6  1  0.750000  0.592658  0.510626  1
  Co  Co7  1  0.750000  0.907342  0.010626  1
  Co  Co8  1  0.250000  0.214655  0.175271  1
  Co  Co9  1  0.250000  0.285345  0.675271  1
  Co  Co10  1  0.750000  0.785345  0.824729  1
  Co  Co11  1  0.750000  0.714655  0.324729  1
  Co  Co12  1  0.250000  0.886113  0.700310  1
  Co  Co13  1  0.250000  0.613887  0.200310  1
  Co  Co14  1  0.750000  0.113887  0.299690  1
  Co  Co15  1  0.750000  0.386113  0.799690  1
  Co  Co16  1  0.250000  0.468751  0.931125  1
  Co  Co17  1  0.250000  0.031249  0.431125  1
  Co  Co18  1  0.750000  0.531249  0.068875  1
  Co  Co19  1  0.750000  0.968751  0.568875  1
  Si  Si20  1  0.250000  0.415682  0.112208  1
  Si  Si21  1  0.250000  0.084318  0.612208  1
  Si  Si22  1  0.750000  0.584318  0.887792  1
  Si  Si23  1  0.750000  0.915682  0.387792  1
  Si  Si24  1  0.250000  0.270679  0.867581  1
  Si  Si25  1  0.250000  0.229321  0.367581  1
  Si  Si26  1  0.750000  0.729321  0.132419  1
  Si  Si27  1  0.750000  0.770679  0.632419  1
  Si  Si28  1  0.250000  0.599260  0.392471  1
  Si  Si29  1  0.250000  0.900740  0.892471  1
  Si  Si30  1  0.750000  0.400740  0.607529  1
  Si  Si31  1  0.750000  0.099260  0.107529  1
  Ru  Ru32  1  0.250000  0.705030  0.990386  1
  Ru  Ru33  1  0.250000  0.794970  0.490386  1
  Ru  Ru34  1  0.750000  0.294970  0.009614  1
  Ru  Ru35  1  0.750000  0.205030  0.509614  1
