# generated using pymatgen
data_TiMnAlCo4Si
_symmetry_space_group_name_H-M   'P 1'
_cell_length_a   7.02803808
_cell_length_b   7.02803824
_cell_length_c   7.02803790
_cell_angle_alpha   33.50781881
_cell_angle_beta   33.50781446
_cell_angle_gamma   33.50781737
_symmetry_Int_Tables_number   1
_chemical_formula_structural   TiMnAlCo4Si
_chemical_formula_sum   'Ti1 Mn1 Al1 Co4 Si1'
_cell_volume   94.22538674
_cell_formula_units_Z   1
loop_
 _symmetry_equiv_pos_site_id
 _symmetry_equiv_pos_as_xyz
  1  'x, y, z'
loop_
 _atom_site_type_symbol
 _atom_site_label
 _atom_site_symmetry_multiplicity
 _atom_site_fract_x
 _atom_site_fract_y
 _atom_site_fract_z
 _atom_site_occupancy
  Ti  Ti0  1  0.249876  0.249876  0.249876  1
  Mn  Mn1  1  0.749120  0.749120  0.749120  1
  Al  Al2  1  0.002370  0.002370  0.002370  1
  Co  Co3  1  0.872762  0.872762  0.872762  1
  Co  Co4  1  0.377163  0.377163  0.377163  1
  Co  Co5  1  0.127609  0.127609  0.127609  1
  Co  Co6  1  0.622638  0.622638  0.622638  1
  Si  Si7  1  0.498462  0.498462  0.498462  1
