# generated using pymatgen
data_NdEu(Ga4Co)2
_symmetry_space_group_name_H-M   'P 1'
_cell_length_a   4.20273607
_cell_length_b   6.51124700
_cell_length_c   8.23924017
_cell_angle_alpha   90.00000000
_cell_angle_beta   104.77618692
_cell_angle_gamma   90.00000000
_symmetry_Int_Tables_number   1
_chemical_formula_structural   NdEu(Ga4Co)2
_chemical_formula_sum   'Nd1 Eu1 Ga8 Co2'
_cell_volume   218.01092024
_cell_formula_units_Z   1
loop_
 _symmetry_equiv_pos_site_id
 _symmetry_equiv_pos_as_xyz
  1  'x, y, z'
loop_
 _atom_site_type_symbol
 _atom_site_label
 _atom_site_symmetry_multiplicity
 _atom_site_fract_x
 _atom_site_fract_y
 _atom_site_fract_z
 _atom_site_occupancy
  Nd  Nd0  1  0.117005  0.250000  0.234011  1
  Eu  Eu1  1  0.883688  0.750000  0.767378  1
  Ga  Ga2  1  0.499864  0.500849  0.999728  1
  Ga  Ga3  1  0.499864  0.999151  0.999728  1
  Ga  Ga4  1  0.074937  0.750000  0.149873  1
  Ga  Ga5  1  0.923966  0.250000  0.847934  1
  Ga  Ga6  1  0.691064  0.552102  0.382128  1
  Ga  Ga7  1  0.309880  0.448954  0.619760  1
  Ga  Ga8  1  0.691064  0.947898  0.382128  1
  Ga  Ga9  1  0.309880  0.051046  0.619760  1
  Co  Co10  1  0.221290  0.750000  0.442582  1
  Co  Co11  1  0.777498  0.250000  0.554994  1
