# generated using pymatgen
data_Sr3LiP2F
_symmetry_space_group_name_H-M   'P 1'
_cell_length_a   4.38725800
_cell_length_b   11.83880600
_cell_length_c   12.47433200
_cell_angle_alpha   90.00000000
_cell_angle_beta   90.00000000
_cell_angle_gamma   90.00000000
_symmetry_Int_Tables_number   1
_chemical_formula_structural   Sr3LiP2F
_chemical_formula_sum   'Sr12 Li4 P8 F4'
_cell_volume   647.91551092
_cell_formula_units_Z   4
loop_
 _symmetry_equiv_pos_site_id
 _symmetry_equiv_pos_as_xyz
  1  'x, y, z'
loop_
 _atom_site_type_symbol
 _atom_site_label
 _atom_site_symmetry_multiplicity
 _atom_site_fract_x
 _atom_site_fract_y
 _atom_site_fract_z
 _atom_site_occupancy
  Sr  Sr0  1  0.250000  0.061648  0.619557  1
  Sr  Sr1  1  0.250000  0.561648  0.880443  1
  Sr  Sr2  1  0.750000  0.938352  0.380443  1
  Sr  Sr3  1  0.750000  0.438352  0.119557  1
  Sr  Sr4  1  0.250000  0.202406  0.301775  1
  Sr  Sr5  1  0.250000  0.702406  0.198225  1
  Sr  Sr6  1  0.750000  0.797594  0.698225  1
  Sr  Sr7  1  0.750000  0.297594  0.801775  1
  Sr  Sr8  1  0.250000  0.369790  0.558932  1
  Sr  Sr9  1  0.250000  0.869790  0.941068  1
  Sr  Sr10  1  0.750000  0.630210  0.441068  1
  Sr  Sr11  1  0.750000  0.130210  0.058932  1
  Li  Li12  1  0.250000  0.133781  0.857682  1
  Li  Li13  1  0.250000  0.633781  0.642318  1
  Li  Li14  1  0.750000  0.866219  0.142318  1
  Li  Li15  1  0.750000  0.366219  0.357682  1
  P  P16  1  0.250000  0.314334  0.983088  1
  P  P17  1  0.250000  0.814334  0.516912  1
  P  P18  1  0.750000  0.685666  0.016912  1
  P  P19  1  0.750000  0.185666  0.483088  1
  P  P20  1  0.250000  0.475536  0.326361  1
  P  P21  1  0.250000  0.975536  0.173639  1
  P  P22  1  0.750000  0.524464  0.673639  1
  P  P23  1  0.750000  0.024464  0.826361  1
  F  F24  1  0.250000  0.241164  0.721996  1
  F  F25  1  0.250000  0.741164  0.778004  1
  F  F26  1  0.750000  0.758836  0.278004  1
  F  F27  1  0.750000  0.258836  0.221996  1
