# generated using pymatgen
data_Ce3Y(MgRh2)4
_symmetry_space_group_name_H-M   'P 1'
_cell_length_a   6.34516517
_cell_length_b   6.34519423
_cell_length_c   7.17181700
_cell_angle_alpha   89.99949160
_cell_angle_beta   89.99937233
_cell_angle_gamma   90.00207679
_symmetry_Int_Tables_number   1
_chemical_formula_structural   Ce3Y(MgRh2)4
_chemical_formula_sum   'Ce3 Y1 Mg4 Rh8'
_cell_volume   288.74671433
_cell_formula_units_Z   1
loop_
 _symmetry_equiv_pos_site_id
 _symmetry_equiv_pos_as_xyz
  1  'x, y, z'
loop_
 _atom_site_type_symbol
 _atom_site_label
 _atom_site_symmetry_multiplicity
 _atom_site_fract_x
 _atom_site_fract_y
 _atom_site_fract_z
 _atom_site_occupancy
  Ce  Ce0  1  0.750011  0.249990  0.999998  1
  Ce  Ce1  1  0.249998  0.750034  0.000000  1
  Ce  Ce2  1  0.749977  0.250009  0.499964  1
  Y  Y3  1  0.250014  0.749997  0.500008  1
  Mg  Mg4  1  0.250015  0.250002  0.000066  1
  Mg  Mg5  1  0.750009  0.750002  0.499937  1
  Mg  Mg6  1  0.249994  0.249995  0.500076  1
  Mg  Mg7  1  0.749990  0.749999  0.999947  1
  Rh  Rh8  1  0.503119  0.003112  0.247864  1
  Rh  Rh9  1  0.503107  0.496883  0.247857  1
  Rh  Rh10  1  0.996888  0.003103  0.247862  1
  Rh  Rh11  1  0.996871  0.496877  0.247865  1
  Rh  Rh12  1  0.996894  0.003105  0.752135  1
  Rh  Rh13  1  0.996878  0.496873  0.752130  1
  Rh  Rh14  1  0.503122  0.003122  0.752143  1
  Rh  Rh15  1  0.503117  0.496896  0.752150  1
