# generated using pymatgen
data_CePuTcB6
_symmetry_space_group_name_H-M   'P 1'
_cell_length_a   3.72462700
_cell_length_b   9.31773400
_cell_length_c   11.44982600
_cell_angle_alpha   90.00000000
_cell_angle_beta   90.00000000
_cell_angle_gamma   90.00000000
_symmetry_Int_Tables_number   1
_chemical_formula_structural   CePuTcB6
_chemical_formula_sum   'Ce4 Pu4 Tc4 B24'
_cell_volume   397.36716894
_cell_formula_units_Z   4
loop_
 _symmetry_equiv_pos_site_id
 _symmetry_equiv_pos_as_xyz
  1  'x, y, z'
loop_
 _atom_site_type_symbol
 _atom_site_label
 _atom_site_symmetry_multiplicity
 _atom_site_fract_x
 _atom_site_fract_y
 _atom_site_fract_z
 _atom_site_occupancy
  Ce  Ce0  1  0.000000  0.334799  0.408105  1
  Ce  Ce1  1  0.000000  0.665201  0.591895  1
  Ce  Ce2  1  0.000000  0.834799  0.091895  1
  Ce  Ce3  1  0.000000  0.165201  0.908105  1
  Pu  Pu4  1  0.000000  0.953544  0.388793  1
  Pu  Pu5  1  0.000000  0.046456  0.611207  1
  Pu  Pu6  1  0.000000  0.453544  0.111207  1
  Pu  Pu7  1  0.000000  0.546456  0.888793  1
  Tc  Tc8  1  0.000000  0.645499  0.319471  1
  Tc  Tc9  1  0.000000  0.354501  0.680529  1
  Tc  Tc10  1  0.000000  0.145499  0.180529  1
  Tc  Tc11  1  0.000000  0.854501  0.819471  1
  B  B12  1  0.500000  0.554283  0.430238  1
  B  B13  1  0.500000  0.445717  0.569762  1
  B  B14  1  0.500000  0.054283  0.069762  1
  B  B15  1  0.500000  0.945717  0.930238  1
  B  B16  1  0.500000  0.745265  0.421813  1
  B  B17  1  0.500000  0.254735  0.578187  1
  B  B18  1  0.500000  0.245265  0.078187  1
  B  B19  1  0.500000  0.754735  0.921813  1
  B  B20  1  0.500000  0.801337  0.272486  1
  B  B21  1  0.500000  0.198663  0.727514  1
  B  B22  1  0.500000  0.301337  0.227514  1
  B  B23  1  0.500000  0.698663  0.772486  1
  B  B24  1  0.500000  0.642342  0.187917  1
  B  B25  1  0.500000  0.357658  0.812083  1
  B  B26  1  0.500000  0.142342  0.312083  1
  B  B27  1  0.500000  0.857658  0.687917  1
  B  B28  1  0.500000  0.989352  0.218654  1
  B  B29  1  0.500000  0.010648  0.781346  1
  B  B30  1  0.500000  0.489352  0.281346  1
  B  B31  1  0.500000  0.510648  0.718654  1
  B  B32  1  0.500000  0.636424  0.037524  1
  B  B33  1  0.500000  0.363576  0.962476  1
  B  B34  1  0.500000  0.136424  0.462476  1
  B  B35  1  0.500000  0.863576  0.537524  1
