# generated using pymatgen
data_La3Yb9Ru4
_symmetry_space_group_name_H-M   'P 1'
_cell_length_a   6.41311331
_cell_length_b   7.54837510
_cell_length_c   9.55695800
_cell_angle_alpha   90.00000000
_cell_angle_beta   90.00000000
_cell_angle_gamma   89.11908581
_symmetry_Int_Tables_number   1
_chemical_formula_structural   La3Yb9Ru4
_chemical_formula_sum   'La3 Yb9 Ru4'
_cell_volume   462.58413175
_cell_formula_units_Z   1
loop_
 _symmetry_equiv_pos_site_id
 _symmetry_equiv_pos_as_xyz
  1  'x, y, z'
loop_
 _atom_site_type_symbol
 _atom_site_label
 _atom_site_symmetry_multiplicity
 _atom_site_fract_x
 _atom_site_fract_y
 _atom_site_fract_z
 _atom_site_occupancy
  La  La0  1  0.648367  0.051107  0.250000  1
  La  La1  1  0.131348  0.440106  0.750000  1
  La  La2  1  0.366461  0.942414  0.750000  1
  Yb  Yb3  1  0.338576  0.666591  0.072019  1
  Yb  Yb4  1  0.163037  0.168723  0.427694  1
  Yb  Yb5  1  0.657751  0.331341  0.565451  1
  Yb  Yb6  1  0.841695  0.829648  0.934962  1
  Yb  Yb7  1  0.657751  0.331341  0.934549  1
  Yb  Yb8  1  0.841695  0.829648  0.565038  1
  Yb  Yb9  1  0.338576  0.666591  0.427981  1
  Yb  Yb10  1  0.163037  0.168723  0.072306  1
  Yb  Yb11  1  0.862547  0.543477  0.250000  1
  Ru  Ru12  1  0.010053  0.889846  0.250000  1
  Ru  Ru13  1  0.484639  0.361238  0.250000  1
  Ru  Ru14  1  0.983310  0.141511  0.750000  1
  Ru  Ru15  1  0.511156  0.637695  0.750000  1
