# generated using pymatgen
data_Mn3Be8Al
_symmetry_space_group_name_H-M   'P 1'
_cell_length_a   4.21759400
_cell_length_b   4.21759353
_cell_length_c   6.84975300
_cell_angle_alpha   90.00000000
_cell_angle_beta   90.00000000
_cell_angle_gamma   120.00000371
_symmetry_Int_Tables_number   1
_chemical_formula_structural   Mn3Be8Al
_chemical_formula_sum   'Mn3 Be8 Al1'
_cell_volume   105.52005755
_cell_formula_units_Z   1
loop_
 _symmetry_equiv_pos_site_id
 _symmetry_equiv_pos_as_xyz
  1  'x, y, z'
loop_
 _atom_site_type_symbol
 _atom_site_label
 _atom_site_symmetry_multiplicity
 _atom_site_fract_x
 _atom_site_fract_y
 _atom_site_fract_z
 _atom_site_occupancy
  Mn  Mn0  1  0.666667  0.333333  0.568080  1
  Mn  Mn1  1  0.666667  0.333333  0.924355  1
  Mn  Mn2  1  0.333333  0.666667  0.451457  1
  Be  Be3  1  0.000000  0.000000  0.996330  1
  Be  Be4  1  0.000000  0.000000  0.495052  1
  Be  Be5  1  0.828940  0.657878  0.252845  1
  Be  Be6  1  0.169319  0.830681  0.747353  1
  Be  Be7  1  0.661362  0.830681  0.747353  1
  Be  Be8  1  0.342122  0.171060  0.252845  1
  Be  Be9  1  0.828940  0.171060  0.252845  1
  Be  Be10  1  0.169319  0.338638  0.747353  1
  Al  Al11  1  0.333333  0.666667  0.064129  1
