# generated using pymatgen
data_Dy5Sc5Si20Ir3Pt5
_symmetry_space_group_name_H-M   'P 1'
_cell_length_a   12.53926755
_cell_length_b   12.50361255
_cell_length_c   4.20876600
_cell_angle_alpha   90.00000000
_cell_angle_beta   90.00000000
_cell_angle_gamma   89.92690134
_symmetry_Int_Tables_number   1
_chemical_formula_structural   Dy5Sc5Si20Ir3Pt5
_chemical_formula_sum   'Dy5 Sc5 Si20 Ir3 Pt5'
_cell_volume   659.87565109
_cell_formula_units_Z   1
loop_
 _symmetry_equiv_pos_site_id
 _symmetry_equiv_pos_as_xyz
  1  'x, y, z'
loop_
 _atom_site_type_symbol
 _atom_site_label
 _atom_site_symmetry_multiplicity
 _atom_site_fract_x
 _atom_site_fract_y
 _atom_site_fract_z
 _atom_site_occupancy
  Dy  Dy0  1  0.999929  0.000331  0.000000  1
  Dy  Dy1  1  0.885718  0.385757  0.500000  1
  Dy  Dy2  1  0.113943  0.614173  0.500000  1
  Dy  Dy3  1  0.387098  0.115567  0.500000  1
  Dy  Dy4  1  0.614174  0.885512  0.500000  1
  Sc  Sc5  1  0.500358  0.496370  0.000000  1
  Sc  Sc6  1  0.672224  0.175433  0.500000  1
  Sc  Sc7  1  0.326588  0.825044  0.500000  1
  Sc  Sc8  1  0.174399  0.326344  0.500000  1
  Sc  Sc9  1  0.825522  0.673572  0.500000  1
  Si  Si10  1  0.564566  0.069807  0.000000  1
  Si  Si11  1  0.435781  0.933702  0.000000  1
  Si  Si12  1  0.065602  0.432520  0.000000  1
  Si  Si13  1  0.934321  0.567353  0.000000  1
  Si  Si14  1  0.667681  0.702729  0.000000  1
  Si  Si15  1  0.334870  0.297392  0.000000  1
  Si  Si16  1  0.164347  0.798396  0.000000  1
  Si  Si17  1  0.834782  0.202866  0.000000  1
  Si  Si18  1  0.297837  0.667679  0.000000  1
  Si  Si19  1  0.699187  0.332270  0.000000  1
  Si  Si20  1  0.199158  0.167824  0.000000  1
  Si  Si21  1  0.801454  0.833433  0.000000  1
  Si  Si22  1  0.648730  0.506737  0.500000  1
  Si  Si23  1  0.351467  0.492738  0.500000  1
  Si  Si24  1  0.155214  0.993444  0.500000  1
  Si  Si25  1  0.845103  0.006266  0.500000  1
  Si  Si26  1  0.493223  0.647325  0.500000  1
  Si  Si27  1  0.507509  0.348143  0.500000  1
  Si  Si28  1  0.006307  0.157772  0.500000  1
  Si  Si29  1  0.993223  0.842732  0.500000  1
  Ir  Ir30  1  0.520741  0.258679  0.000000  1
  Ir  Ir31  1  0.020967  0.245347  0.000000  1
  Ir  Ir32  1  0.978914  0.754770  0.000000  1
  Pt  Pt33  1  0.742351  0.520725  0.000000  1
  Pt  Pt34  1  0.257413  0.479703  0.000000  1
  Pt  Pt35  1  0.246320  0.978672  0.000000  1
  Pt  Pt36  1  0.753614  0.021389  0.000000  1
  Pt  Pt37  1  0.479364  0.741484  0.000000  1
