# generated using pymatgen
data_Li2Nd2Ni10As7
_symmetry_space_group_name_H-M   'P 1'
_cell_length_a   3.90974500
_cell_length_b   9.44636291
_cell_length_c   9.48744340
_cell_angle_alpha   119.62141291
_cell_angle_beta   90.00000000
_cell_angle_gamma   90.00000000
_symmetry_Int_Tables_number   1
_chemical_formula_structural   Li2Nd2Ni10As7
_chemical_formula_sum   'Li2 Nd2 Ni10 As7'
_cell_volume   304.60502788
_cell_formula_units_Z   1
loop_
 _symmetry_equiv_pos_site_id
 _symmetry_equiv_pos_as_xyz
  1  'x, y, z'
loop_
 _atom_site_type_symbol
 _atom_site_label
 _atom_site_symmetry_multiplicity
 _atom_site_fract_x
 _atom_site_fract_y
 _atom_site_fract_z
 _atom_site_occupancy
  Li  Li0  1  0.500000  0.788562  0.887460  1
  Li  Li1  1  0.500000  0.105481  0.211534  1
  Nd  Nd2  1  0.000000  0.673444  0.338301  1
  Nd  Nd3  1  0.500000  0.330016  0.666182  1
  Ni  Ni4  1  0.000000  0.567571  0.946125  1
  Ni  Ni5  1  0.000000  0.373467  0.429129  1
  Ni  Ni6  1  0.000000  0.055185  0.625716  1
  Ni  Ni7  1  0.500000  0.103053  0.896162  1
  Ni  Ni8  1  0.000000  0.873992  0.150255  1
  Ni  Ni9  1  0.000000  0.287492  0.130074  1
  Ni  Ni10  1  0.000000  0.843842  0.717560  1
  Ni  Ni11  1  0.500000  0.950482  0.382260  1
  Ni  Ni12  1  0.500000  0.430928  0.048264  1
  Ni  Ni13  1  0.500000  0.610875  0.567851  1
  As  As14  1  0.000000  0.005844  0.994018  1
  As  As15  1  0.500000  0.707968  0.110764  1
  As  As16  1  0.500000  0.407623  0.294158  1
  As  As17  1  0.500000  0.894912  0.605750  1
  As  As18  1  0.000000  0.591225  0.702408  1
  As  As19  1  0.000000  0.107184  0.406954  1
  As  As20  1  0.000000  0.290852  0.889072  1
