# generated using pymatgen
data_CaAc2(MgIn)3
_symmetry_space_group_name_H-M   'P 1'
_cell_length_a   7.85228076
_cell_length_b   7.85228061
_cell_length_c   4.98720100
_cell_angle_alpha   90.00000000
_cell_angle_beta   90.00000000
_cell_angle_gamma   118.67427694
_symmetry_Int_Tables_number   1
_chemical_formula_structural   CaAc2(MgIn)3
_chemical_formula_sum   'Ca1 Ac2 Mg3 In3'
_cell_volume   269.79081554
_cell_formula_units_Z   1
loop_
 _symmetry_equiv_pos_site_id
 _symmetry_equiv_pos_as_xyz
  1  'x, y, z'
loop_
 _atom_site_type_symbol
 _atom_site_label
 _atom_site_symmetry_multiplicity
 _atom_site_fract_x
 _atom_site_fract_y
 _atom_site_fract_z
 _atom_site_occupancy
  Ca  Ca0  1  0.425355  0.425355  0.000000  1
  Ac  Ac1  1  0.569116  0.995896  0.000000  1
  Ac  Ac2  1  0.995896  0.569116  0.000000  1
  Mg  Mg3  1  0.238513  0.000250  0.500000  1
  Mg  Mg4  1  0.000250  0.238513  0.500000  1
  Mg  Mg5  1  0.763635  0.763635  0.500000  1
  In  In6  1  0.336616  0.656078  0.500000  1
  In  In7  1  0.656078  0.336616  0.500000  1
  In  In8  1  0.014542  0.014542  0.000000  1
