# generated using pymatgen
data_Zr6Zn22PdS
_symmetry_space_group_name_H-M   'P 1'
_cell_length_a   8.75979601
_cell_length_b   8.75987999
_cell_length_c   8.75988900
_cell_angle_alpha   120.00068732
_cell_angle_beta   89.99749489
_cell_angle_gamma   120.00079685
_symmetry_Int_Tables_number   1
_chemical_formula_structural   Zr6Zn22PdS
_chemical_formula_sum   'Zr6 Zn22 Pd1 S1'
_cell_volume   475.30841754
_cell_formula_units_Z   1
loop_
 _symmetry_equiv_pos_site_id
 _symmetry_equiv_pos_as_xyz
  1  'x, y, z'
loop_
 _atom_site_type_symbol
 _atom_site_label
 _atom_site_symmetry_multiplicity
 _atom_site_fract_x
 _atom_site_fract_y
 _atom_site_fract_z
 _atom_site_occupancy
  Zr  Zr0  1  0.294334  0.000000  0.294335  1
  Zr  Zr1  1  0.705673  0.000002  0.294330  1
  Zr  Zr2  1  0.294333  0.588667  0.294334  1
  Zr  Zr3  1  0.294327  0.999998  0.705670  1
  Zr  Zr4  1  0.705666  0.000000  0.705665  1
  Zr  Zr5  1  0.705667  0.411333  0.705666  1
  Zn  Zn6  1  0.499999  0.000000  0.000000  1
  Zn  Zn7  1  0.000000  0.499999  0.000000  1
  Zn  Zn8  1  0.499999  0.499999  0.000000  1
  Zn  Zn9  1  0.332430  0.664853  0.997276  1
  Zn  Zn10  1  0.364103  0.242735  0.121372  1
  Zn  Zn11  1  0.878632  0.242738  0.121363  1
  Zn  Zn12  1  0.878636  0.757262  0.121367  1
  Zn  Zn13  1  0.667576  0.335152  0.332421  1
  Zn  Zn14  1  0.997272  0.664849  0.332426  1
  Zn  Zn15  1  0.667578  0.664847  0.332421  1
  Zn  Zn16  1  0.121374  0.242736  0.364103  1
  Zn  Zn17  1  0.000000  0.000000  0.499999  1
  Zn  Zn18  1  0.000000  0.499999  0.499999  1
  Zn  Zn19  1  0.499999  0.499999  0.499999  1
  Zn  Zn20  1  0.878626  0.757264  0.635897  1
  Zn  Zn21  1  0.332424  0.664848  0.667579  1
  Zn  Zn22  1  0.332422  0.335153  0.667579  1
  Zn  Zn23  1  0.002728  0.335151  0.667574  1
  Zn  Zn24  1  0.121364  0.242738  0.878633  1
  Zn  Zn25  1  0.121368  0.757262  0.878637  1
  Zn  Zn26  1  0.635897  0.757265  0.878628  1
  Zn  Zn27  1  0.667570  0.335147  0.002724  1
  Pd  Pd28  1  0.000000  0.000000  0.000000  1
  S  S29  1  0.500000  0.000000  0.500000  1
