# generated using pymatgen
data_Er3Tm3ReSb2
_symmetry_space_group_name_H-M   'P 1'
_cell_length_a   8.05266300
_cell_length_b   8.05266349
_cell_length_c   4.28015200
_cell_angle_alpha   90.00000000
_cell_angle_beta   90.00000000
_cell_angle_gamma   120.00000211
_symmetry_Int_Tables_number   1
_chemical_formula_structural   Er3Tm3ReSb2
_chemical_formula_sum   'Er3 Tm3 Re1 Sb2'
_cell_volume   240.36370516
_cell_formula_units_Z   1
loop_
 _symmetry_equiv_pos_site_id
 _symmetry_equiv_pos_as_xyz
  1  'x, y, z'
loop_
 _atom_site_type_symbol
 _atom_site_label
 _atom_site_symmetry_multiplicity
 _atom_site_fract_x
 _atom_site_fract_y
 _atom_site_fract_z
 _atom_site_occupancy
  Er  Er0  1  0.605514  0.000000  0.000000  1
  Er  Er1  1  0.000000  0.605514  0.000000  1
  Er  Er2  1  0.394486  0.394486  0.000000  1
  Tm  Tm3  1  0.235030  0.000000  0.500000  1
  Tm  Tm4  1  0.000000  0.235030  0.500000  1
  Tm  Tm5  1  0.764970  0.764970  0.500000  1
  Re  Re6  1  0.000000  0.000000  0.000000  1
  Sb  Sb7  1  0.333333  0.666667  0.500000  1
  Sb  Sb8  1  0.666667  0.333333  0.500000  1
