# generated using pymatgen
data_Dy6LuFeO12
_symmetry_space_group_name_H-M   'P 1'
_cell_length_a   6.61057235
_cell_length_b   6.61057248
_cell_length_c   6.61057204
_cell_angle_alpha   93.11190402
_cell_angle_beta   93.11192199
_cell_angle_gamma   93.11191346
_symmetry_Int_Tables_number   1
_chemical_formula_structural   Dy6LuFeO12
_chemical_formula_sum   'Dy6 Lu1 Fe1 O12'
_cell_volume   287.55354060
_cell_formula_units_Z   1
loop_
 _symmetry_equiv_pos_site_id
 _symmetry_equiv_pos_as_xyz
  1  'x, y, z'
loop_
 _atom_site_type_symbol
 _atom_site_label
 _atom_site_symmetry_multiplicity
 _atom_site_fract_x
 _atom_site_fract_y
 _atom_site_fract_z
 _atom_site_occupancy
  Dy  Dy0  1  0.740713  0.925295  0.435955  1
  Dy  Dy1  1  0.925295  0.435955  0.740713  1
  Dy  Dy2  1  0.435955  0.740713  0.925295  1
  Dy  Dy3  1  0.259287  0.074705  0.564045  1
  Dy  Dy4  1  0.074705  0.564045  0.259287  1
  Dy  Dy5  1  0.564045  0.259287  0.074705  1
  Lu  Lu6  1  0.000000  0.000000  0.000000  1
  Fe  Fe7  1  0.500000  0.500000  0.500000  1
  O  O8  1  0.588675  0.461623  0.800198  1
  O  O9  1  0.461623  0.800198  0.588675  1
  O  O10  1  0.800198  0.588675  0.461623  1
  O  O11  1  0.411325  0.538377  0.199802  1
  O  O12  1  0.538377  0.199802  0.411325  1
  O  O13  1  0.199802  0.411325  0.538377  1
  O  O14  1  0.067328  0.910536  0.314032  1
  O  O15  1  0.910536  0.314032  0.067328  1
  O  O16  1  0.685968  0.932672  0.089464  1
  O  O17  1  0.089464  0.685968  0.932672  1
  O  O18  1  0.932672  0.089464  0.685968  1
  O  O19  1  0.314032  0.067328  0.910536  1
