# generated using pymatgen
data_Zr3Cu3N
_symmetry_space_group_name_H-M   'P 1'
_cell_length_a   8.43188703
_cell_length_b   8.43190168
_cell_length_c   8.43194400
_cell_angle_alpha   59.99878558
_cell_angle_beta   59.99847970
_cell_angle_gamma   59.99855712
_symmetry_Int_Tables_number   1
_chemical_formula_structural   Zr3Cu3N
_chemical_formula_sum   'Zr12 Cu12 N4'
_cell_volume   423.88623796
_cell_formula_units_Z   4
loop_
 _symmetry_equiv_pos_site_id
 _symmetry_equiv_pos_as_xyz
  1  'x, y, z'
loop_
 _atom_site_type_symbol
 _atom_site_label
 _atom_site_symmetry_multiplicity
 _atom_site_fract_x
 _atom_site_fract_y
 _atom_site_fract_z
 _atom_site_occupancy
  Zr  Zr0  1  0.810053  0.189936  0.189960  1
  Zr  Zr1  1  0.189937  0.810060  0.189940  1
  Zr  Zr2  1  0.810059  0.810053  0.189954  1
  Zr  Zr3  1  0.189956  0.810049  0.810055  1
  Zr  Zr4  1  0.810042  0.189955  0.810044  1
  Zr  Zr5  1  0.189961  0.189941  0.810051  1
  Zr  Zr6  1  0.439947  0.060064  0.060040  1
  Zr  Zr7  1  0.060063  0.439940  0.060060  1
  Zr  Zr8  1  0.439941  0.439947  0.060046  1
  Zr  Zr9  1  0.060044  0.439951  0.439945  1
  Zr  Zr10  1  0.439958  0.060045  0.439956  1
  Zr  Zr11  1  0.060039  0.060059  0.439949  1
  Cu  Cu12  1  0.419710  0.419833  0.740714  1
  Cu  Cu13  1  0.419740  0.419915  0.419705  1
  Cu  Cu14  1  0.740686  0.419857  0.419704  1
  Cu  Cu15  1  0.419742  0.740743  0.419720  1
  Cu  Cu16  1  0.830290  0.830167  0.509286  1
  Cu  Cu17  1  0.830260  0.830085  0.830295  1
  Cu  Cu18  1  0.509314  0.830143  0.830296  1
  Cu  Cu19  1  0.830258  0.509257  0.830280  1
  Cu  Cu20  1  0.625000  0.625000  0.125000  1
  Cu  Cu21  1  0.625000  0.625000  0.625000  1
  Cu  Cu22  1  0.125000  0.625000  0.625000  1
  Cu  Cu23  1  0.625000  0.125000  0.625000  1
  N  N24  1  0.125000  0.125000  0.625000  1
  N  N25  1  0.125000  0.125000  0.125000  1
  N  N26  1  0.625000  0.125000  0.125000  1
  N  N27  1  0.125000  0.625000  0.125000  1
