# generated using pymatgen
data_Tb16TlCd(InRh2)2
_symmetry_space_group_name_H-M   'P 1'
_cell_length_a   9.69301770
_cell_length_b   9.69394238
_cell_length_c   9.69394313
_cell_angle_alpha   60.19530786
_cell_angle_beta   60.23761170
_cell_angle_gamma   60.23761099
_symmetry_Int_Tables_number   1
_chemical_formula_structural   Tb16TlCd(InRh2)2
_chemical_formula_sum   'Tb16 Tl1 Cd1 In2 Rh4'
_cell_volume   647.34662881
_cell_formula_units_Z   1
loop_
 _symmetry_equiv_pos_site_id
 _symmetry_equiv_pos_as_xyz
  1  'x, y, z'
loop_
 _atom_site_type_symbol
 _atom_site_label
 _atom_site_symmetry_multiplicity
 _atom_site_fract_x
 _atom_site_fract_y
 _atom_site_fract_z
 _atom_site_occupancy
  Tb  Tb0  1  0.299887  0.899027  0.899027  1
  Tb  Tb1  1  0.685823  0.314741  0.686195  1
  Tb  Tb2  1  0.311755  0.688489  0.310723  1
  Tb  Tb3  1  0.063232  0.438016  0.438016  1
  Tb  Tb4  1  0.688069  0.311810  0.311810  1
  Tb  Tb5  1  0.438408  0.063763  0.438597  1
  Tb  Tb6  1  0.440005  0.060508  0.060508  1
  Tb  Tb7  1  0.901025  0.901779  0.901779  1
  Tb  Tb8  1  0.059924  0.439981  0.061248  1
  Tb  Tb9  1  0.898637  0.299618  0.899147  1
  Tb  Tb10  1  0.315316  0.686373  0.686373  1
  Tb  Tb11  1  0.898637  0.899147  0.299618  1
  Tb  Tb12  1  0.438408  0.438597  0.063763  1
  Tb  Tb13  1  0.311755  0.310723  0.688489  1
  Tb  Tb14  1  0.685823  0.686195  0.314741  1
  Tb  Tb15  1  0.059924  0.061248  0.439981  1
  Tl  Tl16  1  0.002344  0.666006  0.666006  1
  Cd  Cd17  1  0.667235  0.668645  0.668645  1
  In  In18  1  0.666847  0.997644  0.668164  1
  In  In19  1  0.666847  0.668164  0.997644  1
  Rh  Rh20  1  0.108392  0.108013  0.676629  1
  Rh  Rh21  1  0.108392  0.676629  0.108013  1
  Rh  Rh22  1  0.106699  0.106809  0.106809  1
  Rh  Rh23  1  0.676616  0.108075  0.108075  1
