# generated using pymatgen
data_Zr4AlRe6Tc
_symmetry_space_group_name_H-M   'P 1'
_cell_length_a   5.26450500
_cell_length_b   5.26450569
_cell_length_c   8.76009800
_cell_angle_alpha   90.00000000
_cell_angle_beta   90.00000000
_cell_angle_gamma   120.00001451
_symmetry_Int_Tables_number   1
_chemical_formula_structural   Zr4AlRe6Tc
_chemical_formula_sum   'Zr4 Al1 Re6 Tc1'
_cell_volume   210.25903888
_cell_formula_units_Z   1
loop_
 _symmetry_equiv_pos_site_id
 _symmetry_equiv_pos_as_xyz
  1  'x, y, z'
loop_
 _atom_site_type_symbol
 _atom_site_label
 _atom_site_symmetry_multiplicity
 _atom_site_fract_x
 _atom_site_fract_y
 _atom_site_fract_z
 _atom_site_occupancy
  Zr  Zr0  1  0.333333  0.666667  0.438416  1
  Zr  Zr1  1  0.666667  0.333333  0.561584  1
  Zr  Zr2  1  0.666667  0.333333  0.931850  1
  Zr  Zr3  1  0.333333  0.666667  0.068150  1
  Al  Al4  1  0.000000  0.000000  0.000000  1
  Re  Re5  1  0.829872  0.170128  0.249382  1
  Re  Re6  1  0.829872  0.659744  0.249382  1
  Re  Re7  1  0.340256  0.170128  0.249382  1
  Re  Re8  1  0.170128  0.829872  0.750618  1
  Re  Re9  1  0.170128  0.340256  0.750618  1
  Re  Re10  1  0.659744  0.829872  0.750618  1
  Tc  Tc11  1  0.000000  0.000000  0.500000  1
