# generated using pymatgen
data_TbDyMn4Ni8P7
_symmetry_space_group_name_H-M   'P 1'
_cell_length_a   9.15749506
_cell_length_b   9.14229169
_cell_length_c   3.67416400
_cell_angle_alpha   90.00000000
_cell_angle_beta   90.00000000
_cell_angle_gamma   120.06877306
_symmetry_Int_Tables_number   1
_chemical_formula_structural   TbDyMn4Ni8P7
_chemical_formula_sum   'Tb1 Dy1 Mn4 Ni8 P7'
_cell_volume   266.20704922
_cell_formula_units_Z   1
loop_
 _symmetry_equiv_pos_site_id
 _symmetry_equiv_pos_as_xyz
  1  'x, y, z'
loop_
 _atom_site_type_symbol
 _atom_site_label
 _atom_site_symmetry_multiplicity
 _atom_site_fract_x
 _atom_site_fract_y
 _atom_site_fract_z
 _atom_site_occupancy
  Tb  Tb0  1  0.667778  0.333468  0.000000  1
  Dy  Dy1  1  0.331633  0.665070  0.500000  1
  Mn  Mn2  1  0.844073  0.119839  0.000000  1
  Mn  Mn3  1  0.120208  0.902392  0.500000  1
  Mn  Mn4  1  0.100691  0.221693  0.500000  1
  Mn  Mn5  1  0.776226  0.876146  0.500000  1
  Ni  Ni6  1  0.375043  0.939983  0.000000  1
  Ni  Ni7  1  0.063404  0.435694  0.000000  1
  Ni  Ni8  1  0.565994  0.627902  0.000000  1
  Ni  Ni9  1  0.877859  0.723309  0.000000  1
  Ni  Ni10  1  0.278286  0.154203  0.000000  1
  Ni  Ni11  1  0.947653  0.563518  0.500000  1
  Ni  Ni12  1  0.436880  0.386020  0.500000  1
  Ni  Ni13  1  0.614551  0.050373  0.500000  1
  P  P14  1  0.113385  0.705724  0.000000  1
  P  P15  1  0.293773  0.406616  0.000000  1
  P  P16  1  0.592731  0.887941  0.000000  1
  P  P17  1  0.709458  0.595170  0.500000  1
  P  P18  1  0.403881  0.114042  0.500000  1
  P  P19  1  0.886804  0.287935  0.500000  1
  P  P20  1  0.999689  0.002963  0.000000  1
