# generated using pymatgen
data_LiDy2PaIn3Rh2
_symmetry_space_group_name_H-M   'P 1'
_cell_length_a   7.64999261
_cell_length_b   7.94941394
_cell_length_c   3.74249000
_cell_angle_alpha   90.00000000
_cell_angle_beta   90.00000000
_cell_angle_gamma   121.30340386
_symmetry_Int_Tables_number   1
_chemical_formula_structural   LiDy2PaIn3Rh2
_chemical_formula_sum   'Li1 Dy2 Pa1 In3 Rh2'
_cell_volume   194.46087264
_cell_formula_units_Z   1
loop_
 _symmetry_equiv_pos_site_id
 _symmetry_equiv_pos_as_xyz
  1  'x, y, z'
loop_
 _atom_site_type_symbol
 _atom_site_label
 _atom_site_symmetry_multiplicity
 _atom_site_fract_x
 _atom_site_fract_y
 _atom_site_fract_z
 _atom_site_occupancy
  Li  Li0  1  0.000000  0.987982  0.500000  1
  Dy  Dy1  1  0.587617  0.001787  0.500000  1
  Dy  Dy2  1  0.412383  0.414170  0.500000  1
  Pa  Pa3  1  0.000000  0.571433  0.500000  1
  In  In4  1  0.000000  0.239515  0.000000  1
  In  In5  1  0.265900  0.010429  0.000000  1
  In  In6  1  0.734100  0.744529  0.000000  1
  Rh  Rh7  1  0.704117  0.367135  0.000000  1
  Rh  Rh8  1  0.295883  0.663019  0.000000  1
