# generated using pymatgen
data_BeV12(SiSe12)2
_symmetry_space_group_name_H-M   'P 1'
_cell_length_a   12.38094226
_cell_length_b   12.38094108
_cell_length_c   12.38094025
_cell_angle_alpha   146.32871647
_cell_angle_beta   131.72570572
_cell_angle_gamma   60.14561660
_symmetry_Int_Tables_number   1
_chemical_formula_structural   BeV12(SiSe12)2
_chemical_formula_sum   'Be1 V12 Si2 Se24'
_cell_volume   778.05918298
_cell_formula_units_Z   1
loop_
 _symmetry_equiv_pos_site_id
 _symmetry_equiv_pos_as_xyz
  1  'x, y, z'
loop_
 _atom_site_type_symbol
 _atom_site_label
 _atom_site_symmetry_multiplicity
 _atom_site_fract_x
 _atom_site_fract_y
 _atom_site_fract_z
 _atom_site_occupancy
  Be  Be0  1  0.001043  0.000000  0.001043  1
  V  V1  1  0.732369  0.127656  0.190105  1
  V  V2  1  0.395185  0.795243  0.190428  1
  V  V3  1  0.062450  0.457736  0.190105  1
  V  V4  1  0.867949  0.266216  0.601734  1
  V  V5  1  0.536178  0.931627  0.604551  1
  V  V6  1  0.198409  0.595149  0.603260  1
  V  V7  1  0.008111  0.404851  0.603260  1
  V  V8  1  0.672925  0.068373  0.604551  1
  V  V9  1  0.335518  0.733784  0.601734  1
  V  V10  1  0.732369  0.542264  0.604713  1
  V  V11  1  0.395185  0.204757  0.599942  1
  V  V12  1  0.062450  0.872344  0.604713  1
  Si  Si13  1  0.666381  0.666777  0.999604  1
  Si  Si14  1  0.332828  0.333223  0.999604  1
  Se  Se15  1  0.467790  0.601410  0.403097  1
  Se  Se16  1  0.132569  0.261632  0.394201  1
  Se  Se17  1  0.801687  0.935305  0.403097  1
  Se  Se18  1  0.621243  0.756614  0.864628  1
  Se  Se19  1  0.289050  0.423275  0.865775  1
  Se  Se20  1  0.955469  0.087675  0.867793  1
  Se  Se21  1  0.780118  0.912325  0.867793  1
  Se  Se22  1  0.442499  0.576725  0.865775  1
  Se  Se23  1  0.108013  0.243386  0.864628  1
  Se  Se24  1  0.467790  0.064695  0.866382  1
  Se  Se25  1  0.132569  0.738368  0.870938  1
  Se  Se26  1  0.801687  0.398590  0.866382  1
  Se  Se27  1  0.631831  0.265093  0.896925  1
  Se  Se28  1  0.297512  0.930113  0.897020  1
  Se  Se29  1  0.966907  0.599508  0.897020  1
  Se  Se30  1  0.457425  0.088826  0.368598  1
  Se  Se31  1  0.121428  0.753895  0.367533  1
  Se  Se32  1  0.790834  0.423134  0.367700  1
  Se  Se33  1  0.279772  0.911174  0.368598  1
  Se  Se34  1  0.944566  0.576866  0.367700  1
  Se  Se35  1  0.613638  0.246105  0.367533  1
  Se  Se36  1  0.631831  0.734907  0.366738  1
  Se  Se37  1  0.297512  0.400492  0.367399  1
  Se  Se38  1  0.966907  0.069887  0.367399  1
