# generated using pymatgen
data_Dy2SiRh6
_symmetry_space_group_name_H-M   'P 1'
_cell_length_a   5.98437458
_cell_length_b   5.98437487
_cell_length_c   5.98437300
_cell_angle_alpha   59.99999376
_cell_angle_beta   59.99999214
_cell_angle_gamma   59.99998680
_symmetry_Int_Tables_number   1
_chemical_formula_structural   Dy2SiRh6
_chemical_formula_sum   'Dy2 Si1 Rh6'
_cell_volume   151.54483089
_cell_formula_units_Z   1
loop_
 _symmetry_equiv_pos_site_id
 _symmetry_equiv_pos_as_xyz
  1  'x, y, z'
loop_
 _atom_site_type_symbol
 _atom_site_label
 _atom_site_symmetry_multiplicity
 _atom_site_fract_x
 _atom_site_fract_y
 _atom_site_fract_z
 _atom_site_occupancy
  Dy  Dy0  1  0.250000  0.250000  0.250000  1
  Dy  Dy1  1  0.750000  0.750000  0.750000  1
  Si  Si2  1  0.000000  0.000000  0.000000  1
  Rh  Rh3  1  0.729713  0.270288  0.270288  1
  Rh  Rh4  1  0.270288  0.729713  0.270288  1
  Rh  Rh5  1  0.729712  0.729712  0.270289  1
  Rh  Rh6  1  0.270288  0.270288  0.729713  1
  Rh  Rh7  1  0.729712  0.270289  0.729712  1
  Rh  Rh8  1  0.270289  0.729712  0.729712  1
