# generated using pymatgen
data_Hf10Ga5Te
_symmetry_space_group_name_H-M   'P 1'
_cell_length_a   8.09663007
_cell_length_b   8.09662972
_cell_length_c   5.65512000
_cell_angle_alpha   90.00000000
_cell_angle_beta   90.00000000
_cell_angle_gamma   120.30173112
_symmetry_Int_Tables_number   1
_chemical_formula_structural   Hf10Ga5Te
_chemical_formula_sum   'Hf10 Ga5 Te1'
_cell_volume   320.07557820
_cell_formula_units_Z   1
loop_
 _symmetry_equiv_pos_site_id
 _symmetry_equiv_pos_as_xyz
  1  'x, y, z'
loop_
 _atom_site_type_symbol
 _atom_site_label
 _atom_site_symmetry_multiplicity
 _atom_site_fract_x
 _atom_site_fract_y
 _atom_site_fract_z
 _atom_site_occupancy
  Hf  Hf0  1  0.672397  0.329421  0.003281  1
  Hf  Hf1  1  0.329421  0.672397  0.003281  1
  Hf  Hf2  1  0.329421  0.672397  0.496719  1
  Hf  Hf3  1  0.672397  0.329421  0.496719  1
  Hf  Hf4  1  0.765353  0.765353  0.750000  1
  Hf  Hf5  1  0.241744  0.989918  0.750000  1
  Hf  Hf6  1  0.989918  0.241744  0.750000  1
  Hf  Hf7  1  0.242347  0.242347  0.250000  1
  Hf  Hf8  1  0.755176  0.001760  0.250000  1
  Hf  Hf9  1  0.001760  0.755176  0.250000  1
  Ga  Ga10  1  0.606183  0.997040  0.750000  1
  Ga  Ga11  1  0.997040  0.606183  0.750000  1
  Ga  Ga12  1  0.610741  0.610741  0.250000  1
  Ga  Ga13  1  0.391238  0.002039  0.250000  1
  Ga  Ga14  1  0.002039  0.391238  0.250000  1
  Te  Te15  1  0.392827  0.392827  0.750000  1
