# generated using pymatgen
data_Pr2NdCd3PdPb2
_symmetry_space_group_name_H-M   'P 1'
_cell_length_a   7.71257503
_cell_length_b   7.71257523
_cell_length_c   4.68894300
_cell_angle_alpha   90.00000000
_cell_angle_beta   90.00000000
_cell_angle_gamma   119.89842422
_symmetry_Int_Tables_number   1
_chemical_formula_structural   Pr2NdCd3PdPb2
_chemical_formula_sum   'Pr2 Nd1 Cd3 Pd1 Pb2'
_cell_volume   241.79538681
_cell_formula_units_Z   1
loop_
 _symmetry_equiv_pos_site_id
 _symmetry_equiv_pos_as_xyz
  1  'x, y, z'
loop_
 _atom_site_type_symbol
 _atom_site_label
 _atom_site_symmetry_multiplicity
 _atom_site_fract_x
 _atom_site_fract_y
 _atom_site_fract_z
 _atom_site_occupancy
  Pr  Pr0  1  0.604781  0.000106  0.000000  1
  Pr  Pr1  1  0.000106  0.604781  0.000000  1
  Nd  Nd2  1  0.395235  0.395235  0.000000  1
  Cd  Cd3  1  0.228672  0.000210  0.500000  1
  Cd  Cd4  1  0.000210  0.228672  0.500000  1
  Cd  Cd5  1  0.771208  0.771208  0.500000  1
  Pd  Pd6  1  0.000020  0.000020  0.000000  1
  Pb  Pb7  1  0.333382  0.666387  0.500000  1
  Pb  Pb8  1  0.666387  0.333382  0.500000  1
