# generated using pymatgen
data_Li7Yb(HoPt)8
_symmetry_space_group_name_H-M   'P 1'
_cell_length_a   9.35345049
_cell_length_b   7.96354254
_cell_length_c   7.02980200
_cell_angle_alpha   90.08779050
_cell_angle_beta   89.90268819
_cell_angle_gamma   115.40654405
_symmetry_Int_Tables_number   1
_chemical_formula_structural   Li7Yb(HoPt)8
_chemical_formula_sum   'Li7 Yb1 Ho8 Pt8'
_cell_volume   472.98337126
_cell_formula_units_Z   1
loop_
 _symmetry_equiv_pos_site_id
 _symmetry_equiv_pos_as_xyz
  1  'x, y, z'
loop_
 _atom_site_type_symbol
 _atom_site_label
 _atom_site_symmetry_multiplicity
 _atom_site_fract_x
 _atom_site_fract_y
 _atom_site_fract_z
 _atom_site_occupancy
  Li  Li0  1  0.193178  0.846662  0.375248  1
  Li  Li1  1  0.694282  0.845412  0.120183  1
  Li  Li2  1  0.805448  0.653314  0.875578  1
  Li  Li3  1  0.806552  0.153490  0.873366  1
  Li  Li4  1  0.309613  0.147136  0.629358  1
  Li  Li5  1  0.309623  0.663083  0.627854  1
  Li  Li6  1  0.694060  0.347740  0.119457  1
  Yb  Yb7  1  0.194135  0.346514  0.375100  1
  Ho  Ho8  1  0.572983  0.036681  0.450833  1
  Ho  Ho9  1  0.580374  0.540053  0.447198  1
  Ho  Ho10  1  0.920161  0.465387  0.552039  1
  Ho  Ho11  1  0.430414  0.964481  0.944168  1
  Ho  Ho12  1  0.429984  0.465278  0.944633  1
  Ho  Ho13  1  0.068783  0.544186  0.039477  1
  Ho  Ho14  1  0.920391  0.954728  0.552425  1
  Ho  Ho15  1  0.069129  0.025154  0.039187  1
  Pt  Pt16  1  0.119594  0.310465  0.763517  1
  Pt  Pt17  1  0.122514  0.811395  0.750163  1
  Pt  Pt18  1  0.622238  0.810864  0.741295  1
  Pt  Pt19  1  0.877475  0.688390  0.254961  1
  Pt  Pt20  1  0.875017  0.186979  0.252883  1
  Pt  Pt21  1  0.381110  0.183585  0.235638  1
  Pt  Pt22  1  0.381049  0.696805  0.235903  1
  Pt  Pt23  1  0.621895  0.312220  0.741509  1
