# generated using pymatgen
data_Pr3Al12(OsRh)2
_symmetry_space_group_name_H-M   'P 1'
_cell_length_a   8.93622200
_cell_length_b   8.94730372
_cell_length_c   9.71325584
_cell_angle_alpha   89.93953810
_cell_angle_beta   90.00000000
_cell_angle_gamma   119.95903741
_symmetry_Int_Tables_number   1
_chemical_formula_structural   Pr3Al12(OsRh)2
_chemical_formula_sum   'Pr6 Al24 Os4 Rh4'
_cell_volume   672.85329070
_cell_formula_units_Z   2
loop_
 _symmetry_equiv_pos_site_id
 _symmetry_equiv_pos_as_xyz
  1  'x, y, z'
loop_
 _atom_site_type_symbol
 _atom_site_label
 _atom_site_symmetry_multiplicity
 _atom_site_fract_x
 _atom_site_fract_y
 _atom_site_fract_z
 _atom_site_occupancy
  Pr  Pr0  1  0.191576  0.383151  0.251953  1
  Pr  Pr1  1  0.808424  0.616849  0.748047  1
  Pr  Pr2  1  0.619218  0.808637  0.251370  1
  Pr  Pr3  1  0.380782  0.191363  0.748630  1
  Pr  Pr4  1  0.189418  0.808637  0.251370  1
  Pr  Pr5  1  0.810582  0.191363  0.748630  1
  Al  Al6  1  0.333755  0.667511  0.016714  1
  Al  Al7  1  0.666245  0.332489  0.983286  1
  Al  Al8  1  0.667143  0.334285  0.516247  1
  Al  Al9  1  0.332857  0.665715  0.483753  1
  Al  Al10  1  0.164284  0.328567  0.574048  1
  Al  Al11  1  0.835716  0.671433  0.425952  1
  Al  Al12  1  0.672657  0.834010  0.575132  1
  Al  Al13  1  0.836725  0.673449  0.075890  1
  Al  Al14  1  0.327343  0.165990  0.424868  1
  Al  Al15  1  0.163275  0.326551  0.924110  1
  Al  Al16  1  0.161354  0.834010  0.575132  1
  Al  Al17  1  0.326398  0.162940  0.075761  1
  Al  Al18  1  0.838646  0.165990  0.424868  1
  Al  Al19  1  0.673602  0.837060  0.924239  1
  Al  Al20  1  0.836541  0.162940  0.075761  1
  Al  Al21  1  0.163459  0.837060  0.924239  1
  Al  Al22  1  0.562176  0.124351  0.249246  1
  Al  Al23  1  0.437824  0.875649  0.750754  1
  Al  Al24  1  0.873882  0.437357  0.249926  1
  Al  Al25  1  0.126118  0.562643  0.750074  1
  Al  Al26  1  0.563476  0.437357  0.249926  1
  Al  Al27  1  0.436524  0.562643  0.750074  1
  Al  Al28  1  0.000259  0.000518  0.250275  1
  Al  Al29  1  0.999741  0.999482  0.749725  1
  Os  Os30  1  0.000000  0.500000  0.500000  1
  Os  Os31  1  0.500000  0.500000  0.500000  1
  Os  Os32  1  0.000000  0.000000  0.000000  1
  Os  Os33  1  0.000000  0.000000  0.500000  1
  Rh  Rh34  1  0.500000  0.000000  0.000000  1
  Rh  Rh35  1  0.000000  0.500000  0.000000  1
  Rh  Rh36  1  0.500000  0.000000  0.500000  1
  Rh  Rh37  1  0.500000  0.500000  0.000000  1
