# generated using pymatgen
data_Ti8Al14Co6GePt
_symmetry_space_group_name_H-M   'P 1'
_cell_length_a   8.45523773
_cell_length_b   8.44612875
_cell_length_c   8.47497490
_cell_angle_alpha   119.89879427
_cell_angle_beta   119.76910093
_cell_angle_gamma   90.08275551
_symmetry_Int_Tables_number   1
_chemical_formula_structural   Ti8Al14Co6GePt
_chemical_formula_sum   'Ti8 Al14 Co6 Ge1 Pt1'
_cell_volume   429.79703863
_cell_formula_units_Z   1
loop_
 _symmetry_equiv_pos_site_id
 _symmetry_equiv_pos_as_xyz
  1  'x, y, z'
loop_
 _atom_site_type_symbol
 _atom_site_label
 _atom_site_symmetry_multiplicity
 _atom_site_fract_x
 _atom_site_fract_y
 _atom_site_fract_z
 _atom_site_occupancy
  Ti  Ti0  1  0.794675  0.292391  0.081991  1
  Ti  Ti1  1  0.213638  0.293066  0.497982  1
  Ti  Ti2  1  0.210385  0.707129  0.500190  1
  Ti  Ti3  1  0.210530  0.712874  0.918600  1
  Ti  Ti4  1  0.792469  0.712529  0.502430  1
  Ti  Ti5  1  0.786713  0.289041  0.499941  1
  Ti  Ti6  1  0.389422  0.125064  0.748347  1
  Ti  Ti7  1  0.381602  0.640179  0.261699  1
  Al  Al8  1  0.159838  0.338213  0.179194  1
  Al  Al9  1  0.164121  0.979668  0.829676  1
  Al  Al10  1  0.160667  0.350008  0.824316  1
  Al  Al11  1  0.524167  0.340573  0.184822  1
  Al  Al12  1  0.839422  0.658529  0.818968  1
  Al  Al13  1  0.834685  0.021512  0.171451  1
  Al  Al14  1  0.834086  0.649807  0.169944  1
  Al  Al15  1  0.480863  0.659859  0.820490  1
  Al  Al16  1  0.381724  0.120246  0.263693  1
  Al  Al17  1  0.856270  0.122494  0.745703  1
  Al  Al18  1  0.611322  0.876710  0.252871  1
  Al  Al19  1  0.618904  0.358927  0.737173  1
  Al  Al20  1  0.619836  0.878206  0.737862  1
  Al  Al21  1  0.141191  0.877703  0.254125  1
  Co  Co22  1  0.497942  0.000605  0.995354  1
  Co  Co23  1  0.497948  0.496357  0.999065  1
  Co  Co24  1  0.497700  0.500520  0.497597  1
  Co  Co25  1  0.004111  0.501628  0.004309  1
  Co  Co26  1  0.000901  0.000240  0.000424  1
  Co  Co27  1  0.497662  0.998320  0.501110  1
  Ge  Ge28  1  0.998198  0.498009  0.500260  1
  Pt  Pt29  1  0.999005  0.999588  0.500411  1
