# generated using pymatgen
data_Sc6Zn21Ag2P
_symmetry_space_group_name_H-M   'P 1'
_cell_length_a   8.83733465
_cell_length_b   8.83415353
_cell_length_c   8.83415300
_cell_angle_alpha   60.00079209
_cell_angle_beta   60.01231673
_cell_angle_gamma   60.01232071
_symmetry_Int_Tables_number   1
_chemical_formula_structural   Sc6Zn21Ag2P
_chemical_formula_sum   'Sc6 Zn21 Ag2 P1'
_cell_volume   487.77507305
_cell_formula_units_Z   1
loop_
 _symmetry_equiv_pos_site_id
 _symmetry_equiv_pos_as_xyz
  1  'x, y, z'
loop_
 _atom_site_type_symbol
 _atom_site_label
 _atom_site_symmetry_multiplicity
 _atom_site_fract_x
 _atom_site_fract_y
 _atom_site_fract_z
 _atom_site_occupancy
  Sc  Sc0  1  0.706030  0.293870  0.293870  1
  Sc  Sc1  1  0.705980  0.293917  0.706201  1
  Sc  Sc2  1  0.705980  0.706201  0.293917  1
  Sc  Sc3  1  0.292703  0.707408  0.707408  1
  Sc  Sc4  1  0.292621  0.707506  0.292373  1
  Sc  Sc5  1  0.292621  0.292373  0.707506  1
  Zn  Zn6  1  0.123090  0.627550  0.124675  1
  Zn  Zn7  1  0.123090  0.124675  0.627550  1
  Zn  Zn8  1  0.123092  0.124695  0.124695  1
  Zn  Zn9  1  0.376219  0.874588  0.874588  1
  Zn  Zn10  1  0.874941  0.368646  0.878212  1
  Zn  Zn11  1  0.874941  0.878212  0.368646  1
  Zn  Zn12  1  0.874964  0.878211  0.878211  1
  Zn  Zn13  1  0.496825  0.999611  0.999611  1
  Zn  Zn14  1  0.496826  0.999610  0.503967  1
  Zn  Zn15  1  0.496826  0.503967  0.999610  1
  Zn  Zn16  1  0.999112  0.500500  0.500500  1
  Zn  Zn17  1  0.999112  0.500505  0.999904  1
  Zn  Zn18  1  0.999112  0.999904  0.500505  1
  Zn  Zn19  1  0.998419  0.333869  0.333869  1
  Zn  Zn20  1  0.332896  0.998101  0.334510  1
  Zn  Zn21  1  0.332896  0.334510  0.998101  1
  Zn  Zn22  1  0.332899  0.334514  0.334514  1
  Zn  Zn23  1  0.000469  0.666515  0.666515  1
  Zn  Zn24  1  0.666338  0.001135  0.666275  1
  Zn  Zn25  1  0.666338  0.666275  0.001135  1
  Zn  Zn26  1  0.666343  0.666274  0.666274  1
  Ag  Ag27  1  0.635465  0.121510  0.121510  1
  Ag  Ag28  1  0.015664  0.994782  0.994782  1
  P  P29  1  0.498188  0.500568  0.500568  1
