# generated using pymatgen
data_DyErAl20IrRu3
_symmetry_space_group_name_H-M   'P 1'
_cell_length_a   6.84536945
_cell_length_b   6.84972892
_cell_length_c   9.14342529
_cell_angle_alpha   90.08043540
_cell_angle_beta   90.08507283
_cell_angle_gamma   96.66015339
_symmetry_Int_Tables_number   1
_chemical_formula_structural   DyErAl20IrRu3
_chemical_formula_sum   'Dy1 Er1 Al20 Ir1 Ru3'
_cell_volume   425.83114552
_cell_formula_units_Z   1
loop_
 _symmetry_equiv_pos_site_id
 _symmetry_equiv_pos_as_xyz
  1  'x, y, z'
loop_
 _atom_site_type_symbol
 _atom_site_label
 _atom_site_symmetry_multiplicity
 _atom_site_fract_x
 _atom_site_fract_y
 _atom_site_fract_z
 _atom_site_occupancy
  Dy  Dy0  1  0.870943  0.127522  0.750443  1
  Er  Er1  1  0.129356  0.872259  0.249508  1
  Al  Al2  1  0.620706  0.376013  0.550890  1
  Al  Al3  1  0.379141  0.624132  0.449014  1
  Al  Al4  1  0.376989  0.623606  0.050118  1
  Al  Al5  1  0.622853  0.376559  0.949991  1
  Al  Al6  1  0.226679  0.223751  0.498708  1
  Al  Al7  1  0.773399  0.776156  0.501035  1
  Al  Al8  1  0.774417  0.774941  0.000642  1
  Al  Al9  1  0.225674  0.224980  0.999627  1
  Al  Al10  1  0.844540  0.156088  0.099972  1
  Al  Al11  1  0.155649  0.843729  0.900168  1
  Al  Al12  1  0.157165  0.845679  0.601343  1
  Al  Al13  1  0.843019  0.154106  0.398527  1
  Al  Al14  1  0.857374  0.587149  0.751561  1
  Al  Al15  1  0.142764  0.413211  0.248440  1
  Al  Al16  1  0.413814  0.141761  0.750446  1
  Al  Al17  1  0.585819  0.858126  0.249552  1
  Al  Al18  1  0.222079  0.480931  0.752282  1
  Al  Al19  1  0.778108  0.519399  0.247721  1
  Al  Al20  1  0.518898  0.778997  0.749814  1
  Al  Al21  1  0.480758  0.220818  0.250173  1
  Ir  Ir22  1  0.000024  0.500044  0.499818  1
  Ru  Ru23  1  0.000035  0.500103  0.000216  1
  Ru  Ru24  1  0.499909  0.999975  0.000230  1
  Ru  Ru25  1  0.499888  0.999963  0.499761  1
