# generated using pymatgen
data_Os5PbCl30
_symmetry_space_group_name_H-M   'P 1'
_cell_length_a   13.26706862
_cell_length_b   13.27570141
_cell_length_c   6.70847305
_cell_angle_alpha   86.37629932
_cell_angle_beta   86.43751344
_cell_angle_gamma   88.30461930
_symmetry_Int_Tables_number   1
_chemical_formula_structural   Os5PbCl30
_chemical_formula_sum   'Os5 Pb1 Cl30'
_cell_volume   1176.52943050
_cell_formula_units_Z   1
loop_
 _symmetry_equiv_pos_site_id
 _symmetry_equiv_pos_as_xyz
  1  'x, y, z'
loop_
 _atom_site_type_symbol
 _atom_site_label
 _atom_site_symmetry_multiplicity
 _atom_site_fract_x
 _atom_site_fract_y
 _atom_site_fract_z
 _atom_site_occupancy
  Os  Os0  1  0.898218  0.100941  0.000414  1
  Os  Os1  1  0.101213  0.898915  0.000198  1
  Os  Os2  1  0.769910  0.563510  0.433386  1
  Os  Os3  1  0.232494  0.434907  0.566357  1
  Os  Os4  1  0.434353  0.231856  0.566800  1
  Pb  Pb5  1  0.545310  0.788692  0.433775  1
  Cl  Cl6  1  0.505007  0.314024  0.811011  1
  Cl  Cl7  1  0.267893  0.268103  0.735134  1
  Cl  Cl8  1  0.164770  0.975374  0.706796  1
  Cl  Cl9  1  0.612300  0.587417  0.606630  1
  Cl  Cl10  1  0.220999  0.583176  0.388917  1
  Cl  Cl11  1  0.746196  0.720999  0.259945  1
  Cl  Cl12  1  0.161618  0.351952  0.322830  1
  Cl  Cl13  1  0.068481  0.068647  0.123811  1
  Cl  Cl14  1  0.656772  0.839999  0.690255  1
  Cl  Cl15  1  0.583031  0.220323  0.389507  1
  Cl  Cl16  1  0.108933  0.746623  0.870415  1
  Cl  Cl17  1  0.024978  0.834433  0.293397  1
  Cl  Cl18  1  0.922279  0.545378  0.259269  1
  Cl  Cl19  1  0.834139  0.024954  0.293359  1
  Cl  Cl20  1  0.386343  0.783908  0.641822  1
  Cl  Cl21  1  0.788124  0.411262  0.606497  1
  Cl  Cl22  1  0.549630  0.947090  0.223055  1
  Cl  Cl23  1  0.974992  0.165639  0.707249  1
  Cl  Cl24  1  0.843358  0.643434  0.677004  1
  Cl  Cl25  1  0.890712  0.253529  0.130127  1
  Cl  Cl26  1  0.494222  0.677553  0.176199  1
  Cl  Cl27  1  0.351395  0.162097  0.322988  1
  Cl  Cl28  1  0.083258  0.446136  0.743692  1
  Cl  Cl29  1  0.746124  0.108841  0.870078  1
  Cl  Cl30  1  0.445384  0.083180  0.743639  1
  Cl  Cl31  1  0.398752  0.398747  0.399059  1
  Cl  Cl32  1  0.314562  0.504855  0.810745  1
  Cl  Cl33  1  0.253576  0.891495  0.128933  1
  Cl  Cl34  1  0.930918  0.931429  0.877484  1
  Cl  Cl35  1  0.689753  0.490581  0.189229  1
