# generated using pymatgen
data_Lu2Co6Si2BC
_symmetry_space_group_name_H-M   'P 1'
_cell_length_a   5.05402100
_cell_length_b   5.05401938
_cell_length_c   6.41073900
_cell_angle_alpha   90.00000000
_cell_angle_beta   90.00000000
_cell_angle_gamma   120.00000403
_symmetry_Int_Tables_number   1
_chemical_formula_structural   Lu2Co6Si2BC
_chemical_formula_sum   'Lu2 Co6 Si2 B1 C1'
_cell_volume   141.81189332
_cell_formula_units_Z   1
loop_
 _symmetry_equiv_pos_site_id
 _symmetry_equiv_pos_as_xyz
  1  'x, y, z'
loop_
 _atom_site_type_symbol
 _atom_site_label
 _atom_site_symmetry_multiplicity
 _atom_site_fract_x
 _atom_site_fract_y
 _atom_site_fract_z
 _atom_site_occupancy
  Lu  Lu0  1  0.000000  0.000000  0.500000  1
  Lu  Lu1  1  0.000000  0.000000  0.000000  1
  Co  Co2  1  0.497837  0.995674  0.211676  1
  Co  Co3  1  0.497837  0.995674  0.788324  1
  Co  Co4  1  0.004326  0.502163  0.211676  1
  Co  Co5  1  0.004326  0.502163  0.788324  1
  Co  Co6  1  0.497837  0.502163  0.211676  1
  Co  Co7  1  0.497837  0.502163  0.788324  1
  Si  Si8  1  0.333333  0.666667  0.500000  1
  Si  Si9  1  0.666667  0.333333  0.500000  1
  B  B10  1  0.666667  0.333333  0.000000  1
  C  C11  1  0.333333  0.666667  0.000000  1
