# generated using pymatgen
data_Dy3ErSc2(SbO7)2
_symmetry_space_group_name_H-M   'P 1'
_cell_length_a   6.21899426
_cell_length_b   6.38514314
_cell_length_c   7.33364800
_cell_angle_alpha   106.76465265
_cell_angle_beta   89.59513925
_cell_angle_gamma   99.04284549
_symmetry_Int_Tables_number   1
_chemical_formula_structural   Dy3ErSc2(SbO7)2
_chemical_formula_sum   'Dy3 Er1 Sc2 Sb2 O14'
_cell_volume   275.14458622
_cell_formula_units_Z   1
loop_
 _symmetry_equiv_pos_site_id
 _symmetry_equiv_pos_as_xyz
  1  'x, y, z'
loop_
 _atom_site_type_symbol
 _atom_site_label
 _atom_site_symmetry_multiplicity
 _atom_site_fract_x
 _atom_site_fract_y
 _atom_site_fract_z
 _atom_site_occupancy
  Dy  Dy0  1  0.731253  0.455357  0.113590  1
  Dy  Dy1  1  0.737182  0.464910  0.613257  1
  Dy  Dy2  1  0.260913  0.533789  0.386436  1
  Er  Er3  1  0.268425  0.544383  0.885436  1
  Sc  Sc4  1  0.533906  0.992128  0.746946  1
  Sc  Sc5  1  0.465993  0.006246  0.252966  1
  Sb  Sb6  1  0.000426  0.000934  0.500525  1
  Sb  Sb7  1  0.001386  0.000124  0.999777  1
  O  O8  1  0.450723  0.668233  0.168677  1
  O  O9  1  0.544606  0.330595  0.829552  1
  O  O10  1  0.300462  0.938443  0.947577  1
  O  O11  1  0.702445  0.060137  0.054391  1
  O  O12  1  0.296207  0.935176  0.522908  1
  O  O13  1  0.703898  0.064652  0.477334  1
  O  O14  1  0.531116  0.345344  0.337740  1
  O  O15  1  0.467113  0.653938  0.663033  1
  O  O16  1  0.925559  0.669506  0.941032  1
  O  O17  1  0.078255  0.330218  0.055938  1
  O  O18  1  0.078123  0.337631  0.609046  1
  O  O19  1  0.921372  0.664153  0.392463  1
  O  O20  1  0.883835  0.949067  0.736905  1
  O  O21  1  0.116804  0.055038  0.264470  1
