# generated using pymatgen
data_Al3Pd3Pt2
_symmetry_space_group_name_H-M   'P 1'
_cell_length_a   4.12585800
_cell_length_b   5.40886900
_cell_length_c   10.59029600
_cell_angle_alpha   90.00000000
_cell_angle_beta   90.00000000
_cell_angle_gamma   90.00000000
_symmetry_Int_Tables_number   1
_chemical_formula_structural   Al3Pd3Pt2
_chemical_formula_sum   'Al6 Pd6 Pt4'
_cell_volume   236.33543296
_cell_formula_units_Z   2
loop_
 _symmetry_equiv_pos_site_id
 _symmetry_equiv_pos_as_xyz
  1  'x, y, z'
loop_
 _atom_site_type_symbol
 _atom_site_label
 _atom_site_symmetry_multiplicity
 _atom_site_fract_x
 _atom_site_fract_y
 _atom_site_fract_z
 _atom_site_occupancy
  Al  Al0  1  0.000000  0.000000  0.000000  1
  Al  Al1  1  0.000000  0.500000  0.500000  1
  Al  Al2  1  0.500000  0.161563  0.357063  1
  Al  Al3  1  0.500000  0.838437  0.642937  1
  Al  Al4  1  0.500000  0.661563  0.142937  1
  Al  Al5  1  0.500000  0.338437  0.857063  1
  Pd  Pd6  1  0.000000  0.000000  0.500000  1
  Pd  Pd7  1  0.000000  0.500000  0.000000  1
  Pd  Pd8  1  0.000000  0.904204  0.232381  1
  Pd  Pd9  1  0.000000  0.095796  0.767619  1
  Pd  Pd10  1  0.000000  0.404204  0.267619  1
  Pd  Pd11  1  0.000000  0.595796  0.732381  1
  Pt  Pt12  1  0.500000  0.188168  0.106046  1
  Pt  Pt13  1  0.500000  0.811832  0.893954  1
  Pt  Pt14  1  0.500000  0.688168  0.393954  1
  Pt  Pt15  1  0.500000  0.311832  0.606046  1
