# generated using pymatgen
data_Tb4Al3Zn4Sn
_symmetry_space_group_name_H-M   'P 1'
_cell_length_a   4.50904500
_cell_length_b   4.50904603
_cell_length_c   14.71936600
_cell_angle_alpha   90.00000000
_cell_angle_beta   90.00000000
_cell_angle_gamma   119.99998507
_symmetry_Int_Tables_number   1
_chemical_formula_structural   Tb4Al3Zn4Sn
_chemical_formula_sum   'Tb4 Al3 Zn4 Sn1'
_cell_volume   259.17257283
_cell_formula_units_Z   1
loop_
 _symmetry_equiv_pos_site_id
 _symmetry_equiv_pos_as_xyz
  1  'x, y, z'
loop_
 _atom_site_type_symbol
 _atom_site_label
 _atom_site_symmetry_multiplicity
 _atom_site_fract_x
 _atom_site_fract_y
 _atom_site_fract_z
 _atom_site_occupancy
  Tb  Tb0  1  0.000000  0.000000  0.758051  1
  Tb  Tb1  1  0.000000  0.000000  0.245996  1
  Tb  Tb2  1  0.000000  0.000000  0.489862  1
  Tb  Tb3  1  0.000000  0.000000  0.002538  1
  Al  Al4  1  0.666667  0.333333  0.135014  1
  Al  Al5  1  0.666667  0.333333  0.356482  1
  Al  Al6  1  0.333333  0.666667  0.891989  1
  Zn  Zn7  1  0.666667  0.333333  0.865354  1
  Zn  Zn8  1  0.666667  0.333333  0.659355  1
  Zn  Zn9  1  0.333333  0.666667  0.107488  1
  Zn  Zn10  1  0.333333  0.666667  0.376202  1
  Sn  Sn11  1  0.333333  0.666667  0.611667  1
