# generated using pymatgen
data_TmLuSe3
_symmetry_space_group_name_H-M   'P 1'
_cell_length_a   13.34378443
_cell_length_b   12.73755459
_cell_length_c   6.99169539
_cell_angle_alpha   79.29912420
_cell_angle_beta   69.71314176
_cell_angle_gamma   30.98774493
_symmetry_Int_Tables_number   1
_chemical_formula_structural   TmLuSe3
_chemical_formula_sum   'Tm4 Lu4 Se12'
_cell_volume   558.35793949
_cell_formula_units_Z   4
loop_
 _symmetry_equiv_pos_site_id
 _symmetry_equiv_pos_as_xyz
  1  'x, y, z'
loop_
 _atom_site_type_symbol
 _atom_site_label
 _atom_site_symmetry_multiplicity
 _atom_site_fract_x
 _atom_site_fract_y
 _atom_site_fract_z
 _atom_site_occupancy
  Tm  Tm0  1  0.997449  0.997449  0.502551  1
  Tm  Tm1  1  0.502551  0.502551  0.997449  1
  Tm  Tm2  1  0.252551  0.252551  0.747449  1
  Tm  Tm3  1  0.747449  0.747449  0.252551  1
  Lu  Lu4  1  0.333638  0.333638  0.166362  1
  Lu  Lu5  1  0.166362  0.166362  0.333638  1
  Lu  Lu6  1  0.916362  0.916362  0.083638  1
  Lu  Lu7  1  0.083638  0.083638  0.916362  1
  Se  Se8  1  0.008357  0.491643  0.491643  1
  Se  Se9  1  0.491643  0.008357  0.008357  1
  Se  Se10  1  0.241643  0.758357  0.758357  1
  Se  Se11  1  0.758357  0.241643  0.241643  1
  Se  Se12  1  0.663739  0.173158  0.843020  1
  Se  Se13  1  0.843020  0.320083  0.663739  1
  Se  Se14  1  0.320083  0.843020  0.173158  1
  Se  Se15  1  0.173158  0.663739  0.320083  1
  Se  Se16  1  0.586261  0.076842  0.406980  1
  Se  Se17  1  0.406980  0.929917  0.586261  1
  Se  Se18  1  0.929917  0.406980  0.076842  1
  Se  Se19  1  0.076842  0.586261  0.929917  1
