# generated using pymatgen
data_YTm11(Si3Ir)4
_symmetry_space_group_name_H-M   'P 1'
_cell_length_a   4.22786000
_cell_length_b   10.60869904
_cell_length_c   12.25351100
_cell_angle_alpha   90.02537850
_cell_angle_beta   90.00000000
_cell_angle_gamma   90.00000000
_symmetry_Int_Tables_number   1
_chemical_formula_structural   YTm11(Si3Ir)4
_chemical_formula_sum   'Y1 Tm11 Si12 Ir4'
_cell_volume   549.59557728
_cell_formula_units_Z   1
loop_
 _symmetry_equiv_pos_site_id
 _symmetry_equiv_pos_as_xyz
  1  'x, y, z'
loop_
 _atom_site_type_symbol
 _atom_site_label
 _atom_site_symmetry_multiplicity
 _atom_site_fract_x
 _atom_site_fract_y
 _atom_site_fract_z
 _atom_site_occupancy
  Y  Y0  1  0.750000  0.158334  0.699187  1
  Tm  Tm1  1  0.250000  0.879836  0.020617  1
  Tm  Tm2  1  0.250000  0.619922  0.520313  1
  Tm  Tm3  1  0.750000  0.120080  0.979793  1
  Tm  Tm4  1  0.750000  0.379996  0.479540  1
  Tm  Tm5  1  0.250000  0.918007  0.603194  1
  Tm  Tm6  1  0.250000  0.581404  0.103569  1
  Tm  Tm7  1  0.750000  0.081136  0.396464  1
  Tm  Tm8  1  0.750000  0.419187  0.896717  1
  Tm  Tm9  1  0.250000  0.659175  0.800484  1
  Tm  Tm10  1  0.250000  0.841335  0.300652  1
  Tm  Tm11  1  0.750000  0.340513  0.199497  1
  Si  Si12  1  0.250000  0.009734  0.821838  1
  Si  Si13  1  0.250000  0.489202  0.321173  1
  Si  Si14  1  0.750000  0.989667  0.178561  1
  Si  Si15  1  0.750000  0.510766  0.678693  1
  Si  Si16  1  0.250000  0.247392  0.841355  1
  Si  Si17  1  0.250000  0.253422  0.340863  1
  Si  Si18  1  0.750000  0.753725  0.159357  1
  Si  Si19  1  0.750000  0.746372  0.659024  1
  Si  Si20  1  0.250000  0.200489  0.542954  1
  Si  Si21  1  0.250000  0.300210  0.043988  1
  Si  Si22  1  0.750000  0.799702  0.455831  1
  Si  Si23  1  0.750000  0.700152  0.956007  1
  Ir  Ir24  1  0.250000  0.391015  0.680300  1
  Ir  Ir25  1  0.250000  0.110505  0.180286  1
  Ir  Ir26  1  0.750000  0.610133  0.319580  1
  Ir  Ir27  1  0.750000  0.888586  0.820163  1
