# generated using pymatgen
data_Cr22AsC6
_symmetry_space_group_name_H-M   'P 1'
_cell_length_a   7.48761182
_cell_length_b   7.48761221
_cell_length_c   7.48761100
_cell_angle_alpha   60.00000094
_cell_angle_beta   59.99999921
_cell_angle_gamma   60.00000375
_symmetry_Int_Tables_number   1
_chemical_formula_structural   Cr22AsC6
_chemical_formula_sum   'Cr22 As1 C6'
_cell_volume   296.83489499
_cell_formula_units_Z   1
loop_
 _symmetry_equiv_pos_site_id
 _symmetry_equiv_pos_as_xyz
  1  'x, y, z'
loop_
 _atom_site_type_symbol
 _atom_site_label
 _atom_site_symmetry_multiplicity
 _atom_site_fract_x
 _atom_site_fract_y
 _atom_site_fract_z
 _atom_site_occupancy
  Cr  Cr0  1  0.750000  0.750000  0.750000  1
  Cr  Cr1  1  0.250000  0.250000  0.250000  1
  Cr  Cr2  1  0.619502  0.619502  0.141495  1
  Cr  Cr3  1  0.619502  0.141495  0.619502  1
  Cr  Cr4  1  0.141495  0.619502  0.619502  1
  Cr  Cr5  1  0.619502  0.619502  0.619502  1
  Cr  Cr6  1  0.380498  0.380498  0.858505  1
  Cr  Cr7  1  0.380498  0.858505  0.380498  1
  Cr  Cr8  1  0.858505  0.380498  0.380498  1
  Cr  Cr9  1  0.380498  0.380498  0.380498  1
  Cr  Cr10  1  0.000000  0.000000  0.341695  1
  Cr  Cr11  1  0.658305  0.000000  0.341695  1
  Cr  Cr12  1  0.000000  0.658305  0.341695  1
  Cr  Cr13  1  0.658305  0.341695  0.000000  1
  Cr  Cr14  1  0.000000  0.341695  0.000000  1
  Cr  Cr15  1  0.000000  0.341695  0.658305  1
  Cr  Cr16  1  0.341695  0.658305  0.000000  1
  Cr  Cr17  1  0.341695  0.000000  0.658305  1
  Cr  Cr18  1  0.341695  0.000000  0.000000  1
  Cr  Cr19  1  0.000000  0.000000  0.658305  1
  Cr  Cr20  1  0.000000  0.658305  0.000000  1
  Cr  Cr21  1  0.658305  0.000000  0.000000  1
  As  As22  1  0.000000  0.000000  0.000000  1
  C  C23  1  0.719166  0.719166  0.280834  1
  C  C24  1  0.280834  0.719166  0.280834  1
  C  C25  1  0.719166  0.280834  0.280834  1
  C  C26  1  0.280834  0.280834  0.719166  1
  C  C27  1  0.719166  0.280834  0.719166  1
  C  C28  1  0.280834  0.719166  0.719166  1
