# generated using pymatgen
data_Hf15Sc3Re5P2W3
_symmetry_space_group_name_H-M   'P 1'
_cell_length_a   8.65721349
_cell_length_b   8.65721307
_cell_length_c   8.54868300
_cell_angle_alpha   90.00000000
_cell_angle_beta   90.00000000
_cell_angle_gamma   120.11145776
_symmetry_Int_Tables_number   1
_chemical_formula_structural   Hf15Sc3Re5P2W3
_chemical_formula_sum   'Hf15 Sc3 Re5 P2 W3'
_cell_volume   554.23917102
_cell_formula_units_Z   1
loop_
 _symmetry_equiv_pos_site_id
 _symmetry_equiv_pos_as_xyz
  1  'x, y, z'
loop_
 _atom_site_type_symbol
 _atom_site_label
 _atom_site_symmetry_multiplicity
 _atom_site_fract_x
 _atom_site_fract_y
 _atom_site_fract_z
 _atom_site_occupancy
  Hf  Hf0  1  0.196275  0.803725  0.451353  1
  Hf  Hf1  1  0.196382  0.392834  0.451613  1
  Hf  Hf2  1  0.607166  0.803618  0.451613  1
  Hf  Hf3  1  0.804082  0.195918  0.550367  1
  Hf  Hf4  1  0.803988  0.608234  0.549197  1
  Hf  Hf5  1  0.391766  0.196012  0.549197  1
  Hf  Hf6  1  0.804082  0.195918  0.949633  1
  Hf  Hf7  1  0.803988  0.608234  0.950803  1
  Hf  Hf8  1  0.391766  0.196012  0.950803  1
  Hf  Hf9  1  0.196275  0.803725  0.048647  1
  Hf  Hf10  1  0.196382  0.392834  0.048387  1
  Hf  Hf11  1  0.607166  0.803618  0.048387  1
  Hf  Hf12  1  0.540651  0.459349  0.250000  1
  Hf  Hf13  1  0.539772  0.080572  0.250000  1
  Hf  Hf14  1  0.919428  0.460228  0.250000  1
  Sc  Sc15  1  0.459176  0.540824  0.750000  1
  Sc  Sc16  1  0.459025  0.918342  0.750000  1
  Sc  Sc17  1  0.081658  0.540975  0.750000  1
  Re  Re18  1  0.889187  0.779444  0.250000  1
  Re  Re19  1  0.220556  0.110813  0.250000  1
  Re  Re20  1  0.110476  0.889524  0.750000  1
  Re  Re21  1  0.111070  0.221345  0.750000  1
  Re  Re22  1  0.778655  0.888930  0.750000  1
  P  P23  1  0.332697  0.667303  0.250000  1
  P  P24  1  0.666414  0.333586  0.750000  1
  W  W25  1  0.890771  0.109229  0.250000  1
  W  W26  1  0.000575  0.999425  0.503237  1
  W  W27  1  0.000575  0.999425  0.996763  1
