# generated using pymatgen
data_Nd3Cd3Cu2Ir
_symmetry_space_group_name_H-M   'P 1'
_cell_length_a   7.81224600
_cell_length_b   7.81224507
_cell_length_c   3.90122700
_cell_angle_alpha   90.00000000
_cell_angle_beta   90.00000000
_cell_angle_gamma   119.99999547
_symmetry_Int_Tables_number   1
_chemical_formula_structural   Nd3Cd3Cu2Ir
_chemical_formula_sum   'Nd3 Cd3 Cu2 Ir1'
_cell_volume   206.19761694
_cell_formula_units_Z   1
loop_
 _symmetry_equiv_pos_site_id
 _symmetry_equiv_pos_as_xyz
  1  'x, y, z'
loop_
 _atom_site_type_symbol
 _atom_site_label
 _atom_site_symmetry_multiplicity
 _atom_site_fract_x
 _atom_site_fract_y
 _atom_site_fract_z
 _atom_site_occupancy
  Nd  Nd0  1  0.016983  0.594195  0.500000  1
  Nd  Nd1  1  0.405805  0.422787  0.500000  1
  Nd  Nd2  1  0.577213  0.983017  0.500000  1
  Cd  Cd3  1  0.755488  0.749737  0.000000  1
  Cd  Cd4  1  0.994249  0.244512  0.000000  1
  Cd  Cd5  1  0.250263  0.005751  0.000000  1
  Cu  Cu6  1  0.000000  0.000000  0.500000  1
  Cu  Cu7  1  0.666667  0.333333  0.000000  1
  Ir  Ir8  1  0.333333  0.666667  0.000000  1
