# generated using pymatgen
data_Y3TmCrOsC4
_symmetry_space_group_name_H-M   'P 1'
_cell_length_a   5.05392000
_cell_length_b   6.48720189
_cell_length_c   9.77542531
_cell_angle_alpha   90.29861957
_cell_angle_beta   90.00000000
_cell_angle_gamma   90.00000000
_symmetry_Int_Tables_number   1
_chemical_formula_structural   Y3TmCrOsC4
_chemical_formula_sum   'Y6 Tm2 Cr2 Os2 C8'
_cell_volume   320.49077979
_cell_formula_units_Z   2
loop_
 _symmetry_equiv_pos_site_id
 _symmetry_equiv_pos_as_xyz
  1  'x, y, z'
loop_
 _atom_site_type_symbol
 _atom_site_label
 _atom_site_symmetry_multiplicity
 _atom_site_fract_x
 _atom_site_fract_y
 _atom_site_fract_z
 _atom_site_occupancy
  Y  Y0  1  0.750000  0.822177  0.055098  1
  Y  Y1  1  0.250000  0.177823  0.944902  1
  Y  Y2  1  0.250000  0.532011  0.216527  1
  Y  Y3  1  0.750000  0.467989  0.783473  1
  Y  Y4  1  0.750000  0.970574  0.712891  1
  Y  Y5  1  0.250000  0.029426  0.287109  1
  Tm  Tm6  1  0.250000  0.678603  0.558726  1
  Tm  Tm7  1  0.750000  0.321397  0.441274  1
  Cr  Cr8  1  0.250000  0.724699  0.859592  1
  Cr  Cr9  1  0.750000  0.275301  0.140408  1
  Os  Os10  1  0.750000  0.775975  0.364417  1
  Os  Os11  1  0.250000  0.224025  0.635583  1
  C  C12  1  0.250000  0.463065  0.761421  1
  C  C13  1  0.750000  0.536935  0.238579  1
  C  C14  1  0.750000  0.048503  0.258930  1
  C  C15  1  0.250000  0.951497  0.741070  1
  C  C16  1  0.250000  0.811437  0.037118  1
  C  C17  1  0.750000  0.188563  0.962882  1
  C  C18  1  0.750000  0.674233  0.548377  1
  C  C19  1  0.250000  0.325767  0.451623  1
