# generated using pymatgen
data_Re6Sb13As
_symmetry_space_group_name_H-M   'P 1'
_cell_length_a   8.25043654
_cell_length_b   8.25043657
_cell_length_c   8.22964400
_cell_angle_alpha   109.42017957
_cell_angle_beta   109.42017965
_cell_angle_gamma   109.52221674
_symmetry_Int_Tables_number   1
_chemical_formula_structural   Re6Sb13As
_chemical_formula_sum   'Re6 Sb13 As1'
_cell_volume   431.50534443
_cell_formula_units_Z   1
loop_
 _symmetry_equiv_pos_site_id
 _symmetry_equiv_pos_as_xyz
  1  'x, y, z'
loop_
 _atom_site_type_symbol
 _atom_site_label
 _atom_site_symmetry_multiplicity
 _atom_site_fract_x
 _atom_site_fract_y
 _atom_site_fract_z
 _atom_site_occupancy
  Re  Re0  1  0.342804  0.000000  0.339138  1
  Re  Re1  1  0.000000  0.342804  0.339138  1
  Re  Re2  1  0.000000  0.654658  0.656581  1
  Re  Re3  1  0.345342  0.345342  0.001923  1
  Re  Re4  1  0.657196  0.657196  0.996335  1
  Re  Re5  1  0.654658  0.000000  0.656581  1
  Sb  Sb6  1  0.750049  0.501873  0.249968  1
  Sb  Sb7  1  0.501873  0.750049  0.249968  1
  Sb  Sb8  1  0.498127  0.248176  0.748095  1
  Sb  Sb9  1  0.751824  0.249951  0.499919  1
  Sb  Sb10  1  0.249951  0.751824  0.499919  1
  Sb  Sb11  1  0.248176  0.498127  0.748095  1
  Sb  Sb12  1  0.000000  0.000000  0.341587  1
  Sb  Sb13  1  0.672801  0.000000  0.001324  1
  Sb  Sb14  1  0.000000  0.672801  0.001324  1
  Sb  Sb15  1  0.327199  0.327199  0.328523  1
  Sb  Sb16  1  0.000000  0.323316  0.994563  1
  Sb  Sb17  1  0.676684  0.676684  0.671247  1
  Sb  Sb18  1  0.323316  0.000000  0.994563  1
  As  As19  1  0.000000  0.000000  0.681210  1
