# generated using pymatgen
data_Ba4LuNbO8
_symmetry_space_group_name_H-M   'P 1'
_cell_length_a   7.43487081
_cell_length_b   7.43486999
_cell_length_c   5.97526800
_cell_angle_alpha   90.00000000
_cell_angle_beta   90.00000000
_cell_angle_gamma   132.74046057
_symmetry_Int_Tables_number   1
_chemical_formula_structural   Ba4LuNbO8
_chemical_formula_sum   'Ba4 Lu1 Nb1 O8'
_cell_volume   242.58160458
_cell_formula_units_Z   1
loop_
 _symmetry_equiv_pos_site_id
 _symmetry_equiv_pos_as_xyz
  1  'x, y, z'
loop_
 _atom_site_type_symbol
 _atom_site_label
 _atom_site_symmetry_multiplicity
 _atom_site_fract_x
 _atom_site_fract_y
 _atom_site_fract_z
 _atom_site_occupancy
  Ba  Ba0  1  0.352927  0.647073  0.000000  1
  Ba  Ba1  1  0.853964  0.146036  0.500000  1
  Ba  Ba2  1  0.146036  0.853964  0.500000  1
  Ba  Ba3  1  0.647073  0.352927  0.000000  1
  Lu  Lu4  1  0.000000  0.000000  0.000000  1
  Nb  Nb5  1  0.500000  0.500000  0.500000  1
  O  O6  1  0.259248  0.259248  0.737452  1
  O  O7  1  0.740752  0.740752  0.262548  1
  O  O8  1  0.740752  0.740752  0.737452  1
  O  O9  1  0.259248  0.259248  0.262548  1
  O  O10  1  0.162666  0.837334  0.000000  1
  O  O11  1  0.651430  0.348570  0.500000  1
  O  O12  1  0.348570  0.651430  0.500000  1
  O  O13  1  0.837334  0.162666  0.000000  1
