# generated using pymatgen
data_Tb6YbSn23(PtRh2)2
_symmetry_space_group_name_H-M   'P 1'
_cell_length_a   9.91697352
_cell_length_b   9.89612051
_cell_length_c   10.15836003
_cell_angle_alpha   90.00000134
_cell_angle_beta   89.72287060
_cell_angle_gamma   119.93046500
_symmetry_Int_Tables_number   1
_chemical_formula_structural   Tb6YbSn23(PtRh2)2
_chemical_formula_sum   'Tb6 Yb1 Sn23 Pt2 Rh4'
_cell_volume   863.96365451
_cell_formula_units_Z   1
loop_
 _symmetry_equiv_pos_site_id
 _symmetry_equiv_pos_as_xyz
  1  'x, y, z'
loop_
 _atom_site_type_symbol
 _atom_site_label
 _atom_site_symmetry_multiplicity
 _atom_site_fract_x
 _atom_site_fract_y
 _atom_site_fract_z
 _atom_site_occupancy
  Tb  Tb0  1  0.478450  0.522349  0.308031  1
  Tb  Tb1  1  0.521550  0.477651  0.691969  1
  Tb  Tb2  1  0.478450  0.956101  0.308031  1
  Tb  Tb3  1  0.521550  0.043899  0.691969  1
  Tb  Tb4  1  0.042907  0.521453  0.307077  1
  Tb  Tb5  1  0.957093  0.478547  0.692923  1
  Yb  Yb6  1  0.000000  0.000000  0.000000  1
  Sn  Sn7  1  0.350445  0.998127  0.997680  1
  Sn  Sn8  1  0.649555  0.001873  0.002320  1
  Sn  Sn9  1  0.000000  0.349532  0.000000  1
  Sn  Sn10  1  0.000000  0.650468  0.000000  1
  Sn  Sn11  1  0.649555  0.647682  0.002320  1
  Sn  Sn12  1  0.350445  0.352318  0.997680  1
  Sn  Sn13  1  0.329217  0.664609  0.819707  1
  Sn  Sn14  1  0.670783  0.335391  0.180293  1
  Sn  Sn15  1  0.000000  0.000000  0.500000  1
  Sn  Sn16  1  0.778206  0.221327  0.456234  1
  Sn  Sn17  1  0.221794  0.778673  0.543766  1
  Sn  Sn18  1  0.778206  0.556879  0.456234  1
  Sn  Sn19  1  0.221794  0.443121  0.543766  1
  Sn  Sn20  1  0.443393  0.221697  0.458863  1
  Sn  Sn21  1  0.556607  0.778303  0.541137  1
  Sn  Sn22  1  0.332979  0.666490  0.116677  1
  Sn  Sn23  1  0.667021  0.333510  0.883323  1
  Sn  Sn24  1  0.115910  0.878012  0.280285  1
  Sn  Sn25  1  0.884090  0.121988  0.719715  1
  Sn  Sn26  1  0.115910  0.237899  0.280285  1
  Sn  Sn27  1  0.884090  0.762101  0.719715  1
  Sn  Sn28  1  0.762119  0.881061  0.280264  1
  Sn  Sn29  1  0.237881  0.118939  0.719736  1
  Pt  Pt30  1  0.341071  0.170535  0.200465  1
  Pt  Pt31  1  0.658929  0.829465  0.799535  1
  Rh  Rh32  1  0.829801  0.168659  0.199731  1
  Rh  Rh33  1  0.170199  0.831341  0.800269  1
  Rh  Rh34  1  0.829801  0.661142  0.199731  1
  Rh  Rh35  1  0.170199  0.338858  0.800269  1
