# generated using pymatgen
data_Sm4AlI6
_symmetry_space_group_name_H-M   'P 1'
_cell_length_a   4.24740600
_cell_length_b   14.56813800
_cell_length_c   15.29388700
_cell_angle_alpha   90.00000000
_cell_angle_beta   90.00000000
_cell_angle_gamma   90.00000000
_symmetry_Int_Tables_number   1
_chemical_formula_structural   Sm4AlI6
_chemical_formula_sum   'Sm8 Al2 I12'
_cell_volume   946.33673742
_cell_formula_units_Z   2
loop_
 _symmetry_equiv_pos_site_id
 _symmetry_equiv_pos_as_xyz
  1  'x, y, z'
loop_
 _atom_site_type_symbol
 _atom_site_label
 _atom_site_symmetry_multiplicity
 _atom_site_fract_x
 _atom_site_fract_y
 _atom_site_fract_z
 _atom_site_occupancy
  Sm  Sm0  1  0.500000  0.116302  0.343564  1
  Sm  Sm1  1  0.500000  0.883698  0.656436  1
  Sm  Sm2  1  0.500000  0.616302  0.156436  1
  Sm  Sm3  1  0.500000  0.383698  0.843564  1
  Sm  Sm4  1  0.000000  0.118569  0.579485  1
  Sm  Sm5  1  0.000000  0.881431  0.420515  1
  Sm  Sm6  1  0.000000  0.618569  0.920515  1
  Sm  Sm7  1  0.000000  0.381431  0.079485  1
  Al  Al8  1  0.500000  0.000000  0.500000  1
  Al  Al9  1  0.500000  0.500000  0.000000  1
  I  I10  1  0.500000  0.244456  0.164213  1
  I  I11  1  0.500000  0.755544  0.835787  1
  I  I12  1  0.500000  0.744456  0.335787  1
  I  I13  1  0.500000  0.255544  0.664213  1
  I  I14  1  0.000000  0.258115  0.414730  1
  I  I15  1  0.000000  0.741885  0.585270  1
  I  I16  1  0.000000  0.758115  0.085270  1
  I  I17  1  0.000000  0.241885  0.914730  1
  I  I18  1  0.000000  0.998091  0.240546  1
  I  I19  1  0.000000  0.001909  0.759454  1
  I  I20  1  0.000000  0.498091  0.259454  1
  I  I21  1  0.000000  0.501909  0.740546  1
