# generated using pymatgen
data_Hf3Co6SiB2
_symmetry_space_group_name_H-M   'P 1'
_cell_length_a   4.95805600
_cell_length_b   4.95805648
_cell_length_c   13.58135400
_cell_angle_alpha   90.00000000
_cell_angle_beta   90.00000000
_cell_angle_gamma   119.99999682
_symmetry_Int_Tables_number   1
_chemical_formula_structural   Hf3Co6SiB2
_chemical_formula_sum   'Hf6 Co12 Si2 B4'
_cell_volume   289.13230076
_cell_formula_units_Z   2
loop_
 _symmetry_equiv_pos_site_id
 _symmetry_equiv_pos_as_xyz
  1  'x, y, z'
loop_
 _atom_site_type_symbol
 _atom_site_label
 _atom_site_symmetry_multiplicity
 _atom_site_fract_x
 _atom_site_fract_y
 _atom_site_fract_z
 _atom_site_occupancy
  Hf  Hf0  1  0.333333  0.666667  0.250000  1
  Hf  Hf1  1  0.666667  0.333333  0.750000  1
  Hf  Hf2  1  0.333333  0.666667  0.036049  1
  Hf  Hf3  1  0.666667  0.333333  0.536049  1
  Hf  Hf4  1  0.666667  0.333333  0.963951  1
  Hf  Hf5  1  0.333333  0.666667  0.463951  1
  Co  Co6  1  0.833244  0.666488  0.142687  1
  Co  Co7  1  0.166756  0.833244  0.642687  1
  Co  Co8  1  0.666488  0.833244  0.642687  1
  Co  Co9  1  0.333512  0.166756  0.142687  1
  Co  Co10  1  0.833244  0.166756  0.142687  1
  Co  Co11  1  0.166756  0.333512  0.857313  1
  Co  Co12  1  0.166756  0.833244  0.857313  1
  Co  Co13  1  0.166756  0.333512  0.642687  1
  Co  Co14  1  0.666488  0.833244  0.857313  1
  Co  Co15  1  0.333512  0.166756  0.357313  1
  Co  Co16  1  0.833244  0.666488  0.357313  1
  Co  Co17  1  0.833244  0.166756  0.357313  1
  Si  Si18  1  0.000000  0.000000  0.000000  1
  Si  Si19  1  0.000000  0.000000  0.500000  1
  B  B20  1  0.000000  0.000000  0.250000  1
  B  B21  1  0.000000  0.000000  0.750000  1
  B  B22  1  0.333333  0.666667  0.750000  1
  B  B23  1  0.666667  0.333333  0.250000  1
