# generated using pymatgen
data_YbU3(BRu)16
_symmetry_space_group_name_H-M   'P 1'
_cell_length_a   9.20155064
_cell_length_b   7.47089034
_cell_length_c   7.47089050
_cell_angle_alpha   90.13903046
_cell_angle_beta   113.88944080
_cell_angle_gamma   113.88944496
_symmetry_Int_Tables_number   1
_chemical_formula_structural   YbU3(BRu)16
_chemical_formula_sum   'Yb1 U3 B16 Ru16'
_cell_volume   420.75477392
_cell_formula_units_Z   1
loop_
 _symmetry_equiv_pos_site_id
 _symmetry_equiv_pos_as_xyz
  1  'x, y, z'
loop_
 _atom_site_type_symbol
 _atom_site_label
 _atom_site_symmetry_multiplicity
 _atom_site_fract_x
 _atom_site_fract_y
 _atom_site_fract_z
 _atom_site_occupancy
  Yb  Yb0  1  0.250000  0.125000  0.875001  1
  U  U1  1  0.750001  0.875000  0.125000  1
  U  U2  1  0.250000  0.625000  0.375001  1
  U  U3  1  0.750001  0.375000  0.625001  1
  B  B4  1  0.915385  0.288143  0.066361  1
  B  B5  1  0.414345  0.570231  0.125775  1
  B  B6  1  0.085656  0.211430  0.155886  1
  B  B7  1  0.581655  0.150583  0.209733  1
  B  B8  1  0.412975  0.063045  0.288730  1
  B  B9  1  0.915385  0.627242  0.349024  1
  B  B10  1  0.584615  0.650975  0.372757  1
  B  B11  1  0.085656  0.874226  0.429768  1
  B  B12  1  0.918345  0.128078  0.568930  1
  B  B13  1  0.412975  0.349930  0.624246  1
  B  B14  1  0.087026  0.375755  0.650071  1
  B  B15  1  0.584615  0.933640  0.711857  1
  B  B16  1  0.414345  0.844115  0.788570  1
  B  B17  1  0.918345  0.790267  0.849416  1
  B  B18  1  0.581655  0.431071  0.871921  1
  B  B19  1  0.087026  0.711270  0.936954  1
  Ru  Ru20  1  0.871715  0.549493  0.032387  1
  Ru  Ru21  1  0.373616  0.834345  0.052257  1
  Ru  Ru22  1  0.126384  0.947744  0.165655  1
  Ru  Ru23  1  0.629359  0.468433  0.177901  1
  Ru  Ru24  1  0.376161  0.338826  0.324420  1
  Ru  Ru25  1  0.871715  0.322222  0.339328  1
  Ru  Ru26  1  0.628285  0.967612  0.450506  1
  Ru  Ru27  1  0.126384  0.178640  0.460730  1
  Ru  Ru28  1  0.870641  0.822099  0.531566  1
  Ru  Ru29  1  0.376161  0.037335  0.551743  1
  Ru  Ru30  1  0.123839  0.675580  0.661174  1
  Ru  Ru31  1  0.628285  0.660673  0.677778  1
  Ru  Ru32  1  0.373616  0.539271  0.821360  1
  Ru  Ru33  1  0.870641  0.048542  0.839075  1
  Ru  Ru34  1  0.629359  0.160926  0.951457  1
  Ru  Ru35  1  0.123839  0.448258  0.962666  1
