# generated using pymatgen
data_ThCdNiPt3
_symmetry_space_group_name_H-M   'P 1'
_cell_length_a   5.27059485
_cell_length_b   5.27059463
_cell_length_c   5.27059521
_cell_angle_alpha   62.17173981
_cell_angle_beta   62.17172689
_cell_angle_gamma   62.17173736
_symmetry_Int_Tables_number   1
_chemical_formula_structural   ThCdNiPt3
_chemical_formula_sum   'Th1 Cd1 Ni1 Pt3'
_cell_volume   108.55224798
_cell_formula_units_Z   1
loop_
 _symmetry_equiv_pos_site_id
 _symmetry_equiv_pos_as_xyz
  1  'x, y, z'
loop_
 _atom_site_type_symbol
 _atom_site_label
 _atom_site_symmetry_multiplicity
 _atom_site_fract_x
 _atom_site_fract_y
 _atom_site_fract_z
 _atom_site_occupancy
  Th  Th0  1  0.250165  0.250165  0.250165  1
  Cd  Cd1  1  0.996563  0.996563  0.996563  1
  Ni  Ni2  1  0.626790  0.626790  0.626790  1
  Pt  Pt3  1  0.626806  0.626806  0.122870  1
  Pt  Pt4  1  0.626806  0.122870  0.626806  1
  Pt  Pt5  1  0.122870  0.626806  0.626806  1
