# generated using pymatgen
data_Er2Mn3P7(Ir2W)3
_symmetry_space_group_name_H-M   'P 1'
_cell_length_a   9.35865600
_cell_length_b   9.35865577
_cell_length_c   3.89746400
_cell_angle_alpha   90.00000000
_cell_angle_beta   90.00000000
_cell_angle_gamma   120.00000788
_symmetry_Int_Tables_number   1
_chemical_formula_structural   Er2Mn3P7(Ir2W)3
_chemical_formula_sum   'Er2 Mn3 P7 Ir6 W3'
_cell_volume   295.62398507
_cell_formula_units_Z   1
loop_
 _symmetry_equiv_pos_site_id
 _symmetry_equiv_pos_as_xyz
  1  'x, y, z'
loop_
 _atom_site_type_symbol
 _atom_site_label
 _atom_site_symmetry_multiplicity
 _atom_site_fract_x
 _atom_site_fract_y
 _atom_site_fract_z
 _atom_site_occupancy
  Er  Er0  1  0.666667  0.333333  0.000000  1
  Er  Er1  1  0.333333  0.666667  0.500000  1
  Mn  Mn2  1  0.269344  0.159098  0.000000  1
  Mn  Mn3  1  0.840902  0.110246  0.000000  1
  Mn  Mn4  1  0.889754  0.730656  0.000000  1
  P  P5  1  0.297209  0.407387  0.000000  1
  P  P6  1  0.592613  0.889821  0.000000  1
  P  P7  1  0.110179  0.702791  0.000000  1
  P  P8  1  0.398075  0.121539  0.500000  1
  P  P9  1  0.878461  0.276535  0.500000  1
  P  P10  1  0.723465  0.601925  0.500000  1
  P  P11  1  0.000000  0.000000  0.000000  1
  Ir  Ir12  1  0.068830  0.433417  0.000000  1
  Ir  Ir13  1  0.566583  0.635412  0.000000  1
  Ir  Ir14  1  0.364588  0.931170  0.000000  1
  Ir  Ir15  1  0.446909  0.387774  0.500000  1
  Ir  Ir16  1  0.612226  0.059136  0.500000  1
  Ir  Ir17  1  0.940864  0.553091  0.500000  1
  W  W18  1  0.095700  0.209876  0.500000  1
  W  W19  1  0.790124  0.885823  0.500000  1
  W  W20  1  0.114177  0.904300  0.500000  1
