# generated using pymatgen
data_Dy5Y3Ti11Si16Hg
_symmetry_space_group_name_H-M   'P 1'
_cell_length_a   7.08666128
_cell_length_b   7.08665409
_cell_length_c   12.93398201
_cell_angle_alpha   89.88362448
_cell_angle_beta   90.11652191
_cell_angle_gamma   89.58375977
_symmetry_Int_Tables_number   1
_chemical_formula_structural   Dy5Y3Ti11Si16Hg
_chemical_formula_sum   'Dy5 Y3 Ti11 Si16 Hg1'
_cell_volume   649.53400888
_cell_formula_units_Z   1
loop_
 _symmetry_equiv_pos_site_id
 _symmetry_equiv_pos_as_xyz
  1  'x, y, z'
loop_
 _atom_site_type_symbol
 _atom_site_label
 _atom_site_symmetry_multiplicity
 _atom_site_fract_x
 _atom_site_fract_y
 _atom_site_fract_z
 _atom_site_occupancy
  Dy  Dy0  1  0.160515  0.502086  0.783966  1
  Dy  Dy1  1  0.842392  0.498731  0.285086  1
  Dy  Dy2  1  0.502066  0.160492  0.216055  1
  Dy  Dy3  1  0.498711  0.842397  0.714873  1
  Dy  Dy4  1  0.342912  0.999571  0.468530  1
  Y  Y5  1  0.997721  0.658944  0.033120  1
  Y  Y6  1  0.999677  0.342860  0.531426  1
  Y  Y7  1  0.658960  0.997737  0.966881  1
  Ti  Ti8  1  0.349837  0.504647  0.376241  1
  Ti  Ti9  1  0.852562  0.991153  0.377119  1
  Ti  Ti10  1  0.008728  0.150788  0.125445  1
  Ti  Ti11  1  0.991206  0.852604  0.622864  1
  Ti  Ti12  1  0.504626  0.349800  0.623736  1
  Ti  Ti13  1  0.150793  0.008735  0.874554  1
  Ti  Ti14  1  0.826430  0.173466  0.750541  1
  Ti  Ti15  1  0.173486  0.826446  0.249486  1
  Ti  Ti16  1  0.327066  0.327066  0.000002  1
  Ti  Ti17  1  0.492447  0.648900  0.124624  1
  Ti  Ti18  1  0.648911  0.492448  0.875370  1
  Si  Si19  1  0.067164  0.714205  0.432434  1
  Si  Si20  1  0.952318  0.290309  0.935858  1
  Si  Si21  1  0.714072  0.067072  0.567571  1
  Si  Si22  1  0.209096  0.453539  0.185363  1
  Si  Si23  1  0.794329  0.541264  0.694521  1
  Si  Si24  1  0.453520  0.209100  0.814635  1
  Si  Si25  1  0.541172  0.794416  0.305535  1
  Si  Si26  1  0.290299  0.952322  0.064159  1
  Si  Si27  1  0.798275  0.868591  0.184483  1
  Si  Si28  1  0.275597  0.625814  0.572422  1
  Si  Si29  1  0.705607  0.369034  0.067031  1
  Si  Si30  1  0.625650  0.275529  0.427565  1
  Si  Si31  1  0.369039  0.705604  0.932974  1
  Si  Si32  1  0.132444  0.201641  0.316726  1
  Si  Si33  1  0.201739  0.132297  0.683303  1
  Si  Si34  1  0.868588  0.798258  0.815514  1
  Hg  Hg35  1  0.672045  0.672133  0.499987  1
