# generated using pymatgen
data_Ho2Zr2IrPt
_symmetry_space_group_name_H-M   'P 1'
_cell_length_a   4.69483100
_cell_length_b   7.09756600
_cell_length_c   8.17923900
_cell_angle_alpha   90.00000000
_cell_angle_beta   90.00000000
_cell_angle_gamma   90.00000000
_symmetry_Int_Tables_number   1
_chemical_formula_structural   Ho2Zr2IrPt
_chemical_formula_sum   'Ho4 Zr4 Ir2 Pt2'
_cell_volume   272.54756222
_cell_formula_units_Z   2
loop_
 _symmetry_equiv_pos_site_id
 _symmetry_equiv_pos_as_xyz
  1  'x, y, z'
loop_
 _atom_site_type_symbol
 _atom_site_label
 _atom_site_symmetry_multiplicity
 _atom_site_fract_x
 _atom_site_fract_y
 _atom_site_fract_z
 _atom_site_occupancy
  Ho  Ho0  1  0.250000  0.017042  0.678468  1
  Ho  Ho1  1  0.250000  0.517042  0.821532  1
  Ho  Ho2  1  0.750000  0.985220  0.324720  1
  Ho  Ho3  1  0.750000  0.485220  0.175280  1
  Zr  Zr4  1  0.250000  0.142357  0.083168  1
  Zr  Zr5  1  0.250000  0.642357  0.416832  1
  Zr  Zr6  1  0.750000  0.852843  0.923230  1
  Zr  Zr7  1  0.750000  0.352843  0.576770  1
  Ir  Ir8  1  0.250000  0.270258  0.412366  1
  Ir  Ir9  1  0.250000  0.770258  0.087634  1
  Pt  Pt10  1  0.750000  0.732279  0.592171  1
  Pt  Pt11  1  0.750000  0.232279  0.907829  1
