# generated using pymatgen
data_La2Er6AlPd24
_symmetry_space_group_name_H-M   'P 1'
_cell_length_a   8.37277212
_cell_length_b   8.37277230
_cell_length_c   8.37277400
_cell_angle_alpha   90.10522652
_cell_angle_beta   89.89477348
_cell_angle_gamma   89.89476162
_symmetry_Int_Tables_number   1
_chemical_formula_structural   La2Er6AlPd24
_chemical_formula_sum   'La2 Er6 Al1 Pd24'
_cell_volume   586.95623502
_cell_formula_units_Z   1
loop_
 _symmetry_equiv_pos_site_id
 _symmetry_equiv_pos_as_xyz
  1  'x, y, z'
loop_
 _atom_site_type_symbol
 _atom_site_label
 _atom_site_symmetry_multiplicity
 _atom_site_fract_x
 _atom_site_fract_y
 _atom_site_fract_z
 _atom_site_occupancy
  La  La0  1  0.252901  0.747099  0.747099  1
  La  La1  1  0.747099  0.252901  0.252901  1
  Er  Er2  1  0.252121  0.251739  0.251739  1
  Er  Er3  1  0.747879  0.748261  0.748261  1
  Er  Er4  1  0.748261  0.747879  0.251739  1
  Er  Er5  1  0.748261  0.251739  0.747879  1
  Er  Er6  1  0.251739  0.252121  0.748261  1
  Er  Er7  1  0.251739  0.748261  0.252121  1
  Al  Al8  1  0.000000  0.000000  0.000000  1
  Pd  Pd9  1  0.259595  0.497893  0.003553  1
  Pd  Pd10  1  0.740405  0.502107  0.996447  1
  Pd  Pd11  1  0.003553  0.259595  0.502107  1
  Pd  Pd12  1  0.497893  0.259595  0.996447  1
  Pd  Pd13  1  0.996447  0.740405  0.497893  1
  Pd  Pd14  1  0.502107  0.740405  0.003553  1
  Pd  Pd15  1  0.497893  0.996447  0.259595  1
  Pd  Pd16  1  0.259595  0.003553  0.497893  1
  Pd  Pd17  1  0.502107  0.003553  0.740405  1
  Pd  Pd18  1  0.740405  0.996447  0.502107  1
  Pd  Pd19  1  0.003553  0.502107  0.259595  1
  Pd  Pd20  1  0.996447  0.497893  0.740405  1
  Pd  Pd21  1  0.252882  0.496673  0.496673  1
  Pd  Pd22  1  0.747118  0.503327  0.503327  1
  Pd  Pd23  1  0.496673  0.252882  0.503327  1
  Pd  Pd24  1  0.503327  0.747118  0.496673  1
  Pd  Pd25  1  0.496673  0.503327  0.252882  1
  Pd  Pd26  1  0.503327  0.496673  0.747118  1
  Pd  Pd27  1  0.288840  0.003122  0.003122  1
  Pd  Pd28  1  0.711160  0.996878  0.996878  1
  Pd  Pd29  1  0.003122  0.288840  0.996878  1
  Pd  Pd30  1  0.996878  0.711160  0.003122  1
  Pd  Pd31  1  0.003122  0.996878  0.288840  1
  Pd  Pd32  1  0.996878  0.003122  0.711160  1
