# generated using pymatgen
data_Mg3Ti(AlPt5)2
_symmetry_space_group_name_H-M   'P 1'
_cell_length_a   4.05414600
_cell_length_b   5.55403278
_cell_length_c   10.90245550
_cell_angle_alpha   89.84921299
_cell_angle_beta   90.00000000
_cell_angle_gamma   90.00000000
_symmetry_Int_Tables_number   1
_chemical_formula_structural   Mg3Ti(AlPt5)2
_chemical_formula_sum   'Mg3 Ti1 Al2 Pt10'
_cell_volume   245.48821149
_cell_formula_units_Z   1
loop_
 _symmetry_equiv_pos_site_id
 _symmetry_equiv_pos_as_xyz
  1  'x, y, z'
loop_
 _atom_site_type_symbol
 _atom_site_label
 _atom_site_symmetry_multiplicity
 _atom_site_fract_x
 _atom_site_fract_y
 _atom_site_fract_z
 _atom_site_occupancy
  Mg  Mg0  1  0.500000  0.812274  0.358315  1
  Mg  Mg1  1  0.500000  0.685038  0.863675  1
  Mg  Mg2  1  0.500000  0.314317  0.139804  1
  Ti  Ti3  1  0.500000  0.184228  0.641379  1
  Al  Al4  1  0.000000  0.502959  0.498254  1
  Al  Al5  1  0.000000  0.999838  0.001149  1
  Pt  Pt6  1  0.500000  0.301546  0.397202  1
  Pt  Pt7  1  0.500000  0.698058  0.607165  1
  Pt  Pt8  1  0.500000  0.805164  0.107353  1
  Pt  Pt9  1  0.500000  0.192438  0.888329  1
  Pt  Pt10  1  0.000000  0.436221  0.738302  1
  Pt  Pt11  1  0.000000  0.558614  0.259625  1
  Pt  Pt12  1  0.000000  0.944324  0.754623  1
  Pt  Pt13  1  0.000000  0.060121  0.241891  1
  Pt  Pt14  1  0.000000  0.498871  0.000110  1
  Pt  Pt15  1  0.000000  0.005989  0.502825  1
