# generated using pymatgen
data_Ho16TlCd(InRh2)2
_symmetry_space_group_name_H-M   'P 1'
_cell_length_a   9.61596391
_cell_length_b   9.61402605
_cell_length_c   9.61206300
_cell_angle_alpha   60.03998741
_cell_angle_beta   59.98657845
_cell_angle_gamma   59.99333818
_symmetry_Int_Tables_number   1
_chemical_formula_structural   Ho16TlCd(InRh2)2
_chemical_formula_sum   'Ho16 Tl1 Cd1 In2 Rh4'
_cell_volume   628.44145710
_cell_formula_units_Z   1
loop_
 _symmetry_equiv_pos_site_id
 _symmetry_equiv_pos_as_xyz
  1  'x, y, z'
loop_
 _atom_site_type_symbol
 _atom_site_label
 _atom_site_symmetry_multiplicity
 _atom_site_fract_x
 _atom_site_fract_y
 _atom_site_fract_z
 _atom_site_occupancy
  Ho  Ho0  1  0.938151  0.936480  0.563033  1
  Ho  Ho1  1  0.565097  0.560959  0.936777  1
  Ho  Ho2  1  0.688655  0.690228  0.310683  1
  Ho  Ho3  1  0.150896  0.549865  0.148342  1
  Ho  Ho4  1  0.687941  0.312359  0.689082  1
  Ho  Ho5  1  0.152918  0.150256  0.149969  1
  Ho  Ho6  1  0.546855  0.150256  0.149969  1
  Ho  Ho7  1  0.688174  0.312366  0.311284  1
  Ho  Ho8  1  0.150757  0.148688  0.549797  1
  Ho  Ho9  1  0.310434  0.690228  0.310683  1
  Ho  Ho10  1  0.310126  0.690130  0.689618  1
  Ho  Ho11  1  0.938399  0.559182  0.564020  1
  Ho  Ho12  1  0.937166  0.560959  0.936777  1
  Ho  Ho13  1  0.562336  0.936480  0.563033  1
  Ho  Ho14  1  0.563720  0.935290  0.937270  1
  Ho  Ho15  1  0.310616  0.312359  0.689082  1
  Tl  Tl16  1  0.914637  0.917627  0.253101  1
  Cd  Cd17  1  0.917662  0.247900  0.916777  1
  In  In18  1  0.248478  0.919297  0.915568  1
  In  In19  1  0.916658  0.919297  0.915568  1
  Rh  Rh20  1  0.357572  0.357668  0.927189  1
  Rh  Rh21  1  0.357578  0.927225  0.357620  1
  Rh  Rh22  1  0.927826  0.357449  0.357377  1
  Rh  Rh23  1  0.357348  0.357449  0.357377  1
