# generated using pymatgen
data_Lu16In6NiIr
_symmetry_space_group_name_H-M   'P 1'
_cell_length_a   10.21411900
_cell_length_b   10.21411742
_cell_length_c   6.82501800
_cell_angle_alpha   90.00000000
_cell_angle_beta   90.00000000
_cell_angle_gamma   120.00000187
_symmetry_Int_Tables_number   1
_chemical_formula_structural   Lu16In6NiIr
_chemical_formula_sum   'Lu16 In6 Ni1 Ir1'
_cell_volume   616.64637704
_cell_formula_units_Z   1
loop_
 _symmetry_equiv_pos_site_id
 _symmetry_equiv_pos_as_xyz
  1  'x, y, z'
loop_
 _atom_site_type_symbol
 _atom_site_label
 _atom_site_symmetry_multiplicity
 _atom_site_fract_x
 _atom_site_fract_y
 _atom_site_fract_z
 _atom_site_occupancy
  Lu  Lu0  1  0.531977  0.063954  0.524310  1
  Lu  Lu1  1  0.936046  0.468023  0.524310  1
  Lu  Lu2  1  0.531977  0.468023  0.524310  1
  Lu  Lu3  1  0.467896  0.935791  0.024759  1
  Lu  Lu4  1  0.064209  0.532104  0.024759  1
  Lu  Lu5  1  0.467896  0.532104  0.024759  1
  Lu  Lu6  1  0.177888  0.355775  0.730248  1
  Lu  Lu7  1  0.644225  0.822112  0.730248  1
  Lu  Lu8  1  0.177888  0.822112  0.730248  1
  Lu  Lu9  1  0.822736  0.645471  0.229937  1
  Lu  Lu10  1  0.354529  0.177264  0.229937  1
  Lu  Lu11  1  0.822736  0.177264  0.229937  1
  Lu  Lu12  1  0.666667  0.333333  0.902694  1
  Lu  Lu13  1  0.333333  0.666667  0.408766  1
  Lu  Lu14  1  0.000000  0.000000  0.507445  1
  Lu  Lu15  1  0.000000  0.000000  0.004595  1
  In  In16  1  0.838060  0.676121  0.767506  1
  In  In17  1  0.323879  0.161940  0.767506  1
  In  In18  1  0.838060  0.161940  0.767506  1
  In  In19  1  0.162951  0.325901  0.267299  1
  In  In20  1  0.674099  0.837049  0.267299  1
  In  In21  1  0.162951  0.837049  0.267299  1
  Ni  Ni22  1  0.333333  0.666667  0.798491  1
  Ir  Ir23  1  0.666667  0.333333  0.301513  1
