# generated using pymatgen
data_Sc6Al13V3Ru7
_symmetry_space_group_name_H-M   'P 1'
_cell_length_a   8.77451022
_cell_length_b   8.77451113
_cell_length_c   8.77451200
_cell_angle_alpha   59.69727165
_cell_angle_beta   59.69726817
_cell_angle_gamma   59.69727093
_symmetry_Int_Tables_number   1
_chemical_formula_structural   Sc6Al13V3Ru7
_chemical_formula_sum   'Sc6 Al13 V3 Ru7'
_cell_volume   474.41346538
_cell_formula_units_Z   1
loop_
 _symmetry_equiv_pos_site_id
 _symmetry_equiv_pos_as_xyz
  1  'x, y, z'
loop_
 _atom_site_type_symbol
 _atom_site_label
 _atom_site_symmetry_multiplicity
 _atom_site_fract_x
 _atom_site_fract_y
 _atom_site_fract_z
 _atom_site_occupancy
  Sc  Sc0  1  0.712782  0.712782  0.283993  1
  Sc  Sc1  1  0.286533  0.714983  0.286533  1
  Sc  Sc2  1  0.714983  0.286533  0.286533  1
  Sc  Sc3  1  0.286533  0.286533  0.714983  1
  Sc  Sc4  1  0.712782  0.283993  0.712782  1
  Sc  Sc5  1  0.283993  0.712782  0.712782  1
  Al  Al6  1  0.881464  0.881464  0.881464  1
  Al  Al7  1  0.120260  0.120260  0.641996  1
  Al  Al8  1  0.120260  0.641996  0.120260  1
  Al  Al9  1  0.641996  0.120260  0.120260  1
  Al  Al10  1  0.120820  0.120820  0.120820  1
  Al  Al11  1  0.666089  0.666089  0.001317  1
  Al  Al12  1  0.666089  0.001317  0.666089  1
  Al  Al13  1  0.001317  0.666089  0.666089  1
  Al  Al14  1  0.665331  0.665331  0.665331  1
  Al  Al15  1  0.335440  0.335440  0.996364  1
  Al  Al16  1  0.335440  0.996364  0.335440  1
  Al  Al17  1  0.996364  0.335440  0.335440  1
  Al  Al18  1  0.335754  0.335754  0.335754  1
  V  V19  1  0.877501  0.877501  0.361116  1
  V  V20  1  0.877501  0.361116  0.877501  1
  V  V21  1  0.361116  0.877501  0.877501  1
  Ru  Ru22  1  0.004265  0.004265  0.004265  1
  Ru  Ru23  1  0.998164  0.998164  0.497282  1
  Ru  Ru24  1  0.502867  0.996043  0.502867  1
  Ru  Ru25  1  0.996043  0.502867  0.502867  1
  Ru  Ru26  1  0.502867  0.502867  0.996043  1
  Ru  Ru27  1  0.998164  0.497282  0.998164  1
  Ru  Ru28  1  0.497282  0.998164  0.998164  1
