# generated using pymatgen
data_DyLu3ReB12Os
_symmetry_space_group_name_H-M   'P 1'
_cell_length_a   3.62142500
_cell_length_b   9.07206789
_cell_length_c   11.44895304
_cell_angle_alpha   90.13927429
_cell_angle_beta   90.00000000
_cell_angle_gamma   90.00000000
_symmetry_Int_Tables_number   1
_chemical_formula_structural   DyLu3ReB12Os
_chemical_formula_sum   'Dy2 Lu6 Re2 B24 Os2'
_cell_volume   376.14065645
_cell_formula_units_Z   2
loop_
 _symmetry_equiv_pos_site_id
 _symmetry_equiv_pos_as_xyz
  1  'x, y, z'
loop_
 _atom_site_type_symbol
 _atom_site_label
 _atom_site_symmetry_multiplicity
 _atom_site_fract_x
 _atom_site_fract_y
 _atom_site_fract_z
 _atom_site_occupancy
  Dy  Dy0  1  0.000000  0.320254  0.412342  1
  Dy  Dy1  1  0.000000  0.679746  0.587658  1
  Lu  Lu2  1  0.000000  0.824130  0.084311  1
  Lu  Lu3  1  0.000000  0.175870  0.915689  1
  Lu  Lu4  1  0.000000  0.943632  0.370412  1
  Lu  Lu5  1  0.000000  0.056368  0.629588  1
  Lu  Lu6  1  0.000000  0.442701  0.127837  1
  Lu  Lu7  1  0.000000  0.557299  0.872163  1
  Re  Re8  1  0.000000  0.138040  0.179165  1
  Re  Re9  1  0.000000  0.861960  0.820835  1
  B  B10  1  0.500000  0.554100  0.432624  1
  B  B11  1  0.500000  0.445900  0.567376  1
  B  B12  1  0.500000  0.052714  0.066180  1
  B  B13  1  0.500000  0.947286  0.933820  1
  B  B14  1  0.500000  0.750462  0.418255  1
  B  B15  1  0.500000  0.249538  0.581745  1
  B  B16  1  0.500000  0.249660  0.079866  1
  B  B17  1  0.500000  0.750340  0.920134  1
  B  B18  1  0.500000  0.792047  0.264627  1
  B  B19  1  0.500000  0.207953  0.735373  1
  B  B20  1  0.500000  0.292338  0.234010  1
  B  B21  1  0.500000  0.707662  0.765990  1
  B  B22  1  0.500000  0.630737  0.184366  1
  B  B23  1  0.500000  0.369263  0.815634  1
  B  B24  1  0.500000  0.130074  0.315020  1
  B  B25  1  0.500000  0.869926  0.684980  1
  B  B26  1  0.500000  0.980947  0.212139  1
  B  B27  1  0.500000  0.019053  0.787861  1
  B  B28  1  0.500000  0.482540  0.286734  1
  B  B29  1  0.500000  0.517460  0.713266  1
  B  B30  1  0.500000  0.602320  0.028541  1
  B  B31  1  0.500000  0.397680  0.971459  1
  B  B32  1  0.500000  0.100523  0.472393  1
  B  B33  1  0.500000  0.899477  0.527607  1
  Os  Os34  1  0.000000  0.638648  0.320098  1
  Os  Os35  1  0.000000  0.361352  0.679902  1
