# generated using pymatgen
data_Er4Al18RePd4Rh
_symmetry_space_group_name_H-M   'P 1'
_cell_length_a   7.59651094
_cell_length_b   7.59651081
_cell_length_c   9.46981803
_cell_angle_alpha   89.80274684
_cell_angle_beta   89.80274254
_cell_angle_gamma   119.21435142
_symmetry_Int_Tables_number   1
_chemical_formula_structural   Er4Al18RePd4Rh
_chemical_formula_sum   'Er4 Al18 Re1 Pd4 Rh1'
_cell_volume   476.95188514
_cell_formula_units_Z   1
loop_
 _symmetry_equiv_pos_site_id
 _symmetry_equiv_pos_as_xyz
  1  'x, y, z'
loop_
 _atom_site_type_symbol
 _atom_site_label
 _atom_site_symmetry_multiplicity
 _atom_site_fract_x
 _atom_site_fract_y
 _atom_site_fract_z
 _atom_site_occupancy
  Er  Er0  1  0.994795  0.674001  0.747968  1
  Er  Er1  1  0.005205  0.325999  0.252032  1
  Er  Er2  1  0.674001  0.994795  0.747968  1
  Er  Er3  1  0.325999  0.005205  0.252032  1
  Al  Al4  1  0.128737  0.128737  0.750441  1
  Al  Al5  1  0.871263  0.871263  0.249559  1
  Al  Al6  1  0.000838  0.332252  0.576788  1
  Al  Al7  1  0.999162  0.667748  0.423212  1
  Al  Al8  1  0.000023  0.666691  0.077473  1
  Al  Al9  1  0.333309  0.999977  0.922527  1
  Al  Al10  1  0.999977  0.333309  0.922527  1
  Al  Al11  1  0.666691  0.000023  0.077473  1
  Al  Al12  1  0.667748  0.999162  0.423212  1
  Al  Al13  1  0.332252  0.000838  0.576788  1
  Al  Al14  1  0.329480  0.329480  0.054876  1
  Al  Al15  1  0.670520  0.670520  0.945124  1
  Al  Al16  1  0.669638  0.669638  0.554189  1
  Al  Al17  1  0.330362  0.330362  0.445811  1
  Al  Al18  1  0.342443  0.549850  0.750198  1
  Al  Al19  1  0.657557  0.450150  0.249802  1
  Al  Al20  1  0.549850  0.342443  0.750198  1
  Al  Al21  1  0.450150  0.657557  0.249802  1
  Re  Re22  1  0.000000  0.000000  0.500000  1
  Pd  Pd23  1  0.672472  0.327528  0.500000  1
  Pd  Pd24  1  0.327528  0.672472  0.500000  1
  Pd  Pd25  1  0.327758  0.672242  0.000000  1
  Pd  Pd26  1  0.672242  0.327758  0.000000  1
  Rh  Rh27  1  0.000000  0.000000  0.000000  1
