# generated using pymatgen
data_Lu24Al3AgTe8
_symmetry_space_group_name_H-M   'P 1'
_cell_length_a   4.04544000
_cell_length_b   11.35462626
_cell_length_c   21.15528350
_cell_angle_alpha   89.76649874
_cell_angle_beta   90.00000000
_cell_angle_gamma   90.00000000
_symmetry_Int_Tables_number   1
_chemical_formula_structural   Lu24Al3AgTe8
_chemical_formula_sum   'Lu24 Al3 Ag1 Te8'
_cell_volume   971.74843858
_cell_formula_units_Z   1
loop_
 _symmetry_equiv_pos_site_id
 _symmetry_equiv_pos_as_xyz
  1  'x, y, z'
loop_
 _atom_site_type_symbol
 _atom_site_label
 _atom_site_symmetry_multiplicity
 _atom_site_fract_x
 _atom_site_fract_y
 _atom_site_fract_z
 _atom_site_occupancy
  Lu  Lu0  1  0.750000  0.676543  0.891260  1
  Lu  Lu1  1  0.250000  0.375733  0.472125  1
  Lu  Lu2  1  0.750000  0.876184  0.027836  1
  Lu  Lu3  1  0.750000  0.971551  0.840443  1
  Lu  Lu4  1  0.250000  0.182499  0.607971  1
  Lu  Lu5  1  0.250000  0.741387  0.270132  1
  Lu  Lu6  1  0.750000  0.109519  0.491433  1
  Lu  Lu7  1  0.750000  0.562604  0.139405  1
  Lu  Lu8  1  0.250000  0.323335  0.108959  1
  Lu  Lu9  1  0.250000  0.028811  0.159380  1
  Lu  Lu10  1  0.250000  0.470553  0.659066  1
  Lu  Lu11  1  0.250000  0.758786  0.770289  1
  Lu  Lu12  1  0.750000  0.528937  0.339769  1
  Lu  Lu13  1  0.750000  0.937321  0.639847  1
  Lu  Lu14  1  0.250000  0.611393  0.008058  1
  Lu  Lu15  1  0.750000  0.259438  0.731976  1
  Lu  Lu16  1  0.750000  0.241221  0.229891  1
  Lu  Lu17  1  0.750000  0.620814  0.528302  1
  Lu  Lu18  1  0.750000  0.822643  0.390779  1
  Lu  Lu19  1  0.250000  0.123734  0.972293  1
  Lu  Lu20  1  0.250000  0.887745  0.507542  1
  Lu  Lu21  1  0.750000  0.388080  0.992337  1
  Lu  Lu22  1  0.250000  0.437465  0.860865  1
  Lu  Lu23  1  0.250000  0.062376  0.359771  1
  Al  Al24  1  0.750000  0.134568  0.075836  1
  Al  Al25  1  0.250000  0.633913  0.423481  1
  Al  Al26  1  0.250000  0.865705  0.923931  1
  Ag  Ag27  1  0.750000  0.365994  0.575986  1
  Te  Te28  1  0.250000  0.770420  0.126536  1
  Te  Te29  1  0.250000  0.731605  0.627397  1
  Te  Te30  1  0.250000  0.043209  0.737073  1
  Te  Te31  1  0.750000  0.270102  0.373114  1
  Te  Te32  1  0.750000  0.542202  0.763052  1
  Te  Te33  1  0.250000  0.456921  0.237232  1
  Te  Te34  1  0.750000  0.957147  0.262444  1
  Te  Te35  1  0.750000  0.229543  0.874190  1
