# generated using pymatgen
data_Ho2Sn4Ir3
_symmetry_space_group_name_H-M   'P 1'
_cell_length_a   7.05049490
_cell_length_b   7.05049490
_cell_length_c   4.15270500
_cell_angle_alpha   90.00000000
_cell_angle_beta   90.00000000
_cell_angle_gamma   114.19116771
_symmetry_Int_Tables_number   1
_chemical_formula_structural   Ho2Sn4Ir3
_chemical_formula_sum   'Ho2 Sn4 Ir3'
_cell_volume   188.30090229
_cell_formula_units_Z   1
loop_
 _symmetry_equiv_pos_site_id
 _symmetry_equiv_pos_as_xyz
  1  'x, y, z'
loop_
 _atom_site_type_symbol
 _atom_site_label
 _atom_site_symmetry_multiplicity
 _atom_site_fract_x
 _atom_site_fract_y
 _atom_site_fract_z
 _atom_site_occupancy
  Ho  Ho0  1  0.594762  0.010129  0.500000  1
  Ho  Ho1  1  0.010129  0.594762  0.500000  1
  Sn  Sn2  1  0.390824  0.390824  0.500000  1
  Sn  Sn3  1  0.766133  0.766133  0.000000  1
  Sn  Sn4  1  0.260508  0.981616  0.000000  1
  Sn  Sn5  1  0.981616  0.260508  0.000000  1
  Ir  Ir6  1  0.632238  0.347522  0.000000  1
  Ir  Ir7  1  0.347522  0.632238  0.000000  1
  Ir  Ir8  1  0.016269  0.016269  0.500000  1
