# generated using pymatgen
data_Er8Sc12Si15P
_symmetry_space_group_name_H-M   'P 1'
_cell_length_a   7.04832400
_cell_length_b   7.33536093
_cell_length_c   13.89693800
_cell_angle_alpha   90.00000000
_cell_angle_beta   90.00000000
_cell_angle_gamma   90.08522484
_symmetry_Int_Tables_number   1
_chemical_formula_structural   Er8Sc12Si15P
_chemical_formula_sum   'Er8 Sc12 Si15 P1'
_cell_volume   718.49870013
_cell_formula_units_Z   1
loop_
 _symmetry_equiv_pos_site_id
 _symmetry_equiv_pos_as_xyz
  1  'x, y, z'
loop_
 _atom_site_type_symbol
 _atom_site_label
 _atom_site_symmetry_multiplicity
 _atom_site_fract_x
 _atom_site_fract_y
 _atom_site_fract_z
 _atom_site_occupancy
  Er  Er0  1  0.010511  0.175787  0.096085  1
  Er  Er1  1  0.990399  0.825733  0.901079  1
  Er  Er2  1  0.489400  0.676390  0.904108  1
  Er  Er3  1  0.990399  0.825733  0.598921  1
  Er  Er4  1  0.511350  0.323595  0.095785  1
  Er  Er5  1  0.010511  0.175787  0.403915  1
  Er  Er6  1  0.511350  0.323595  0.404215  1
  Er  Er7  1  0.489400  0.676390  0.595892  1
  Sc  Sc8  1  0.159911  0.502634  0.750000  1
  Sc  Sc9  1  0.838733  0.496778  0.250000  1
  Sc  Sc10  1  0.339016  0.003084  0.250000  1
  Sc  Sc11  1  0.662770  0.998679  0.750000  1
  Sc  Sc12  1  0.327747  0.173980  0.627116  1
  Sc  Sc13  1  0.668004  0.823198  0.375441  1
  Sc  Sc14  1  0.168018  0.677431  0.375201  1
  Sc  Sc15  1  0.668004  0.823198  0.124559  1
  Sc  Sc16  1  0.832922  0.322127  0.626304  1
  Sc  Sc17  1  0.327747  0.173980  0.872884  1
  Sc  Sc18  1  0.832922  0.322127  0.873696  1
  Sc  Sc19  1  0.168018  0.677431  0.124799  1
  Si  Si20  1  0.965181  0.885783  0.250000  1
  Si  Si21  1  0.466240  0.613409  0.250000  1
  Si  Si22  1  0.531660  0.384795  0.750000  1
  Si  Si23  1  0.294207  0.863258  0.750000  1
  Si  Si24  1  0.714739  0.127981  0.250000  1
  Si  Si25  1  0.215128  0.371658  0.250000  1
  Si  Si26  1  0.786350  0.630006  0.750000  1
  Si  Si27  1  0.159196  0.464246  0.539817  1
  Si  Si28  1  0.840806  0.535025  0.461361  1
  Si  Si29  1  0.338956  0.965640  0.460794  1
  Si  Si30  1  0.840806  0.535025  0.038639  1
  Si  Si31  1  0.660912  0.036064  0.540112  1
  Si  Si32  1  0.159196  0.464246  0.960183  1
  Si  Si33  1  0.660912  0.036064  0.959888  1
  Si  Si34  1  0.338956  0.965640  0.039206  1
  P  P35  1  0.029621  0.123498  0.750000  1
