# generated using pymatgen
data_Ho6TiMn5O18
_symmetry_space_group_name_H-M   'P 1'
_cell_length_a   6.18775023
_cell_length_b   6.18183483
_cell_length_c   11.66069560
_cell_angle_alpha   90.21379747
_cell_angle_beta   89.57280165
_cell_angle_gamma   120.03166437
_symmetry_Int_Tables_number   1
_chemical_formula_structural   Ho6TiMn5O18
_chemical_formula_sum   'Ho6 Ti1 Mn5 O18'
_cell_volume   386.14865895
_cell_formula_units_Z   1
loop_
 _symmetry_equiv_pos_site_id
 _symmetry_equiv_pos_as_xyz
  1  'x, y, z'
loop_
 _atom_site_type_symbol
 _atom_site_label
 _atom_site_symmetry_multiplicity
 _atom_site_fract_x
 _atom_site_fract_y
 _atom_site_fract_z
 _atom_site_occupancy
  Ho  Ho0  1  0.666372  0.335109  0.227816  1
  Ho  Ho1  1  0.334166  0.667080  0.733437  1
  Ho  Ho2  1  0.667087  0.332920  0.733437  1
  Ho  Ho3  1  0.331263  0.664891  0.227816  1
  Ho  Ho4  1  0.001749  0.000000  0.775897  1
  Ho  Ho5  1  0.999251  0.000000  0.272047  1
  Ti  Ti6  1  0.665581  0.000000  0.499383  1
  Mn  Mn7  1  0.666783  0.667365  0.999230  1
  Mn  Mn8  1  0.999418  0.332635  0.999230  1
  Mn  Mn9  1  0.999786  0.666324  0.498549  1
  Mn  Mn10  1  0.333462  0.333676  0.498549  1
  Mn  Mn11  1  0.333604  0.000000  0.999529  1
  O  O12  1  0.667048  0.333758  0.020530  1
  O  O13  1  0.359457  0.693084  0.519006  1
  O  O14  1  0.666374  0.306916  0.519006  1
  O  O15  1  0.333289  0.666242  0.020530  1
  O  O16  1  0.000511  0.000000  0.973974  1
  O  O17  1  0.973192  0.000000  0.475207  1
  O  O18  1  0.360075  0.000000  0.836088  1
  O  O19  1  0.356934  0.356687  0.331376  1
  O  O20  1  0.000246  0.643313  0.331376  1
  O  O21  1  0.000122  0.360383  0.836215  1
  O  O22  1  0.639739  0.639617  0.836215  1
  O  O23  1  0.637269  0.000000  0.333616  1
  O  O24  1  0.306471  0.000000  0.162917  1
  O  O25  1  0.310326  0.310575  0.666106  1
  O  O26  1  0.999751  0.689425  0.666106  1
  O  O27  1  0.999315  0.304906  0.162675  1
  O  O28  1  0.694409  0.695094  0.162675  1
  O  O29  1  0.696951  0.000000  0.667464  1
