# generated using pymatgen
data_La2Tb2Al18RePd5
_symmetry_space_group_name_H-M   'P 1'
_cell_length_a   7.70651952
_cell_length_b   7.68761824
_cell_length_c   9.61454407
_cell_angle_alpha   89.81931286
_cell_angle_beta   89.83511854
_cell_angle_gamma   119.33261013
_symmetry_Int_Tables_number   1
_chemical_formula_structural   La2Tb2Al18RePd5
_chemical_formula_sum   'La2 Tb2 Al18 Re1 Pd5'
_cell_volume   496.57313276
_cell_formula_units_Z   1
loop_
 _symmetry_equiv_pos_site_id
 _symmetry_equiv_pos_as_xyz
  1  'x, y, z'
loop_
 _atom_site_type_symbol
 _atom_site_label
 _atom_site_symmetry_multiplicity
 _atom_site_fract_x
 _atom_site_fract_y
 _atom_site_fract_z
 _atom_site_occupancy
  La  La0  1  0.673017  0.996510  0.248186  1
  La  La1  1  0.326983  0.003490  0.751814  1
  Tb  Tb2  1  0.995478  0.673632  0.248730  1
  Tb  Tb3  1  0.004522  0.326368  0.751270  1
  Al  Al4  1  0.133764  0.133283  0.246867  1
  Al  Al5  1  0.866236  0.866717  0.753133  1
  Al  Al6  1  0.002932  0.333739  0.071501  1
  Al  Al7  1  0.997068  0.666261  0.928499  1
  Al  Al8  1  0.995803  0.660253  0.575878  1
  Al  Al9  1  0.334060  0.002670  0.420941  1
  Al  Al10  1  0.004197  0.339747  0.424122  1
  Al  Al11  1  0.665940  0.997330  0.579059  1
  Al  Al12  1  0.671967  0.999435  0.924268  1
  Al  Al13  1  0.328033  0.000565  0.075732  1
  Al  Al14  1  0.333983  0.336270  0.552796  1
  Al  Al15  1  0.666017  0.663731  0.447204  1
  Al  Al16  1  0.670860  0.668287  0.048344  1
  Al  Al17  1  0.329140  0.331714  0.951656  1
  Al  Al18  1  0.338262  0.545117  0.249639  1
  Al  Al19  1  0.661738  0.454883  0.750361  1
  Al  Al20  1  0.549693  0.347628  0.249053  1
  Al  Al21  1  0.450307  0.652372  0.750947  1
  Re  Re22  1  0.000000  0.000000  0.000000  1
  Pd  Pd23  1  0.671685  0.328999  0.999720  1
  Pd  Pd24  1  0.328315  0.671001  0.000280  1
  Pd  Pd25  1  0.327869  0.671634  0.500262  1
  Pd  Pd26  1  0.672131  0.328366  0.499738  1
  Pd  Pd27  1  0.000000  0.000000  0.500000  1
