# generated using pymatgen
data_SrYb(AuCl4)4
_symmetry_space_group_name_H-M   'P 1'
_cell_length_a   7.41967500
_cell_length_b   7.62278818
_cell_length_c   12.13970654
_cell_angle_alpha   95.23704115
_cell_angle_beta   90.00000000
_cell_angle_gamma   90.00000000
_symmetry_Int_Tables_number   1
_chemical_formula_structural   SrYb(AuCl4)4
_chemical_formula_sum   'Sr1 Yb1 Au4 Cl16'
_cell_volume   683.73877299
_cell_formula_units_Z   1
loop_
 _symmetry_equiv_pos_site_id
 _symmetry_equiv_pos_as_xyz
  1  'x, y, z'
loop_
 _atom_site_type_symbol
 _atom_site_label
 _atom_site_symmetry_multiplicity
 _atom_site_fract_x
 _atom_site_fract_y
 _atom_site_fract_z
 _atom_site_occupancy
  Sr  Sr0  1  0.815784  0.500000  0.750000  1
  Yb  Yb1  1  0.177714  0.500000  0.250000  1
  Au  Au2  1  0.239016  0.728800  0.619254  1
  Au  Au3  1  0.760539  0.718686  0.129675  1
  Au  Au4  1  0.760539  0.281314  0.370325  1
  Au  Au5  1  0.239016  0.271200  0.880746  1
  Cl  Cl6  1  0.539784  0.759068  0.669727  1
  Cl  Cl7  1  0.322772  0.725786  0.433878  1
  Cl  Cl8  1  0.859785  0.282619  0.188668  1
  Cl  Cl9  1  0.153202  0.733812  0.804095  1
  Cl  Cl10  1  0.460018  0.254711  0.316540  1
  Cl  Cl11  1  0.322772  0.274214  0.066122  1
  Cl  Cl12  1  0.668803  0.263959  0.552629  1
  Cl  Cl13  1  0.460018  0.745289  0.183460  1
  Cl  Cl14  1  0.153202  0.266188  0.695905  1
  Cl  Cl15  1  0.539784  0.240932  0.830273  1
  Cl  Cl16  1  0.859785  0.717381  0.311332  1
  Cl  Cl17  1  0.062179  0.702446  0.080024  1
  Cl  Cl18  1  0.668803  0.736041  0.947371  1
  Cl  Cl19  1  0.937152  0.278236  0.927098  1
  Cl  Cl20  1  0.062179  0.297554  0.419976  1
  Cl  Cl21  1  0.937152  0.721764  0.572902  1
