# generated using pymatgen
data_Tb7Lu(Ga3Pt)4
_symmetry_space_group_name_H-M   'P 1'
_cell_length_a   8.87774618
_cell_length_b   8.90684737
_cell_length_c   7.08094900
_cell_angle_alpha   90.00000000
_cell_angle_beta   90.00000000
_cell_angle_gamma   120.10423031
_symmetry_Int_Tables_number   1
_chemical_formula_structural   Tb7Lu(Ga3Pt)4
_chemical_formula_sum   'Tb7 Lu1 Ga12 Pt4'
_cell_volume   484.38617226
_cell_formula_units_Z   1
loop_
 _symmetry_equiv_pos_site_id
 _symmetry_equiv_pos_as_xyz
  1  'x, y, z'
loop_
 _atom_site_type_symbol
 _atom_site_label
 _atom_site_symmetry_multiplicity
 _atom_site_fract_x
 _atom_site_fract_y
 _atom_site_fract_z
 _atom_site_occupancy
  Tb  Tb0  1  0.000459  0.000141  0.250000  1
  Tb  Tb1  1  0.999514  0.999868  0.750000  1
  Tb  Tb2  1  0.519629  0.039506  0.250000  1
  Tb  Tb3  1  0.519542  0.480268  0.250000  1
  Tb  Tb4  1  0.961321  0.480700  0.250000  1
  Tb  Tb5  1  0.479804  0.960041  0.750000  1
  Tb  Tb6  1  0.479865  0.519599  0.750000  1
  Lu  Lu7  1  0.040138  0.519986  0.750000  1
  Ga  Ga8  1  0.166656  0.334295  0.045801  1
  Ga  Ga9  1  0.166820  0.832292  0.454228  1
  Ga  Ga10  1  0.664785  0.832445  0.453160  1
  Ga  Ga11  1  0.664785  0.832445  0.046840  1
  Ga  Ga12  1  0.166820  0.832292  0.045772  1
  Ga  Ga13  1  0.833757  0.665091  0.951918  1
  Ga  Ga14  1  0.833589  0.168732  0.951932  1
  Ga  Ga15  1  0.335133  0.167518  0.953448  1
  Ga  Ga16  1  0.166656  0.334295  0.454199  1
  Ga  Ga17  1  0.335133  0.167518  0.546552  1
  Ga  Ga18  1  0.833757  0.665091  0.548082  1
  Ga  Ga19  1  0.833589  0.168732  0.548068  1
  Pt  Pt20  1  0.330865  0.665347  0.028765  1
  Pt  Pt21  1  0.330865  0.665347  0.471235  1
  Pt  Pt22  1  0.668260  0.334226  0.967365  1
  Pt  Pt23  1  0.668260  0.334226  0.532635  1
