# generated using pymatgen
data_Yb5Sc3Re6(Si8W3)2
_symmetry_space_group_name_H-M   'P 1'
_cell_length_a   6.72582480
_cell_length_b   6.81922058
_cell_length_c   12.62506981
_cell_angle_alpha   90.12569525
_cell_angle_beta   90.06037669
_cell_angle_gamma   90.15694840
_symmetry_Int_Tables_number   1
_chemical_formula_structural   Yb5Sc3Re6(Si8W3)2
_chemical_formula_sum   'Yb5 Sc3 Re6 Si16 W6'
_cell_volume   579.04345747
_cell_formula_units_Z   1
loop_
 _symmetry_equiv_pos_site_id
 _symmetry_equiv_pos_as_xyz
  1  'x, y, z'
loop_
 _atom_site_type_symbol
 _atom_site_label
 _atom_site_symmetry_multiplicity
 _atom_site_fract_x
 _atom_site_fract_y
 _atom_site_fract_z
 _atom_site_occupancy
  Yb  Yb0  1  0.493915  0.662928  0.587557  1
  Yb  Yb1  1  0.994510  0.834560  0.912166  1
  Yb  Yb2  1  0.505661  0.337198  0.088962  1
  Yb  Yb3  1  0.006285  0.161904  0.410695  1
  Yb  Yb4  1  0.504629  0.336247  0.411314  1
  Sc  Sc5  1  0.005489  0.170891  0.095196  1
  Sc  Sc6  1  0.494675  0.671649  0.904578  1
  Sc  Sc7  1  0.994103  0.828680  0.596496  1
  Re  Re8  1  0.675067  0.150862  0.623408  1
  Re  Re9  1  0.171545  0.346021  0.878548  1
  Re  Re10  1  0.327415  0.848035  0.124550  1
  Re  Re11  1  0.829250  0.658965  0.372274  1
  Re  Re12  1  0.327185  0.845707  0.370558  1
  Re  Re13  1  0.826862  0.654000  0.127389  1
  Si  Si14  1  0.660257  0.954625  0.450490  1
  Si  Si15  1  0.160460  0.544505  0.048423  1
  Si  Si16  1  0.337814  0.044095  0.953418  1
  Si  Si17  1  0.840801  0.457205  0.547649  1
  Si  Si18  1  0.337832  0.038886  0.547547  1
  Si  Si19  1  0.837483  0.457514  0.954158  1
  Si  Si20  1  0.662811  0.955052  0.048108  1
  Si  Si21  1  0.155691  0.547691  0.450437  1
  Si  Si22  1  0.466906  0.370959  0.749689  1
  Si  Si23  1  0.968000  0.126058  0.751072  1
  Si  Si24  1  0.531495  0.630790  0.249910  1
  Si  Si25  1  0.032989  0.871484  0.246519  1
  Si  Si26  1  0.697954  0.856484  0.749508  1
  Si  Si27  1  0.198350  0.640349  0.751285  1
  Si  Si28  1  0.305246  0.142913  0.249384  1
  Si  Si29  1  0.805685  0.358282  0.250079  1
  W  W30  1  0.670850  0.157684  0.872737  1
  W  W31  1  0.169049  0.339719  0.628141  1
  W  W32  1  0.834006  0.497121  0.750325  1
  W  W33  1  0.334993  0.000018  0.750915  1
  W  W34  1  0.166251  0.503568  0.248069  1
  W  W35  1  0.668482  0.997352  0.248444  1
