# generated using pymatgen
data_TcHgO4
_symmetry_space_group_name_H-M   'P 1'
_cell_length_a   5.31313200
_cell_length_b   5.86486727
_cell_length_c   15.53711206
_cell_angle_alpha   69.01882930
_cell_angle_beta   90.00000000
_cell_angle_gamma   90.00000000
_symmetry_Int_Tables_number   1
_chemical_formula_structural   TcHgO4
_chemical_formula_sum   'Tc4 Hg4 O16'
_cell_volume   452.04907944
_cell_formula_units_Z   4
loop_
 _symmetry_equiv_pos_site_id
 _symmetry_equiv_pos_as_xyz
  1  'x, y, z'
loop_
 _atom_site_type_symbol
 _atom_site_label
 _atom_site_symmetry_multiplicity
 _atom_site_fract_x
 _atom_site_fract_y
 _atom_site_fract_z
 _atom_site_occupancy
  Tc  Tc0  1  0.635011  0.138855  0.345267  1
  Tc  Tc1  1  0.364989  0.861145  0.654733  1
  Tc  Tc2  1  0.135011  0.861145  0.154733  1
  Tc  Tc3  1  0.864989  0.138855  0.845267  1
  Hg  Hg4  1  0.330214  0.621534  0.941434  1
  Hg  Hg5  1  0.169786  0.621534  0.441434  1
  Hg  Hg6  1  0.830214  0.378466  0.558566  1
  Hg  Hg7  1  0.669786  0.378466  0.058566  1
  O  O8  1  0.499011  0.845954  0.371048  1
  O  O9  1  0.500989  0.154046  0.628952  1
  O  O10  1  0.076116  0.683768  0.269020  1
  O  O11  1  0.999011  0.154046  0.128952  1
  O  O12  1  0.514467  0.282974  0.416518  1
  O  O13  1  0.544121  0.098324  0.864585  1
  O  O14  1  0.985533  0.282974  0.916518  1
  O  O15  1  0.576116  0.316232  0.230980  1
  O  O16  1  0.000989  0.845954  0.871048  1
  O  O17  1  0.955879  0.098324  0.364585  1
  O  O18  1  0.455879  0.901676  0.135415  1
  O  O19  1  0.923884  0.316232  0.730980  1
  O  O20  1  0.044121  0.901676  0.635415  1
  O  O21  1  0.423884  0.683768  0.769020  1
  O  O22  1  0.014467  0.717026  0.083482  1
  O  O23  1  0.485533  0.717026  0.583482  1
