# generated using pymatgen
data_Y8MoOs3C8
_symmetry_space_group_name_H-M   'P 1'
_cell_length_a   5.13336900
_cell_length_b   6.55934701
_cell_length_c   9.85804866
_cell_angle_alpha   89.66204380
_cell_angle_beta   90.00000000
_cell_angle_gamma   90.00000000
_symmetry_Int_Tables_number   1
_chemical_formula_structural   Y8MoOs3C8
_chemical_formula_sum   'Y8 Mo1 Os3 C8'
_cell_volume   331.92999013
_cell_formula_units_Z   1
loop_
 _symmetry_equiv_pos_site_id
 _symmetry_equiv_pos_as_xyz
  1  'x, y, z'
loop_
 _atom_site_type_symbol
 _atom_site_label
 _atom_site_symmetry_multiplicity
 _atom_site_fract_x
 _atom_site_fract_y
 _atom_site_fract_z
 _atom_site_occupancy
  Y  Y0  1  0.250000  0.680672  0.553876  1
  Y  Y1  1  0.750000  0.320508  0.445061  1
  Y  Y2  1  0.750000  0.822364  0.055239  1
  Y  Y3  1  0.250000  0.181847  0.945249  1
  Y  Y4  1  0.250000  0.531122  0.213996  1
  Y  Y5  1  0.750000  0.468107  0.780621  1
  Y  Y6  1  0.750000  0.971490  0.716418  1
  Y  Y7  1  0.250000  0.029282  0.285044  1
  Mo  Mo8  1  0.250000  0.722740  0.866155  1
  Os  Os9  1  0.750000  0.277121  0.136887  1
  Os  Os10  1  0.750000  0.775503  0.362974  1
  Os  Os11  1  0.250000  0.224699  0.634080  1
  C  C12  1  0.250000  0.453947  0.758746  1
  C  C13  1  0.750000  0.540856  0.242214  1
  C  C14  1  0.750000  0.041957  0.259280  1
  C  C15  1  0.250000  0.960030  0.739338  1
  C  C16  1  0.250000  0.823324  0.054423  1
  C  C17  1  0.750000  0.177012  0.952466  1
  C  C18  1  0.750000  0.675523  0.548752  1
  C  C19  1  0.250000  0.321897  0.449182  1
