# generated using pymatgen
data_TbGd2Er(MoO6)2
_symmetry_space_group_name_H-M   'P 1'
_cell_length_a   10.01082624
_cell_length_b   10.01082632
_cell_length_c   5.42296512
_cell_angle_alpha   75.03771335
_cell_angle_beta   75.03771430
_cell_angle_gamma   68.25176179
_symmetry_Int_Tables_number   1
_chemical_formula_structural   TbGd2Er(MoO6)2
_chemical_formula_sum   'Tb2 Gd4 Er2 Mo4 O24'
_cell_volume   479.60818504
_cell_formula_units_Z   2
loop_
 _symmetry_equiv_pos_site_id
 _symmetry_equiv_pos_as_xyz
  1  'x, y, z'
loop_
 _atom_site_type_symbol
 _atom_site_label
 _atom_site_symmetry_multiplicity
 _atom_site_fract_x
 _atom_site_fract_y
 _atom_site_fract_z
 _atom_site_occupancy
  Tb  Tb0  1  0.863253  0.136747  0.250000  1
  Tb  Tb1  1  0.136747  0.863253  0.750000  1
  Gd  Gd2  1  0.215563  0.448537  0.878720  1
  Gd  Gd3  1  0.448537  0.215563  0.378720  1
  Gd  Gd4  1  0.784437  0.551463  0.121280  1
  Gd  Gd5  1  0.551463  0.784437  0.621280  1
  Er  Er6  1  0.395574  0.604426  0.250000  1
  Er  Er7  1  0.604426  0.395574  0.750000  1
  Mo  Mo8  1  0.989802  0.704147  0.435783  1
  Mo  Mo9  1  0.295853  0.010198  0.064217  1
  Mo  Mo10  1  0.010198  0.295853  0.564217  1
  Mo  Mo11  1  0.704147  0.989802  0.935783  1
  O  O12  1  0.429087  0.392632  0.576253  1
  O  O13  1  0.607368  0.570913  0.923747  1
  O  O14  1  0.570913  0.607368  0.423747  1
  O  O15  1  0.392632  0.429087  0.076253  1
  O  O16  1  0.194234  0.663636  0.571410  1
  O  O17  1  0.336364  0.805766  0.928590  1
  O  O18  1  0.805766  0.336364  0.428590  1
  O  O19  1  0.663636  0.194234  0.071410  1
  O  O20  1  0.113578  0.673966  0.122473  1
  O  O21  1  0.326034  0.886422  0.377527  1
  O  O22  1  0.886422  0.326034  0.877527  1
  O  O23  1  0.673966  0.113578  0.622473  1
  O  O24  1  0.711185  0.817929  0.864675  1
  O  O25  1  0.182071  0.288815  0.635325  1
  O  O26  1  0.288815  0.182071  0.135325  1
  O  O27  1  0.817929  0.711185  0.364675  1
  O  O28  1  0.888406  0.953104  0.983473  1
  O  O29  1  0.046896  0.111594  0.516527  1
  O  O30  1  0.976267  0.569459  0.740182  1
  O  O31  1  0.953104  0.888406  0.483473  1
  O  O32  1  0.569459  0.976267  0.240182  1
  O  O33  1  0.023733  0.430541  0.259818  1
  O  O34  1  0.430541  0.023733  0.759818  1
  O  O35  1  0.111594  0.046896  0.016527  1
