# generated using pymatgen
data_Ho16In4IrRu3
_symmetry_space_group_name_H-M   'P 1'
_cell_length_a   9.58925351
_cell_length_b   9.58925386
_cell_length_c   9.60069040
_cell_angle_alpha   60.03939397
_cell_angle_beta   60.03939620
_cell_angle_gamma   60.00000008
_symmetry_Int_Tables_number   1
_chemical_formula_structural   Ho16In4IrRu3
_chemical_formula_sum   'Ho16 In4 Ir1 Ru3'
_cell_volume   624.61934510
_cell_formula_units_Z   1
loop_
 _symmetry_equiv_pos_site_id
 _symmetry_equiv_pos_as_xyz
  1  'x, y, z'
loop_
 _atom_site_type_symbol
 _atom_site_label
 _atom_site_symmetry_multiplicity
 _atom_site_fract_x
 _atom_site_fract_y
 _atom_site_fract_z
 _atom_site_occupancy
  Ho  Ho0  1  0.440057  0.440057  0.059917  1
  Ho  Ho1  1  0.650756  0.650756  0.047734  1
  Ho  Ho2  1  0.191955  0.809077  0.189890  1
  Ho  Ho3  1  0.059968  0.440057  0.059917  1
  Ho  Ho4  1  0.190769  0.809278  0.809185  1
  Ho  Ho5  1  0.060253  0.439352  0.440141  1
  Ho  Ho6  1  0.809077  0.191955  0.189890  1
  Ho  Ho7  1  0.650688  0.650688  0.651121  1
  Ho  Ho8  1  0.809278  0.190769  0.809185  1
  Ho  Ho9  1  0.190769  0.190769  0.809185  1
  Ho  Ho10  1  0.047504  0.650688  0.651121  1
  Ho  Ho11  1  0.440057  0.059968  0.059917  1
  Ho  Ho12  1  0.060253  0.060253  0.440141  1
  Ho  Ho13  1  0.650688  0.047504  0.651121  1
  Ho  Ho14  1  0.809077  0.809077  0.189890  1
  Ho  Ho15  1  0.439352  0.060253  0.440141  1
  In  In16  1  0.417311  0.417311  0.417316  1
  In  In17  1  0.417234  0.417234  0.748298  1
  In  In18  1  0.417311  0.748064  0.417316  1
  In  In19  1  0.748064  0.417311  0.417316  1
  Ir  Ir20  1  0.858556  0.858556  0.424332  1
  Ru  Ru21  1  0.423012  0.859006  0.858975  1
  Ru  Ru22  1  0.859006  0.859006  0.858975  1
  Ru  Ru23  1  0.859006  0.423012  0.858975  1
