# generated using pymatgen
data_Tb3Dy2Bi2As
_symmetry_space_group_name_H-M   'P 1'
_cell_length_a   8.08677300
_cell_length_b   9.12823800
_cell_length_c   12.20908600
_cell_angle_alpha   90.00000000
_cell_angle_beta   90.00000000
_cell_angle_gamma   90.00000000
_symmetry_Int_Tables_number   1
_chemical_formula_structural   Tb3Dy2Bi2As
_chemical_formula_sum   'Tb12 Dy8 Bi8 As4'
_cell_volume   901.25017112
_cell_formula_units_Z   4
loop_
 _symmetry_equiv_pos_site_id
 _symmetry_equiv_pos_as_xyz
  1  'x, y, z'
loop_
 _atom_site_type_symbol
 _atom_site_label
 _atom_site_symmetry_multiplicity
 _atom_site_fract_x
 _atom_site_fract_y
 _atom_site_fract_z
 _atom_site_occupancy
  Tb  Tb0  1  0.850154  0.750000  0.789304  1
  Tb  Tb1  1  0.149846  0.250000  0.210696  1
  Tb  Tb2  1  0.350154  0.250000  0.710696  1
  Tb  Tb3  1  0.649846  0.750000  0.289304  1
  Tb  Tb4  1  0.368049  0.750000  0.705389  1
  Tb  Tb5  1  0.631951  0.250000  0.294611  1
  Tb  Tb6  1  0.868049  0.250000  0.794611  1
  Tb  Tb7  1  0.131951  0.750000  0.205389  1
  Tb  Tb8  1  0.963176  0.750000  0.501635  1
  Tb  Tb9  1  0.036824  0.250000  0.498365  1
  Tb  Tb10  1  0.463176  0.250000  0.998365  1
  Tb  Tb11  1  0.536824  0.750000  0.001635  1
  Dy  Dy12  1  0.685130  0.052835  0.564168  1
  Dy  Dy13  1  0.314870  0.947165  0.435832  1
  Dy  Dy14  1  0.185130  0.947165  0.935832  1
  Dy  Dy15  1  0.314870  0.552835  0.435832  1
  Dy  Dy16  1  0.814870  0.052835  0.064168  1
  Dy  Dy17  1  0.685130  0.447165  0.564168  1
  Dy  Dy18  1  0.814870  0.447165  0.064168  1
  Dy  Dy19  1  0.185130  0.552835  0.935832  1
  Bi  Bi20  1  0.578085  0.492076  0.827083  1
  Bi  Bi21  1  0.421915  0.507924  0.172917  1
  Bi  Bi22  1  0.078085  0.507924  0.672917  1
  Bi  Bi23  1  0.421915  0.992076  0.172917  1
  Bi  Bi24  1  0.921915  0.492076  0.327083  1
  Bi  Bi25  1  0.578085  0.007924  0.827083  1
  Bi  Bi26  1  0.921915  0.007924  0.327083  1
  Bi  Bi27  1  0.078085  0.992076  0.672917  1
  As  As28  1  0.580285  0.750000  0.517442  1
  As  As29  1  0.419715  0.250000  0.482558  1
  As  As30  1  0.080285  0.250000  0.982558  1
  As  As31  1  0.919715  0.750000  0.017442  1
