# generated using pymatgen
data_Dy6Y4Hg3Ru
_symmetry_space_group_name_H-M   'P 1'
_cell_length_a   9.63988800
_cell_length_b   9.63987559
_cell_length_c   9.66732800
_cell_angle_alpha   90.00000000
_cell_angle_beta   90.00000000
_cell_angle_gamma   119.99990073
_symmetry_Int_Tables_number   1
_chemical_formula_structural   Dy6Y4Hg3Ru
_chemical_formula_sum   'Dy12 Y8 Hg6 Ru2'
_cell_volume   778.00240073
_cell_formula_units_Z   2
loop_
 _symmetry_equiv_pos_site_id
 _symmetry_equiv_pos_as_xyz
  1  'x, y, z'
loop_
 _atom_site_type_symbol
 _atom_site_label
 _atom_site_symmetry_multiplicity
 _atom_site_fract_x
 _atom_site_fract_y
 _atom_site_fract_z
 _atom_site_occupancy
  Dy  Dy0  1  0.209579  0.790421  0.439534  1
  Dy  Dy1  1  0.209578  0.419157  0.439533  1
  Dy  Dy2  1  0.580842  0.790421  0.439533  1
  Dy  Dy3  1  0.790421  0.209579  0.560466  1
  Dy  Dy4  1  0.790422  0.580843  0.560467  1
  Dy  Dy5  1  0.419158  0.209579  0.560467  1
  Dy  Dy6  1  0.790421  0.209579  0.939534  1
  Dy  Dy7  1  0.790422  0.580843  0.939533  1
  Dy  Dy8  1  0.419158  0.209579  0.939533  1
  Dy  Dy9  1  0.209579  0.790421  0.060466  1
  Dy  Dy10  1  0.209578  0.419157  0.060467  1
  Dy  Dy11  1  0.580842  0.790421  0.060467  1
  Y  Y12  1  0.000000  0.000000  0.500000  1
  Y  Y13  1  0.000000  0.000000  0.000000  1
  Y  Y14  1  0.541129  0.458871  0.250000  1
  Y  Y15  1  0.541128  0.082258  0.250000  1
  Y  Y16  1  0.917741  0.458872  0.250000  1
  Y  Y17  1  0.458871  0.541129  0.750000  1
  Y  Y18  1  0.458872  0.917742  0.750000  1
  Y  Y19  1  0.082259  0.541128  0.750000  1
  Hg  Hg20  1  0.881512  0.118489  0.250000  1
  Hg  Hg21  1  0.881510  0.763024  0.250000  1
  Hg  Hg22  1  0.236977  0.118489  0.250000  1
  Hg  Hg23  1  0.118488  0.881511  0.750000  1
  Hg  Hg24  1  0.118490  0.236976  0.750000  1
  Hg  Hg25  1  0.763023  0.881511  0.750000  1
  Ru  Ru26  1  0.333333  0.666663  0.250000  1
  Ru  Ru27  1  0.666667  0.333337  0.750000  1
