# generated using pymatgen
data_Nb8FeBiSe16
_symmetry_space_group_name_H-M   'P 1'
_cell_length_a   6.98159800
_cell_length_b   6.98159917
_cell_length_c   13.85569100
_cell_angle_alpha   90.00000000
_cell_angle_beta   90.00000000
_cell_angle_gamma   120.00000394
_symmetry_Int_Tables_number   1
_chemical_formula_structural   Nb8FeBiSe16
_chemical_formula_sum   'Nb8 Fe1 Bi1 Se16'
_cell_volume   584.88240105
_cell_formula_units_Z   1
loop_
 _symmetry_equiv_pos_site_id
 _symmetry_equiv_pos_as_xyz
  1  'x, y, z'
loop_
 _atom_site_type_symbol
 _atom_site_label
 _atom_site_symmetry_multiplicity
 _atom_site_fract_x
 _atom_site_fract_y
 _atom_site_fract_z
 _atom_site_occupancy
  Nb  Nb0  1  0.000000  0.000000  0.227680  1
  Nb  Nb1  1  0.000000  0.000000  0.772320  1
  Nb  Nb2  1  0.508520  0.017041  0.228418  1
  Nb  Nb3  1  0.982959  0.491480  0.228418  1
  Nb  Nb4  1  0.508520  0.491480  0.228418  1
  Nb  Nb5  1  0.491480  0.982959  0.771582  1
  Nb  Nb6  1  0.017041  0.508520  0.771582  1
  Nb  Nb7  1  0.491480  0.508520  0.771582  1
  Fe  Fe8  1  0.000000  0.000000  0.000000  1
  Bi  Bi9  1  0.000000  0.000000  0.500000  1
  Se  Se10  1  0.333333  0.666667  0.897524  1
  Se  Se11  1  0.666667  0.333333  0.102476  1
  Se  Se12  1  0.666667  0.333333  0.355666  1
  Se  Se13  1  0.333333  0.666667  0.644334  1
  Se  Se14  1  0.169706  0.830294  0.348169  1
  Se  Se15  1  0.169706  0.339411  0.348169  1
  Se  Se16  1  0.660589  0.830294  0.348169  1
  Se  Se17  1  0.830294  0.169706  0.651831  1
  Se  Se18  1  0.830294  0.660589  0.651831  1
  Se  Se19  1  0.339411  0.169706  0.651831  1
  Se  Se20  1  0.831236  0.168764  0.890915  1
  Se  Se21  1  0.831236  0.662474  0.890915  1
  Se  Se22  1  0.337526  0.168764  0.890915  1
  Se  Se23  1  0.168764  0.831236  0.109085  1
  Se  Se24  1  0.168764  0.337526  0.109085  1
  Se  Se25  1  0.662474  0.831236  0.109085  1
