# generated using pymatgen
data_Dy6LuScO12
_symmetry_space_group_name_H-M   'P 1'
_cell_length_a   6.64860087
_cell_length_b   6.64860025
_cell_length_c   6.64860025
_cell_angle_alpha   92.34235783
_cell_angle_beta   92.34237551
_cell_angle_gamma   92.34236993
_symmetry_Int_Tables_number   1
_chemical_formula_structural   Dy6LuScO12
_chemical_formula_sum   'Dy6 Lu1 Sc1 O12'
_cell_volume   293.13656497
_cell_formula_units_Z   1
loop_
 _symmetry_equiv_pos_site_id
 _symmetry_equiv_pos_as_xyz
  1  'x, y, z'
loop_
 _atom_site_type_symbol
 _atom_site_label
 _atom_site_symmetry_multiplicity
 _atom_site_fract_x
 _atom_site_fract_y
 _atom_site_fract_z
 _atom_site_occupancy
  Dy  Dy0  1  0.744469  0.930515  0.439432  1
  Dy  Dy1  1  0.930515  0.439432  0.744469  1
  Dy  Dy2  1  0.439432  0.744469  0.930515  1
  Dy  Dy3  1  0.255531  0.069485  0.560568  1
  Dy  Dy4  1  0.069485  0.560568  0.255531  1
  Dy  Dy5  1  0.560568  0.255531  0.069485  1
  Lu  Lu6  1  0.000000  0.000000  0.000000  1
  Sc  Sc7  1  0.500000  0.500000  0.500000  1
  O  O8  1  0.593172  0.464199  0.805907  1
  O  O9  1  0.464199  0.805907  0.593172  1
  O  O10  1  0.805907  0.593172  0.464199  1
  O  O11  1  0.406828  0.535801  0.194093  1
  O  O12  1  0.535801  0.194093  0.406828  1
  O  O13  1  0.194093  0.406828  0.535801  1
  O  O14  1  0.069289  0.909641  0.312812  1
  O  O15  1  0.909641  0.312812  0.069289  1
  O  O16  1  0.687188  0.930711  0.090359  1
  O  O17  1  0.090359  0.687188  0.930711  1
  O  O18  1  0.930711  0.090359  0.687188  1
  O  O19  1  0.312812  0.069289  0.909641  1
