# generated using pymatgen
data_Tm4Cu3Ni11
_symmetry_space_group_name_H-M   'P 1'
_cell_length_a   4.91688189
_cell_length_b   4.91735839
_cell_length_c   12.38635756
_cell_angle_alpha   78.55081472
_cell_angle_beta   78.58491857
_cell_angle_gamma   59.99678544
_symmetry_Int_Tables_number   1
_chemical_formula_structural   Tm4Cu3Ni11
_chemical_formula_sum   'Tm4 Cu3 Ni11'
_cell_volume   252.46368395
_cell_formula_units_Z   1
loop_
 _symmetry_equiv_pos_site_id
 _symmetry_equiv_pos_as_xyz
  1  'x, y, z'
loop_
 _atom_site_type_symbol
 _atom_site_label
 _atom_site_symmetry_multiplicity
 _atom_site_fract_x
 _atom_site_fract_y
 _atom_site_fract_z
 _atom_site_occupancy
  Tm  Tm0  1  0.946957  0.948918  0.155208  1
  Tm  Tm1  1  0.053043  0.051082  0.844792  1
  Tm  Tm2  1  0.851708  0.852734  0.442825  1
  Tm  Tm3  1  0.148292  0.147266  0.557175  1
  Cu  Cu4  1  0.717805  0.724792  0.832610  1
  Cu  Cu5  1  0.282195  0.275208  0.167390  1
  Cu  Cu6  1  0.000000  0.500000  0.000000  1
  Ni  Ni7  1  0.500000  0.500000  0.500000  1
  Ni  Ni8  1  0.602286  0.614865  0.167983  1
  Ni  Ni9  1  0.397714  0.385135  0.832017  1
  Ni  Ni10  1  0.500000  0.000000  0.000000  1
  Ni  Ni11  1  0.500000  0.500000  0.000000  1
  Ni  Ni12  1  0.387746  0.388915  0.333571  1
  Ni  Ni13  1  0.890047  0.388686  0.332580  1
  Ni  Ni14  1  0.387746  0.889770  0.333571  1
  Ni  Ni15  1  0.612254  0.611085  0.666429  1
  Ni  Ni16  1  0.109953  0.611314  0.667420  1
  Ni  Ni17  1  0.612254  0.110230  0.666429  1
