# generated using pymatgen
data_Tb16MgCd(HgIr2)2
_symmetry_space_group_name_H-M   'P 1'
_cell_length_a   9.67505117
_cell_length_b   9.67794778
_cell_length_c   9.67665296
_cell_angle_alpha   59.99557115
_cell_angle_beta   60.08875599
_cell_angle_gamma   59.99008987
_symmetry_Int_Tables_number   1
_chemical_formula_structural   Tb16MgCd(HgIr2)2
_chemical_formula_sum   'Tb16 Mg1 Cd1 Hg2 Ir4'
_cell_volume   641.04725276
_cell_formula_units_Z   1
loop_
 _symmetry_equiv_pos_site_id
 _symmetry_equiv_pos_as_xyz
  1  'x, y, z'
loop_
 _atom_site_type_symbol
 _atom_site_label
 _atom_site_symmetry_multiplicity
 _atom_site_fract_x
 _atom_site_fract_y
 _atom_site_fract_z
 _atom_site_occupancy
  Tb  Tb0  1  0.191578  0.808219  0.810145  1
  Tb  Tb1  1  0.813032  0.188136  0.189085  1
  Tb  Tb2  1  0.062218  0.438116  0.061551  1
  Tb  Tb3  1  0.053019  0.649430  0.648121  1
  Tb  Tb4  1  0.650714  0.653208  0.651807  1
  Tb  Tb5  1  0.063077  0.060732  0.438424  1
  Tb  Tb6  1  0.191808  0.808554  0.191083  1
  Tb  Tb7  1  0.813032  0.809746  0.189085  1
  Tb  Tb8  1  0.812257  0.188354  0.811034  1
  Tb  Tb9  1  0.438983  0.061777  0.437464  1
  Tb  Tb10  1  0.439301  0.437395  0.062444  1
  Tb  Tb11  1  0.439301  0.060860  0.062444  1
  Tb  Tb12  1  0.063077  0.437767  0.438424  1
  Tb  Tb13  1  0.191578  0.190058  0.810145  1
  Tb  Tb14  1  0.649297  0.652033  0.046637  1
  Tb  Tb15  1  0.650714  0.044271  0.651807  1
  Mg  Mg16  1  0.720354  0.426818  0.426011  1
  Cd  Cd17  1  0.418908  0.416394  0.748305  1
  Hg  Hg18  1  0.418135  0.754252  0.414638  1
  Hg  Hg19  1  0.418135  0.412975  0.414638  1
  Ir  Ir20  1  0.858679  0.858208  0.424907  1
  Ir  Ir21  1  0.859125  0.425263  0.857104  1
  Ir  Ir22  1  0.859125  0.858509  0.857104  1
  Ir  Ir23  1  0.424559  0.858925  0.857590  1
