# generated using pymatgen
data_PaNb(Pd2Pt)2
_symmetry_space_group_name_H-M   'P 1'
_cell_length_a   5.65691500
_cell_length_b   5.65224916
_cell_length_c   4.89267400
_cell_angle_alpha   90.00000000
_cell_angle_beta   90.00000000
_cell_angle_gamma   120.02730467
_symmetry_Int_Tables_number   1
_chemical_formula_structural   PaNb(Pd2Pt)2
_chemical_formula_sum   'Pa1 Nb1 Pd4 Pt2'
_cell_volume   135.44354279
_cell_formula_units_Z   1
loop_
 _symmetry_equiv_pos_site_id
 _symmetry_equiv_pos_as_xyz
  1  'x, y, z'
loop_
 _atom_site_type_symbol
 _atom_site_label
 _atom_site_symmetry_multiplicity
 _atom_site_fract_x
 _atom_site_fract_y
 _atom_site_fract_z
 _atom_site_occupancy
  Pa  Pa0  1  0.334049  0.668099  0.750000  1
  Nb  Nb1  1  0.666446  0.332890  0.250000  1
  Pd  Pd2  1  0.831814  0.171205  0.750000  1
  Pd  Pd3  1  0.339391  0.171205  0.750000  1
  Pd  Pd4  1  0.829886  0.659772  0.750000  1
  Pd  Pd5  1  0.163224  0.326447  0.250000  1
  Pt  Pt6  1  0.163787  0.835191  0.250000  1
  Pt  Pt7  1  0.671404  0.835191  0.250000  1
