# generated using pymatgen
data_Ac2Ir2Se
_symmetry_space_group_name_H-M   'P 1'
_cell_length_a   4.43336600
_cell_length_b   4.43336413
_cell_length_c   16.62862300
_cell_angle_alpha   90.00000000
_cell_angle_beta   90.00000000
_cell_angle_gamma   119.99999902
_symmetry_Int_Tables_number   1
_chemical_formula_structural   Ac2Ir2Se
_chemical_formula_sum   'Ac4 Ir4 Se2'
_cell_volume   283.04397371
_cell_formula_units_Z   2
loop_
 _symmetry_equiv_pos_site_id
 _symmetry_equiv_pos_as_xyz
  1  'x, y, z'
loop_
 _atom_site_type_symbol
 _atom_site_label
 _atom_site_symmetry_multiplicity
 _atom_site_fract_x
 _atom_site_fract_y
 _atom_site_fract_z
 _atom_site_occupancy
  Ac  Ac0  1  0.000000  0.000000  0.120351  1
  Ac  Ac1  1  0.000000  0.000000  0.879649  1
  Ac  Ac2  1  0.000000  0.000000  0.620351  1
  Ac  Ac3  1  0.000000  0.000000  0.379649  1
  Ir  Ir4  1  0.333333  0.666667  0.501249  1
  Ir  Ir5  1  0.666667  0.333333  0.498751  1
  Ir  Ir6  1  0.666667  0.333333  0.001249  1
  Ir  Ir7  1  0.333333  0.666667  0.998751  1
  Se  Se8  1  0.333333  0.666667  0.250000  1
  Se  Se9  1  0.666667  0.333333  0.750000  1
