# generated using pymatgen
data_U2AlIr2Pt
_symmetry_space_group_name_H-M   'P 1'
_cell_length_a   5.55939200
_cell_length_b   5.60248276
_cell_length_c   7.89408300
_cell_angle_alpha   90.00000000
_cell_angle_beta   90.00000000
_cell_angle_gamma   119.74589609
_symmetry_Int_Tables_number   1
_chemical_formula_structural   U2AlIr2Pt
_chemical_formula_sum   'U4 Al2 Ir4 Pt2'
_cell_volume   213.47473386
_cell_formula_units_Z   2
loop_
 _symmetry_equiv_pos_site_id
 _symmetry_equiv_pos_as_xyz
  1  'x, y, z'
loop_
 _atom_site_type_symbol
 _atom_site_label
 _atom_site_symmetry_multiplicity
 _atom_site_fract_x
 _atom_site_fract_y
 _atom_site_fract_z
 _atom_site_occupancy
  U  U0  1  0.335434  0.662200  0.422284  1
  U  U1  1  0.673234  0.337800  0.922284  1
  U  U2  1  0.673234  0.337800  0.577716  1
  U  U3  1  0.335434  0.662200  0.077716  1
  Al  Al4  1  0.995201  0.000000  0.500000  1
  Al  Al5  1  0.995201  0.000000  0.000000  1
  Ir  Ir6  1  0.827662  0.169398  0.250000  1
  Ir  Ir7  1  0.658266  0.830602  0.750000  1
  Ir  Ir8  1  0.170433  0.341223  0.750000  1
  Ir  Ir9  1  0.829209  0.658777  0.250000  1
  Pt  Pt10  1  0.170295  0.833896  0.750000  1
  Pt  Pt11  1  0.336398  0.166104  0.250000  1
