# generated using pymatgen
data_KRb3Tc3Ag2H27
_symmetry_space_group_name_H-M   'P 1'
_cell_length_a   10.64479217
_cell_length_b   10.64479214
_cell_length_c   5.60930400
_cell_angle_alpha   90.00000000
_cell_angle_beta   90.00000000
_cell_angle_gamma   125.48844786
_symmetry_Int_Tables_number   1
_chemical_formula_structural   KRb3Tc3Ag2H27
_chemical_formula_sum   'K1 Rb3 Tc3 Ag2 H27'
_cell_volume   517.52558882
_cell_formula_units_Z   1
loop_
 _symmetry_equiv_pos_site_id
 _symmetry_equiv_pos_as_xyz
  1  'x, y, z'
loop_
 _atom_site_type_symbol
 _atom_site_label
 _atom_site_symmetry_multiplicity
 _atom_site_fract_x
 _atom_site_fract_y
 _atom_site_fract_z
 _atom_site_occupancy
  K  K0  1  0.774194  0.774194  0.500000  1
  Rb  Rb1  1  0.250679  0.972393  0.500000  1
  Rb  Rb2  1  0.972393  0.250679  0.500000  1
  Rb  Rb3  1  0.389976  0.389976  0.000000  1
  Tc  Tc4  1  0.009908  0.009908  0.000000  1
  Tc  Tc5  1  0.368002  0.677429  0.500000  1
  Tc  Tc6  1  0.677429  0.368002  0.500000  1
  Ag  Ag7  1  0.371026  0.710403  0.000000  1
  Ag  Ag8  1  0.710403  0.371026  0.000000  1
  H  H9  1  0.879534  0.006960  0.175358  1
  H  H10  1  0.006960  0.879534  0.175358  1
  H  H11  1  0.879534  0.006960  0.824642  1
  H  H12  1  0.006960  0.879534  0.824642  1
  H  H13  1  0.091734  0.091734  0.262226  1
  H  H14  1  0.091734  0.091734  0.737774  1
  H  H15  1  0.196266  0.065112  0.000000  1
  H  H16  1  0.065112  0.196266  0.000000  1
  H  H17  1  0.840596  0.840596  0.000000  1
  H  H18  1  0.246008  0.549753  0.287960  1
  H  H19  1  0.492129  0.693925  0.287795  1
  H  H20  1  0.246008  0.549753  0.712040  1
  H  H21  1  0.549753  0.246008  0.712040  1
  H  H22  1  0.366733  0.799820  0.299249  1
  H  H23  1  0.492129  0.693925  0.712205  1
  H  H24  1  0.693925  0.492129  0.712205  1
  H  H25  1  0.549753  0.246008  0.287960  1
  H  H26  1  0.366733  0.799820  0.700751  1
  H  H27  1  0.693925  0.492129  0.287795  1
  H  H28  1  0.799820  0.366733  0.700751  1
  H  H29  1  0.799820  0.366733  0.299249  1
  H  H30  1  0.369040  0.520537  0.500000  1
  H  H31  1  0.533027  0.852170  0.500000  1
  H  H32  1  0.520537  0.369040  0.500000  1
  H  H33  1  0.197191  0.648853  0.500000  1
  H  H34  1  0.852170  0.533027  0.500000  1
  H  H35  1  0.648853  0.197191  0.500000  1
