# generated using pymatgen
data_LuRuBr18
_symmetry_space_group_name_H-M   'P 1'
_cell_length_a   9.22758138
_cell_length_b   9.29986585
_cell_length_c   9.13274767
_cell_angle_alpha   87.19010470
_cell_angle_beta   87.28973085
_cell_angle_gamma   88.24024007
_symmetry_Int_Tables_number   1
_chemical_formula_structural   LuRuBr18
_chemical_formula_sum   'Lu1 Ru1 Br18'
_cell_volume   781.59464162
_cell_formula_units_Z   1
loop_
 _symmetry_equiv_pos_site_id
 _symmetry_equiv_pos_as_xyz
  1  'x, y, z'
loop_
 _atom_site_type_symbol
 _atom_site_label
 _atom_site_symmetry_multiplicity
 _atom_site_fract_x
 _atom_site_fract_y
 _atom_site_fract_z
 _atom_site_occupancy
  Lu  Lu0  1  0.000000  0.000000  0.000000  1
  Ru  Ru1  1  0.500000  0.500000  0.500000  1
  Br  Br2  1  0.771445  0.484517  0.503191  1
  Br  Br3  1  0.499969  0.769418  0.464007  1
  Br  Br4  1  0.479584  0.513167  0.773517  1
  Br  Br5  1  0.228555  0.515483  0.496809  1
  Br  Br6  1  0.500031  0.230582  0.535993  1
  Br  Br7  1  0.520416  0.486833  0.226483  1
  Br  Br8  1  0.883418  0.381098  0.738200  1
  Br  Br9  1  0.740897  0.884724  0.382434  1
  Br  Br10  1  0.381823  0.747416  0.881670  1
  Br  Br11  1  0.116582  0.618902  0.261800  1
  Br  Br12  1  0.259103  0.115276  0.617566  1
  Br  Br13  1  0.618177  0.252584  0.118330  1
  Br  Br14  1  0.030271  0.968615  0.699855  1
  Br  Br15  1  0.703395  0.027978  0.973288  1
  Br  Br16  1  0.969332  0.705033  0.035607  1
  Br  Br17  1  0.969729  0.031385  0.300145  1
  Br  Br18  1  0.296605  0.972022  0.026712  1
  Br  Br19  1  0.030668  0.294967  0.964393  1
