# generated using pymatgen
data_RbUSiSe5
_symmetry_space_group_name_H-M   'P 1'
_cell_length_a   8.04546029
_cell_length_b   7.78917561
_cell_length_c   9.96428785
_cell_angle_alpha   67.46694354
_cell_angle_beta   76.74677104
_cell_angle_gamma   73.06226235
_symmetry_Int_Tables_number   1
_chemical_formula_structural   RbUSiSe5
_chemical_formula_sum   'Rb2 U2 Si2 Se10'
_cell_volume   546.83799877
_cell_formula_units_Z   2
loop_
 _symmetry_equiv_pos_site_id
 _symmetry_equiv_pos_as_xyz
  1  'x, y, z'
loop_
 _atom_site_type_symbol
 _atom_site_label
 _atom_site_symmetry_multiplicity
 _atom_site_fract_x
 _atom_site_fract_y
 _atom_site_fract_z
 _atom_site_occupancy
  Rb  Rb0  1  0.606560  0.350907  0.311351  1
  Rb  Rb1  1  0.393440  0.649093  0.688649  1
  U  U2  1  0.245362  0.004529  0.003964  1
  U  U3  1  0.754638  0.995471  0.996036  1
  Si  Si4  1  0.977563  0.695407  0.384537  1
  Si  Si5  1  0.022437  0.304593  0.615463  1
  Se  Se6  1  0.075942  0.751082  0.000067  1
  Se  Se7  1  0.432976  0.234001  0.024581  1
  Se  Se8  1  0.707310  0.847472  0.308241  1
  Se  Se9  1  0.194790  0.859642  0.313159  1
  Se  Se10  1  0.074373  0.396613  0.359545  1
  Se  Se11  1  0.925627  0.603387  0.640455  1
  Se  Se12  1  0.805210  0.140358  0.686841  1
  Se  Se13  1  0.292690  0.152528  0.691759  1
  Se  Se14  1  0.567024  0.765999  0.975419  1
  Se  Se15  1  0.924058  0.248918  0.999933  1
