# generated using pymatgen
data_Tb10Th2Tc3Pt
_symmetry_space_group_name_H-M   'P 1'
_cell_length_a   6.36600681
_cell_length_b   7.35707097
_cell_length_c   9.50458800
_cell_angle_alpha   90.00000000
_cell_angle_beta   90.00000000
_cell_angle_gamma   89.99948272
_symmetry_Int_Tables_number   1
_chemical_formula_structural   Tb10Th2Tc3Pt
_chemical_formula_sum   'Tb10 Th2 Tc3 Pt1'
_cell_volume   445.14893656
_cell_formula_units_Z   1
loop_
 _symmetry_equiv_pos_site_id
 _symmetry_equiv_pos_as_xyz
  1  'x, y, z'
loop_
 _atom_site_type_symbol
 _atom_site_label
 _atom_site_symmetry_multiplicity
 _atom_site_fract_x
 _atom_site_fract_y
 _atom_site_fract_z
 _atom_site_occupancy
  Tb  Tb0  1  0.634093  0.042307  0.250000  1
  Tb  Tb1  1  0.867271  0.533546  0.250000  1
  Tb  Tb2  1  0.171412  0.180042  0.064266  1
  Tb  Tb3  1  0.829240  0.823669  0.932690  1
  Tb  Tb4  1  0.664442  0.321674  0.937282  1
  Tb  Tb5  1  0.829240  0.823669  0.567310  1
  Tb  Tb6  1  0.335509  0.673914  0.065565  1
  Tb  Tb7  1  0.171412  0.180042  0.435734  1
  Tb  Tb8  1  0.335509  0.673914  0.434435  1
  Tb  Tb9  1  0.664442  0.321674  0.562718  1
  Th  Th10  1  0.355613  0.949793  0.750000  1
  Th  Th11  1  0.138683  0.451293  0.750000  1
  Tc  Tc12  1  0.453716  0.384527  0.250000  1
  Tc  Tc13  1  0.519060  0.628662  0.750000  1
  Tc  Tc14  1  0.980630  0.126601  0.750000  1
  Pt  Pt15  1  0.049728  0.884672  0.250000  1
