# generated using pymatgen
data_LaDy3(ErRh9)2
_symmetry_space_group_name_H-M   'P 1'
_cell_length_a   5.28625400
_cell_length_b   5.28625241
_cell_length_c   17.53022400
_cell_angle_alpha   90.00000000
_cell_angle_beta   90.00000000
_cell_angle_gamma   119.99999741
_symmetry_Int_Tables_number   1
_chemical_formula_structural   LaDy3(ErRh9)2
_chemical_formula_sum   'La1 Dy3 Er2 Rh18'
_cell_volume   424.24236165
_cell_formula_units_Z   1
loop_
 _symmetry_equiv_pos_site_id
 _symmetry_equiv_pos_as_xyz
  1  'x, y, z'
loop_
 _atom_site_type_symbol
 _atom_site_label
 _atom_site_symmetry_multiplicity
 _atom_site_fract_x
 _atom_site_fract_y
 _atom_site_fract_z
 _atom_site_occupancy
  La  La0  1  0.666667  0.333333  0.249945  1
  Dy  Dy1  1  0.666667  0.333333  0.458778  1
  Dy  Dy2  1  0.333333  0.666667  0.957893  1
  Dy  Dy3  1  0.333333  0.666667  0.749896  1
  Er  Er4  1  0.333333  0.666667  0.542408  1
  Er  Er5  1  0.666667  0.333333  0.041440  1
  Rh  Rh6  1  0.167404  0.334808  0.124214  1
  Rh  Rh7  1  0.832600  0.665201  0.625523  1
  Rh  Rh8  1  0.665192  0.832596  0.124214  1
  Rh  Rh9  1  0.167404  0.832596  0.124214  1
  Rh  Rh10  1  0.832600  0.167400  0.625523  1
  Rh  Rh11  1  0.334799  0.167400  0.625523  1
  Rh  Rh12  1  0.832572  0.665144  0.874345  1
  Rh  Rh13  1  0.832572  0.167428  0.874345  1
  Rh  Rh14  1  0.334856  0.167428  0.874345  1
  Rh  Rh15  1  0.665151  0.832575  0.375711  1
  Rh  Rh16  1  0.167425  0.832575  0.375711  1
  Rh  Rh17  1  0.167425  0.334849  0.375711  1
  Rh  Rh18  1  0.000000  0.000000  0.250097  1
  Rh  Rh19  1  0.000000  0.000000  0.750045  1
  Rh  Rh20  1  0.333333  0.666667  0.250012  1
  Rh  Rh21  1  0.666667  0.333333  0.749953  1
  Rh  Rh22  1  0.000000  0.000000  0.999691  1
  Rh  Rh23  1  0.000000  0.000000  0.500464  1
