# generated using pymatgen
data_Ho7Tm5Th4(CoHg)4
_symmetry_space_group_name_H-M   'P 1'
_cell_length_a   9.49739653
_cell_length_b   9.49692481
_cell_length_c   9.49271343
_cell_angle_alpha   59.86314463
_cell_angle_beta   59.86649476
_cell_angle_gamma   59.86607077
_symmetry_Int_Tables_number   1
_chemical_formula_structural   Ho7Tm5Th4(CoHg)4
_chemical_formula_sum   'Ho7 Tm5 Th4 Co4 Hg4'
_cell_volume   603.57721146
_cell_formula_units_Z   1
loop_
 _symmetry_equiv_pos_site_id
 _symmetry_equiv_pos_as_xyz
  1  'x, y, z'
loop_
 _atom_site_type_symbol
 _atom_site_label
 _atom_site_symmetry_multiplicity
 _atom_site_fract_x
 _atom_site_fract_y
 _atom_site_fract_z
 _atom_site_occupancy
  Ho  Ho0  1  0.814976  0.815055  0.185700  1
  Ho  Ho1  1  0.938359  0.563271  0.564148  1
  Ho  Ho2  1  0.562802  0.937901  0.937402  1
  Ho  Ho3  1  0.563267  0.938251  0.564219  1
  Ho  Ho4  1  0.937895  0.562883  0.937342  1
  Ho  Ho5  1  0.564014  0.563955  0.937977  1
  Ho  Ho6  1  0.937145  0.937166  0.563549  1
  Tm  Tm7  1  0.813227  0.187482  0.186622  1
  Tm  Tm8  1  0.186474  0.814658  0.814344  1
  Tm  Tm9  1  0.187450  0.813241  0.186598  1
  Tm  Tm10  1  0.814694  0.186458  0.814313  1
  Tm  Tm11  1  0.186548  0.186566  0.813514  1
  Th  Th12  1  0.346690  0.346668  0.346342  1
  Th  Th13  1  0.348210  0.348239  0.956486  1
  Th  Th14  1  0.347261  0.956485  0.348592  1
  Th  Th15  1  0.956524  0.347326  0.348516  1
  Co  Co16  1  0.143933  0.143918  0.144185  1
  Co  Co17  1  0.143123  0.143067  0.567657  1
  Co  Co18  1  0.143900  0.566976  0.143076  1
  Co  Co19  1  0.566925  0.143873  0.143068  1
  Hg  Hg20  1  0.585564  0.585515  0.585793  1
  Hg  Hg21  1  0.584668  0.584715  0.241546  1
  Hg  Hg22  1  0.584639  0.241709  0.584498  1
  Hg  Hg23  1  0.241711  0.584621  0.584510  1
