# generated using pymatgen
data_Ac2(CuNi)5
_symmetry_space_group_name_H-M   'P 1'
_cell_length_a   3.97792000
_cell_length_b   5.23850200
_cell_length_c   8.93429300
_cell_angle_alpha   90.00000000
_cell_angle_beta   90.00000000
_cell_angle_gamma   90.00000000
_symmetry_Int_Tables_number   1
_chemical_formula_structural   Ac2(CuNi)5
_chemical_formula_sum   'Ac2 Cu5 Ni5'
_cell_volume   186.17585195
_cell_formula_units_Z   1
loop_
 _symmetry_equiv_pos_site_id
 _symmetry_equiv_pos_as_xyz
  1  'x, y, z'
loop_
 _atom_site_type_symbol
 _atom_site_label
 _atom_site_symmetry_multiplicity
 _atom_site_fract_x
 _atom_site_fract_y
 _atom_site_fract_z
 _atom_site_occupancy
  Ac  Ac0  1  0.000000  0.000000  0.500000  1
  Ac  Ac1  1  0.000000  0.500000  0.000000  1
  Cu  Cu2  1  0.000000  0.500000  0.328987  1
  Cu  Cu3  1  0.000000  0.000000  0.833631  1
  Cu  Cu4  1  0.000000  0.000000  0.166369  1
  Cu  Cu5  1  0.000000  0.500000  0.671013  1
  Cu  Cu6  1  0.500000  0.500000  0.500000  1
  Ni  Ni7  1  0.500000  0.000000  0.000000  1
  Ni  Ni8  1  0.500000  0.751786  0.249150  1
  Ni  Ni9  1  0.500000  0.248214  0.750850  1
  Ni  Ni10  1  0.500000  0.248214  0.249150  1
  Ni  Ni11  1  0.500000  0.751786  0.750850  1
