# generated using pymatgen
data_Y10PdRh5
_symmetry_space_group_name_H-M   'P 1'
_cell_length_a   11.00563914
_cell_length_b   11.01099847
_cell_length_c   6.37479818
_cell_angle_alpha   90.00741365
_cell_angle_beta   90.01495165
_cell_angle_gamma   89.80571471
_symmetry_Int_Tables_number   1
_chemical_formula_structural   Y10PdRh5
_chemical_formula_sum   'Y20 Pd2 Rh10'
_cell_volume   772.51317723
_cell_formula_units_Z   2
loop_
 _symmetry_equiv_pos_site_id
 _symmetry_equiv_pos_as_xyz
  1  'x, y, z'
loop_
 _atom_site_type_symbol
 _atom_site_label
 _atom_site_symmetry_multiplicity
 _atom_site_fract_x
 _atom_site_fract_y
 _atom_site_fract_z
 _atom_site_occupancy
  Y  Y0  1  0.291259  0.090155  0.379962  1
  Y  Y1  1  0.290865  0.915351  0.880657  1
  Y  Y2  1  0.708469  0.089126  0.880486  1
  Y  Y3  1  0.708853  0.910650  0.380053  1
  Y  Y4  1  0.592012  0.792730  0.881594  1
  Y  Y5  1  0.589608  0.207941  0.378922  1
  Y  Y6  1  0.412431  0.793730  0.374092  1
  Y  Y7  1  0.410970  0.209199  0.880115  1
  Y  Y8  1  0.209997  0.406125  0.622761  1
  Y  Y9  1  0.208037  0.588831  0.122502  1
  Y  Y10  1  0.790285  0.409193  0.117846  1
  Y  Y11  1  0.788007  0.590886  0.624500  1
  Y  Y12  1  0.908936  0.710457  0.116730  1
  Y  Y13  1  0.909166  0.288579  0.623818  1
  Y  Y14  1  0.086189  0.712047  0.623823  1
  Y  Y15  1  0.090458  0.289506  0.116516  1
  Y  Y16  1  0.000016  0.000419  0.498355  1
  Y  Y17  1  0.999553  0.999970  0.999689  1
  Y  Y18  1  0.502236  0.498232  0.999957  1
  Y  Y19  1  0.501840  0.497714  0.498259  1
  Pd  Pd20  1  0.345120  0.655261  0.749667  1
  Pd  Pd21  1  0.999879  0.500334  0.373749  1
  Rh  Rh22  1  0.846157  0.155217  0.250182  1
  Rh  Rh23  1  0.845990  0.845699  0.749574  1
  Rh  Rh24  1  0.154223  0.154037  0.750267  1
  Rh  Rh25  1  0.154967  0.843630  0.250398  1
  Rh  Rh26  1  0.655242  0.344844  0.749970  1
  Rh  Rh27  1  0.654461  0.653458  0.249618  1
  Rh  Rh28  1  0.344847  0.347478  0.250493  1
  Rh  Rh29  1  0.499438  0.999746  0.126572  1
  Rh  Rh30  1  0.499787  0.999463  0.627995  1
  Rh  Rh31  1  0.000705  0.499993  0.870877  1
