# generated using pymatgen
data_La2Pr2TmSi4
_symmetry_space_group_name_H-M   'P 1'
_cell_length_a   7.88305400
_cell_length_b   7.88305400
_cell_length_c   15.23884400
_cell_angle_alpha   90.00000000
_cell_angle_beta   90.00000000
_cell_angle_gamma   90.00000000
_symmetry_Int_Tables_number   1
_chemical_formula_structural   La2Pr2TmSi4
_chemical_formula_sum   'La8 Pr8 Tm4 Si16'
_cell_volume   946.98047842
_cell_formula_units_Z   4
loop_
 _symmetry_equiv_pos_site_id
 _symmetry_equiv_pos_as_xyz
  1  'x, y, z'
loop_
 _atom_site_type_symbol
 _atom_site_label
 _atom_site_symmetry_multiplicity
 _atom_site_fract_x
 _atom_site_fract_y
 _atom_site_fract_z
 _atom_site_occupancy
  La  La0  1  0.374834  0.012532  0.448314  1
  La  La1  1  0.487468  0.874834  0.698314  1
  La  La2  1  0.512532  0.125166  0.198314  1
  La  La3  1  0.874834  0.487468  0.301686  1
  La  La4  1  0.125166  0.512532  0.801686  1
  La  La5  1  0.625166  0.987468  0.948314  1
  La  La6  1  0.012532  0.374834  0.551686  1
  La  La7  1  0.987468  0.625166  0.051686  1
  Pr  Pr8  1  0.127565  0.979231  0.877773  1
  Pr  Pr9  1  0.520769  0.627565  0.127773  1
  Pr  Pr10  1  0.479231  0.372435  0.627773  1
  Pr  Pr11  1  0.627565  0.520769  0.872227  1
  Pr  Pr12  1  0.372435  0.479231  0.372227  1
  Pr  Pr13  1  0.872435  0.020769  0.377773  1
  Pr  Pr14  1  0.979231  0.127565  0.122227  1
  Pr  Pr15  1  0.020769  0.872435  0.622227  1
  Tm  Tm16  1  0.311518  0.311518  0.000000  1
  Tm  Tm17  1  0.188482  0.811518  0.250000  1
  Tm  Tm18  1  0.811518  0.188482  0.750000  1
  Tm  Tm19  1  0.688482  0.688482  0.500000  1
  Si  Si20  1  0.190232  0.170382  0.705733  1
  Si  Si21  1  0.329618  0.690232  0.955733  1
  Si  Si22  1  0.670382  0.309768  0.455733  1
  Si  Si23  1  0.690232  0.329618  0.044267  1
  Si  Si24  1  0.309768  0.670382  0.544267  1
  Si  Si25  1  0.809768  0.829618  0.205733  1
  Si  Si26  1  0.170382  0.190232  0.294267  1
  Si  Si27  1  0.829618  0.809768  0.794267  1
  Si  Si28  1  0.286985  0.922791  0.064022  1
  Si  Si29  1  0.577209  0.786985  0.314022  1
  Si  Si30  1  0.422791  0.213015  0.814022  1
  Si  Si31  1  0.786985  0.577209  0.685978  1
  Si  Si32  1  0.213015  0.422791  0.185978  1
  Si  Si33  1  0.713015  0.077209  0.564022  1
  Si  Si34  1  0.922791  0.286985  0.935978  1
  Si  Si35  1  0.077209  0.713015  0.435978  1
