# generated using pymatgen
data_Li2Ce4AlZnIr4
_symmetry_space_group_name_H-M   'P 1'
_cell_length_a   6.98434262
_cell_length_b   4.02784800
_cell_length_c   8.39820400
_cell_angle_alpha   90.00000000
_cell_angle_beta   89.48344914
_cell_angle_gamma   90.00000000
_symmetry_Int_Tables_number   1
_chemical_formula_structural   Li2Ce4AlZnIr4
_chemical_formula_sum   'Li2 Ce4 Al1 Zn1 Ir4'
_cell_volume   236.24758553
_cell_formula_units_Z   1
loop_
 _symmetry_equiv_pos_site_id
 _symmetry_equiv_pos_as_xyz
  1  'x, y, z'
loop_
 _atom_site_type_symbol
 _atom_site_label
 _atom_site_symmetry_multiplicity
 _atom_site_fract_x
 _atom_site_fract_y
 _atom_site_fract_z
 _atom_site_occupancy
  Li  Li0  1  0.127775  0.750000  0.444678  1
  Li  Li1  1  0.629648  0.750000  0.056486  1
  Ce  Ce2  1  0.954699  0.250000  0.187438  1
  Ce  Ce3  1  0.459612  0.250000  0.312992  1
  Ce  Ce4  1  0.038869  0.750000  0.811126  1
  Ce  Ce5  1  0.544071  0.750000  0.686318  1
  Al  Al6  1  0.372396  0.250000  0.945421  1
  Zn  Zn7  1  0.875754  0.250000  0.556224  1
  Ir  Ir8  1  0.748876  0.250000  0.869555  1
  Ir  Ir9  1  0.258708  0.250000  0.643622  1
  Ir  Ir10  1  0.247009  0.750000  0.115652  1
  Ir  Ir11  1  0.742584  0.750000  0.370488  1
