# generated using pymatgen
data_Lu8MgSi16W11
_symmetry_space_group_name_H-M   'P 1'
_cell_length_a   6.69641277
_cell_length_b   6.88269914
_cell_length_c   12.92903205
_cell_angle_alpha   89.82927062
_cell_angle_beta   89.92361824
_cell_angle_gamma   89.85602810
_symmetry_Int_Tables_number   1
_chemical_formula_structural   Lu8MgSi16W11
_chemical_formula_sum   'Lu8 Mg1 Si16 W11'
_cell_volume   595.88620725
_cell_formula_units_Z   1
loop_
 _symmetry_equiv_pos_site_id
 _symmetry_equiv_pos_as_xyz
  1  'x, y, z'
loop_
 _atom_site_type_symbol
 _atom_site_label
 _atom_site_symmetry_multiplicity
 _atom_site_fract_x
 _atom_site_fract_y
 _atom_site_fract_z
 _atom_site_occupancy
  Lu  Lu0  1  0.497864  0.667535  0.594207  1
  Lu  Lu1  1  0.995866  0.830268  0.906725  1
  Lu  Lu2  1  0.505389  0.330472  0.092636  1
  Lu  Lu3  1  0.002541  0.169385  0.406659  1
  Lu  Lu4  1  0.505912  0.330795  0.406415  1
  Lu  Lu5  1  0.004793  0.169319  0.093663  1
  Lu  Lu6  1  0.496514  0.670622  0.908147  1
  Lu  Lu7  1  0.999309  0.824886  0.595582  1
  Mg  Mg8  1  0.665845  0.165105  0.621491  1
  Si  Si9  1  0.660703  0.956772  0.449513  1
  Si  Si10  1  0.164896  0.541664  0.046238  1
  Si  Si11  1  0.333808  0.042934  0.957056  1
  Si  Si12  1  0.843864  0.461292  0.543204  1
  Si  Si13  1  0.324133  0.040207  0.541153  1
  Si  Si14  1  0.838032  0.457877  0.957338  1
  Si  Si15  1  0.664826  0.959913  0.044861  1
  Si  Si16  1  0.163687  0.541402  0.455163  1
  Si  Si17  1  0.464565  0.377111  0.751482  1
  Si  Si18  1  0.966318  0.125558  0.750973  1
  Si  Si19  1  0.532875  0.623959  0.249021  1
  Si  Si20  1  0.032354  0.872488  0.249045  1
  Si  Si21  1  0.701533  0.864967  0.749982  1
  Si  Si22  1  0.199362  0.637415  0.752265  1
  Si  Si23  1  0.301419  0.137364  0.250569  1
  Si  Si24  1  0.803452  0.362980  0.249315  1
  W  W25  1  0.170130  0.338873  0.876748  1
  W  W26  1  0.331156  0.838412  0.125017  1
  W  W27  1  0.830224  0.663456  0.372960  1
  W  W28  1  0.327063  0.835023  0.373576  1
  W  W29  1  0.829737  0.661493  0.123418  1
  W  W30  1  0.663375  0.169002  0.876916  1
  W  W31  1  0.176844  0.338423  0.625549  1
  W  W32  1  0.835403  0.495163  0.751748  1
  W  W33  1  0.335698  0.003265  0.752634  1
  W  W34  1  0.166804  0.496913  0.250092  1
  W  W35  1  0.663707  0.997689  0.248638  1
