# generated using pymatgen
data_Li8Ag3Pd2
_symmetry_space_group_name_H-M   'P 1'
_cell_length_a   8.14769474
_cell_length_b   8.14769583
_cell_length_c   8.14769500
_cell_angle_alpha   109.47122355
_cell_angle_beta   109.47122626
_cell_angle_gamma   109.47121230
_symmetry_Int_Tables_number   1
_chemical_formula_structural   Li8Ag3Pd2
_chemical_formula_sum   'Li16 Ag6 Pd4'
_cell_volume   416.37287398
_cell_formula_units_Z   2
loop_
 _symmetry_equiv_pos_site_id
 _symmetry_equiv_pos_as_xyz
  1  'x, y, z'
loop_
 _atom_site_type_symbol
 _atom_site_label
 _atom_site_symmetry_multiplicity
 _atom_site_fract_x
 _atom_site_fract_y
 _atom_site_fract_z
 _atom_site_occupancy
  Li  Li0  1  0.380648  0.654478  0.654478  1
  Li  Li1  1  0.619352  0.273830  0.273830  1
  Li  Li2  1  0.000000  0.345522  0.726170  1
  Li  Li3  1  0.654478  0.654478  0.380648  1
  Li  Li4  1  0.000000  0.726170  0.345522  1
  Li  Li5  1  0.273830  0.273830  0.619352  1
  Li  Li6  1  0.345522  0.726170  0.000000  1
  Li  Li7  1  0.726170  0.345522  0.000000  1
  Li  Li8  1  0.654478  0.380648  0.654478  1
  Li  Li9  1  0.726170  0.000000  0.345522  1
  Li  Li10  1  0.345522  0.000000  0.726170  1
  Li  Li11  1  0.273830  0.619352  0.273830  1
  Li  Li12  1  0.783119  0.783119  0.783119  1
  Li  Li13  1  0.216881  0.000000  0.000000  1
  Li  Li14  1  0.000000  0.216881  0.000000  1
  Li  Li15  1  0.000000  0.000000  0.216881  1
  Ag  Ag16  1  0.647800  0.647800  0.000000  1
  Ag  Ag17  1  0.352200  0.352200  0.000000  1
  Ag  Ag18  1  0.647800  0.000000  0.647800  1
  Ag  Ag19  1  0.352200  0.000000  0.352200  1
  Ag  Ag20  1  0.000000  0.647800  0.647800  1
  Ag  Ag21  1  0.000000  0.352200  0.352200  1
  Pd  Pd22  1  0.348201  0.348201  0.348201  1
  Pd  Pd23  1  0.651799  0.000000  0.000000  1
  Pd  Pd24  1  0.000000  0.651799  0.000000  1
  Pd  Pd25  1  0.000000  0.000000  0.651799  1
