# generated using pymatgen
data_MgTl3(SO4)6
_symmetry_space_group_name_H-M   'P 1'
_cell_length_a   8.64530980
_cell_length_b   8.64457697
_cell_length_c   9.33471302
_cell_angle_alpha   62.39810293
_cell_angle_beta   62.42953572
_cell_angle_gamma   60.04711700
_symmetry_Int_Tables_number   1
_chemical_formula_structural   MgTl3(SO4)6
_chemical_formula_sum   'Mg1 Tl3 S6 O24'
_cell_volume   510.73057320
_cell_formula_units_Z   1
loop_
 _symmetry_equiv_pos_site_id
 _symmetry_equiv_pos_as_xyz
  1  'x, y, z'
loop_
 _atom_site_type_symbol
 _atom_site_label
 _atom_site_symmetry_multiplicity
 _atom_site_fract_x
 _atom_site_fract_y
 _atom_site_fract_z
 _atom_site_occupancy
  Mg  Mg0  1  0.845764  0.846301  0.461447  1
  Tl  Tl1  1  0.648097  0.646183  0.059894  1
  Tl  Tl2  1  0.354196  0.354018  0.937311  1
  Tl  Tl3  1  0.153596  0.154020  0.539717  1
  S  S4  1  0.748045  0.458109  0.746850  1
  S  S5  1  0.046466  0.748087  0.747350  1
  S  S6  1  0.555576  0.955099  0.250729  1
  S  S7  1  0.955363  0.238703  0.250853  1
  S  S8  1  0.238398  0.556500  0.249837  1
  S  S9  1  0.458658  0.046158  0.746624  1
  O  O10  1  0.927820  0.681524  0.923974  1
  O  O11  1  0.469970  0.926221  0.922130  1
  O  O12  1  0.662381  0.973848  0.322044  1
  O  O13  1  0.359815  0.973074  0.365827  1
  O  O14  1  0.003677  0.950032  0.713541  1
  O  O15  1  0.723443  0.644048  0.620822  1
  O  O16  1  0.680108  0.469884  0.922302  1
  O  O17  1  0.648615  0.763045  0.231990  1
  O  O18  1  0.949791  0.332296  0.714675  1
  O  O19  1  0.246394  0.637107  0.744506  1
  O  O20  1  0.637345  0.370869  0.745034  1
  O  O21  1  0.008528  0.722521  0.623604  1
  O  O22  1  0.973223  0.302868  0.364971  1
  O  O23  1  0.356938  0.649922  0.229132  1
  O  O24  1  0.763693  0.356061  0.230902  1
  O  O25  1  0.042178  0.663473  0.322038  1
  O  O26  1  0.370872  0.245555  0.745385  1
  O  O27  1  0.265426  0.553313  0.080863  1
  O  O28  1  0.301718  0.361078  0.365435  1
  O  O29  1  0.973393  0.041968  0.323859  1
  O  O30  1  0.644689  0.011153  0.620968  1
  O  O31  1  0.333213  0.002364  0.713792  1
  O  O32  1  0.553302  0.098439  0.080626  1
  O  O33  1  0.099307  0.266156  0.080969  1
