# generated using pymatgen
data_Dy10TlBi5S2
_symmetry_space_group_name_H-M   'P 1'
_cell_length_a   9.15071100
_cell_length_b   9.17198646
_cell_length_c   6.60663800
_cell_angle_alpha   90.00000000
_cell_angle_beta   90.00000000
_cell_angle_gamma   120.07694986
_symmetry_Int_Tables_number   1
_chemical_formula_structural   Dy10TlBi5S2
_chemical_formula_sum   'Dy10 Tl1 Bi5 S2'
_cell_volume   479.83521094
_cell_formula_units_Z   1
loop_
 _symmetry_equiv_pos_site_id
 _symmetry_equiv_pos_as_xyz
  1  'x, y, z'
loop_
 _atom_site_type_symbol
 _atom_site_label
 _atom_site_symmetry_multiplicity
 _atom_site_fract_x
 _atom_site_fract_y
 _atom_site_fract_z
 _atom_site_occupancy
  Dy  Dy0  1  0.755323  0.755357  0.750000  1
  Dy  Dy1  1  0.244677  0.000035  0.750000  1
  Dy  Dy2  1  0.000000  0.244199  0.750000  1
  Dy  Dy3  1  0.241862  0.246739  0.250000  1
  Dy  Dy4  1  0.758138  0.004877  0.250000  1
  Dy  Dy5  1  0.000000  0.753064  0.250000  1
  Dy  Dy6  1  0.670080  0.334487  0.001424  1
  Dy  Dy7  1  0.329920  0.664408  0.001424  1
  Dy  Dy8  1  0.329920  0.664408  0.498576  1
  Dy  Dy9  1  0.670080  0.334487  0.498576  1
  Tl  Tl10  1  0.000000  0.397310  0.250000  1
  Bi  Bi11  1  0.395780  0.395654  0.750000  1
  Bi  Bi12  1  0.604220  0.999873  0.750000  1
  Bi  Bi13  1  0.000000  0.602270  0.750000  1
  Bi  Bi14  1  0.604519  0.605011  0.250000  1
  Bi  Bi15  1  0.395481  0.000492  0.250000  1
  S  S16  1  0.000000  0.998665  0.999421  1
  S  S17  1  0.000000  0.998665  0.500579  1
