# generated using pymatgen
data_Tb5CoP12(Ru7Pt2)2
_symmetry_space_group_name_H-M   'P 1'
_cell_length_a   12.58495918
_cell_length_b   12.68818973
_cell_length_c   3.95693000
_cell_angle_alpha   90.00000000
_cell_angle_beta   90.00000000
_cell_angle_gamma   120.22697163
_symmetry_Int_Tables_number   1
_chemical_formula_structural   Tb5CoP12(Ru7Pt2)2
_chemical_formula_sum   'Tb5 Co1 P12 Ru14 Pt4'
_cell_volume   545.93714200
_cell_formula_units_Z   1
loop_
 _symmetry_equiv_pos_site_id
 _symmetry_equiv_pos_as_xyz
  1  'x, y, z'
loop_
 _atom_site_type_symbol
 _atom_site_label
 _atom_site_symmetry_multiplicity
 _atom_site_fract_x
 _atom_site_fract_y
 _atom_site_fract_z
 _atom_site_occupancy
  Tb  Tb0  1  0.332112  0.666977  0.000000  1
  Tb  Tb1  1  0.667629  0.330097  0.000000  1
  Tb  Tb2  1  0.183294  0.001027  0.500000  1
  Tb  Tb3  1  0.999823  0.185005  0.500000  1
  Tb  Tb4  1  0.817725  0.817922  0.500000  1
  Co  Co5  1  0.000184  0.999888  0.000000  1
  P  P6  1  0.370316  0.011062  0.000000  1
  P  P7  1  0.989039  0.359864  0.000000  1
  P  P8  1  0.641480  0.639226  0.000000  1
  P  P9  1  0.304286  0.471207  0.500000  1
  P  P10  1  0.529162  0.835065  0.500000  1
  P  P11  1  0.165555  0.696476  0.500000  1
  P  P12  1  0.839404  0.521989  0.500000  1
  P  P13  1  0.691685  0.167961  0.500000  1
  P  P14  1  0.472985  0.298578  0.500000  1
  P  P15  1  0.825923  0.000725  0.000000  1
  P  P16  1  0.999395  0.825373  0.000000  1
  P  P17  1  0.174212  0.176206  0.000000  1
  Ru  Ru18  1  0.192104  0.378730  0.000000  1
  Ru  Ru19  1  0.621968  0.815507  0.000000  1
  Ru  Ru20  1  0.185057  0.810018  0.000000  1
  Ru  Ru21  1  0.817391  0.621436  0.000000  1
  Ru  Ru22  1  0.802339  0.177756  0.000000  1
  Ru  Ru23  1  0.376141  0.198270  0.000000  1
  Ru  Ru24  1  0.548412  0.995266  0.000000  1
  Ru  Ru25  1  0.002335  0.552661  0.000000  1
  Ru  Ru26  1  0.452257  0.454632  0.000000  1
  Ru  Ru27  1  0.873050  0.361560  0.500000  1
  Ru  Ru28  1  0.489333  0.124066  0.500000  1
  Ru  Ru29  1  0.719161  0.999135  0.500000  1
  Ru  Ru30  1  0.999151  0.719720  0.500000  1
  Ru  Ru31  1  0.281169  0.283254  0.500000  1
  Pt  Pt32  1  0.131174  0.498854  0.500000  1
  Pt  Pt33  1  0.503906  0.635068  0.500000  1
  Pt  Pt34  1  0.365572  0.868667  0.500000  1
  Pt  Pt35  1  0.635272  0.500751  0.500000  1
