# generated using pymatgen
data_Hf16Ir7PdO4
_symmetry_space_group_name_H-M   'P 1'
_cell_length_a   8.76506702
_cell_length_b   8.75569620
_cell_length_c   8.75569600
_cell_angle_alpha   60.00000077
_cell_angle_beta   60.03536034
_cell_angle_gamma   60.03535509
_symmetry_Int_Tables_number   1
_chemical_formula_structural   Hf16Ir7PdO4
_chemical_formula_sum   'Hf16 Ir7 Pd1 O4'
_cell_volume   475.39378424
_cell_formula_units_Z   1
loop_
 _symmetry_equiv_pos_site_id
 _symmetry_equiv_pos_as_xyz
  1  'x, y, z'
loop_
 _atom_site_type_symbol
 _atom_site_label
 _atom_site_symmetry_multiplicity
 _atom_site_fract_x
 _atom_site_fract_y
 _atom_site_fract_z
 _atom_site_occupancy
  Hf  Hf0  1  0.126791  0.624403  0.624403  1
  Hf  Hf1  1  0.624213  0.123815  0.625986  1
  Hf  Hf2  1  0.624213  0.625986  0.123815  1
  Hf  Hf3  1  0.624213  0.625986  0.625986  1
  Hf  Hf4  1  0.816375  0.816437  0.183594  1
  Hf  Hf5  1  0.185861  0.184784  0.814677  1
  Hf  Hf6  1  0.816375  0.183594  0.816437  1
  Hf  Hf7  1  0.185861  0.814677  0.184784  1
  Hf  Hf8  1  0.185861  0.814677  0.814677  1
  Hf  Hf9  1  0.816375  0.183594  0.183594  1
  Hf  Hf10  1  0.435792  0.435523  0.064342  1
  Hf  Hf11  1  0.067080  0.060824  0.436048  1
  Hf  Hf12  1  0.435792  0.064342  0.435523  1
  Hf  Hf13  1  0.067080  0.436048  0.060824  1
  Hf  Hf14  1  0.067080  0.436048  0.436048  1
  Hf  Hf15  1  0.435792  0.064342  0.064342  1
  Ir  Ir16  1  0.403052  0.786997  0.404975  1
  Ir  Ir17  1  0.403052  0.404975  0.786997  1
  Ir  Ir18  1  0.403052  0.404975  0.404975  1
  Ir  Ir19  1  0.466856  0.844381  0.844381  1
  Ir  Ir20  1  0.844829  0.466336  0.844417  1
  Ir  Ir21  1  0.844829  0.844417  0.466336  1
  Ir  Ir22  1  0.844829  0.844417  0.844417  1
  Pd  Pd23  1  0.777832  0.407389  0.407389  1
  O  O24  1  0.623325  0.125558  0.125558  1
  O  O25  1  0.124529  0.625059  0.125206  1
  O  O26  1  0.124529  0.125206  0.625059  1
  O  O27  1  0.124529  0.125206  0.125206  1
