# generated using pymatgen
data_Li4ScAuO6
_symmetry_space_group_name_H-M   'P 1'
_cell_length_a   5.26422568
_cell_length_b   5.26425596
_cell_length_c   5.24628247
_cell_angle_alpha   99.52687194
_cell_angle_beta   99.52837136
_cell_angle_gamma   120.03883798
_symmetry_Int_Tables_number   1
_chemical_formula_structural   Li4ScAuO6
_chemical_formula_sum   'Li4 Sc1 Au1 O6'
_cell_volume   118.75363959
_cell_formula_units_Z   1
loop_
 _symmetry_equiv_pos_site_id
 _symmetry_equiv_pos_as_xyz
  1  'x, y, z'
loop_
 _atom_site_type_symbol
 _atom_site_label
 _atom_site_symmetry_multiplicity
 _atom_site_fract_x
 _atom_site_fract_y
 _atom_site_fract_z
 _atom_site_occupancy
  Li  Li0  1  0.499641  0.500356  0.999983  1
  Li  Li1  1  0.019286  0.980716  0.499997  1
  Li  Li2  1  0.654149  0.345852  0.499999  1
  Li  Li3  1  0.330352  0.669662  0.499997  1
  Sc  Sc4  1  0.833693  0.166331  0.000047  1
  Au  Au5  1  0.166356  0.833588  0.999953  1
  O  O6  1  0.928758  0.588066  0.236304  1
  O  O7  1  0.566731  0.920414  0.239186  1
  O  O8  1  0.237624  0.228111  0.242232  1
  O  O9  1  0.771879  0.762373  0.757772  1
  O  O10  1  0.079602  0.433290  0.760832  1
  O  O11  1  0.411934  0.071246  0.763701  1
