# generated using pymatgen
data_Rb8HfZr5BI20
_symmetry_space_group_name_H-M   'P 1'
_cell_length_a   12.93885750
_cell_length_b   12.93885717
_cell_length_c   12.93539500
_cell_angle_alpha   60.00884850
_cell_angle_beta   60.00884933
_cell_angle_gamma   59.98229857
_symmetry_Int_Tables_number   1
_chemical_formula_structural   Rb8HfZr5BI20
_chemical_formula_sum   'Rb8 Hf1 Zr5 B1 I20'
_cell_volume   1531.28656316
_cell_formula_units_Z   1
loop_
 _symmetry_equiv_pos_site_id
 _symmetry_equiv_pos_as_xyz
  1  'x, y, z'
loop_
 _atom_site_type_symbol
 _atom_site_label
 _atom_site_symmetry_multiplicity
 _atom_site_fract_x
 _atom_site_fract_y
 _atom_site_fract_z
 _atom_site_occupancy
  Rb  Rb0  1  0.361663  0.361663  0.361658  1
  Rb  Rb1  1  0.638287  0.638287  0.638557  1
  Rb  Rb2  1  0.361663  0.361663  0.915016  1
  Rb  Rb3  1  0.361443  0.915133  0.361713  1
  Rb  Rb4  1  0.638287  0.638287  0.084867  1
  Rb  Rb5  1  0.638342  0.084984  0.638337  1
  Rb  Rb6  1  0.915133  0.361443  0.361713  1
  Rb  Rb7  1  0.084984  0.638342  0.638337  1
  Hf  Hf8  1  0.871364  0.871364  0.128636  1
  Zr  Zr9  1  0.870898  0.129598  0.129102  1
  Zr  Zr10  1  0.129598  0.870898  0.870402  1
  Zr  Zr11  1  0.129598  0.870898  0.129102  1
  Zr  Zr12  1  0.870898  0.129598  0.870402  1
  Zr  Zr13  1  0.128903  0.128903  0.871097  1
  B  B14  1  0.998584  0.998584  0.001416  1
  I  I15  1  0.315952  0.000014  0.999986  1
  I  I16  1  0.685538  0.998412  0.001588  1
  I  I17  1  0.000014  0.315952  0.684048  1
  I  I18  1  0.998412  0.685538  0.314462  1
  I  I19  1  0.000014  0.315952  0.999986  1
  I  I20  1  0.685538  0.998412  0.314462  1
  I  I21  1  0.998412  0.685538  0.001588  1
  I  I22  1  0.315952  0.000014  0.684048  1
  I  I23  1  0.000002  0.000002  0.316015  1
  I  I24  1  0.000002  0.000002  0.683981  1
  I  I25  1  0.683985  0.316019  0.999998  1
  I  I26  1  0.316019  0.683985  0.999998  1
  I  I27  1  0.691947  0.307865  0.308053  1
  I  I28  1  0.307865  0.691947  0.692135  1
  I  I29  1  0.307865  0.691947  0.308053  1
  I  I30  1  0.691947  0.307865  0.692135  1
  I  I31  1  0.307981  0.307981  0.692019  1
  I  I32  1  0.692849  0.692849  0.307151  1
  I  I33  1  0.250031  0.250031  0.249969  1
  I  I34  1  0.750031  0.750031  0.749969  1
