# generated using pymatgen
data_Ti3Nb7(ZnSn3)2
_symmetry_space_group_name_H-M   'P 1'
_cell_length_a   8.30059100
_cell_length_b   8.30059053
_cell_length_c   5.63890900
_cell_angle_alpha   90.00000000
_cell_angle_beta   90.00000000
_cell_angle_gamma   119.99998990
_symmetry_Int_Tables_number   1
_chemical_formula_structural   Ti3Nb7(ZnSn3)2
_chemical_formula_sum   'Ti3 Nb7 Zn2 Sn6'
_cell_volume   336.46800088
_cell_formula_units_Z   1
loop_
 _symmetry_equiv_pos_site_id
 _symmetry_equiv_pos_as_xyz
  1  'x, y, z'
loop_
 _atom_site_type_symbol
 _atom_site_label
 _atom_site_symmetry_multiplicity
 _atom_site_fract_x
 _atom_site_fract_y
 _atom_site_fract_z
 _atom_site_occupancy
  Ti  Ti0  1  0.272823  0.272823  0.250000  1
  Ti  Ti1  1  0.727177  0.000000  0.250000  1
  Ti  Ti2  1  0.000000  0.727177  0.250000  1
  Nb  Nb3  1  0.666667  0.333333  0.000787  1
  Nb  Nb4  1  0.333333  0.666667  0.000787  1
  Nb  Nb5  1  0.333333  0.666667  0.499213  1
  Nb  Nb6  1  0.666667  0.333333  0.499213  1
  Nb  Nb7  1  0.728346  0.728346  0.750000  1
  Nb  Nb8  1  0.271654  0.000000  0.750000  1
  Nb  Nb9  1  0.000000  0.271654  0.750000  1
  Zn  Zn10  1  0.000000  0.000000  0.008838  1
  Zn  Zn11  1  0.000000  0.000000  0.491162  1
  Sn  Sn12  1  0.383703  0.383703  0.750000  1
  Sn  Sn13  1  0.616297  0.000000  0.750000  1
  Sn  Sn14  1  0.000000  0.616297  0.750000  1
  Sn  Sn15  1  0.617629  0.617629  0.250000  1
  Sn  Sn16  1  0.382371  0.000000  0.250000  1
  Sn  Sn17  1  0.000000  0.382371  0.250000  1
