# generated using pymatgen
data_NaSr2CrCo5P6
_symmetry_space_group_name_H-M   'P 1'
_cell_length_a   8.31913927
_cell_length_b   8.30535125
_cell_length_c   6.40149039
_cell_angle_alpha   68.14129781
_cell_angle_beta   68.11247616
_cell_angle_gamma   37.20131964
_symmetry_Int_Tables_number   1
_chemical_formula_structural   NaSr2CrCo5P6
_chemical_formula_sum   'Na1 Sr2 Cr1 Co5 P6'
_cell_volume   245.89558990
_cell_formula_units_Z   1
loop_
 _symmetry_equiv_pos_site_id
 _symmetry_equiv_pos_as_xyz
  1  'x, y, z'
loop_
 _atom_site_type_symbol
 _atom_site_label
 _atom_site_symmetry_multiplicity
 _atom_site_fract_x
 _atom_site_fract_y
 _atom_site_fract_z
 _atom_site_occupancy
  Na  Na0  1  0.999907  0.000745  0.001316  1
  Sr  Sr1  1  0.660029  0.662583  0.673656  1
  Sr  Sr2  1  0.342771  0.333839  0.325132  1
  Cr  Cr3  1  0.082217  0.584836  0.833835  1
  Co  Co4  1  0.415242  0.917348  0.166083  1
  Co  Co5  1  0.752474  0.248658  0.500436  1
  Co  Co6  1  0.250432  0.752576  0.497604  1
  Co  Co7  1  0.583159  0.082609  0.832082  1
  Co  Co8  1  0.915562  0.414991  0.169595  1
  P  P9  1  0.882005  0.882074  0.530240  1
  P  P10  1  0.215973  0.216319  0.861682  1
  P  P11  1  0.551444  0.549349  0.203528  1
  P  P12  1  0.450148  0.450523  0.802865  1
  P  P13  1  0.781625  0.786519  0.136196  1
  P  P14  1  0.117012  0.117031  0.465752  1
