# generated using pymatgen
data_Pu2SnRh5
_symmetry_space_group_name_H-M   'P 1'
_cell_length_a   4.20113000
_cell_length_b   5.84129300
_cell_length_c   11.33709600
_cell_angle_alpha   90.00000000
_cell_angle_beta   90.00000000
_cell_angle_gamma   90.00000000
_symmetry_Int_Tables_number   1
_chemical_formula_structural   Pu2SnRh5
_chemical_formula_sum   'Pu4 Sn2 Rh10'
_cell_volume   278.21269025
_cell_formula_units_Z   2
loop_
 _symmetry_equiv_pos_site_id
 _symmetry_equiv_pos_as_xyz
  1  'x, y, z'
loop_
 _atom_site_type_symbol
 _atom_site_label
 _atom_site_symmetry_multiplicity
 _atom_site_fract_x
 _atom_site_fract_y
 _atom_site_fract_z
 _atom_site_occupancy
  Pu  Pu0  1  0.500000  0.179141  0.640928  1
  Pu  Pu1  1  0.500000  0.820859  0.359072  1
  Pu  Pu2  1  0.500000  0.679141  0.859072  1
  Pu  Pu3  1  0.500000  0.320859  0.140928  1
  Sn  Sn4  1  0.000000  0.500000  0.500000  1
  Sn  Sn5  1  0.000000  0.000000  0.000000  1
  Rh  Rh6  1  0.500000  0.204519  0.886202  1
  Rh  Rh7  1  0.500000  0.795481  0.113798  1
  Rh  Rh8  1  0.500000  0.704519  0.613798  1
  Rh  Rh9  1  0.500000  0.295481  0.386202  1
  Rh  Rh10  1  0.000000  0.425605  0.743183  1
  Rh  Rh11  1  0.000000  0.574395  0.256817  1
  Rh  Rh12  1  0.000000  0.000000  0.500000  1
  Rh  Rh13  1  0.000000  0.500000  0.000000  1
  Rh  Rh14  1  0.000000  0.074395  0.243183  1
  Rh  Rh15  1  0.000000  0.925605  0.756817  1
