# generated using pymatgen
data_V4B2PW
_symmetry_space_group_name_H-M   'P 1'
_cell_length_a   6.73458552
_cell_length_b   6.76310016
_cell_length_c   6.76310101
_cell_angle_alpha   129.32825383
_cell_angle_beta   129.21867858
_cell_angle_gamma   74.66313811
_symmetry_Int_Tables_number   1
_chemical_formula_structural   V4B2PW
_chemical_formula_sum   'V8 B4 P2 W2'
_cell_volume   179.76838246
_cell_formula_units_Z   2
loop_
 _symmetry_equiv_pos_site_id
 _symmetry_equiv_pos_as_xyz
  1  'x, y, z'
loop_
 _atom_site_type_symbol
 _atom_site_label
 _atom_site_symmetry_multiplicity
 _atom_site_fract_x
 _atom_site_fract_y
 _atom_site_fract_z
 _atom_site_occupancy
  V  V0  1  0.689916  0.189732  0.157721  1
  V  V1  1  0.972377  0.470239  0.164325  1
  V  V2  1  0.189916  0.032195  0.500184  1
  V  V3  1  0.472377  0.308051  0.502138  1
  V  V4  1  0.808643  0.972517  0.502343  1
  V  V5  1  0.308643  0.806299  0.836126  1
  V  V6  1  0.002917  0.005425  0.002661  1
  V  V7  1  0.502917  0.500257  0.997492  1
  B  B8  1  0.616775  0.120052  0.734164  1
  B  B9  1  0.116775  0.382610  0.496722  1
  B  B10  1  0.884121  0.617299  0.496660  1
  B  B11  1  0.384121  0.887462  0.266823  1
  P  P12  1  0.249099  0.236727  0.994861  1
  P  P13  1  0.749099  0.754238  0.012371  1
  W  W14  1  0.526152  0.690953  0.500208  1
  W  W15  1  0.026152  0.525943  0.835198  1
