# generated using pymatgen
data_Lu4Zr2VO12
_symmetry_space_group_name_H-M   'P 1'
_cell_length_a   6.19575393
_cell_length_b   6.29865922
_cell_length_c   6.28888190
_cell_angle_alpha   99.34088282
_cell_angle_beta   98.51039314
_cell_angle_gamma   99.51894042
_symmetry_Int_Tables_number   1
_chemical_formula_structural   Lu4Zr2VO12
_chemical_formula_sum   'Lu4 Zr2 V1 O12'
_cell_volume   234.94871278
_cell_formula_units_Z   1
loop_
 _symmetry_equiv_pos_site_id
 _symmetry_equiv_pos_as_xyz
  1  'x, y, z'
loop_
 _atom_site_type_symbol
 _atom_site_label
 _atom_site_symmetry_multiplicity
 _atom_site_fract_x
 _atom_site_fract_y
 _atom_site_fract_z
 _atom_site_occupancy
  Lu  Lu0  1  0.388740  0.697989  0.861285  1
  Lu  Lu1  1  0.699517  0.865079  0.389960  1
  Lu  Lu2  1  0.611260  0.302011  0.138715  1
  Lu  Lu3  1  0.300483  0.134921  0.610040  1
  Zr  Zr4  1  0.857611  0.389645  0.691486  1
  Zr  Zr5  1  0.142389  0.610355  0.308514  1
  V  V6  1  0.000000  0.000000  0.000000  1
  O  O7  1  0.035952  0.684944  0.915317  1
  O  O8  1  0.699196  0.931969  0.044302  1
  O  O9  1  0.925207  0.066983  0.694689  1
  O  O10  1  0.964048  0.315056  0.084683  1
  O  O11  1  0.300804  0.068031  0.955698  1
  O  O12  1  0.074793  0.933017  0.305311  1
  O  O13  1  0.591965  0.182127  0.436078  1
  O  O14  1  0.175105  0.430284  0.575459  1
  O  O15  1  0.425478  0.584180  0.178002  1
  O  O16  1  0.408035  0.817873  0.563922  1
  O  O17  1  0.824895  0.569716  0.424541  1
  O  O18  1  0.574522  0.415820  0.821998  1
