# generated using pymatgen
data_Ta3Tc(PO4)6
_symmetry_space_group_name_H-M   'P 1'
_cell_length_a   8.75452495
_cell_length_b   9.02293277
_cell_length_c   8.76105498
_cell_angle_alpha   89.95475681
_cell_angle_beta   60.02637733
_cell_angle_gamma   118.97287523
_symmetry_Int_Tables_number   1
_chemical_formula_structural   Ta3Tc(PO4)6
_chemical_formula_sum   'Ta3 Tc1 P6 O24'
_cell_volume   496.82006641
_cell_formula_units_Z   1
loop_
 _symmetry_equiv_pos_site_id
 _symmetry_equiv_pos_as_xyz
  1  'x, y, z'
loop_
 _atom_site_type_symbol
 _atom_site_label
 _atom_site_symmetry_multiplicity
 _atom_site_fract_x
 _atom_site_fract_y
 _atom_site_fract_z
 _atom_site_occupancy
  Ta  Ta0  1  0.284181  0.926037  0.357729  1
  Ta  Ta1  1  0.283407  0.424979  0.858221  1
  Ta  Ta2  1  0.713843  0.570877  0.142946  1
  Tc  Tc3  1  0.712814  0.069231  0.643480  1
  P  P4  1  0.783366  0.753194  0.749968  1
  P  P5  1  0.498510  0.247069  0.535448  1
  P  P6  1  0.503815  0.753432  0.466446  1
  P  P7  1  0.213144  0.247511  0.251296  1
  P  P8  1  0.782759  0.247175  0.965804  1
  P  P9  1  0.219833  0.753321  0.029903  1
  O  O10  1  0.660623  0.918726  0.477742  1
  O  O11  1  0.004323  0.715816  0.080907  1
  O  O12  1  0.220904  0.584195  0.001180  1
  O  O13  1  0.225912  0.779297  0.203061  1
  O  O14  1  0.986338  0.274859  0.937565  1
  O  O15  1  0.784358  0.414859  0.007027  1
  O  O16  1  0.782560  0.231853  0.795191  1
  O  O17  1  0.796826  0.716213  0.914627  1
  O  O18  1  0.982753  0.779449  0.570908  1
  O  O19  1  0.654120  0.231363  0.550592  1
  O  O20  1  0.779751  0.918491  0.741425  1
  O  O21  1  0.585603  0.583982  0.778070  1
  O  O22  1  0.588865  0.082901  0.143593  1
  O  O23  1  0.623452  0.414757  0.369573  1
  O  O24  1  0.212306  0.274810  0.076234  1
  O  O25  1  0.351319  0.274776  0.711416  1
  O  O26  1  0.630725  0.715771  0.288633  1
  O  O27  1  0.350657  0.082659  0.505905  1
  O  O28  1  0.396797  0.918710  0.861485  1
  O  O29  1  0.362476  0.584039  0.636315  1
  O  O30  1  0.226469  0.083094  0.267952  1
  O  O31  1  0.421872  0.415217  0.208245  1
  O  O32  1  0.350303  0.779189  0.446415  1
  O  O33  1  0.027150  0.232152  0.422571  1
