# generated using pymatgen
data_Nb6Zn5CuN
_symmetry_space_group_name_H-M   'P 1'
_cell_length_a   8.17594879
_cell_length_b   8.17409573
_cell_length_c   8.17409529
_cell_angle_alpha   59.97019272
_cell_angle_beta   59.99249587
_cell_angle_gamma   59.99249944
_symmetry_Int_Tables_number   1
_chemical_formula_structural   Nb6Zn5CuN
_chemical_formula_sum   'Nb12 Zn10 Cu2 N2'
_cell_volume   386.14944662
_cell_formula_units_Z   2
loop_
 _symmetry_equiv_pos_site_id
 _symmetry_equiv_pos_as_xyz
  1  'x, y, z'
loop_
 _atom_site_type_symbol
 _atom_site_label
 _atom_site_symmetry_multiplicity
 _atom_site_fract_x
 _atom_site_fract_y
 _atom_site_fract_z
 _atom_site_occupancy
  Nb  Nb0  1  0.189090  0.810949  0.188924  1
  Nb  Nb1  1  0.438962  0.061076  0.439051  1
  Nb  Nb2  1  0.439224  0.062200  0.059352  1
  Nb  Nb3  1  0.440507  0.439492  0.058653  1
  Nb  Nb4  1  0.189780  0.809498  0.810942  1
  Nb  Nb5  1  0.061348  0.439492  0.058653  1
  Nb  Nb6  1  0.811038  0.810949  0.188924  1
  Nb  Nb7  1  0.060220  0.439058  0.440502  1
  Nb  Nb8  1  0.188652  0.191347  0.810508  1
  Nb  Nb9  1  0.810776  0.190648  0.187800  1
  Nb  Nb10  1  0.809493  0.191347  0.810508  1
  Nb  Nb11  1  0.060910  0.061076  0.439051  1
  Zn  Zn12  1  0.747003  0.417345  0.418541  1
  Zn  Zn13  1  0.417111  0.417345  0.418541  1
  Zn  Zn14  1  0.832803  0.831404  0.502990  1
  Zn  Zn15  1  0.417197  0.747010  0.418596  1
  Zn  Zn16  1  0.832889  0.831459  0.832655  1
  Zn  Zn17  1  0.502997  0.831459  0.832655  1
  Zn  Zn18  1  0.623673  0.126147  0.626508  1
  Zn  Zn19  1  0.626327  0.623492  0.123853  1
  Zn  Zn20  1  0.125000  0.622389  0.627611  1
  Zn  Zn21  1  0.625000  0.622389  0.627611  1
  Cu  Cu22  1  0.832355  0.503058  0.832231  1
  Cu  Cu23  1  0.417645  0.417769  0.746942  1
  N  N24  1  0.000193  0.000607  0.999007  1
  N  N25  1  0.249807  0.250993  0.249393  1
