# generated using pymatgen
data_Ba8As4SeS
_symmetry_space_group_name_H-M   'P 1'
_cell_length_a   8.68682750
_cell_length_b   8.68682723
_cell_length_c   8.68682680
_cell_angle_alpha   109.42154256
_cell_angle_beta   109.42153389
_cell_angle_gamma   109.57062792
_symmetry_Int_Tables_number   1
_chemical_formula_structural   Ba8As4SeS
_chemical_formula_sum   'Ba8 As4 Se1 S1'
_cell_volume   504.61562082
_cell_formula_units_Z   1
loop_
 _symmetry_equiv_pos_site_id
 _symmetry_equiv_pos_as_xyz
  1  'x, y, z'
loop_
 _atom_site_type_symbol
 _atom_site_label
 _atom_site_symmetry_multiplicity
 _atom_site_fract_x
 _atom_site_fract_y
 _atom_site_fract_z
 _atom_site_occupancy
  Ba  Ba0  1  0.369626  0.370129  0.364155  1
  Ba  Ba1  1  0.129245  0.501334  0.004890  1
  Ba  Ba2  1  0.996444  0.124355  0.495110  1
  Ba  Ba3  1  0.875645  0.870755  0.872089  1
  Ba  Ba4  1  0.505974  0.005472  0.135845  1
  Ba  Ba5  1  0.629871  0.494026  0.999497  1
  Ba  Ba6  1  0.498666  0.003556  0.627911  1
  Ba  Ba7  1  0.994528  0.630374  0.500503  1
  As  As8  1  0.877141  0.249693  0.128009  1
  As  As9  1  0.621684  0.749132  0.371991  1
  As  As10  1  0.250868  0.122859  0.872552  1
  As  As11  1  0.750307  0.378316  0.627448  1
  Se  Se12  1  0.375000  0.625000  0.750000  1
  S  S13  1  0.125000  0.875000  0.250000  1
