# generated using pymatgen
data_Lu3Zn3NiPd2
_symmetry_space_group_name_H-M   'P 1'
_cell_length_a   7.10581600
_cell_length_b   7.10581622
_cell_length_c   3.78070900
_cell_angle_alpha   90.00000000
_cell_angle_beta   90.00000000
_cell_angle_gamma   119.99998967
_symmetry_Int_Tables_number   1
_chemical_formula_structural   Lu3Zn3NiPd2
_chemical_formula_sum   'Lu3 Zn3 Ni1 Pd2'
_cell_volume   165.32245905
_cell_formula_units_Z   1
loop_
 _symmetry_equiv_pos_site_id
 _symmetry_equiv_pos_as_xyz
  1  'x, y, z'
loop_
 _atom_site_type_symbol
 _atom_site_label
 _atom_site_symmetry_multiplicity
 _atom_site_fract_x
 _atom_site_fract_y
 _atom_site_fract_z
 _atom_site_occupancy
  Lu  Lu0  1  0.599510  0.599510  0.000000  1
  Lu  Lu1  1  0.400490  0.000000  0.000000  1
  Lu  Lu2  1  0.000000  0.400490  0.000000  1
  Zn  Zn3  1  0.239813  0.239813  0.500000  1
  Zn  Zn4  1  0.760187  0.000000  0.500000  1
  Zn  Zn5  1  0.000000  0.760187  0.500000  1
  Ni  Ni6  1  0.000000  0.000000  0.000000  1
  Pd  Pd7  1  0.666667  0.333333  0.500000  1
  Pd  Pd8  1  0.333333  0.666667  0.500000  1
