# generated using pymatgen
data_Ca12Nd7YSn16
_symmetry_space_group_name_H-M   'P 1'
_cell_length_a   7.98741768
_cell_length_b   8.52364871
_cell_length_c   16.14823900
_cell_angle_alpha   89.85815940
_cell_angle_beta   90.09796518
_cell_angle_gamma   89.86544005
_symmetry_Int_Tables_number   1
_chemical_formula_structural   Ca12Nd7YSn16
_chemical_formula_sum   'Ca12 Nd7 Y1 Sn16'
_cell_volume   1099.39545815
_cell_formula_units_Z   1
loop_
 _symmetry_equiv_pos_site_id
 _symmetry_equiv_pos_as_xyz
  1  'x, y, z'
loop_
 _atom_site_type_symbol
 _atom_site_label
 _atom_site_symmetry_multiplicity
 _atom_site_fract_x
 _atom_site_fract_y
 _atom_site_fract_z
 _atom_site_occupancy
  Ca  Ca0  1  0.991596  0.185571  0.407575  1
  Ca  Ca1  1  0.326154  0.827943  0.122307  1
  Ca  Ca2  1  0.173508  0.331583  0.623704  1
  Ca  Ca3  1  0.507087  0.683405  0.905476  1
  Ca  Ca4  1  0.828023  0.670634  0.122511  1
  Ca  Ca5  1  0.172575  0.331145  0.876169  1
  Ca  Ca6  1  0.155827  0.496255  0.249405  1
  Ca  Ca7  1  0.657955  0.001986  0.249021  1
  Ca  Ca8  1  0.509265  0.685471  0.595345  1
  Ca  Ca9  1  0.344407  0.996618  0.748952  1
  Ca  Ca10  1  0.674389  0.171206  0.622181  1
  Ca  Ca11  1  0.840763  0.502930  0.748982  1
  Nd  Nd12  1  0.988322  0.185735  0.093466  1
  Nd  Nd13  1  0.012708  0.810931  0.903156  1
  Nd  Nd14  1  0.669810  0.171405  0.875275  1
  Nd  Nd15  1  0.486715  0.313409  0.096536  1
  Nd  Nd16  1  0.329393  0.826436  0.376426  1
  Nd  Nd17  1  0.013045  0.812244  0.597538  1
  Nd  Nd18  1  0.491487  0.312663  0.404443  1
  Y  Y19  1  0.828221  0.671361  0.377724  1
  Sn  Sn20  1  0.831278  0.472466  0.538736  1
  Sn  Sn21  1  0.671018  0.967220  0.457262  1
  Sn  Sn22  1  0.719582  0.862075  0.750923  1
  Sn  Sn23  1  0.165397  0.536998  0.459522  1
  Sn  Sn24  1  0.329797  0.038005  0.961842  1
  Sn  Sn25  1  0.783094  0.360908  0.251711  1
  Sn  Sn26  1  0.832010  0.464237  0.961168  1
  Sn  Sn27  1  0.529241  0.604366  0.251985  1
  Sn  Sn28  1  0.166121  0.531570  0.040570  1
  Sn  Sn29  1  0.471747  0.394701  0.750626  1
  Sn  Sn30  1  0.215058  0.639321  0.750156  1
  Sn  Sn31  1  0.974690  0.103198  0.750550  1
  Sn  Sn32  1  0.332371  0.036908  0.537325  1
  Sn  Sn33  1  0.668862  0.969407  0.040927  1
  Sn  Sn34  1  0.282383  0.136673  0.249035  1
  Sn  Sn35  1  0.026105  0.893009  0.251471  1
