# generated using pymatgen
data_Pr8Nb12Si15As
_symmetry_space_group_name_H-M   'P 1'
_cell_length_a   7.02520148
_cell_length_b   7.28223276
_cell_length_c   13.65348200
_cell_angle_alpha   90.00000000
_cell_angle_beta   90.00000000
_cell_angle_gamma   90.10488348
_symmetry_Int_Tables_number   1
_chemical_formula_structural   Pr8Nb12Si15As
_chemical_formula_sum   'Pr8 Nb12 Si15 As1'
_cell_volume   698.49939573
_cell_formula_units_Z   1
loop_
 _symmetry_equiv_pos_site_id
 _symmetry_equiv_pos_as_xyz
  1  'x, y, z'
loop_
 _atom_site_type_symbol
 _atom_site_label
 _atom_site_symmetry_multiplicity
 _atom_site_fract_x
 _atom_site_fract_y
 _atom_site_fract_z
 _atom_site_occupancy
  Pr  Pr0  1  0.007407  0.169473  0.403347  1
  Pr  Pr1  1  0.507341  0.330625  0.403118  1
  Pr  Pr2  1  0.494780  0.667300  0.905271  1
  Pr  Pr3  1  0.494780  0.667300  0.594729  1
  Pr  Pr4  1  0.992959  0.831473  0.596581  1
  Pr  Pr5  1  0.992959  0.831473  0.903419  1
  Pr  Pr6  1  0.507341  0.330625  0.096882  1
  Pr  Pr7  1  0.007407  0.169473  0.096653  1
  Nb  Nb8  1  0.333846  0.176236  0.626754  1
  Nb  Nb9  1  0.664762  0.824475  0.373431  1
  Nb  Nb10  1  0.660167  0.013094  0.750000  1
  Nb  Nb11  1  0.164847  0.675804  0.373435  1
  Nb  Nb12  1  0.833444  0.324971  0.874336  1
  Nb  Nb13  1  0.833444  0.324971  0.625664  1
  Nb  Nb14  1  0.841915  0.512860  0.250000  1
  Nb  Nb15  1  0.341567  0.987468  0.250000  1
  Nb  Nb16  1  0.333846  0.176236  0.873246  1
  Nb  Nb17  1  0.164847  0.675804  0.126565  1
  Nb  Nb18  1  0.664762  0.824475  0.126569  1
  Nb  Nb19  1  0.159691  0.486160  0.750000  1
  Si  Si20  1  0.461567  0.630956  0.250000  1
  Si  Si21  1  0.031779  0.137624  0.750000  1
  Si  Si22  1  0.538985  0.368574  0.750000  1
  Si  Si23  1  0.155390  0.459253  0.543028  1
  Si  Si24  1  0.961642  0.869396  0.250000  1
  Si  Si25  1  0.705091  0.112683  0.250000  1
  Si  Si26  1  0.844393  0.541216  0.043734  1
  Si  Si27  1  0.344579  0.959776  0.043852  1
  Si  Si28  1  0.155390  0.459253  0.956972  1
  Si  Si29  1  0.654779  0.040458  0.542922  1
  Si  Si30  1  0.344579  0.959776  0.456148  1
  Si  Si31  1  0.844393  0.541216  0.456266  1
  Si  Si32  1  0.796099  0.612176  0.750000  1
  Si  Si33  1  0.204917  0.387820  0.250000  1
  Si  Si34  1  0.654779  0.040458  0.957078  1
  As  As35  1  0.299525  0.879071  0.750000  1
