# generated using pymatgen
data_Sr2ThCo2Sn7
_symmetry_space_group_name_H-M   'P 1'
_cell_length_a   13.78060675
_cell_length_b   13.78060799
_cell_length_c   4.66146600
_cell_angle_alpha   90.00000000
_cell_angle_beta   90.00000000
_cell_angle_gamma   159.80121930
_symmetry_Int_Tables_number   1
_chemical_formula_structural   Sr2ThCo2Sn7
_chemical_formula_sum   'Sr2 Th1 Co2 Sn7'
_cell_volume   305.65283772
_cell_formula_units_Z   1
loop_
 _symmetry_equiv_pos_site_id
 _symmetry_equiv_pos_as_xyz
  1  'x, y, z'
loop_
 _atom_site_type_symbol
 _atom_site_label
 _atom_site_symmetry_multiplicity
 _atom_site_fract_x
 _atom_site_fract_y
 _atom_site_fract_z
 _atom_site_occupancy
  Sr  Sr0  1  0.184335  0.815665  0.000000  1
  Sr  Sr1  1  0.815665  0.184335  0.000000  1
  Th  Th2  1  0.500000  0.500000  0.500000  1
  Co  Co3  1  0.375979  0.624021  0.500000  1
  Co  Co4  1  0.624021  0.375979  0.500000  1
  Sn  Sn5  1  0.088669  0.911331  0.500000  1
  Sn  Sn6  1  0.911331  0.088669  0.500000  1
  Sn  Sn7  1  0.282633  0.717367  0.500000  1
  Sn  Sn8  1  0.717367  0.282633  0.500000  1
  Sn  Sn9  1  0.000000  0.000000  0.000000  1
  Sn  Sn10  1  0.587398  0.412602  0.000000  1
  Sn  Sn11  1  0.412602  0.587398  0.000000  1
