# generated using pymatgen
data_Dy11Y4Tm5Bi12
_symmetry_space_group_name_H-M   'P 1'
_cell_length_a   8.24006068
_cell_length_b   9.51182622
_cell_length_c   12.05067719
_cell_angle_alpha   89.99039272
_cell_angle_beta   90.04967587
_cell_angle_gamma   89.99835465
_symmetry_Int_Tables_number   1
_chemical_formula_structural   Dy11Y4Tm5Bi12
_chemical_formula_sum   'Dy11 Y4 Tm5 Bi12'
_cell_volume   944.50791195
_cell_formula_units_Z   1
loop_
 _symmetry_equiv_pos_site_id
 _symmetry_equiv_pos_as_xyz
  1  'x, y, z'
loop_
 _atom_site_type_symbol
 _atom_site_label
 _atom_site_symmetry_multiplicity
 _atom_site_fract_x
 _atom_site_fract_y
 _atom_site_fract_z
 _atom_site_occupancy
  Dy  Dy0  1  0.186583  0.750012  0.718784  1
  Dy  Dy1  1  0.686738  0.749977  0.781258  1
  Dy  Dy2  1  0.813413  0.250083  0.281101  1
  Dy  Dy3  1  0.313392  0.250338  0.218595  1
  Dy  Dy4  1  0.806302  0.063715  0.559680  1
  Dy  Dy5  1  0.693349  0.936267  0.059382  1
  Dy  Dy6  1  0.193810  0.563538  0.440408  1
  Dy  Dy7  1  0.694019  0.563548  0.059653  1
  Dy  Dy8  1  0.193713  0.936385  0.440369  1
  Dy  Dy9  1  0.306239  0.063646  0.940540  1
  Dy  Dy10  1  0.806258  0.436349  0.559628  1
  Y  Y11  1  0.354636  0.750272  0.215668  1
  Y  Y12  1  0.854402  0.750067  0.284315  1
  Y  Y13  1  0.645163  0.250551  0.784632  1
  Y  Y14  1  0.146329  0.250617  0.715823  1
  Tm  Tm15  1  0.025789  0.750003  0.988609  1
  Tm  Tm16  1  0.525437  0.750204  0.511552  1
  Tm  Tm17  1  0.975099  0.250292  0.011350  1
  Tm  Tm18  1  0.474520  0.250007  0.488561  1
  Tm  Tm19  1  0.306104  0.434586  0.940364  1
  Bi  Bi20  1  0.433689  0.003652  0.672904  1
  Bi  Bi21  1  0.934076  0.496581  0.827389  1
  Bi  Bi22  1  0.566116  0.503575  0.327039  1
  Bi  Bi23  1  0.066306  0.996641  0.172748  1
  Bi  Bi24  1  0.566230  0.996643  0.327128  1
  Bi  Bi25  1  0.066203  0.503737  0.172597  1
  Bi  Bi26  1  0.433516  0.496611  0.673009  1
  Bi  Bi27  1  0.933698  0.003815  0.827317  1
  Bi  Bi28  1  0.407441  0.747896  0.957365  1
  Bi  Bi29  1  0.908274  0.749998  0.542253  1
  Bi  Bi30  1  0.591452  0.250443  0.042078  1
  Bi  Bi31  1  0.091706  0.249953  0.457902  1
