# generated using pymatgen
data_Tb6MnCo17Si11P
_symmetry_space_group_name_H-M   'P 1'
_cell_length_a   3.77583100
_cell_length_b   10.72630001
_cell_length_c   12.37179101
_cell_angle_alpha   89.99614159
_cell_angle_beta   90.00000000
_cell_angle_gamma   90.00000000
_symmetry_Int_Tables_number   1
_chemical_formula_structural   Tb6MnCo17Si11P
_chemical_formula_sum   'Tb6 Mn1 Co17 Si11 P1'
_cell_volume   501.06614638
_cell_formula_units_Z   1
loop_
 _symmetry_equiv_pos_site_id
 _symmetry_equiv_pos_as_xyz
  1  'x, y, z'
loop_
 _atom_site_type_symbol
 _atom_site_label
 _atom_site_symmetry_multiplicity
 _atom_site_fract_x
 _atom_site_fract_y
 _atom_site_fract_z
 _atom_site_occupancy
  Tb  Tb0  1  0.000000  0.499591  0.525412  1
  Tb  Tb1  1  0.500000  0.000216  0.473825  1
  Tb  Tb2  1  0.500000  0.818882  0.206059  1
  Tb  Tb3  1  0.500000  0.183405  0.204492  1
  Tb  Tb4  1  0.000000  0.682292  0.796334  1
  Tb  Tb5  1  0.000000  0.317228  0.794786  1
  Mn  Mn6  1  0.500000  0.499222  0.147178  1
  Co  Co7  1  0.000000  0.001787  0.849033  1
  Co  Co8  1  0.500000  0.499732  0.698050  1
  Co  Co9  1  0.000000  0.000240  0.303169  1
  Co  Co10  1  0.000000  0.495829  0.987561  1
  Co  Co11  1  0.500000  0.001102  0.017397  1
  Co  Co12  1  0.500000  0.329480  0.997560  1
  Co  Co13  1  0.500000  0.669308  0.994739  1
  Co  Co14  1  0.000000  0.169438  0.006143  1
  Co  Co15  1  0.000000  0.833390  0.004244  1
  Co  Co16  1  0.500000  0.301768  0.429246  1
  Co  Co17  1  0.500000  0.698328  0.430729  1
  Co  Co18  1  0.000000  0.198217  0.570178  1
  Co  Co19  1  0.000000  0.802040  0.571174  1
  Co  Co20  1  0.500000  0.883425  0.708955  1
  Co  Co21  1  0.500000  0.117158  0.708534  1
  Co  Co22  1  0.000000  0.617273  0.290417  1
  Co  Co23  1  0.000000  0.381792  0.284865  1
  Si  Si24  1  0.500000  0.499273  0.885749  1
  Si  Si25  1  0.000000  0.000142  0.116321  1
  Si  Si26  1  0.500000  0.499877  0.341014  1
  Si  Si27  1  0.000000  0.000180  0.662355  1
  Si  Si28  1  0.500000  0.303422  0.614003  1
  Si  Si29  1  0.500000  0.696667  0.615073  1
  Si  Si30  1  0.000000  0.197619  0.385053  1
  Si  Si31  1  0.000000  0.802851  0.386138  1
  Si  Si32  1  0.500000  0.853635  0.894022  1
  Si  Si33  1  0.500000  0.147175  0.893522  1
  Si  Si34  1  0.000000  0.653065  0.103886  1
  P  P35  1  0.000000  0.344952  0.102783  1
