# generated using pymatgen
data_Nd5GaRuO12
_symmetry_space_group_name_H-M   'P 1'
_cell_length_a   7.04258616
_cell_length_b   7.04258610
_cell_length_c   7.59755293
_cell_angle_alpha   74.44371474
_cell_angle_beta   74.44370928
_cell_angle_gamma   50.96042442
_symmetry_Int_Tables_number   1
_chemical_formula_structural   Nd5GaRuO12
_chemical_formula_sum   'Nd5 Ga1 Ru1 O12'
_cell_volume   279.46909596
_cell_formula_units_Z   1
loop_
 _symmetry_equiv_pos_site_id
 _symmetry_equiv_pos_as_xyz
  1  'x, y, z'
loop_
 _atom_site_type_symbol
 _atom_site_label
 _atom_site_symmetry_multiplicity
 _atom_site_fract_x
 _atom_site_fract_y
 _atom_site_fract_z
 _atom_site_occupancy
  Nd  Nd0  1  0.693255  0.692857  0.666371  1
  Nd  Nd1  1  0.686751  0.701152  0.142296  1
  Nd  Nd2  1  0.992780  0.007220  0.000000  1
  Nd  Nd3  1  0.298848  0.313249  0.857704  1
  Nd  Nd4  1  0.307143  0.306745  0.333629  1
  Ga  Ga5  1  0.249088  0.750912  0.500000  1
  Ru  Ru6  1  0.762808  0.237192  0.500000  1
  O  O7  1  0.400547  0.909060  0.921086  1
  O  O8  1  0.582365  0.101431  0.579000  1
  O  O9  1  0.898569  0.417635  0.421000  1
  O  O10  1  0.090940  0.599453  0.078914  1
  O  O11  1  0.992417  0.008507  0.324264  1
  O  O12  1  0.517888  0.483662  0.676244  1
  O  O13  1  0.900287  0.406319  0.924214  1
  O  O14  1  0.103372  0.578570  0.578196  1
  O  O15  1  0.421430  0.896628  0.421804  1
  O  O16  1  0.593681  0.099713  0.075786  1
  O  O17  1  0.516338  0.482112  0.323756  1
  O  O18  1  0.991493  0.007583  0.675736  1
