# generated using pymatgen
data_Sc18Re7TcP2
_symmetry_space_group_name_H-M   'P 1'
_cell_length_a   8.62843443
_cell_length_b   8.62866785
_cell_length_c   8.58340500
_cell_angle_alpha   90.00000000
_cell_angle_beta   90.00000000
_cell_angle_gamma   119.83890862
_symmetry_Int_Tables_number   1
_chemical_formula_structural   Sc18Re7TcP2
_chemical_formula_sum   'Sc18 Re7 Tc1 P2'
_cell_volume   554.33037858
_cell_formula_units_Z   1
loop_
 _symmetry_equiv_pos_site_id
 _symmetry_equiv_pos_as_xyz
  1  'x, y, z'
loop_
 _atom_site_type_symbol
 _atom_site_label
 _atom_site_symmetry_multiplicity
 _atom_site_fract_x
 _atom_site_fract_y
 _atom_site_fract_z
 _atom_site_occupancy
  Sc  Sc0  1  0.197442  0.802542  0.451183  1
  Sc  Sc1  1  0.197826  0.394589  0.450732  1
  Sc  Sc2  1  0.605430  0.802179  0.450728  1
  Sc  Sc3  1  0.803871  0.196143  0.550303  1
  Sc  Sc4  1  0.802741  0.605366  0.549333  1
  Sc  Sc5  1  0.394663  0.197271  0.549322  1
  Sc  Sc6  1  0.803871  0.196143  0.949697  1
  Sc  Sc7  1  0.802741  0.605366  0.950667  1
  Sc  Sc8  1  0.394663  0.197271  0.950678  1
  Sc  Sc9  1  0.197442  0.802542  0.048817  1
  Sc  Sc10  1  0.197826  0.394589  0.049268  1
  Sc  Sc11  1  0.605430  0.802179  0.049272  1
  Sc  Sc12  1  0.538037  0.461959  0.250000  1
  Sc  Sc13  1  0.536031  0.076111  0.250000  1
  Sc  Sc14  1  0.923868  0.463970  0.250000  1
  Sc  Sc15  1  0.461465  0.538526  0.750000  1
  Sc  Sc16  1  0.462724  0.924185  0.750000  1
  Sc  Sc17  1  0.075817  0.537267  0.750000  1
  Re  Re18  1  0.892475  0.786583  0.250000  1
  Re  Re19  1  0.213403  0.107508  0.250000  1
  Re  Re20  1  0.106366  0.893661  0.750000  1
  Re  Re21  1  0.108202  0.216325  0.750000  1
  Re  Re22  1  0.783602  0.891738  0.750000  1
  Re  Re23  1  0.001921  0.998075  0.499744  1
  Re  Re24  1  0.001921  0.998075  0.000256  1
  Tc  Tc25  1  0.889780  0.110231  0.250000  1
  P  P26  1  0.333419  0.666603  0.250000  1
  P  P27  1  0.667024  0.333003  0.750000  1
