# generated using pymatgen
data_Li4AcPr3Si8
_symmetry_space_group_name_H-M   'P 1'
_cell_length_a   3.91457100
_cell_length_b   7.82046245
_cell_length_c   10.71772662
_cell_angle_alpha   89.82742060
_cell_angle_beta   90.00000000
_cell_angle_gamma   90.00000000
_symmetry_Int_Tables_number   1
_chemical_formula_structural   Li4AcPr3Si8
_chemical_formula_sum   'Li4 Ac1 Pr3 Si8'
_cell_volume   328.10837403
_cell_formula_units_Z   1
loop_
 _symmetry_equiv_pos_site_id
 _symmetry_equiv_pos_as_xyz
  1  'x, y, z'
loop_
 _atom_site_type_symbol
 _atom_site_label
 _atom_site_symmetry_multiplicity
 _atom_site_fract_x
 _atom_site_fract_y
 _atom_site_fract_z
 _atom_site_occupancy
  Li  Li0  1  0.250000  0.997753  0.389895  1
  Li  Li1  1  0.750000  0.004227  0.612827  1
  Li  Li2  1  0.250000  0.494980  0.107765  1
  Li  Li3  1  0.750000  0.504371  0.890375  1
  Ac  Ac4  1  0.750000  0.359583  0.365259  1
  Pr  Pr5  1  0.250000  0.134357  0.865196  1
  Pr  Pr6  1  0.750000  0.862168  0.132594  1
  Pr  Pr7  1  0.250000  0.638219  0.636032  1
  Si  Si8  1  0.750000  0.269717  0.066694  1
  Si  Si9  1  0.250000  0.725652  0.927554  1
  Si  Si10  1  0.750000  0.782542  0.427864  1
  Si  Si11  1  0.250000  0.223697  0.579771  1
  Si  Si12  1  0.750000  0.833299  0.822640  1
  Si  Si13  1  0.250000  0.160770  0.170361  1
  Si  Si14  1  0.750000  0.334337  0.682458  1
  Si  Si15  1  0.250000  0.674326  0.322716  1
