# generated using pymatgen
data_YTm5Bi2Os
_symmetry_space_group_name_H-M   'P 1'
_cell_length_a   8.25705900
_cell_length_b   8.21832173
_cell_length_c   4.23857100
_cell_angle_alpha   90.00000000
_cell_angle_beta   90.00000000
_cell_angle_gamma   120.15604103
_symmetry_Int_Tables_number   1
_chemical_formula_structural   YTm5Bi2Os
_chemical_formula_sum   'Y1 Tm5 Bi2 Os1'
_cell_volume   248.69874752
_cell_formula_units_Z   1
loop_
 _symmetry_equiv_pos_site_id
 _symmetry_equiv_pos_as_xyz
  1  'x, y, z'
loop_
 _atom_site_type_symbol
 _atom_site_label
 _atom_site_symmetry_multiplicity
 _atom_site_fract_x
 _atom_site_fract_y
 _atom_site_fract_z
 _atom_site_occupancy
  Y  Y0  1  0.387146  0.000000  0.000000  1
  Tm  Tm1  1  0.000407  0.381439  0.000000  1
  Tm  Tm2  1  0.618968  0.618561  0.000000  1
  Tm  Tm3  1  0.766310  0.000000  0.499999  1
  Tm  Tm4  1  0.231204  0.231782  0.499999  1
  Tm  Tm5  1  0.999421  0.768218  0.499999  1
  Bi  Bi6  1  0.668146  0.334814  0.499999  1
  Bi  Bi7  1  0.333331  0.665186  0.499999  1
  Os  Os8  1  0.995068  0.000000  0.000000  1
