# generated using pymatgen
data_Pr3Dy2Ho3(CdPt)2
_symmetry_space_group_name_H-M   'P 1'
_cell_length_a   9.81711303
_cell_length_b   9.81711244
_cell_length_c   9.81711100
_cell_angle_alpha   59.99999474
_cell_angle_beta   59.99999674
_cell_angle_gamma   59.99999194
_symmetry_Int_Tables_number   1
_chemical_formula_structural   Pr3Dy2Ho3(CdPt)2
_chemical_formula_sum   'Pr6 Dy4 Ho6 Cd4 Pt4'
_cell_volume   669.01554022
_cell_formula_units_Z   2
loop_
 _symmetry_equiv_pos_site_id
 _symmetry_equiv_pos_as_xyz
  1  'x, y, z'
loop_
 _atom_site_type_symbol
 _atom_site_label
 _atom_site_symmetry_multiplicity
 _atom_site_fract_x
 _atom_site_fract_y
 _atom_site_fract_z
 _atom_site_occupancy
  Pr  Pr0  1  0.938257  0.561743  0.561743  1
  Pr  Pr1  1  0.561743  0.938257  0.938257  1
  Pr  Pr2  1  0.561743  0.938257  0.561743  1
  Pr  Pr3  1  0.938257  0.561743  0.938257  1
  Pr  Pr4  1  0.561743  0.561743  0.938257  1
  Pr  Pr5  1  0.938257  0.938257  0.561743  1
  Dy  Dy6  1  0.350185  0.350185  0.350185  1
  Dy  Dy7  1  0.350185  0.350185  0.949445  1
  Dy  Dy8  1  0.350185  0.949445  0.350185  1
  Dy  Dy9  1  0.949445  0.350185  0.350185  1
  Ho  Ho10  1  0.812710  0.187290  0.187290  1
  Ho  Ho11  1  0.187290  0.812710  0.812710  1
  Ho  Ho12  1  0.187290  0.812710  0.187290  1
  Ho  Ho13  1  0.812710  0.187290  0.812710  1
  Ho  Ho14  1  0.187290  0.187290  0.812710  1
  Ho  Ho15  1  0.812710  0.812710  0.187290  1
  Cd  Cd16  1  0.579373  0.579373  0.579373  1
  Cd  Cd17  1  0.579373  0.579373  0.261881  1
  Cd  Cd18  1  0.579373  0.261881  0.579373  1
  Cd  Cd19  1  0.261881  0.579373  0.579373  1
  Pt  Pt20  1  0.142380  0.142380  0.142380  1
  Pt  Pt21  1  0.142380  0.142380  0.572862  1
  Pt  Pt22  1  0.142380  0.572862  0.142380  1
  Pt  Pt23  1  0.572862  0.142380  0.142380  1
