# generated using pymatgen
data_La3FeReH12
_symmetry_space_group_name_H-M   'P 1'
_cell_length_a   4.87446800
_cell_length_b   4.87446790
_cell_length_c   8.63626000
_cell_angle_alpha   90.00000000
_cell_angle_beta   90.00000000
_cell_angle_gamma   120.00000069
_symmetry_Int_Tables_number   1
_chemical_formula_structural   La3FeReH12
_chemical_formula_sum   'La3 Fe1 Re1 H12'
_cell_volume   177.70955341
_cell_formula_units_Z   1
loop_
 _symmetry_equiv_pos_site_id
 _symmetry_equiv_pos_as_xyz
  1  'x, y, z'
loop_
 _atom_site_type_symbol
 _atom_site_label
 _atom_site_symmetry_multiplicity
 _atom_site_fract_x
 _atom_site_fract_y
 _atom_site_fract_z
 _atom_site_occupancy
  La  La0  1  0.000000  0.000000  0.023200  1
  La  La1  1  0.666667  0.333333  0.365592  1
  La  La2  1  0.333333  0.666667  0.652595  1
  Fe  Fe3  1  0.666667  0.333333  0.748685  1
  Re  Re4  1  0.333333  0.666667  0.240319  1
  H  H5  1  0.167157  0.832843  0.366126  1
  H  H6  1  0.665685  0.832843  0.366126  1
  H  H7  1  0.167157  0.334315  0.366126  1
  H  H8  1  0.822034  0.177966  0.641472  1
  H  H9  1  0.355934  0.177966  0.641472  1
  H  H10  1  0.822034  0.644066  0.641472  1
  H  H11  1  0.518177  0.036355  0.863613  1
  H  H12  1  0.518177  0.481823  0.863613  1
  H  H13  1  0.963645  0.481823  0.863613  1
  H  H14  1  0.503088  0.006177  0.118659  1
  H  H15  1  0.503088  0.496912  0.118659  1
  H  H16  1  0.993823  0.496912  0.118659  1
