# generated using pymatgen
data_La10Ge4IrOs
_symmetry_space_group_name_H-M   'P 1'
_cell_length_a   8.21103058
_cell_length_b   9.00539400
_cell_length_c   12.60122857
_cell_angle_alpha   90.00000000
_cell_angle_beta   89.73143567
_cell_angle_gamma   90.00000000
_symmetry_Int_Tables_number   1
_chemical_formula_structural   La10Ge4IrOs
_chemical_formula_sum   'La20 Ge8 Ir2 Os2'
_cell_volume   931.76953377
_cell_formula_units_Z   2
loop_
 _symmetry_equiv_pos_site_id
 _symmetry_equiv_pos_as_xyz
  1  'x, y, z'
loop_
 _atom_site_type_symbol
 _atom_site_label
 _atom_site_symmetry_multiplicity
 _atom_site_fract_x
 _atom_site_fract_y
 _atom_site_fract_z
 _atom_site_occupancy
  La  La0  1  0.672476  0.750000  0.715238  1
  La  La1  1  0.327524  0.250000  0.284762  1
  La  La2  1  0.172270  0.250000  0.787078  1
  La  La3  1  0.827730  0.750000  0.212922  1
  La  La4  1  0.145479  0.750000  0.799376  1
  La  La5  1  0.854521  0.250000  0.200624  1
  La  La6  1  0.648946  0.250000  0.702126  1
  La  La7  1  0.351054  0.750000  0.297874  1
  La  La8  1  0.546453  0.750000  0.000549  1
  La  La9  1  0.453547  0.250000  0.999451  1
  La  La10  1  0.043897  0.250000  0.500198  1
  La  La11  1  0.956103  0.750000  0.499802  1
  La  La12  1  0.823635  0.466742  0.926683  1
  La  La13  1  0.176365  0.533258  0.073317  1
  La  La14  1  0.321051  0.535363  0.575434  1
  La  La15  1  0.176365  0.966742  0.073317  1
  La  La16  1  0.678949  0.464637  0.424566  1
  La  La17  1  0.823635  0.033258  0.926683  1
  La  La18  1  0.678949  0.035363  0.424566  1
  La  La19  1  0.321051  0.964637  0.575434  1
  Ge  Ge20  1  0.943800  0.005505  0.671998  1
  Ge  Ge21  1  0.056200  0.994495  0.328002  1
  Ge  Ge22  1  0.443959  0.994265  0.827573  1
  Ge  Ge23  1  0.056200  0.505505  0.328002  1
  Ge  Ge24  1  0.556041  0.005735  0.172427  1
  Ge  Ge25  1  0.943800  0.494495  0.671998  1
  Ge  Ge26  1  0.556041  0.494265  0.172427  1
  Ge  Ge27  1  0.443959  0.505735  0.827573  1
  Ir  Ir28  1  0.421170  0.250000  0.515707  1
  Ir  Ir29  1  0.578830  0.750000  0.484293  1
  Os  Os30  1  0.917470  0.750000  0.983470  1
  Os  Os31  1  0.082530  0.250000  0.016530  1
