# generated using pymatgen
data_Nd8Tm11LuSb16
_symmetry_space_group_name_H-M   'P 1'
_cell_length_a   8.01883400
_cell_length_b   8.12055834
_cell_length_c   15.27887800
_cell_angle_alpha   90.00000000
_cell_angle_beta   90.00000000
_cell_angle_gamma   90.01655960
_symmetry_Int_Tables_number   1
_chemical_formula_structural   Nd8Tm11LuSb16
_chemical_formula_sum   'Nd8 Tm11 Lu1 Sb16'
_cell_volume   994.92091096
_cell_formula_units_Z   1
loop_
 _symmetry_equiv_pos_site_id
 _symmetry_equiv_pos_as_xyz
  1  'x, y, z'
loop_
 _atom_site_type_symbol
 _atom_site_label
 _atom_site_symmetry_multiplicity
 _atom_site_fract_x
 _atom_site_fract_y
 _atom_site_fract_z
 _atom_site_occupancy
  Nd  Nd0  1  0.474516  0.678026  0.595050  1
  Nd  Nd1  1  0.974399  0.821975  0.905110  1
  Nd  Nd2  1  0.525549  0.322272  0.095115  1
  Nd  Nd3  1  0.025799  0.177783  0.404891  1
  Nd  Nd4  1  0.525549  0.322272  0.404885  1
  Nd  Nd5  1  0.025799  0.177783  0.095109  1
  Nd  Nd6  1  0.474516  0.678026  0.904950  1
  Nd  Nd7  1  0.974399  0.821975  0.594890  1
  Tm  Tm8  1  0.645241  0.149479  0.623056  1
  Tm  Tm9  1  0.145098  0.350389  0.876747  1
  Tm  Tm10  1  0.354566  0.850524  0.123274  1
  Tm  Tm11  1  0.854792  0.649498  0.376587  1
  Tm  Tm12  1  0.354566  0.850524  0.376726  1
  Tm  Tm13  1  0.854792  0.649498  0.123413  1
  Tm  Tm14  1  0.645241  0.149479  0.876944  1
  Tm  Tm15  1  0.145098  0.350389  0.623253  1
  Tm  Tm16  1  0.806443  0.500446  0.750000  1
  Tm  Tm17  1  0.306426  0.999657  0.750000  1
  Tm  Tm18  1  0.193586  0.499620  0.250000  1
  Lu  Lu19  1  0.694053  0.000417  0.250000  1
  Sb  Sb20  1  0.704531  0.958439  0.452502  1
  Sb  Sb21  1  0.204523  0.541615  0.046929  1
  Sb  Sb22  1  0.295357  0.041664  0.953042  1
  Sb  Sb23  1  0.795357  0.458388  0.546854  1
  Sb  Sb24  1  0.295357  0.041664  0.546958  1
  Sb  Sb25  1  0.795357  0.458388  0.953146  1
  Sb  Sb26  1  0.704531  0.958439  0.047498  1
  Sb  Sb27  1  0.204523  0.541615  0.453071  1
  Sb  Sb28  1  0.447142  0.364544  0.750000  1
  Sb  Sb29  1  0.946860  0.135421  0.750000  1
  Sb  Sb30  1  0.552875  0.636113  0.250000  1
  Sb  Sb31  1  0.052477  0.864881  0.250000  1
  Sb  Sb32  1  0.660616  0.848282  0.750000  1
  Sb  Sb33  1  0.160459  0.651864  0.750000  1
  Sb  Sb34  1  0.340470  0.151452  0.250000  1
  Sb  Sb35  1  0.839144  0.347193  0.250000  1
