# generated using pymatgen
data_CdAg2(PS3)2
_symmetry_space_group_name_H-M   'P 1'
_cell_length_a   6.47391280
_cell_length_b   6.47391249
_cell_length_c   14.44644355
_cell_angle_alpha   86.02325507
_cell_angle_beta   86.02325328
_cell_angle_gamma   119.91537025
_symmetry_Int_Tables_number   1
_chemical_formula_structural   CdAg2(PS3)2
_chemical_formula_sum   'Cd2 Ag4 P4 S12'
_cell_volume   519.74166994
_cell_formula_units_Z   2
loop_
 _symmetry_equiv_pos_site_id
 _symmetry_equiv_pos_as_xyz
  1  'x, y, z'
loop_
 _atom_site_type_symbol
 _atom_site_label
 _atom_site_symmetry_multiplicity
 _atom_site_fract_x
 _atom_site_fract_y
 _atom_site_fract_z
 _atom_site_occupancy
  Cd  Cd0  1  0.426331  0.573669  0.250000  1
  Cd  Cd1  1  0.573669  0.426331  0.750000  1
  Ag  Ag2  1  0.051659  0.872178  0.359358  1
  Ag  Ag3  1  0.948341  0.127822  0.640642  1
  Ag  Ag4  1  0.127822  0.948341  0.140642  1
  Ag  Ag5  1  0.872178  0.051659  0.859358  1
  P  P6  1  0.215034  0.729210  0.830434  1
  P  P7  1  0.784966  0.270790  0.169566  1
  P  P8  1  0.270790  0.784966  0.669566  1
  P  P9  1  0.729210  0.215034  0.330434  1
  S  S10  1  0.475983  0.670148  0.875915  1
  S  S11  1  0.524017  0.329852  0.124085  1
  S  S12  1  0.329852  0.524017  0.624085  1
  S  S13  1  0.670148  0.475983  0.375915  1
  S  S14  1  0.034225  0.244052  0.376241  1
  S  S15  1  0.965775  0.755948  0.623759  1
  S  S16  1  0.755948  0.965775  0.123759  1
  S  S17  1  0.244052  0.034225  0.876241  1
  S  S18  1  0.119327  0.562006  0.127427  1
  S  S19  1  0.880673  0.437994  0.872573  1
  S  S20  1  0.437994  0.880673  0.372573  1
  S  S21  1  0.562006  0.119327  0.627427  1
