# generated using pymatgen
data_Nd10OsRu2Rh
_symmetry_space_group_name_H-M   'P 1'
_cell_length_a   8.91686365
_cell_length_b   8.93045967
_cell_length_c   7.39830121
_cell_angle_alpha   83.60780564
_cell_angle_beta   83.59330844
_cell_angle_gamma   43.40196492
_symmetry_Int_Tables_number   1
_chemical_formula_structural   Nd10OsRu2Rh
_chemical_formula_sum   'Nd10 Os1 Ru2 Rh1'
_cell_volume   401.88159305
_cell_formula_units_Z   1
loop_
 _symmetry_equiv_pos_site_id
 _symmetry_equiv_pos_as_xyz
  1  'x, y, z'
loop_
 _atom_site_type_symbol
 _atom_site_label
 _atom_site_symmetry_multiplicity
 _atom_site_fract_x
 _atom_site_fract_y
 _atom_site_fract_z
 _atom_site_occupancy
  Nd  Nd0  1  0.016097  0.800411  0.915696  1
  Nd  Nd1  1  0.201769  0.985600  0.585250  1
  Nd  Nd2  1  0.983230  0.201810  0.085948  1
  Nd  Nd3  1  0.795672  0.020207  0.412433  1
  Nd  Nd4  1  0.360859  0.203581  0.816747  1
  Nd  Nd5  1  0.787247  0.642301  0.686331  1
  Nd  Nd6  1  0.643609  0.790452  0.186377  1
  Nd  Nd7  1  0.208696  0.356284  0.313517  1
  Nd  Nd8  1  0.574211  0.426623  0.750468  1
  Nd  Nd9  1  0.426186  0.576024  0.246430  1
  Os  Os10  1  0.400466  0.822169  0.924585  1
  Ru  Ru11  1  0.823550  0.399512  0.426448  1
  Ru  Ru12  1  0.599880  0.177215  0.075082  1
  Rh  Rh13  1  0.178530  0.597812  0.574690  1
