# generated using pymatgen
data_Tb6Dy2Re(TcB8)3
_symmetry_space_group_name_H-M   'P 1'
_cell_length_a   3.70103100
_cell_length_b   9.18520719
_cell_length_c   11.57241306
_cell_angle_alpha   90.03500135
_cell_angle_beta   90.00000000
_cell_angle_gamma   90.00000000
_symmetry_Int_Tables_number   1
_chemical_formula_structural   Tb6Dy2Re(TcB8)3
_chemical_formula_sum   'Tb6 Dy2 Re1 Tc3 B24'
_cell_volume   393.40105972
_cell_formula_units_Z   1
loop_
 _symmetry_equiv_pos_site_id
 _symmetry_equiv_pos_as_xyz
  1  'x, y, z'
loop_
 _atom_site_type_symbol
 _atom_site_label
 _atom_site_symmetry_multiplicity
 _atom_site_fract_x
 _atom_site_fract_y
 _atom_site_fract_z
 _atom_site_occupancy
  Tb  Tb0  1  0.000000  0.324248  0.414000  1
  Tb  Tb1  1  0.000000  0.676121  0.586005  1
  Tb  Tb2  1  0.000000  0.823837  0.085930  1
  Tb  Tb3  1  0.000000  0.176330  0.914301  1
  Tb  Tb4  1  0.000000  0.942538  0.368912  1
  Tb  Tb5  1  0.000000  0.058006  0.630100  1
  Dy  Dy6  1  0.000000  0.442392  0.131021  1
  Dy  Dy7  1  0.000000  0.556474  0.869555  1
  Re  Re8  1  0.000000  0.861057  0.820773  1
  Tc  Tc9  1  0.000000  0.638373  0.320306  1
  Tc  Tc10  1  0.000000  0.361746  0.679666  1
  Tc  Tc11  1  0.000000  0.139070  0.179379  1
  B  B12  1  0.500000  0.553593  0.432683  1
  B  B13  1  0.500000  0.446680  0.567386  1
  B  B14  1  0.500000  0.053601  0.067418  1
  B  B15  1  0.500000  0.946578  0.932852  1
  B  B16  1  0.500000  0.748364  0.418147  1
  B  B17  1  0.500000  0.251987  0.581729  1
  B  B18  1  0.500000  0.248603  0.081899  1
  B  B19  1  0.500000  0.750971  0.918291  1
  B  B20  1  0.500000  0.791160  0.265264  1
  B  B21  1  0.500000  0.208775  0.734554  1
  B  B22  1  0.500000  0.291530  0.234695  1
  B  B23  1  0.500000  0.708137  0.765514  1
  B  B24  1  0.500000  0.630583  0.185841  1
  B  B25  1  0.500000  0.369130  0.814180  1
  B  B26  1  0.500000  0.131035  0.313999  1
  B  B27  1  0.500000  0.869213  0.685888  1
  B  B28  1  0.500000  0.982907  0.211443  1
  B  B29  1  0.500000  0.017396  0.788289  1
  B  B30  1  0.500000  0.482682  0.288345  1
  B  B31  1  0.500000  0.517256  0.711849  1
  B  B32  1  0.500000  0.599803  0.028078  1
  B  B33  1  0.500000  0.399537  0.972193  1
  B  B34  1  0.500000  0.100690  0.471582  1
  B  B35  1  0.500000  0.899597  0.527933  1
