# generated using pymatgen
data_Y4Al6ReRu
_symmetry_space_group_name_H-M   'P 1'
_cell_length_a   5.51965900
_cell_length_b   5.51965882
_cell_length_c   8.89458300
_cell_angle_alpha   90.00000000
_cell_angle_beta   90.00000000
_cell_angle_gamma   119.99999506
_symmetry_Int_Tables_number   1
_chemical_formula_structural   Y4Al6ReRu
_chemical_formula_sum   'Y4 Al6 Re1 Ru1'
_cell_volume   234.68251190
_cell_formula_units_Z   1
loop_
 _symmetry_equiv_pos_site_id
 _symmetry_equiv_pos_as_xyz
  1  'x, y, z'
loop_
 _atom_site_type_symbol
 _atom_site_label
 _atom_site_symmetry_multiplicity
 _atom_site_fract_x
 _atom_site_fract_y
 _atom_site_fract_z
 _atom_site_occupancy
  Y  Y0  1  0.666666  0.333333  0.052259  1
  Y  Y1  1  0.666666  0.333333  0.447575  1
  Y  Y2  1  0.333334  0.666668  0.552424  1
  Y  Y3  1  0.333334  0.666668  0.947742  1
  Al  Al4  1  0.161836  0.323673  0.251278  1
  Al  Al5  1  0.161837  0.838163  0.251278  1
  Al  Al6  1  0.676326  0.838163  0.251278  1
  Al  Al7  1  0.323672  0.161835  0.748722  1
  Al  Al8  1  0.838164  0.161835  0.748722  1
  Al  Al9  1  0.838163  0.676327  0.748722  1
  Re  Re10  1  0.000000  0.000000  0.000000  1
  Ru  Ru11  1  0.000000  0.000000  0.500000  1
