# generated using pymatgen
data_Mn4Nb6AlCrN2
_symmetry_space_group_name_H-M   'P 1'
_cell_length_a   8.10299826
_cell_length_b   8.06203723
_cell_length_c   8.14239500
_cell_angle_alpha   90.00000000
_cell_angle_beta   59.83903165
_cell_angle_gamma   119.83291671
_symmetry_Int_Tables_number   1
_chemical_formula_structural   Mn4Nb6AlCrN2
_chemical_formula_sum   'Mn8 Nb12 Al2 Cr2 N4'
_cell_volume   376.15279253
_cell_formula_units_Z   2
loop_
 _symmetry_equiv_pos_site_id
 _symmetry_equiv_pos_as_xyz
  1  'x, y, z'
loop_
 _atom_site_type_symbol
 _atom_site_label
 _atom_site_symmetry_multiplicity
 _atom_site_fract_x
 _atom_site_fract_y
 _atom_site_fract_z
 _atom_site_occupancy
  Mn  Mn0  1  0.105742  0.890679  0.197129  1
  Mn  Mn1  1  0.105742  0.215064  0.197129  1
  Mn  Mn2  1  0.415641  0.207822  0.887663  1
  Mn  Mn3  1  0.415641  0.207822  0.196695  1
  Mn  Mn4  1  0.894258  0.109321  0.802871  1
  Mn  Mn5  1  0.894258  0.784936  0.802871  1
  Mn  Mn6  1  0.584359  0.792178  0.112337  1
  Mn  Mn7  1  0.584359  0.792178  0.803305  1
  Nb  Nb8  1  0.644088  0.822044  0.427956  1
  Nb  Nb9  1  0.862280  0.431140  0.818860  1
  Nb  Nb10  1  0.248904  0.820776  0.820409  1
  Nb  Nb11  1  0.248904  0.428129  0.430688  1
  Nb  Nb12  1  0.248904  0.428129  0.820409  1
  Nb  Nb13  1  0.248904  0.820776  0.430688  1
  Nb  Nb14  1  0.355912  0.177956  0.572044  1
  Nb  Nb15  1  0.137720  0.568860  0.181140  1
  Nb  Nb16  1  0.751096  0.179224  0.179591  1
  Nb  Nb17  1  0.751096  0.571871  0.569312  1
  Nb  Nb18  1  0.751096  0.571871  0.179591  1
  Nb  Nb19  1  0.751096  0.179224  0.569312  1
  Al  Al20  1  0.000000  0.000000  0.500000  1
  Al  Al21  1  0.000000  0.000000  0.000000  1
  Cr  Cr22  1  0.500000  0.500000  0.000000  1
  Cr  Cr23  1  0.500000  0.000000  0.000000  1
  N  N24  1  0.500000  0.000000  0.500000  1
  N  N25  1  0.500000  0.500000  0.500000  1
  N  N26  1  0.000000  0.500000  0.000000  1
  N  N27  1  0.000000  0.500000  0.500000  1
