# generated using pymatgen
data_CsY8Tm2(C2I9)2
_symmetry_space_group_name_H-M   'P 1'
_cell_length_a   11.45926771
_cell_length_b   11.46972028
_cell_length_c   11.50017159
_cell_angle_alpha   113.20453921
_cell_angle_beta   86.73906664
_cell_angle_gamma   119.95557449
_symmetry_Int_Tables_number   1
_chemical_formula_structural   CsY8Tm2(C2I9)2
_chemical_formula_sum   'Cs1 Y8 Tm2 C4 I18'
_cell_volume   1184.94969140
_cell_formula_units_Z   1
loop_
 _symmetry_equiv_pos_site_id
 _symmetry_equiv_pos_as_xyz
  1  'x, y, z'
loop_
 _atom_site_type_symbol
 _atom_site_label
 _atom_site_symmetry_multiplicity
 _atom_site_fract_x
 _atom_site_fract_y
 _atom_site_fract_z
 _atom_site_occupancy
  Cs  Cs0  1  0.499798  0.999420  0.499649  1
  Y  Y1  1  0.093147  0.390384  0.291070  1
  Y  Y2  1  0.964248  0.037353  0.323270  1
  Y  Y3  1  0.907472  0.609712  0.708826  1
  Y  Y4  1  0.104152  0.944673  0.000627  1
  Y  Y5  1  0.035338  0.962683  0.676299  1
  Y  Y6  1  0.321124  0.275170  0.288166  1
  Y  Y7  1  0.722678  0.647137  0.984695  1
  Y  Y8  1  0.895783  0.055749  0.999953  1
  Tm  Tm9  1  0.682031  0.726297  0.714874  1
  Tm  Tm10  1  0.274873  0.350087  0.015970  1
  C  C11  1  0.151484  0.219413  0.119757  1
  C  C12  1  0.847605  0.780037  0.879040  1
  C  C13  1  0.923286  0.856231  0.802910  1
  C  C14  1  0.075635  0.143441  0.195835  1
  I  I15  1  0.450686  0.531001  0.831118  1
  I  I16  1  0.384027  0.040291  0.158150  1
  I  I17  1  0.776179  0.854549  0.503004  1
  I  I18  1  0.836742  0.309166  0.152446  1
  I  I19  1  0.547349  0.469624  0.165577  1
  I  I20  1  0.221878  0.143870  0.499217  1
  I  I21  1  0.317551  0.099760  0.831360  1
  I  I22  1  0.682190  0.903478  0.170809  1
  I  I23  1  0.974371  0.755286  0.169790  1
  I  I24  1  0.932730  0.298275  0.501291  1
  I  I25  1  0.029162  0.246829  0.832260  1
  I  I26  1  0.067761  0.702339  0.498883  1
  I  I27  1  0.261875  0.618676  0.178968  1
  I  I28  1  0.739453  0.377542  0.817185  1
  I  I29  1  0.642876  0.440384  0.503930  1
  I  I30  1  0.163481  0.691075  0.846999  1
  I  I31  1  0.616757  0.956010  0.839797  1
  I  I32  1  0.356280  0.564058  0.498276  1
