# generated using pymatgen
data_Tc2OsRh4
_symmetry_space_group_name_H-M   'P 1'
_cell_length_a   7.31147505
_cell_length_b   7.30899339
_cell_length_c   4.33537000
_cell_angle_alpha   90.00000000
_cell_angle_beta   90.00000000
_cell_angle_gamma   59.99992858
_symmetry_Int_Tables_number   1
_chemical_formula_structural   Tc2OsRh4
_chemical_formula_sum   'Tc4 Os2 Rh8'
_cell_volume   200.64071135
_cell_formula_units_Z   2
loop_
 _symmetry_equiv_pos_site_id
 _symmetry_equiv_pos_as_xyz
  1  'x, y, z'
loop_
 _atom_site_type_symbol
 _atom_site_label
 _atom_site_symmetry_multiplicity
 _atom_site_fract_x
 _atom_site_fract_y
 _atom_site_fract_z
 _atom_site_occupancy
  Tc  Tc0  1  0.425944  0.851742  0.000000  1
  Tc  Tc1  1  0.526977  0.385179  0.500000  1
  Tc  Tc2  1  0.660066  0.669192  0.500000  1
  Tc  Tc3  1  0.242400  0.801817  0.500000  1
  Os  Os4  1  0.708862  0.436902  0.000000  1
  Os  Os5  1  0.294616  0.568596  0.000000  1
  Rh  Rh6  1  0.572156  0.143045  0.000000  1
  Rh  Rh7  1  0.142137  0.285357  0.000000  1
  Rh  Rh8  1  0.856287  0.716012  0.000000  1
  Rh  Rh9  1  0.999640  0.998959  0.000000  1
  Rh  Rh10  1  0.379789  0.095681  0.500000  1
  Rh  Rh11  1  0.952209  0.238815  0.500000  1
  Rh  Rh12  1  0.096783  0.523155  0.500000  1
  Rh  Rh13  1  0.808692  0.952119  0.500000  1
