# generated using pymatgen
data_Ce2HoHfSn2Ir3
_symmetry_space_group_name_H-M   'P 1'
_cell_length_a   7.58998080
_cell_length_b   7.49803068
_cell_length_c   4.10985600
_cell_angle_alpha   90.00000000
_cell_angle_beta   90.00000000
_cell_angle_gamma   121.56019570
_symmetry_Int_Tables_number   1
_chemical_formula_structural   Ce2HoHfSn2Ir3
_chemical_formula_sum   'Ce2 Ho1 Hf1 Sn2 Ir3'
_cell_volume   199.29680979
_cell_formula_units_Z   1
loop_
 _symmetry_equiv_pos_site_id
 _symmetry_equiv_pos_as_xyz
  1  'x, y, z'
loop_
 _atom_site_type_symbol
 _atom_site_label
 _atom_site_symmetry_multiplicity
 _atom_site_fract_x
 _atom_site_fract_y
 _atom_site_fract_z
 _atom_site_occupancy
  Ce  Ce0  1  0.403479  0.405861  0.500000  1
  Ce  Ce1  1  0.584195  0.003178  0.500000  1
  Ho  Ho2  1  0.999382  0.587943  0.500000  1
  Hf  Hf3  1  0.755557  0.750703  0.000000  1
  Sn  Sn4  1  0.247011  0.991235  0.000000  1
  Sn  Sn5  1  0.996240  0.254226  0.000000  1
  Ir  Ir6  1  0.668927  0.350481  0.000000  1
  Ir  Ir7  1  0.365257  0.677457  0.000000  1
  Ir  Ir8  1  0.979953  0.978917  0.500000  1
