# generated using pymatgen
data_Ac2La2NdSn4
_symmetry_space_group_name_H-M   'P 1'
_cell_length_a   8.64635700
_cell_length_b   8.70876100
_cell_length_c   16.68188300
_cell_angle_alpha   90.00000000
_cell_angle_beta   90.00000000
_cell_angle_gamma   90.00000000
_symmetry_Int_Tables_number   1
_chemical_formula_structural   Ac2La2NdSn4
_chemical_formula_sum   'Ac8 La8 Nd4 Sn16'
_cell_volume   1256.13005277
_cell_formula_units_Z   4
loop_
 _symmetry_equiv_pos_site_id
 _symmetry_equiv_pos_as_xyz
  1  'x, y, z'
loop_
 _atom_site_type_symbol
 _atom_site_label
 _atom_site_symmetry_multiplicity
 _atom_site_fract_x
 _atom_site_fract_y
 _atom_site_fract_z
 _atom_site_occupancy
  Ac  Ac0  1  0.518461  0.320498  0.902257  1
  Ac  Ac1  1  0.018461  0.179502  0.597743  1
  Ac  Ac2  1  0.481539  0.679502  0.402257  1
  Ac  Ac3  1  0.981539  0.820498  0.097743  1
  Ac  Ac4  1  0.481539  0.679502  0.097743  1
  Ac  Ac5  1  0.981539  0.820498  0.402257  1
  Ac  Ac6  1  0.518461  0.320498  0.597743  1
  Ac  Ac7  1  0.018461  0.179502  0.902257  1
  La  La8  1  0.365144  0.841244  0.879821  1
  La  La9  1  0.865144  0.658756  0.620179  1
  La  La10  1  0.634856  0.158756  0.379821  1
  La  La11  1  0.134856  0.341244  0.120179  1
  La  La12  1  0.634856  0.158756  0.120179  1
  La  La13  1  0.134856  0.341244  0.379821  1
  La  La14  1  0.365144  0.841244  0.620179  1
  La  La15  1  0.865144  0.658756  0.879821  1
  Nd  Nd16  1  0.201215  0.502018  0.750000  1
  Nd  Nd17  1  0.701215  0.997982  0.750000  1
  Nd  Nd18  1  0.798785  0.497982  0.250000  1
  Nd  Nd19  1  0.298785  0.002018  0.250000  1
  Sn  Sn20  1  0.297916  0.040238  0.045316  1
  Sn  Sn21  1  0.797916  0.459762  0.454684  1
  Sn  Sn22  1  0.702084  0.959762  0.545316  1
  Sn  Sn23  1  0.202084  0.540238  0.954684  1
  Sn  Sn24  1  0.702084  0.959762  0.954684  1
  Sn  Sn25  1  0.202084  0.540238  0.545316  1
  Sn  Sn26  1  0.297916  0.040238  0.454684  1
  Sn  Sn27  1  0.797916  0.459762  0.045316  1
  Sn  Sn28  1  0.564642  0.625558  0.750000  1
  Sn  Sn29  1  0.064642  0.874442  0.750000  1
  Sn  Sn30  1  0.435358  0.374442  0.250000  1
  Sn  Sn31  1  0.935358  0.125558  0.250000  1
  Sn  Sn32  1  0.323878  0.141137  0.750000  1
  Sn  Sn33  1  0.823878  0.358863  0.750000  1
  Sn  Sn34  1  0.676122  0.858863  0.250000  1
  Sn  Sn35  1  0.176122  0.641137  0.250000  1
