# generated using pymatgen
data_Sc6Ti4Al12RuRh6
_symmetry_space_group_name_H-M   'P 1'
_cell_length_a   8.81258966
_cell_length_b   8.81258912
_cell_length_c   8.81259000
_cell_angle_alpha   60.00000421
_cell_angle_beta   60.00000624
_cell_angle_gamma   59.99999996
_symmetry_Int_Tables_number   1
_chemical_formula_structural   Sc6Ti4Al12RuRh6
_chemical_formula_sum   'Sc6 Ti4 Al12 Ru1 Rh6'
_cell_volume   483.94462683
_cell_formula_units_Z   1
loop_
 _symmetry_equiv_pos_site_id
 _symmetry_equiv_pos_as_xyz
  1  'x, y, z'
loop_
 _atom_site_type_symbol
 _atom_site_label
 _atom_site_symmetry_multiplicity
 _atom_site_fract_x
 _atom_site_fract_y
 _atom_site_fract_z
 _atom_site_occupancy
  Sc  Sc0  1  0.705559  0.294441  0.294441  1
  Sc  Sc1  1  0.705559  0.294441  0.705559  1
  Sc  Sc2  1  0.705559  0.705559  0.294441  1
  Sc  Sc3  1  0.294441  0.705559  0.705559  1
  Sc  Sc4  1  0.294441  0.705559  0.294441  1
  Sc  Sc5  1  0.294441  0.294441  0.705559  1
  Ti  Ti6  1  0.643040  0.118987  0.118987  1
  Ti  Ti7  1  0.118987  0.643040  0.118987  1
  Ti  Ti8  1  0.118987  0.118987  0.643040  1
  Ti  Ti9  1  0.118987  0.118987  0.118987  1
  Al  Al10  1  0.357289  0.880904  0.880904  1
  Al  Al11  1  0.880904  0.357289  0.880904  1
  Al  Al12  1  0.880904  0.880904  0.357289  1
  Al  Al13  1  0.880904  0.880904  0.880904  1
  Al  Al14  1  0.999985  0.333339  0.333339  1
  Al  Al15  1  0.333339  0.999985  0.333339  1
  Al  Al16  1  0.333339  0.333339  0.999985  1
  Al  Al17  1  0.333339  0.333339  0.333339  1
  Al  Al18  1  0.998786  0.667072  0.667072  1
  Al  Al19  1  0.667072  0.998786  0.667072  1
  Al  Al20  1  0.667072  0.667072  0.998786  1
  Al  Al21  1  0.667072  0.667072  0.667072  1
  Ru  Ru22  1  0.000000  0.000000  0.000000  1
  Rh  Rh23  1  0.498877  0.001123  0.001123  1
  Rh  Rh24  1  0.498877  0.001123  0.498877  1
  Rh  Rh25  1  0.498877  0.498877  0.001123  1
  Rh  Rh26  1  0.001123  0.498877  0.498877  1
  Rh  Rh27  1  0.001123  0.498877  0.001123  1
  Rh  Rh28  1  0.001123  0.001123  0.498877  1
