# generated using pymatgen
data_Eu12Y8Si15Pd
_symmetry_space_group_name_H-M   'P 1'
_cell_length_a   7.64552781
_cell_length_b   7.97919576
_cell_length_c   15.49450300
_cell_angle_alpha   89.84786348
_cell_angle_beta   90.61105943
_cell_angle_gamma   90.30603013
_symmetry_Int_Tables_number   1
_chemical_formula_structural   Eu12Y8Si15Pd
_chemical_formula_sum   'Eu12 Y8 Si15 Pd1'
_cell_volume   945.17425128
_cell_formula_units_Z   1
loop_
 _symmetry_equiv_pos_site_id
 _symmetry_equiv_pos_as_xyz
  1  'x, y, z'
loop_
 _atom_site_type_symbol
 _atom_site_label
 _atom_site_symmetry_multiplicity
 _atom_site_fract_x
 _atom_site_fract_y
 _atom_site_fract_z
 _atom_site_occupancy
  Eu  Eu0  1  0.975363  0.817080  0.405475  1
  Eu  Eu1  1  0.469237  0.682015  0.096666  1
  Eu  Eu2  1  0.520076  0.326941  0.595740  1
  Eu  Eu3  1  0.029122  0.183238  0.902838  1
  Eu  Eu4  1  0.027609  0.180514  0.595437  1
  Eu  Eu5  1  0.530908  0.318187  0.902833  1
  Eu  Eu6  1  0.473172  0.680337  0.405423  1
  Eu  Eu7  1  0.970397  0.818929  0.096161  1
  Eu  Eu8  1  0.350355  0.023956  0.749690  1
  Eu  Eu9  1  0.847877  0.477128  0.747163  1
  Eu  Eu10  1  0.151220  0.523169  0.252081  1
  Eu  Eu11  1  0.649433  0.976379  0.251701  1
  Y  Y12  1  0.315980  0.178681  0.121030  1
  Y  Y13  1  0.821485  0.323339  0.378701  1
  Y  Y14  1  0.182524  0.678971  0.878890  1
  Y  Y15  1  0.676537  0.819194  0.621960  1
  Y  Y16  1  0.318641  0.179252  0.377946  1
  Y  Y17  1  0.815280  0.320389  0.121131  1
  Y  Y18  1  0.185661  0.676474  0.620194  1
  Y  Y19  1  0.682817  0.821152  0.878671  1
  Si  Si20  1  0.360247  0.968179  0.961066  1
  Si  Si21  1  0.641296  0.034615  0.464354  1
  Si  Si22  1  0.137416  0.468162  0.038652  1
  Si  Si23  1  0.152912  0.462789  0.461768  1
  Si  Si24  1  0.638449  0.032278  0.038044  1
  Si  Si25  1  0.360265  0.968667  0.538076  1
  Si  Si26  1  0.860308  0.531613  0.961456  1
  Si  Si27  1  0.972791  0.877749  0.747735  1
  Si  Si28  1  0.470203  0.622811  0.753125  1
  Si  Si29  1  0.528392  0.376695  0.247988  1
  Si  Si30  1  0.026239  0.120445  0.250059  1
  Si  Si31  1  0.247550  0.401980  0.751279  1
  Si  Si32  1  0.749305  0.097382  0.750279  1
  Si  Si33  1  0.250023  0.901854  0.249616  1
  Si  Si34  1  0.749985  0.597761  0.250768  1
  Pd  Pd35  1  0.860925  0.531695  0.536006  1
