# generated using pymatgen
data_CaSmTaMnO6
_symmetry_space_group_name_H-M   'P 1'
_cell_length_a   5.80519200
_cell_length_b   9.68383489
_cell_length_c   9.76056977
_cell_angle_alpha   69.42583869
_cell_angle_beta   89.99978808
_cell_angle_gamma   89.99987534
_symmetry_Int_Tables_number   1
_chemical_formula_structural   CaSmTaMnO6
_chemical_formula_sum   'Ca4 Sm4 Ta4 Mn4 O24'
_cell_volume   513.70781474
_cell_formula_units_Z   4
loop_
 _symmetry_equiv_pos_site_id
 _symmetry_equiv_pos_as_xyz
  1  'x, y, z'
loop_
 _atom_site_type_symbol
 _atom_site_label
 _atom_site_symmetry_multiplicity
 _atom_site_fract_x
 _atom_site_fract_y
 _atom_site_fract_z
 _atom_site_occupancy
  Ca  Ca0  1  0.553845  0.881377  0.367624  1
  Ca  Ca1  1  0.553862  0.381372  0.867629  1
  Ca  Ca2  1  0.946136  0.881370  0.867634  1
  Ca  Ca3  1  0.946148  0.381375  0.367621  1
  Sm  Sm4  1  0.434906  0.117817  0.636754  1
  Sm  Sm5  1  0.434889  0.617823  0.136756  1
  Sm  Sm6  1  0.065108  0.117815  0.136754  1
  Sm  Sm7  1  0.065084  0.617818  0.636756  1
  Ta  Ta8  1  0.505166  0.000149  0.000797  1
  Ta  Ta9  1  0.505163  0.500175  0.500755  1
  Ta  Ta10  1  0.994814  0.000157  0.500765  1
  Ta  Ta11  1  0.994821  0.500163  0.000793  1
  Mn  Mn12  1  0.505307  0.749240  0.751205  1
  Mn  Mn13  1  0.994726  0.749244  0.251236  1
  Mn  Mn14  1  0.505261  0.249259  0.251205  1
  Mn  Mn15  1  0.994794  0.249297  0.751191  1
  O  O16  1  0.815971  0.120432  0.323613  1
  O  O17  1  0.815959  0.620440  0.823609  1
  O  O18  1  0.684036  0.120442  0.823604  1
  O  O19  1  0.684017  0.620432  0.323619  1
  O  O20  1  0.188214  0.880470  0.670794  1
  O  O21  1  0.188213  0.380472  0.170789  1
  O  O22  1  0.311788  0.880466  0.170791  1
  O  O23  1  0.311772  0.380470  0.670793  1
  O  O24  1  0.280955  0.061104  0.374461  1
  O  O25  1  0.280950  0.561103  0.874456  1
  O  O26  1  0.219051  0.061102  0.874454  1
  O  O27  1  0.219044  0.561101  0.374465  1
  O  O28  1  0.704388  0.945034  0.618822  1
  O  O29  1  0.704393  0.445036  0.118825  1
  O  O30  1  0.795616  0.945033  0.118820  1
  O  O31  1  0.795604  0.445029  0.618825  1
  O  O32  1  0.953430  0.821805  0.440980  1
  O  O33  1  0.953432  0.321814  0.940967  1
  O  O34  1  0.546570  0.321815  0.440972  1
  O  O35  1  0.546568  0.821808  0.940973  1
  O  O36  1  0.045634  0.172539  0.564969  1
  O  O37  1  0.045629  0.672531  0.064976  1
  O  O38  1  0.454362  0.672534  0.564974  1
  O  O39  1  0.454374  0.172536  0.064973  1
