# generated using pymatgen
data_RbUSe2
_symmetry_space_group_name_H-M   'P 1'
_cell_length_a   8.50778234
_cell_length_b   8.50778242
_cell_length_c   8.50778238
_cell_angle_alpha   28.57149089
_cell_angle_beta   28.57149340
_cell_angle_gamma   28.57149496
_symmetry_Int_Tables_number   1
_chemical_formula_structural   RbUSe2
_chemical_formula_sum   'Rb1 U1 Se2'
_cell_volume   124.50759132
_cell_formula_units_Z   1
loop_
 _symmetry_equiv_pos_site_id
 _symmetry_equiv_pos_as_xyz
  1  'x, y, z'
loop_
 _atom_site_type_symbol
 _atom_site_label
 _atom_site_symmetry_multiplicity
 _atom_site_fract_x
 _atom_site_fract_y
 _atom_site_fract_z
 _atom_site_occupancy
  Rb  Rb0  1  0.000000  0.000000  0.000000  1
  U  U1  1  0.500000  0.500000  0.500000  1
  Se  Se2  1  0.233690  0.233690  0.233690  1
  Se  Se3  1  0.766310  0.766310  0.766310  1
