# generated using pymatgen
data_Sm(FeRe2)4
_symmetry_space_group_name_H-M   'P 1'
_cell_length_a   4.82998304
_cell_length_b   6.76684622
_cell_length_c   6.76684624
_cell_angle_alpha   82.68250549
_cell_angle_beta   69.09092570
_cell_angle_gamma   69.09093481
_symmetry_Int_Tables_number   1
_chemical_formula_structural   Sm(FeRe2)4
_chemical_formula_sum   'Sm1 Fe4 Re8'
_cell_volume   192.99657008
_cell_formula_units_Z   1
loop_
 _symmetry_equiv_pos_site_id
 _symmetry_equiv_pos_as_xyz
  1  'x, y, z'
loop_
 _atom_site_type_symbol
 _atom_site_label
 _atom_site_symmetry_multiplicity
 _atom_site_fract_x
 _atom_site_fract_y
 _atom_site_fract_z
 _atom_site_occupancy
  Sm  Sm0  1  0.000000  0.000000  0.000000  1
  Fe  Fe1  1  0.000000  0.000000  0.500000  1
  Fe  Fe2  1  0.500000  0.000000  0.500000  1
  Fe  Fe3  1  0.500000  0.500000  0.000000  1
  Fe  Fe4  1  0.000000  0.500000  0.000000  1
  Re  Re5  1  0.000000  0.357316  0.642684  1
  Re  Re6  1  0.000000  0.642684  0.357316  1
  Re  Re7  1  0.642684  0.357316  0.357316  1
  Re  Re8  1  0.357316  0.642684  0.642684  1
  Re  Re9  1  0.500000  0.783441  0.216559  1
  Re  Re10  1  0.500000  0.216559  0.783441  1
  Re  Re11  1  0.716559  0.783441  0.783441  1
  Re  Re12  1  0.283441  0.216559  0.216559  1
