# generated using pymatgen
data_Tm3Al12TcIr3
_symmetry_space_group_name_H-M   'P 1'
_cell_length_a   8.80696000
_cell_length_b   8.80696079
_cell_length_c   9.50169800
_cell_angle_alpha   90.00000000
_cell_angle_beta   90.00000000
_cell_angle_gamma   119.99999704
_symmetry_Int_Tables_number   1
_chemical_formula_structural   Tm3Al12TcIr3
_chemical_formula_sum   'Tm6 Al24 Tc2 Ir6'
_cell_volume   638.23990448
_cell_formula_units_Z   2
loop_
 _symmetry_equiv_pos_site_id
 _symmetry_equiv_pos_as_xyz
  1  'x, y, z'
loop_
 _atom_site_type_symbol
 _atom_site_label
 _atom_site_symmetry_multiplicity
 _atom_site_fract_x
 _atom_site_fract_y
 _atom_site_fract_z
 _atom_site_occupancy
  Tm  Tm0  1  0.193656  0.387312  0.250000  1
  Tm  Tm1  1  0.806344  0.612688  0.750000  1
  Tm  Tm2  1  0.612688  0.806344  0.250000  1
  Tm  Tm3  1  0.387312  0.193656  0.750000  1
  Tm  Tm4  1  0.193656  0.806344  0.250000  1
  Tm  Tm5  1  0.806344  0.193656  0.750000  1
  Al  Al6  1  0.333333  0.666667  0.029947  1
  Al  Al7  1  0.666667  0.333333  0.970053  1
  Al  Al8  1  0.666667  0.333333  0.529947  1
  Al  Al9  1  0.333333  0.666667  0.470053  1
  Al  Al10  1  0.163161  0.326322  0.576802  1
  Al  Al11  1  0.836839  0.673678  0.423198  1
  Al  Al12  1  0.673678  0.836839  0.576802  1
  Al  Al13  1  0.836839  0.673678  0.076802  1
  Al  Al14  1  0.326322  0.163161  0.423198  1
  Al  Al15  1  0.163161  0.326322  0.923198  1
  Al  Al16  1  0.163161  0.836839  0.576802  1
  Al  Al17  1  0.326322  0.163161  0.076802  1
  Al  Al18  1  0.836839  0.163161  0.423198  1
  Al  Al19  1  0.673678  0.836839  0.923198  1
  Al  Al20  1  0.836839  0.163161  0.076802  1
  Al  Al21  1  0.163161  0.836839  0.923198  1
  Al  Al22  1  0.562860  0.125722  0.250000  1
  Al  Al23  1  0.437140  0.874278  0.750000  1
  Al  Al24  1  0.874278  0.437140  0.250000  1
  Al  Al25  1  0.125722  0.562860  0.750000  1
  Al  Al26  1  0.562860  0.437140  0.250000  1
  Al  Al27  1  0.437140  0.562860  0.750000  1
  Al  Al28  1  0.000000  0.000000  0.250000  1
  Al  Al29  1  0.000000  0.000000  0.750000  1
  Tc  Tc30  1  0.000000  0.000000  0.000000  1
  Tc  Tc31  1  0.000000  0.000000  0.500000  1
  Ir  Ir32  1  0.500000  0.000000  0.000000  1
  Ir  Ir33  1  0.000000  0.500000  0.000000  1
  Ir  Ir34  1  0.500000  0.000000  0.500000  1
  Ir  Ir35  1  0.500000  0.500000  0.000000  1
  Ir  Ir36  1  0.000000  0.500000  0.500000  1
  Ir  Ir37  1  0.500000  0.500000  0.500000  1
