# generated using pymatgen
data_I(OF3)2
_symmetry_space_group_name_H-M   'P 1'
_cell_length_a   5.48901866
_cell_length_b   5.53125337
_cell_length_c   5.54961500
_cell_angle_alpha   91.13212882
_cell_angle_beta   102.47711993
_cell_angle_gamma   100.82789614
_symmetry_Int_Tables_number   1
_chemical_formula_structural   I(OF3)2
_chemical_formula_sum   'I1 O2 F6'
_cell_volume   161.26407938
_cell_formula_units_Z   1
loop_
 _symmetry_equiv_pos_site_id
 _symmetry_equiv_pos_as_xyz
  1  'x, y, z'
loop_
 _atom_site_type_symbol
 _atom_site_label
 _atom_site_symmetry_multiplicity
 _atom_site_fract_x
 _atom_site_fract_y
 _atom_site_fract_z
 _atom_site_occupancy
  I  I0  1  0.000000  0.000000  0.000000  1
  O  O1  1  0.413601  0.539617  0.528494  1
  O  O2  1  0.586399  0.460383  0.471506  1
  F  F3  1  0.791406  0.700555  0.077161  1
  F  F4  1  0.700262  0.084044  0.790212  1
  F  F5  1  0.299738  0.915956  0.209788  1
  F  F6  1  0.057800  0.822069  0.720017  1
  F  F7  1  0.942200  0.177931  0.279983  1
  F  F8  1  0.208594  0.299445  0.922839  1
