# generated using pymatgen
data_ErTa8InSe16
_symmetry_space_group_name_H-M   'P 1'
_cell_length_a   7.04044000
_cell_length_b   7.04044009
_cell_length_c   14.86034600
_cell_angle_alpha   90.00000000
_cell_angle_beta   90.00000000
_cell_angle_gamma   119.99999957
_symmetry_Int_Tables_number   1
_chemical_formula_structural   ErTa8InSe16
_chemical_formula_sum   'Er1 Ta8 In1 Se16'
_cell_volume   637.90963834
_cell_formula_units_Z   1
loop_
 _symmetry_equiv_pos_site_id
 _symmetry_equiv_pos_as_xyz
  1  'x, y, z'
loop_
 _atom_site_type_symbol
 _atom_site_label
 _atom_site_symmetry_multiplicity
 _atom_site_fract_x
 _atom_site_fract_y
 _atom_site_fract_z
 _atom_site_occupancy
  Er  Er0  1  0.000000  0.000000  0.500000  1
  Ta  Ta1  1  0.000000  0.000000  0.261913  1
  Ta  Ta2  1  0.000000  0.000000  0.738087  1
  Ta  Ta3  1  0.505238  0.010477  0.259052  1
  Ta  Ta4  1  0.989523  0.494762  0.259052  1
  Ta  Ta5  1  0.505238  0.494762  0.259052  1
  Ta  Ta6  1  0.494762  0.989523  0.740948  1
  Ta  Ta7  1  0.010477  0.505238  0.740948  1
  Ta  Ta8  1  0.494762  0.505238  0.740948  1
  In  In9  1  0.000000  0.000000  0.000000  1
  Se  Se10  1  0.333333  0.666667  0.854322  1
  Se  Se11  1  0.666667  0.333333  0.145678  1
  Se  Se12  1  0.666667  0.333333  0.373181  1
  Se  Se13  1  0.333333  0.666667  0.626819  1
  Se  Se14  1  0.169956  0.830044  0.371416  1
  Se  Se15  1  0.169956  0.339913  0.371416  1
  Se  Se16  1  0.660087  0.830044  0.371416  1
  Se  Se17  1  0.830044  0.169956  0.628584  1
  Se  Se18  1  0.830044  0.660087  0.628584  1
  Se  Se19  1  0.339913  0.169956  0.628584  1
  Se  Se20  1  0.833328  0.166672  0.848903  1
  Se  Se21  1  0.833328  0.666656  0.848903  1
  Se  Se22  1  0.333344  0.166672  0.848903  1
  Se  Se23  1  0.166672  0.833328  0.151097  1
  Se  Se24  1  0.166672  0.333344  0.151097  1
  Se  Se25  1  0.666656  0.833328  0.151097  1
