# generated using pymatgen
data_NdY4Bi2As
_symmetry_space_group_name_H-M   'P 1'
_cell_length_a   12.18742600
_cell_length_b   9.23163500
_cell_length_c   8.17661500
_cell_angle_alpha   90.00000000
_cell_angle_beta   90.00000000
_cell_angle_gamma   90.00000000
_symmetry_Int_Tables_number   1
_chemical_formula_structural   NdY4Bi2As
_chemical_formula_sum   'Nd4 Y16 Bi8 As4'
_cell_volume   919.94987778
_cell_formula_units_Z   4
loop_
 _symmetry_equiv_pos_site_id
 _symmetry_equiv_pos_as_xyz
  1  'x, y, z'
loop_
 _atom_site_type_symbol
 _atom_site_label
 _atom_site_symmetry_multiplicity
 _atom_site_fract_x
 _atom_site_fract_y
 _atom_site_fract_z
 _atom_site_occupancy
  Nd  Nd0  1  0.713163  0.250000  0.659801  1
  Nd  Nd1  1  0.213163  0.250000  0.840199  1
  Nd  Nd2  1  0.286837  0.750000  0.340199  1
  Nd  Nd3  1  0.786837  0.750000  0.159801  1
  Y  Y4  1  0.563422  0.054387  0.317385  1
  Y  Y5  1  0.063422  0.445613  0.182615  1
  Y  Y6  1  0.436578  0.554387  0.682615  1
  Y  Y7  1  0.936578  0.945613  0.817385  1
  Y  Y8  1  0.436578  0.945613  0.682615  1
  Y  Y9  1  0.936578  0.554387  0.817385  1
  Y  Y10  1  0.563422  0.445613  0.317385  1
  Y  Y11  1  0.063422  0.054387  0.182615  1
  Y  Y12  1  0.499643  0.250000  0.964740  1
  Y  Y13  1  0.999643  0.250000  0.535260  1
  Y  Y14  1  0.500357  0.750000  0.035260  1
  Y  Y15  1  0.000357  0.750000  0.464740  1
  Y  Y16  1  0.793693  0.250000  0.137647  1
  Y  Y17  1  0.293693  0.250000  0.362353  1
  Y  Y18  1  0.206307  0.750000  0.862353  1
  Y  Y19  1  0.706307  0.750000  0.637647  1
  Bi  Bi20  1  0.829315  0.009027  0.426577  1
  Bi  Bi21  1  0.329315  0.490973  0.073423  1
  Bi  Bi22  1  0.170685  0.509027  0.573423  1
  Bi  Bi23  1  0.670685  0.990973  0.926577  1
  Bi  Bi24  1  0.170685  0.990973  0.573423  1
  Bi  Bi25  1  0.670685  0.509027  0.926577  1
  Bi  Bi26  1  0.829315  0.490973  0.426577  1
  Bi  Bi27  1  0.329315  0.009027  0.073423  1
  As  As28  1  0.976401  0.250000  0.916102  1
  As  As29  1  0.476401  0.250000  0.583898  1
  As  As30  1  0.023599  0.750000  0.083898  1
  As  As31  1  0.523599  0.750000  0.416102  1
