# generated using pymatgen
data_YbSmIrO6
_symmetry_space_group_name_H-M   'P 1'
_cell_length_a   5.26745100
_cell_length_b   9.10921459
_cell_length_c   9.82505800
_cell_angle_alpha   90.00000000
_cell_angle_beta   90.00000000
_cell_angle_gamma   90.09524126
_symmetry_Int_Tables_number   1
_chemical_formula_structural   YbSmIrO6
_chemical_formula_sum   'Yb4 Sm4 Ir4 O24'
_cell_volume   471.42863666
_cell_formula_units_Z   4
loop_
 _symmetry_equiv_pos_site_id
 _symmetry_equiv_pos_as_xyz
  1  'x, y, z'
loop_
 _atom_site_type_symbol
 _atom_site_label
 _atom_site_symmetry_multiplicity
 _atom_site_fract_x
 _atom_site_fract_y
 _atom_site_fract_z
 _atom_site_occupancy
  Yb  Yb0  1  0.028149  0.404953  0.032508  1
  Yb  Yb1  1  0.034994  0.282693  0.627140  1
  Yb  Yb2  1  0.465006  0.717307  0.127140  1
  Yb  Yb3  1  0.471851  0.595047  0.532508  1
  Sm  Sm4  1  0.536034  0.106877  0.966919  1
  Sm  Sm5  1  0.539566  0.221135  0.373562  1
  Sm  Sm6  1  0.960434  0.778865  0.873562  1
  Sm  Sm7  1  0.963966  0.893123  0.466919  1
  Ir  Ir8  1  0.054274  0.000429  0.146204  1
  Ir  Ir9  1  0.445726  0.999571  0.646204  1
  Ir  Ir10  1  0.548321  0.493647  0.852121  1
  Ir  Ir11  1  0.951679  0.506353  0.352121  1
  O  O12  1  0.062226  0.647491  0.483691  1
  O  O13  1  0.156581  0.566413  0.209101  1
  O  O14  1  0.183783  0.853025  0.263423  1
  O  O15  1  0.161127  0.872407  0.683787  1
  O  O16  1  0.226189  0.389843  0.422923  1
  O  O17  1  0.239992  0.090886  0.502573  1
  O  O18  1  0.260008  0.909114  0.002573  1
  O  O19  1  0.273811  0.610157  0.922923  1
  O  O20  1  0.338873  0.127593  0.183787  1
  O  O21  1  0.316217  0.146975  0.763423  1
  O  O22  1  0.343419  0.433587  0.709101  1
  O  O23  1  0.437774  0.352509  0.983691  1
  O  O24  1  0.548048  0.845022  0.524993  1
  O  O25  1  0.651372  0.937366  0.793968  1
  O  O26  1  0.691356  0.634808  0.732029  1
  O  O27  1  0.684978  0.640117  0.319914  1
  O  O28  1  0.726571  0.110537  0.572313  1
  O  O29  1  0.748843  0.409457  0.492832  1
  O  O30  1  0.751157  0.590543  0.992832  1
  O  O31  1  0.773429  0.889463  0.072313  1
  O  O32  1  0.815022  0.359883  0.819914  1
  O  O33  1  0.808644  0.365192  0.232029  1
  O  O34  1  0.848628  0.062634  0.293968  1
  O  O35  1  0.951952  0.154978  0.024993  1
