# generated using pymatgen
data_CeGa4Cu9
_symmetry_space_group_name_H-M   'P 1'
_cell_length_a   8.30666425
_cell_length_b   8.30666381
_cell_length_c   8.30666349
_cell_angle_alpha   120.52490555
_cell_angle_beta   120.52489566
_cell_angle_gamma   89.09322448
_symmetry_Int_Tables_number   1
_chemical_formula_structural   CeGa4Cu9
_chemical_formula_sum   'Ce2 Ga8 Cu18'
_cell_volume   402.01898499
_cell_formula_units_Z   2
loop_
 _symmetry_equiv_pos_site_id
 _symmetry_equiv_pos_as_xyz
  1  'x, y, z'
loop_
 _atom_site_type_symbol
 _atom_site_label
 _atom_site_symmetry_multiplicity
 _atom_site_fract_x
 _atom_site_fract_y
 _atom_site_fract_z
 _atom_site_occupancy
  Ce  Ce0  1  0.750000  0.750000  0.000000  1
  Ce  Ce1  1  0.250000  0.250000  0.000000  1
  Ga  Ga2  1  0.805203  0.305202  0.862541  1
  Ga  Ga3  1  0.442661  0.942662  0.137460  1
  Ga  Ga4  1  0.694799  0.557339  0.500000  1
  Ga  Ga5  1  0.057338  0.194798  0.500000  1
  Ga  Ga6  1  0.194799  0.694799  0.137460  1
  Ga  Ga7  1  0.557338  0.057338  0.862541  1
  Ga  Ga8  1  0.942662  0.805202  0.500000  1
  Ga  Ga9  1  0.305202  0.442662  0.500000  1
  Cu  Cu10  1  0.202150  0.061659  0.263808  1
  Cu  Cu11  1  0.797848  0.938342  0.736193  1
  Cu  Cu12  1  0.297849  0.561658  0.859507  1
  Cu  Cu13  1  0.702149  0.438341  0.140492  1
  Cu  Cu14  1  0.438343  0.297849  0.736193  1
  Cu  Cu15  1  0.561658  0.702149  0.263808  1
  Cu  Cu16  1  0.938342  0.202150  0.140494  1
  Cu  Cu17  1  0.061659  0.797849  0.859508  1
  Cu  Cu18  1  0.499999  0.000000  0.499999  1
  Cu  Cu19  1  0.000000  0.499999  0.499999  1
  Cu  Cu20  1  0.294124  0.794123  0.732202  1
  Cu  Cu21  1  0.061921  0.561922  0.267799  1
  Cu  Cu22  1  0.205877  0.938079  0.499999  1
  Cu  Cu23  1  0.438080  0.705878  0.500002  1
  Cu  Cu24  1  0.705878  0.205877  0.267799  1
  Cu  Cu25  1  0.938079  0.438080  0.732202  1
  Cu  Cu26  1  0.561922  0.294124  0.500002  1
  Cu  Cu27  1  0.794123  0.061921  0.499999  1
