# generated using pymatgen
data_U8Ta3Nb8Si16Mo
_symmetry_space_group_name_H-M   'P 1'
_cell_length_a   7.03328179
_cell_length_b   7.03138093
_cell_length_c   12.98153534
_cell_angle_alpha   90.01589587
_cell_angle_beta   89.97633914
_cell_angle_gamma   90.04959621
_symmetry_Int_Tables_number   1
_chemical_formula_structural   U8Ta3Nb8Si16Mo
_chemical_formula_sum   'U8 Ta3 Nb8 Si16 Mo1'
_cell_volume   641.98441981
_cell_formula_units_Z   1
loop_
 _symmetry_equiv_pos_site_id
 _symmetry_equiv_pos_as_xyz
  1  'x, y, z'
loop_
 _atom_site_type_symbol
 _atom_site_label
 _atom_site_symmetry_multiplicity
 _atom_site_fract_x
 _atom_site_fract_y
 _atom_site_fract_z
 _atom_site_occupancy
  U  U0  1  0.995188  0.330947  0.221004  1
  U  U1  1  0.008198  0.671125  0.717921  1
  U  U2  1  0.167171  0.495938  0.468847  1
  U  U3  1  0.505174  0.831109  0.032385  1
  U  U4  1  0.830553  0.505610  0.968912  1
  U  U5  1  0.494851  0.167279  0.529534  1
  U  U6  1  0.329557  0.992334  0.780506  1
  U  U7  1  0.668986  0.005582  0.280799  1
  Ta  Ta8  1  0.168269  0.168134  0.000523  1
  Ta  Ta9  1  0.831978  0.832548  0.499234  1
  Ta  Ta10  1  0.330256  0.668441  0.250568  1
  Nb  Nb11  1  0.668674  0.331313  0.749765  1
  Nb  Nb12  1  0.844309  0.001041  0.874066  1
  Nb  Nb13  1  0.498235  0.657313  0.623366  1
  Nb  Nb14  1  0.344098  0.499075  0.876252  1
  Nb  Nb15  1  0.497812  0.342099  0.124772  1
  Nb  Nb16  1  0.657526  0.500265  0.375841  1
  Nb  Nb17  1  0.999558  0.155917  0.625727  1
  Nb  Nb18  1  0.000267  0.844854  0.125939  1
  Si  Si19  1  0.295806  0.038663  0.186796  1
  Si  Si20  1  0.702411  0.959872  0.683949  1
  Si  Si21  1  0.458796  0.797568  0.433483  1
  Si  Si22  1  0.201602  0.538849  0.065981  1
  Si  Si23  1  0.539026  0.201645  0.934823  1
  Si  Si24  1  0.796448  0.460993  0.565280  1
  Si  Si25  1  0.040483  0.298188  0.815422  1
  Si  Si26  1  0.962846  0.707816  0.315807  1
  Si  Si27  1  0.370114  0.291260  0.317042  1
  Si  Si28  1  0.629307  0.707170  0.815497  1
  Si  Si29  1  0.204917  0.871944  0.562801  1
  Si  Si30  1  0.128870  0.793110  0.934728  1
  Si  Si31  1  0.793797  0.130319  0.065879  1
  Si  Si32  1  0.875419  0.203584  0.433925  1
  Si  Si33  1  0.293447  0.369959  0.683836  1
  Si  Si34  1  0.706755  0.627707  0.184640  1
  Mo  Mo35  1  0.159299  0.000432  0.374149  1
