# generated using pymatgen
data_Mg5Ga4Rh3
_symmetry_space_group_name_H-M   'P 1'
_cell_length_a   7.43898600
_cell_length_b   7.53036368
_cell_length_c   8.61281503
_cell_angle_alpha   89.99282361
_cell_angle_beta   90.00000000
_cell_angle_gamma   119.59939713
_symmetry_Int_Tables_number   1
_chemical_formula_structural   Mg5Ga4Rh3
_chemical_formula_sum   'Mg10 Ga8 Rh6'
_cell_volume   419.51206772
_cell_formula_units_Z   2
loop_
 _symmetry_equiv_pos_site_id
 _symmetry_equiv_pos_as_xyz
  1  'x, y, z'
loop_
 _atom_site_type_symbol
 _atom_site_label
 _atom_site_symmetry_multiplicity
 _atom_site_fract_x
 _atom_site_fract_y
 _atom_site_fract_z
 _atom_site_occupancy
  Mg  Mg0  1  0.288625  0.000243  0.077382  1
  Mg  Mg1  1  0.711617  0.000243  0.577382  1
  Mg  Mg2  1  0.000646  0.709588  0.577214  1
  Mg  Mg3  1  0.708942  0.709588  0.077214  1
  Mg  Mg4  1  0.621328  0.622615  0.419336  1
  Mg  Mg5  1  0.001287  0.622615  0.919336  1
  Mg  Mg6  1  0.637885  0.008720  0.915307  1
  Mg  Mg7  1  0.370835  0.008720  0.415307  1
  Mg  Mg8  1  0.005827  0.368278  0.414860  1
  Mg  Mg9  1  0.362451  0.368278  0.914860  1
  Ga  Ga10  1  0.990964  0.986293  0.304651  1
  Ga  Ga11  1  0.995329  0.986293  0.804651  1
  Ga  Ga12  1  0.338827  0.674671  0.214429  1
  Ga  Ga13  1  0.674487  0.338540  0.714549  1
  Ga  Ga14  1  0.335843  0.674671  0.714429  1
  Ga  Ga15  1  0.664055  0.338540  0.214549  1
  Ga  Ga16  1  0.286361  0.286395  0.576806  1
  Ga  Ga17  1  0.000033  0.286395  0.076806  1
  Rh  Rh18  1  0.313565  0.324671  0.251359  1
  Rh  Rh19  1  0.011105  0.324671  0.751359  1
  Rh  Rh20  1  0.333332  0.011645  0.741223  1
  Rh  Rh21  1  0.678313  0.011645  0.241223  1
  Rh  Rh22  1  0.000446  0.668343  0.247382  1
  Rh  Rh23  1  0.667897  0.668343  0.747382  1
