# generated using pymatgen
data_Tb3YNiB14
_symmetry_space_group_name_H-M   'P 1'
_cell_length_a   7.24365118
_cell_length_b   7.24455418
_cell_length_c   7.52627200
_cell_angle_alpha   90.00000000
_cell_angle_beta   90.00000000
_cell_angle_gamma   90.06544155
_symmetry_Int_Tables_number   1
_chemical_formula_structural   Tb3YNiB14
_chemical_formula_sum   'Tb6 Y2 Ni2 B28'
_cell_volume   394.95609464
_cell_formula_units_Z   2
loop_
 _symmetry_equiv_pos_site_id
 _symmetry_equiv_pos_as_xyz
  1  'x, y, z'
loop_
 _atom_site_type_symbol
 _atom_site_label
 _atom_site_symmetry_multiplicity
 _atom_site_fract_x
 _atom_site_fract_y
 _atom_site_fract_z
 _atom_site_occupancy
  Tb  Tb0  1  0.193452  0.331676  0.000000  1
  Tb  Tb1  1  0.668425  0.193602  0.000000  1
  Tb  Tb2  1  0.331575  0.806398  0.000000  1
  Tb  Tb3  1  0.693560  0.168406  0.500000  1
  Tb  Tb4  1  0.306440  0.831594  0.500000  1
  Tb  Tb5  1  0.806548  0.668324  0.000000  1
  Y  Y6  1  0.831964  0.693471  0.500000  1
  Y  Y7  1  0.168036  0.306529  0.500000  1
  Ni  Ni8  1  0.000000  0.000000  0.000000  1
  Ni  Ni9  1  0.500000  0.500000  0.500000  1
  B  B10  1  0.174252  0.039353  0.232923  1
  B  B11  1  0.960738  0.174219  0.233047  1
  B  B12  1  0.039262  0.825781  0.233047  1
  B  B13  1  0.674285  0.460751  0.267420  1
  B  B14  1  0.325715  0.539249  0.267420  1
  B  B15  1  0.825748  0.960647  0.232923  1
  B  B16  1  0.539431  0.674276  0.267363  1
  B  B17  1  0.460569  0.325724  0.267363  1
  B  B18  1  0.825748  0.960647  0.767077  1
  B  B19  1  0.039262  0.825781  0.766953  1
  B  B20  1  0.960738  0.174219  0.766953  1
  B  B21  1  0.325715  0.539249  0.732580  1
  B  B22  1  0.674285  0.460751  0.732580  1
  B  B23  1  0.174252  0.039353  0.767077  1
  B  B24  1  0.460569  0.325724  0.732637  1
  B  B25  1  0.539431  0.674276  0.732637  1
  B  B26  1  0.089546  0.589613  0.250047  1
  B  B27  1  0.410602  0.089405  0.249952  1
  B  B28  1  0.589398  0.910595  0.249952  1
  B  B29  1  0.910454  0.410387  0.250047  1
  B  B30  1  0.910454  0.410387  0.749953  1
  B  B31  1  0.589398  0.910595  0.750048  1
  B  B32  1  0.410602  0.089405  0.750048  1
  B  B33  1  0.089546  0.589613  0.749953  1
  B  B34  1  0.000000  0.000000  0.388729  1
  B  B35  1  0.500000  0.500000  0.111552  1
  B  B36  1  0.000000  0.000000  0.611271  1
  B  B37  1  0.500000  0.500000  0.888448  1
