# generated using pymatgen
data_HoEr15(Ga3Os)2
_symmetry_space_group_name_H-M   'P 1'
_cell_length_a   9.94115400
_cell_length_b   9.94115458
_cell_length_c   6.99817500
_cell_angle_alpha   90.00000000
_cell_angle_beta   90.00000000
_cell_angle_gamma   120.00000472
_symmetry_Int_Tables_number   1
_chemical_formula_structural   HoEr15(Ga3Os)2
_chemical_formula_sum   'Ho1 Er15 Ga6 Os2'
_cell_volume   598.94788823
_cell_formula_units_Z   1
loop_
 _symmetry_equiv_pos_site_id
 _symmetry_equiv_pos_as_xyz
  1  'x, y, z'
loop_
 _atom_site_type_symbol
 _atom_site_label
 _atom_site_symmetry_multiplicity
 _atom_site_fract_x
 _atom_site_fract_y
 _atom_site_fract_z
 _atom_site_occupancy
  Ho  Ho0  1  0.000000  0.000000  0.266339  1
  Er  Er1  1  0.000000  0.000000  0.766180  1
  Er  Er2  1  0.171631  0.828369  0.990971  1
  Er  Er3  1  0.828380  0.171620  0.491095  1
  Er  Er4  1  0.171631  0.343263  0.990971  1
  Er  Er5  1  0.656737  0.828369  0.990971  1
  Er  Er6  1  0.343240  0.171620  0.491095  1
  Er  Er7  1  0.828380  0.656760  0.491095  1
  Er  Er8  1  0.333333  0.666667  0.660497  1
  Er  Er9  1  0.666667  0.333333  0.160421  1
  Er  Er10  1  0.465971  0.534029  0.295540  1
  Er  Er11  1  0.534030  0.465970  0.795516  1
  Er  Er12  1  0.465971  0.931942  0.295540  1
  Er  Er13  1  0.068058  0.534029  0.295540  1
  Er  Er14  1  0.931940  0.465970  0.795516  1
  Er  Er15  1  0.534030  0.068060  0.795516  1
  Ga  Ga16  1  0.163891  0.836109  0.543546  1
  Ga  Ga17  1  0.836103  0.163897  0.043396  1
  Ga  Ga18  1  0.163891  0.327782  0.543546  1
  Ga  Ga19  1  0.672218  0.836109  0.543546  1
  Ga  Ga20  1  0.327794  0.163897  0.043396  1
  Ga  Ga21  1  0.836103  0.672206  0.043396  1
  Os  Os22  1  0.333333  0.666667  0.056297  1
  Os  Os23  1  0.666667  0.333333  0.556198  1
