# generated using pymatgen
data_Th10Al2SnBi5
_symmetry_space_group_name_H-M   'P 1'
_cell_length_a   9.72758000
_cell_length_b   9.72909957
_cell_length_c   6.54360400
_cell_angle_alpha   90.00000000
_cell_angle_beta   90.00000000
_cell_angle_gamma   119.99483347
_symmetry_Int_Tables_number   1
_chemical_formula_structural   Th10Al2SnBi5
_chemical_formula_sum   'Th10 Al2 Sn1 Bi5'
_cell_volume   536.34928716
_cell_formula_units_Z   1
loop_
 _symmetry_equiv_pos_site_id
 _symmetry_equiv_pos_as_xyz
  1  'x, y, z'
loop_
 _atom_site_type_symbol
 _atom_site_label
 _atom_site_symmetry_multiplicity
 _atom_site_fract_x
 _atom_site_fract_y
 _atom_site_fract_z
 _atom_site_occupancy
  Th  Th0  1  0.333779  0.669690  0.998542  1
  Th  Th1  1  0.664091  0.330310  0.501458  1
  Th  Th2  1  0.664091  0.330310  0.998542  1
  Th  Th3  1  0.333779  0.669690  0.501458  1
  Th  Th4  1  0.266607  0.000000  0.250000  1
  Th  Th5  1  0.268862  0.264809  0.750000  1
  Th  Th6  1  0.004054  0.735191  0.750000  1
  Th  Th7  1  0.999794  0.265574  0.250000  1
  Th  Th8  1  0.734220  0.734426  0.250000  1
  Th  Th9  1  0.731280  0.000000  0.750000  1
  Al  Al10  1  0.999718  0.000000  0.998909  1
  Al  Al11  1  0.999718  0.000000  0.501091  1
  Sn  Sn12  1  0.384523  0.000000  0.750000  1
  Bi  Bi13  1  0.613493  0.000000  0.250000  1
  Bi  Bi14  1  0.616321  0.615573  0.750000  1
  Bi  Bi15  1  0.000748  0.384427  0.750000  1
  Bi  Bi16  1  0.999331  0.613738  0.250000  1
  Bi  Bi17  1  0.385593  0.386262  0.250000  1
