# generated using pymatgen
data_Zr2U9S20
_symmetry_space_group_name_H-M   'P 1'
_cell_length_a   10.16888566
_cell_length_b   10.16357115
_cell_length_c   6.29279144
_cell_angle_alpha   90.01605018
_cell_angle_beta   89.96027423
_cell_angle_gamma   90.01150556
_symmetry_Int_Tables_number   1
_chemical_formula_structural   Zr2U9S20
_chemical_formula_sum   'Zr2 U9 S20'
_cell_volume   650.37360018
_cell_formula_units_Z   1
loop_
 _symmetry_equiv_pos_site_id
 _symmetry_equiv_pos_as_xyz
  1  'x, y, z'
loop_
 _atom_site_type_symbol
 _atom_site_label
 _atom_site_symmetry_multiplicity
 _atom_site_fract_x
 _atom_site_fract_y
 _atom_site_fract_z
 _atom_site_occupancy
  Zr  Zr0  1  0.000165  0.000183  0.355748  1
  Zr  Zr1  1  0.999536  0.000414  0.856565  1
  U  U2  1  0.844337  0.651545  0.256023  1
  U  U3  1  0.839389  0.350645  0.756142  1
  U  U4  1  0.160354  0.649099  0.754081  1
  U  U5  1  0.155437  0.348033  0.256362  1
  U  U6  1  0.649082  0.839701  0.755880  1
  U  U7  1  0.651631  0.155579  0.256511  1
  U  U8  1  0.348242  0.844672  0.255634  1
  U  U9  1  0.350118  0.160606  0.754051  1
  U  U10  1  0.499676  0.500353  0.133852  1
  S  S11  1  0.289225  0.590140  0.377054  1
  S  S12  1  0.288009  0.409872  0.884952  1
  S  S13  1  0.712012  0.590277  0.883564  1
  S  S14  1  0.710922  0.409642  0.375949  1
  S  S15  1  0.590572  0.287818  0.885009  1
  S  S16  1  0.589868  0.710825  0.376672  1
  S  S17  1  0.409539  0.289443  0.376758  1
  S  S18  1  0.410312  0.711995  0.884262  1
  S  S19  1  0.200949  0.915468  0.614050  1
  S  S20  1  0.200356  0.083717  0.110917  1
  S  S21  1  0.800132  0.915859  0.112171  1
  S  S22  1  0.799792  0.083971  0.613528  1
  S  S23  1  0.916081  0.199946  0.111855  1
  S  S24  1  0.916068  0.799648  0.613332  1
  S  S25  1  0.084634  0.200696  0.614004  1
  S  S26  1  0.083927  0.799901  0.111568  1
  S  S27  1  0.999064  0.500047  0.508298  1
  S  S28  1  0.000570  0.499696  0.005880  1
  S  S29  1  0.500382  0.000562  0.005398  1
  S  S30  1  0.499618  0.999648  0.508131  1
