# generated using pymatgen
data_Pr4InPd4Au
_symmetry_space_group_name_H-M   'P 1'
_cell_length_a   7.84830200
_cell_length_b   7.84830200
_cell_length_c   3.92500600
_cell_angle_alpha   90.00000000
_cell_angle_beta   90.00000000
_cell_angle_gamma   90.00000000
_symmetry_Int_Tables_number   1
_chemical_formula_structural   Pr4InPd4Au
_chemical_formula_sum   'Pr4 In1 Pd4 Au1'
_cell_volume   241.76405839
_cell_formula_units_Z   1
loop_
 _symmetry_equiv_pos_site_id
 _symmetry_equiv_pos_as_xyz
  1  'x, y, z'
loop_
 _atom_site_type_symbol
 _atom_site_label
 _atom_site_symmetry_multiplicity
 _atom_site_fract_x
 _atom_site_fract_y
 _atom_site_fract_z
 _atom_site_occupancy
  Pr  Pr0  1  0.311849  0.835757  0.500000  1
  Pr  Pr1  1  0.835757  0.688151  0.500000  1
  Pr  Pr2  1  0.164243  0.311849  0.500000  1
  Pr  Pr3  1  0.688151  0.164243  0.500000  1
  In  In4  1  0.500000  0.500000  0.000000  1
  Pd  Pd5  1  0.382370  0.135640  0.000000  1
  Pd  Pd6  1  0.864360  0.382370  0.000000  1
  Pd  Pd7  1  0.135640  0.617630  0.000000  1
  Pd  Pd8  1  0.617630  0.864360  0.000000  1
  Au  Au9  1  0.000000  0.000000  0.000000  1
