# generated using pymatgen
data_K2Al(TeO4)3
_symmetry_space_group_name_H-M   'P 1'
_cell_length_a   7.04604101
_cell_length_b   7.24251709
_cell_length_c   7.04631481
_cell_angle_alpha   90.00000124
_cell_angle_beta   61.85553133
_cell_angle_gamma   120.92677877
_symmetry_Int_Tables_number   1
_chemical_formula_structural   K2Al(TeO4)3
_chemical_formula_sum   'K2 Al1 Te3 O12'
_cell_volume   257.63819782
_cell_formula_units_Z   1
loop_
 _symmetry_equiv_pos_site_id
 _symmetry_equiv_pos_as_xyz
  1  'x, y, z'
loop_
 _atom_site_type_symbol
 _atom_site_label
 _atom_site_symmetry_multiplicity
 _atom_site_fract_x
 _atom_site_fract_y
 _atom_site_fract_z
 _atom_site_occupancy
  K  K0  1  0.263193  0.128927  0.631524  1
  K  K1  1  0.736807  0.865735  0.368476  1
  Al  Al2  1  0.000000  0.497368  0.000000  1
  Te  Te3  1  0.499999  0.497314  0.999991  1
  Te  Te4  1  0.500001  0.997316  0.000009  1
  Te  Te5  1  0.000000  0.497302  0.500000  1
  O  O6  1  0.658099  0.826378  0.928660  1
  O  O7  1  0.860916  0.427784  0.315610  1
  O  O8  1  0.246068  0.427804  0.930451  1
  O  O9  1  0.257694  0.826396  0.329054  1
  O  O10  1  0.246093  0.812959  0.930455  1
  O  O11  1  0.257729  0.426000  0.329022  1
  O  O12  1  0.341901  0.168277  0.071340  1
  O  O13  1  0.139084  0.566868  0.684390  1
  O  O14  1  0.753907  0.566865  0.069545  1
  O  O15  1  0.742271  0.168272  0.670978  1
  O  O16  1  0.753932  0.181735  0.069549  1
  O  O17  1  0.742306  0.568703  0.670946  1
