# generated using pymatgen
data_BaAcNd2(AsPt)4
_symmetry_space_group_name_H-M   'P 1'
_cell_length_a   4.38884900
_cell_length_b   4.38885035
_cell_length_c   17.14710800
_cell_angle_alpha   90.00000000
_cell_angle_beta   90.00000000
_cell_angle_gamma   119.99999735
_symmetry_Int_Tables_number   1
_chemical_formula_structural   BaAcNd2(AsPt)4
_chemical_formula_sum   'Ba1 Ac1 Nd2 As4 Pt4'
_cell_volume   286.03747683
_cell_formula_units_Z   1
loop_
 _symmetry_equiv_pos_site_id
 _symmetry_equiv_pos_as_xyz
  1  'x, y, z'
loop_
 _atom_site_type_symbol
 _atom_site_label
 _atom_site_symmetry_multiplicity
 _atom_site_fract_x
 _atom_site_fract_y
 _atom_site_fract_z
 _atom_site_occupancy
  Ba  Ba0  1  0.000000  0.000000  0.250000  1
  Ac  Ac1  1  0.000000  0.000000  0.750000  1
  Nd  Nd2  1  0.000000  0.000000  0.504725  1
  Nd  Nd3  1  0.000000  0.000000  0.995275  1
  As  As4  1  0.333333  0.666667  0.875519  1
  As  As5  1  0.666667  0.333333  0.110713  1
  As  As6  1  0.666667  0.333333  0.389287  1
  As  As7  1  0.333333  0.666667  0.624481  1
  Pt  Pt8  1  0.333333  0.666667  0.393027  1
  Pt  Pt9  1  0.666667  0.333333  0.620441  1
  Pt  Pt10  1  0.666667  0.333333  0.879559  1
  Pt  Pt11  1  0.333333  0.666667  0.106973  1
