# generated using pymatgen
data_Dy8Te(IrO8)3
_symmetry_space_group_name_H-M   'P 1'
_cell_length_a   5.29332221
_cell_length_b   9.16781708
_cell_length_c   9.91997291
_cell_angle_alpha   89.86748841
_cell_angle_beta   89.92342497
_cell_angle_gamma   89.99067316
_symmetry_Int_Tables_number   1
_chemical_formula_structural   Dy8Te(IrO8)3
_chemical_formula_sum   'Dy8 Te1 Ir3 O24'
_cell_volume   481.39680287
_cell_formula_units_Z   1
loop_
 _symmetry_equiv_pos_site_id
 _symmetry_equiv_pos_as_xyz
  1  'x, y, z'
loop_
 _atom_site_type_symbol
 _atom_site_label
 _atom_site_symmetry_multiplicity
 _atom_site_fract_x
 _atom_site_fract_y
 _atom_site_fract_z
 _atom_site_occupancy
  Dy  Dy0  1  0.018926  0.397303  0.033040  1
  Dy  Dy1  1  0.040124  0.279979  0.631459  1
  Dy  Dy2  1  0.459080  0.716395  0.131427  1
  Dy  Dy3  1  0.480346  0.604156  0.539521  1
  Dy  Dy4  1  0.518453  0.099838  0.965245  1
  Dy  Dy5  1  0.538109  0.217787  0.367491  1
  Dy  Dy6  1  0.959283  0.780949  0.870926  1
  Dy  Dy7  1  0.980690  0.898983  0.464164  1
  Te  Te8  1  0.960234  0.505910  0.351695  1
  Ir  Ir9  1  0.041243  0.002783  0.146806  1
  Ir  Ir10  1  0.457168  0.996564  0.647536  1
  Ir  Ir11  1  0.541728  0.495535  0.853269  1
  O  O12  1  0.084666  0.655730  0.473765  1
  O  O13  1  0.168199  0.551928  0.199357  1
  O  O14  1  0.187493  0.857210  0.263575  1
  O  O15  1  0.173716  0.863752  0.681132  1
  O  O16  1  0.233214  0.386868  0.431886  1
  O  O17  1  0.249385  0.089144  0.502607  1
  O  O18  1  0.248964  0.909671  0.002243  1
  O  O19  1  0.264188  0.613437  0.931342  1
  O  O20  1  0.326896  0.134042  0.180951  1
  O  O21  1  0.310617  0.142122  0.764517  1
  O  O22  1  0.335300  0.444419  0.702753  1
  O  O23  1  0.418666  0.342523  0.973367  1
  O  O24  1  0.583219  0.845578  0.526934  1
  O  O25  1  0.667704  0.946573  0.796731  1
  O  O26  1  0.685174  0.644635  0.738300  1
  O  O27  1  0.677752  0.639558  0.321599  1
  O  O28  1  0.731403  0.117390  0.567461  1
  O  O29  1  0.754816  0.414785  0.496390  1
  O  O30  1  0.747456  0.588277  0.997949  1
  O  O31  1  0.765321  0.884119  0.067736  1
  O  O32  1  0.827155  0.365572  0.817141  1
  O  O33  1  0.814395  0.358156  0.237136  1
  O  O34  1  0.832312  0.053154  0.296612  1
  O  O35  1  0.916605  0.155176  0.025939  1
