# generated using pymatgen
data_Eu5Al2Ga3
_symmetry_space_group_name_H-M   'P 1'
_cell_length_a   5.67566700
_cell_length_b   9.46397400
_cell_length_c   9.89547900
_cell_angle_alpha   90.00000000
_cell_angle_beta   90.00000000
_cell_angle_gamma   90.00000000
_symmetry_Int_Tables_number   1
_chemical_formula_structural   Eu5Al2Ga3
_chemical_formula_sum   'Eu10 Al4 Ga6'
_cell_volume   531.52937007
_cell_formula_units_Z   2
loop_
 _symmetry_equiv_pos_site_id
 _symmetry_equiv_pos_as_xyz
  1  'x, y, z'
loop_
 _atom_site_type_symbol
 _atom_site_label
 _atom_site_symmetry_multiplicity
 _atom_site_fract_x
 _atom_site_fract_y
 _atom_site_fract_z
 _atom_site_occupancy
  Eu  Eu0  1  0.500000  0.817300  0.914520  1
  Eu  Eu1  1  0.500000  0.182700  0.914520  1
  Eu  Eu2  1  0.000000  0.682700  0.085480  1
  Eu  Eu3  1  0.000000  0.317300  0.085480  1
  Eu  Eu4  1  0.500000  0.699003  0.310793  1
  Eu  Eu5  1  0.500000  0.300997  0.310793  1
  Eu  Eu6  1  0.000000  0.800997  0.689207  1
  Eu  Eu7  1  0.000000  0.199003  0.689207  1
  Eu  Eu8  1  0.500000  0.000000  0.506489  1
  Eu  Eu9  1  0.000000  0.500000  0.493511  1
  Al  Al10  1  0.741915  0.000000  0.183596  1
  Al  Al11  1  0.258085  0.000000  0.183596  1
  Al  Al12  1  0.758085  0.500000  0.816404  1
  Al  Al13  1  0.241915  0.500000  0.816404  1
  Ga  Ga14  1  0.500000  0.646336  0.627649  1
  Ga  Ga15  1  0.500000  0.353664  0.627649  1
  Ga  Ga16  1  0.000000  0.853664  0.372351  1
  Ga  Ga17  1  0.000000  0.146336  0.372351  1
  Ga  Ga18  1  0.500000  0.500000  0.046444  1
  Ga  Ga19  1  0.000000  0.000000  0.953556  1
