# generated using pymatgen
data_V9Ga3SiTc3
_symmetry_space_group_name_H-M   'P 1'
_cell_length_a   4.77713521
_cell_length_b   4.79820921
_cell_length_c   9.49044900
_cell_angle_alpha   90.00000000
_cell_angle_beta   90.00000000
_cell_angle_gamma   89.96592885
_symmetry_Int_Tables_number   1
_chemical_formula_structural   V9Ga3SiTc3
_chemical_formula_sum   'V9 Ga3 Si1 Tc3'
_cell_volume   217.53713112
_cell_formula_units_Z   1
loop_
 _symmetry_equiv_pos_site_id
 _symmetry_equiv_pos_as_xyz
  1  'x, y, z'
loop_
 _atom_site_type_symbol
 _atom_site_label
 _atom_site_symmetry_multiplicity
 _atom_site_fract_x
 _atom_site_fract_y
 _atom_site_fract_z
 _atom_site_occupancy
  V  V0  1  0.497849  0.998458  0.377674  1
  V  V1  1  0.503708  0.997491  0.876762  1
  V  V2  1  0.753468  0.498918  0.500000  1
  V  V3  1  0.503708  0.997491  0.123238  1
  V  V4  1  0.497849  0.998458  0.622326  1
  V  V5  1  0.250578  0.502362  0.000000  1
  V  V6  1  0.242739  0.500073  0.500000  1
  V  V7  1  0.999227  0.247701  0.253861  1
  V  V8  1  0.999227  0.247701  0.746139  1
  Ga  Ga9  1  0.498228  0.494159  0.252156  1
  Ga  Ga10  1  0.498228  0.494159  0.747844  1
  Ga  Ga11  1  0.006765  0.004165  0.000000  1
  Si  Si12  1  0.000264  0.006259  0.500000  1
  Tc  Tc13  1  0.748714  0.500835  0.000000  1
  Tc  Tc14  1  0.999723  0.755885  0.254049  1
  Tc  Tc15  1  0.999723  0.755885  0.745951  1
