# generated using pymatgen
data_Tb3Dy9Co4TcBi
_symmetry_space_group_name_H-M   'P 1'
_cell_length_a   8.34283342
_cell_length_b   8.34281801
_cell_length_c   8.34081092
_cell_angle_alpha   111.51769900
_cell_angle_beta   110.43131790
_cell_angle_gamma   106.51750145
_symmetry_Int_Tables_number   1
_chemical_formula_structural   Tb3Dy9Co4TcBi
_chemical_formula_sum   'Tb3 Dy9 Co4 Tc1 Bi1'
_cell_volume   445.91219065
_cell_formula_units_Z   1
loop_
 _symmetry_equiv_pos_site_id
 _symmetry_equiv_pos_as_xyz
  1  'x, y, z'
loop_
 _atom_site_type_symbol
 _atom_site_label
 _atom_site_symmetry_multiplicity
 _atom_site_fract_x
 _atom_site_fract_y
 _atom_site_fract_z
 _atom_site_occupancy
  Tb  Tb0  1  0.817253  0.716091  0.533329  1
  Tb  Tb1  1  0.182497  0.283843  0.466326  1
  Tb  Tb2  1  0.182903  0.716194  0.899078  1
  Dy  Dy3  1  0.817510  0.283634  0.101123  1
  Dy  Dy4  1  0.689684  0.380282  0.690852  1
  Dy  Dy5  1  0.310071  0.619552  0.309254  1
  Dy  Dy6  1  0.689649  0.999068  0.309194  1
  Dy  Dy7  1  0.310514  0.001055  0.690791  1
  Dy  Dy8  1  0.591011  0.787277  0.804151  1
  Dy  Dy9  1  0.409267  0.213056  0.196018  1
  Dy  Dy10  1  0.982971  0.786751  0.196028  1
  Dy  Dy11  1  0.016883  0.213140  0.804161  1
  Co  Co12  1  0.620900  0.000142  0.621041  1
  Co  Co13  1  0.379184  0.999993  0.379179  1
  Co  Co14  1  0.110355  0.610317  0.499635  1
  Co  Co15  1  0.889400  0.389362  0.499638  1
  Tc  Tc16  1  0.999898  0.000284  0.000187  1
  Bi  Bi17  1  0.500050  0.499959  0.000016  1
