# generated using pymatgen
data_Ho16Ag3SnRh4
_symmetry_space_group_name_H-M   'P 1'
_cell_length_a   9.53956210
_cell_length_b   9.53956234
_cell_length_c   9.53956356
_cell_angle_alpha   59.82045034
_cell_angle_beta   59.82044946
_cell_angle_gamma   59.82045197
_symmetry_Int_Tables_number   1
_chemical_formula_structural   Ho16Ag3SnRh4
_chemical_formula_sum   'Ho16 Ag3 Sn1 Rh4'
_cell_volume   611.35976630
_cell_formula_units_Z   1
loop_
 _symmetry_equiv_pos_site_id
 _symmetry_equiv_pos_as_xyz
  1  'x, y, z'
loop_
 _atom_site_type_symbol
 _atom_site_label
 _atom_site_symmetry_multiplicity
 _atom_site_fract_x
 _atom_site_fract_y
 _atom_site_fract_z
 _atom_site_occupancy
  Ho  Ho0  1  0.187232  0.187232  0.813105  1
  Ho  Ho1  1  0.602420  0.602420  0.195233  1
  Ho  Ho2  1  0.437663  0.060927  0.437663  1
  Ho  Ho3  1  0.437663  0.437663  0.060927  1
  Ho  Ho4  1  0.814417  0.191653  0.814417  1
  Ho  Ho5  1  0.187232  0.813105  0.187232  1
  Ho  Ho6  1  0.440057  0.059836  0.059836  1
  Ho  Ho7  1  0.191653  0.814417  0.814417  1
  Ho  Ho8  1  0.059836  0.440057  0.059836  1
  Ho  Ho9  1  0.814417  0.814417  0.191653  1
  Ho  Ho10  1  0.195233  0.602420  0.602420  1
  Ho  Ho11  1  0.060927  0.437663  0.437663  1
  Ho  Ho12  1  0.059836  0.059836  0.440057  1
  Ho  Ho13  1  0.813105  0.187232  0.187232  1
  Ho  Ho14  1  0.602420  0.195233  0.602420  1
  Ho  Ho15  1  0.600602  0.600602  0.600602  1
  Ag  Ag16  1  0.832179  0.832179  0.499904  1
  Ag  Ag17  1  0.499904  0.832179  0.832179  1
  Ag  Ag18  1  0.832179  0.499904  0.832179  1
  Sn  Sn19  1  0.830930  0.830930  0.830930  1
  Rh  Rh20  1  0.393256  0.820694  0.393256  1
  Rh  Rh21  1  0.392891  0.392891  0.392891  1
  Rh  Rh22  1  0.820694  0.393256  0.393256  1
  Rh  Rh23  1  0.393256  0.393256  0.820694  1
