# generated using pymatgen
data_Er8Hf11Si16Pd
_symmetry_space_group_name_H-M   'P 1'
_cell_length_a   7.25694855
_cell_length_b   7.25694799
_cell_length_c   13.19486619
_cell_angle_alpha   90.20866693
_cell_angle_beta   89.79133417
_cell_angle_gamma   89.78202111
_symmetry_Int_Tables_number   1
_chemical_formula_structural   Er8Hf11Si16Pd
_chemical_formula_sum   'Er8 Hf11 Si16 Pd1'
_cell_volume   694.87089270
_cell_formula_units_Z   1
loop_
 _symmetry_equiv_pos_site_id
 _symmetry_equiv_pos_as_xyz
  1  'x, y, z'
loop_
 _atom_site_type_symbol
 _atom_site_label
 _atom_site_symmetry_multiplicity
 _atom_site_fract_x
 _atom_site_fract_y
 _atom_site_fract_z
 _atom_site_occupancy
  Er  Er0  1  0.345332  0.004642  0.464527  1
  Er  Er1  1  0.493965  0.847729  0.716987  1
  Er  Er2  1  0.503496  0.153120  0.210776  1
  Er  Er3  1  0.847729  0.493965  0.283013  1
  Er  Er4  1  0.153120  0.503496  0.789224  1
  Er  Er5  1  0.651790  0.001453  0.967328  1
  Er  Er6  1  0.004642  0.345332  0.535473  1
  Er  Er7  1  0.001453  0.651790  0.032672  1
  Hf  Hf8  1  0.178379  0.821765  0.248375  1
  Hf  Hf9  1  0.821765  0.178379  0.751625  1
  Hf  Hf10  1  0.675416  0.675416  0.500000  1
  Hf  Hf11  1  0.143615  0.005785  0.877108  1
  Hf  Hf12  1  0.497097  0.642948  0.120044  1
  Hf  Hf13  1  0.501953  0.354835  0.626617  1
  Hf  Hf14  1  0.642948  0.497097  0.879956  1
  Hf  Hf15  1  0.354835  0.501953  0.373383  1
  Hf  Hf16  1  0.855337  0.996546  0.373656  1
  Hf  Hf17  1  0.005785  0.143615  0.122892  1
  Hf  Hf18  1  0.996546  0.855337  0.626344  1
  Si  Si19  1  0.203203  0.143372  0.684096  1
  Si  Si20  1  0.365535  0.721228  0.927307  1
  Si  Si21  1  0.640695  0.292730  0.430947  1
  Si  Si22  1  0.721228  0.365535  0.072693  1
  Si  Si23  1  0.292730  0.640695  0.569053  1
  Si  Si24  1  0.795707  0.857275  0.179910  1
  Si  Si25  1  0.143372  0.203203  0.315904  1
  Si  Si26  1  0.857275  0.795707  0.820090  1
  Si  Si27  1  0.292522  0.940721  0.063305  1
  Si  Si28  1  0.550721  0.795145  0.312843  1
  Si  Si29  1  0.443447  0.207653  0.815395  1
  Si  Si30  1  0.795145  0.550721  0.687157  1
  Si  Si31  1  0.207653  0.443447  0.184605  1
  Si  Si32  1  0.702624  0.050414  0.564836  1
  Si  Si33  1  0.940721  0.292522  0.936695  1
  Si  Si34  1  0.050414  0.702624  0.435164  1
  Pd  Pd35  1  0.321809  0.321809  0.000000  1
