# generated using pymatgen
data_Yb10CdAgPd4
_symmetry_space_group_name_H-M   'P 1'
_cell_length_a   9.00265005
_cell_length_b   9.00264899
_cell_length_c   9.00265000
_cell_angle_alpha   127.86011873
_cell_angle_beta   127.86011352
_cell_angle_gamma   76.85174036
_symmetry_Int_Tables_number   1
_chemical_formula_structural   Yb10CdAgPd4
_chemical_formula_sum   'Yb10 Cd1 Ag1 Pd4'
_cell_volume   441.58699297
_cell_formula_units_Z   1
loop_
 _symmetry_equiv_pos_site_id
 _symmetry_equiv_pos_as_xyz
  1  'x, y, z'
loop_
 _atom_site_type_symbol
 _atom_site_label
 _atom_site_symmetry_multiplicity
 _atom_site_fract_x
 _atom_site_fract_y
 _atom_site_fract_z
 _atom_site_occupancy
  Yb  Yb0  1  0.501668  0.501668  0.000000  1
  Yb  Yb1  1  0.998332  0.998332  0.000000  1
  Yb  Yb2  1  0.527140  0.032878  0.826988  1
  Yb  Yb3  1  0.205891  0.700154  0.173012  1
  Yb  Yb4  1  0.032878  0.205891  0.505738  1
  Yb  Yb5  1  0.700154  0.527140  0.494262  1
  Yb  Yb6  1  0.467122  0.972860  0.173012  1
  Yb  Yb7  1  0.799846  0.294109  0.826988  1
  Yb  Yb8  1  0.972860  0.799846  0.505738  1
  Yb  Yb9  1  0.294109  0.467122  0.494262  1
  Cd  Cd10  1  0.750000  0.750000  0.000000  1
  Ag  Ag11  1  0.250000  0.250000  0.000000  1
  Pd  Pd12  1  0.135570  0.635570  0.771141  1
  Pd  Pd13  1  0.864430  0.364430  0.228859  1
  Pd  Pd14  1  0.635570  0.864430  0.500000  1
  Pd  Pd15  1  0.364430  0.135570  0.500000  1
