# generated using pymatgen
data_Y8HfSi16W11
_symmetry_space_group_name_H-M   'P 1'
_cell_length_a   6.90659262
_cell_length_b   6.90659304
_cell_length_c   12.86460102
_cell_angle_alpha   89.98937593
_cell_angle_beta   89.98937454
_cell_angle_gamma   89.88820282
_symmetry_Int_Tables_number   1
_chemical_formula_structural   Y8HfSi16W11
_chemical_formula_sum   'Y8 Hf1 Si16 W11'
_cell_volume   613.65345920
_cell_formula_units_Z   1
loop_
 _symmetry_equiv_pos_site_id
 _symmetry_equiv_pos_as_xyz
  1  'x, y, z'
loop_
 _atom_site_type_symbol
 _atom_site_label
 _atom_site_symmetry_multiplicity
 _atom_site_fract_x
 _atom_site_fract_y
 _atom_site_fract_z
 _atom_site_occupancy
  Y  Y0  1  0.001956  0.336448  0.219174  1
  Y  Y1  1  0.000796  0.665467  0.718978  1
  Y  Y2  1  0.163558  0.503261  0.467745  1
  Y  Y3  1  0.496739  0.836442  0.032255  1
  Y  Y4  1  0.838596  0.500666  0.970370  1
  Y  Y5  1  0.499334  0.161404  0.529630  1
  Y  Y6  1  0.334533  0.999204  0.781022  1
  Y  Y7  1  0.663552  0.998044  0.280826  1
  Hf  Hf8  1  0.668206  0.331794  0.750000  1
  Si  Si9  1  0.375707  0.299383  0.315772  1
  Si  Si10  1  0.626816  0.707513  0.817020  1
  Si  Si11  1  0.199496  0.875386  0.565572  1
  Si  Si12  1  0.124614  0.800504  0.934428  1
  Si  Si13  1  0.798543  0.124581  0.065703  1
  Si  Si14  1  0.875419  0.201457  0.434297  1
  Si  Si15  1  0.292487  0.373184  0.682980  1
  Si  Si16  1  0.700617  0.624293  0.184228  1
  Si  Si17  1  0.286926  0.034076  0.187417  1
  Si  Si18  1  0.709695  0.956744  0.682974  1
  Si  Si19  1  0.464821  0.787819  0.436366  1
  Si  Si20  1  0.212181  0.535179  0.063634  1
  Si  Si21  1  0.531187  0.209525  0.940402  1
  Si  Si22  1  0.790475  0.468813  0.559598  1
  Si  Si23  1  0.043256  0.290305  0.817026  1
  Si  Si24  1  0.965924  0.713074  0.312583  1
  W  W25  1  0.166134  0.164564  0.003173  1
  W  W26  1  0.835436  0.833866  0.496827  1
  W  W27  1  0.332394  0.667606  0.250000  1
  W  W28  1  0.166136  0.001394  0.376804  1
  W  W29  1  0.833885  0.002932  0.875210  1
  W  W30  1  0.499857  0.660399  0.626011  1
  W  W31  1  0.339601  0.500143  0.873989  1
  W  W32  1  0.498671  0.333219  0.127252  1
  W  W33  1  0.666781  0.501329  0.372748  1
  W  W34  1  0.997068  0.166115  0.624790  1
  W  W35  1  0.998606  0.833864  0.123196  1
