# generated using pymatgen
data_CuBr28
_symmetry_space_group_name_H-M   'P 1'
_cell_length_a   11.08100058
_cell_length_b   14.26806845
_cell_length_c   12.72108000
_cell_angle_alpha   123.45192622
_cell_angle_beta   99.87943871
_cell_angle_gamma   107.91255287
_symmetry_Int_Tables_number   1
_chemical_formula_structural   CuBr28
_chemical_formula_sum   'Cu1 Br28'
_cell_volume   1441.84298122
_cell_formula_units_Z   1
loop_
 _symmetry_equiv_pos_site_id
 _symmetry_equiv_pos_as_xyz
  1  'x, y, z'
loop_
 _atom_site_type_symbol
 _atom_site_label
 _atom_site_symmetry_multiplicity
 _atom_site_fract_x
 _atom_site_fract_y
 _atom_site_fract_z
 _atom_site_occupancy
  Cu  Cu0  1  0.500000  0.000000  0.000000  1
  Br  Br1  1  0.095597  0.124786  0.388426  1
  Br  Br2  1  0.553626  0.105616  0.391255  1
  Br  Br3  1  0.271667  0.359314  0.865167  1
  Br  Br4  1  0.779313  0.289097  0.818867  1
  Br  Br5  1  0.250468  0.586560  0.764514  1
  Br  Br6  1  0.752835  0.543379  0.687842  1
  Br  Br7  1  0.446374  0.894384  0.608745  1
  Br  Br8  1  0.904403  0.875214  0.611574  1
  Br  Br9  1  0.220687  0.710903  0.181133  1
  Br  Br10  1  0.728333  0.640686  0.134833  1
  Br  Br11  1  0.247165  0.456621  0.312158  1
  Br  Br12  1  0.749532  0.413440  0.235486  1
  Br  Br13  1  0.932363  0.081428  0.802179  1
  Br  Br14  1  0.495056  0.070021  0.868468  1
  Br  Br15  1  0.047076  0.686534  0.004580  1
  Br  Br16  1  0.585369  0.660427  0.994573  1
  Br  Br17  1  0.587690  0.213883  0.206447  1
  Br  Br18  1  0.178099  0.296506  0.338145  1
  Br  Br19  1  0.504944  0.929979  0.131532  1
  Br  Br20  1  0.067637  0.918572  0.197821  1
  Br  Br21  1  0.414631  0.339573  0.005427  1
  Br  Br22  1  0.952924  0.313466  0.995420  1
  Br  Br23  1  0.821901  0.703494  0.661855  1
  Br  Br24  1  0.412310  0.786117  0.793553  1
  Br  Br25  1  0.095201  0.380537  0.702865  1
  Br  Br26  1  0.581816  0.261820  0.634001  1
  Br  Br27  1  0.418184  0.738180  0.365999  1
  Br  Br28  1  0.904799  0.619463  0.297135  1
