# generated using pymatgen
data_SrGa4Cu9
_symmetry_space_group_name_H-M   'P 1'
_cell_length_a   8.39641940
_cell_length_b   8.39641257
_cell_length_c   8.39648007
_cell_angle_alpha   120.58568955
_cell_angle_beta   120.58582491
_cell_angle_gamma   88.99001209
_symmetry_Int_Tables_number   1
_chemical_formula_structural   SrGa4Cu9
_chemical_formula_sum   'Sr2 Ga8 Cu18'
_cell_volume   414.79021369
_cell_formula_units_Z   2
loop_
 _symmetry_equiv_pos_site_id
 _symmetry_equiv_pos_as_xyz
  1  'x, y, z'
loop_
 _atom_site_type_symbol
 _atom_site_label
 _atom_site_symmetry_multiplicity
 _atom_site_fract_x
 _atom_site_fract_y
 _atom_site_fract_z
 _atom_site_occupancy
  Sr  Sr0  1  0.250000  0.250002  0.000002  1
  Sr  Sr1  1  0.750000  0.749998  0.999998  1
  Ga  Ga2  1  0.800863  0.300863  0.861231  1
  Ga  Ga3  1  0.560368  0.060368  0.861230  1
  Ga  Ga4  1  0.199137  0.699137  0.138769  1
  Ga  Ga5  1  0.699139  0.560370  0.500000  1
  Ga  Ga6  1  0.060370  0.199139  0.500000  1
  Ga  Ga7  1  0.300861  0.439630  0.500000  1
  Ga  Ga8  1  0.939630  0.800861  0.500000  1
  Ga  Ga9  1  0.439632  0.939632  0.138770  1
  Cu  Cu10  1  0.063526  0.563528  0.268114  1
  Cu  Cu11  1  0.704584  0.204584  0.268110  1
  Cu  Cu12  1  0.936474  0.436472  0.731886  1
  Cu  Cu13  1  0.436481  0.704580  0.500001  1
  Cu  Cu14  1  0.204578  0.936481  0.499999  1
  Cu  Cu15  1  0.563519  0.295420  0.499999  1
  Cu  Cu16  1  0.795422  0.063519  0.500001  1
  Cu  Cu17  1  0.295416  0.795416  0.731890  1
  Cu  Cu18  1  0.436923  0.296667  0.733588  1
  Cu  Cu19  1  0.796667  0.936924  0.733589  1
  Cu  Cu20  1  0.000000  0.500000  0.500000  1
  Cu  Cu21  1  0.500000  0.000000  0.500000  1
  Cu  Cu22  1  0.563077  0.703333  0.266412  1
  Cu  Cu23  1  0.703333  0.436922  0.140255  1
  Cu  Cu24  1  0.296667  0.563078  0.859745  1
  Cu  Cu25  1  0.936924  0.203333  0.140255  1
  Cu  Cu26  1  0.063076  0.796667  0.859745  1
  Cu  Cu27  1  0.203333  0.063076  0.266411  1
