# generated using pymatgen
data_Y2Co12Si4P3
_symmetry_space_group_name_H-M   'P 1'
_cell_length_a   9.09772300
_cell_length_b   9.09772305
_cell_length_c   3.60067000
_cell_angle_alpha   90.00000000
_cell_angle_beta   90.00000000
_cell_angle_gamma   120.00000347
_symmetry_Int_Tables_number   1
_chemical_formula_structural   Y2Co12Si4P3
_chemical_formula_sum   'Y2 Co12 Si4 P3'
_cell_volume   258.09486164
_cell_formula_units_Z   1
loop_
 _symmetry_equiv_pos_site_id
 _symmetry_equiv_pos_as_xyz
  1  'x, y, z'
loop_
 _atom_site_type_symbol
 _atom_site_label
 _atom_site_symmetry_multiplicity
 _atom_site_fract_x
 _atom_site_fract_y
 _atom_site_fract_z
 _atom_site_occupancy
  Y  Y0  1  0.333333  0.666667  0.000000  1
  Y  Y1  1  0.666667  0.333333  0.500000  1
  Co  Co2  1  0.435139  0.381368  0.000000  1
  Co  Co3  1  0.618632  0.053771  0.000000  1
  Co  Co4  1  0.946229  0.564861  0.000000  1
  Co  Co5  1  0.149394  0.869940  0.000000  1
  Co  Co6  1  0.130060  0.279453  0.000000  1
  Co  Co7  1  0.720547  0.850606  0.000000  1
  Co  Co8  1  0.379630  0.942000  0.500000  1
  Co  Co9  1  0.058000  0.437630  0.500000  1
  Co  Co10  1  0.562370  0.620370  0.500000  1
  Co  Co11  1  0.234560  0.130535  0.500000  1
  Co  Co12  1  0.869465  0.104025  0.500000  1
  Co  Co13  1  0.895975  0.765440  0.500000  1
  Si  Si14  1  0.397773  0.111176  0.000000  1
  Si  Si15  1  0.888824  0.286597  0.000000  1
  Si  Si16  1  0.713403  0.602227  0.000000  1
  Si  Si17  1  0.000000  0.000000  0.000000  1
  P  P18  1  0.107540  0.706928  0.500000  1
  P  P19  1  0.293072  0.400611  0.500000  1
  P  P20  1  0.599389  0.892460  0.500000  1
