# generated using pymatgen
data_ErTm5Si4(GeRu2)2
_symmetry_space_group_name_H-M   'P 1'
_cell_length_a   5.69666304
_cell_length_b   5.69666248
_cell_length_c   13.77893900
_cell_angle_alpha   90.00000000
_cell_angle_beta   90.00000000
_cell_angle_gamma   137.25250691
_symmetry_Int_Tables_number   1
_chemical_formula_structural   ErTm5Si4(GeRu2)2
_chemical_formula_sum   'Er1 Tm5 Si4 Ge2 Ru4'
_cell_volume   303.51387643
_cell_formula_units_Z   1
loop_
 _symmetry_equiv_pos_site_id
 _symmetry_equiv_pos_as_xyz
  1  'x, y, z'
loop_
 _atom_site_type_symbol
 _atom_site_label
 _atom_site_symmetry_multiplicity
 _atom_site_fract_x
 _atom_site_fract_y
 _atom_site_fract_z
 _atom_site_occupancy
  Er  Er0  1  0.645291  0.354709  0.250000  1
  Tm  Tm1  1  0.925165  0.074835  0.387595  1
  Tm  Tm2  1  0.074829  0.925171  0.612487  1
  Tm  Tm3  1  0.925165  0.074835  0.112405  1
  Tm  Tm4  1  0.074829  0.925171  0.887513  1
  Tm  Tm5  1  0.354332  0.645668  0.750000  1
  Si  Si6  1  0.615790  0.384210  0.461484  1
  Si  Si7  1  0.384151  0.615849  0.538730  1
  Si  Si8  1  0.615790  0.384210  0.038516  1
  Si  Si9  1  0.384151  0.615849  0.961270  1
  Ge  Ge10  1  0.339549  0.660451  0.250000  1
  Ge  Ge11  1  0.660788  0.339212  0.750000  1
  Ru  Ru12  1  0.788611  0.211389  0.920035  1
  Ru  Ru13  1  0.211473  0.788527  0.079651  1
  Ru  Ru14  1  0.788611  0.211389  0.579965  1
  Ru  Ru15  1  0.211473  0.788527  0.420349  1
