# generated using pymatgen
data_NaMgIn(MoO4)3
_symmetry_space_group_name_H-M   'P 1'
_cell_length_a   9.80684736
_cell_length_b   9.80684736
_cell_length_c   9.80684790
_cell_angle_alpha   58.21892061
_cell_angle_beta   58.21892061
_cell_angle_gamma   58.21892561
_symmetry_Int_Tables_number   1
_chemical_formula_structural   NaMgIn(MoO4)3
_chemical_formula_sum   'Na2 Mg2 In2 Mo6 O24'
_cell_volume   639.70411773
_cell_formula_units_Z   2
loop_
 _symmetry_equiv_pos_site_id
 _symmetry_equiv_pos_as_xyz
  1  'x, y, z'
loop_
 _atom_site_type_symbol
 _atom_site_label
 _atom_site_symmetry_multiplicity
 _atom_site_fract_x
 _atom_site_fract_y
 _atom_site_fract_z
 _atom_site_occupancy
  Na  Na0  1  0.502674  0.502674  0.502674  1
  Na  Na1  1  0.002674  0.002674  0.002674  1
  Mg  Mg2  1  0.139497  0.139497  0.139497  1
  Mg  Mg3  1  0.639497  0.639497  0.639497  1
  In  In4  1  0.361019  0.361019  0.361019  1
  In  In5  1  0.861019  0.861019  0.861019  1
  Mo  Mo6  1  0.031742  0.458747  0.756511  1
  Mo  Mo7  1  0.458747  0.756511  0.031742  1
  Mo  Mo8  1  0.256511  0.958747  0.531742  1
  Mo  Mo9  1  0.756511  0.031742  0.458747  1
  Mo  Mo10  1  0.531742  0.256511  0.958747  1
  Mo  Mo11  1  0.958747  0.531742  0.256511  1
  O  O12  1  0.994232  0.626944  0.810887  1
  O  O13  1  0.126944  0.494232  0.310887  1
  O  O14  1  0.047266  0.264145  0.934971  1
  O  O15  1  0.433715  0.583041  0.236561  1
  O  O16  1  0.264145  0.934971  0.047266  1
  O  O17  1  0.083041  0.933715  0.736561  1
  O  O18  1  0.504776  0.698768  0.864485  1
  O  O19  1  0.626944  0.810887  0.994232  1
  O  O20  1  0.236561  0.433715  0.583041  1
  O  O21  1  0.310887  0.126944  0.494232  1
  O  O22  1  0.198768  0.004776  0.364485  1
  O  O23  1  0.434971  0.764145  0.547266  1
  O  O24  1  0.583041  0.236561  0.433715  1
  O  O25  1  0.810887  0.994232  0.626944  1
  O  O26  1  0.698768  0.864485  0.504776  1
  O  O27  1  0.764145  0.547266  0.434971  1
  O  O28  1  0.364485  0.198768  0.004776  1
  O  O29  1  0.494232  0.310887  0.126944  1
  O  O30  1  0.934971  0.047266  0.264145  1
  O  O31  1  0.736561  0.083041  0.933715  1
  O  O32  1  0.547266  0.434971  0.764145  1
  O  O33  1  0.933715  0.736561  0.083041  1
  O  O34  1  0.864485  0.504776  0.698768  1
  O  O35  1  0.004776  0.364485  0.198768  1
