# generated using pymatgen
data_Hf16Os3Pt5O4
_symmetry_space_group_name_H-M   'P 1'
_cell_length_a   8.76621978
_cell_length_b   8.76622017
_cell_length_c   8.76621990
_cell_angle_alpha   60.18366066
_cell_angle_beta   60.18365901
_cell_angle_gamma   60.18365583
_symmetry_Int_Tables_number   1
_chemical_formula_structural   Hf16Os3Pt5O4
_chemical_formula_sum   'Hf16 Os3 Pt5 O4'
_cell_volume   478.32671957
_cell_formula_units_Z   1
loop_
 _symmetry_equiv_pos_site_id
 _symmetry_equiv_pos_as_xyz
  1  'x, y, z'
loop_
 _atom_site_type_symbol
 _atom_site_label
 _atom_site_symmetry_multiplicity
 _atom_site_fract_x
 _atom_site_fract_y
 _atom_site_fract_z
 _atom_site_occupancy
  Hf  Hf0  1  0.116638  0.627370  0.627370  1
  Hf  Hf1  1  0.627370  0.116638  0.627370  1
  Hf  Hf2  1  0.627370  0.627370  0.116638  1
  Hf  Hf3  1  0.631581  0.631581  0.631581  1
  Hf  Hf4  1  0.804957  0.804957  0.193879  1
  Hf  Hf5  1  0.187460  0.187460  0.812747  1
  Hf  Hf6  1  0.804957  0.193879  0.804957  1
  Hf  Hf7  1  0.187460  0.812747  0.187460  1
  Hf  Hf8  1  0.193879  0.804957  0.804957  1
  Hf  Hf9  1  0.812747  0.187460  0.187460  1
  Hf  Hf10  1  0.433343  0.433343  0.059521  1
  Hf  Hf11  1  0.065695  0.065695  0.433884  1
  Hf  Hf12  1  0.433343  0.059521  0.433343  1
  Hf  Hf13  1  0.065695  0.433884  0.065695  1
  Hf  Hf14  1  0.059521  0.433343  0.433343  1
  Hf  Hf15  1  0.433884  0.065695  0.065695  1
  Os  Os16  1  0.763119  0.416322  0.416322  1
  Os  Os17  1  0.416322  0.763119  0.416322  1
  Os  Os18  1  0.416322  0.416322  0.763119  1
  Pt  Pt19  1  0.411981  0.411981  0.411981  1
  Pt  Pt20  1  0.453181  0.851658  0.851658  1
  Pt  Pt21  1  0.851658  0.453181  0.851658  1
  Pt  Pt22  1  0.851658  0.851658  0.453181  1
  Pt  Pt23  1  0.847200  0.847200  0.847200  1
  O  O24  1  0.625341  0.126206  0.126206  1
  O  O25  1  0.126206  0.625341  0.126206  1
  O  O26  1  0.126206  0.126206  0.625341  1
  O  O27  1  0.124907  0.124907  0.124907  1
