# generated using pymatgen
data_Er12Ru3I16
_symmetry_space_group_name_H-M   'P 1'
_cell_length_a   9.73747713
_cell_length_b   12.67677773
_cell_length_c   13.37823943
_cell_angle_alpha   117.09706297
_cell_angle_beta   101.22049968
_cell_angle_gamma   100.67138748
_symmetry_Int_Tables_number   1
_chemical_formula_structural   Er12Ru3I16
_chemical_formula_sum   'Er12 Ru3 I16'
_cell_volume   1369.31600468
_cell_formula_units_Z   1
loop_
 _symmetry_equiv_pos_site_id
 _symmetry_equiv_pos_as_xyz
  1  'x, y, z'
loop_
 _atom_site_type_symbol
 _atom_site_label
 _atom_site_symmetry_multiplicity
 _atom_site_fract_x
 _atom_site_fract_y
 _atom_site_fract_z
 _atom_site_occupancy
  Er  Er0  1  0.086212  0.277626  0.363955  1
  Er  Er1  1  0.913788  0.722374  0.636045  1
  Er  Er2  1  0.785899  0.534760  0.334471  1
  Er  Er3  1  0.214101  0.465240  0.665529  1
  Er  Er4  1  0.268220  0.723324  0.636545  1
  Er  Er5  1  0.731780  0.276676  0.363455  1
  Er  Er6  1  0.140534  0.535381  0.335197  1
  Er  Er7  1  0.859466  0.464619  0.664803  1
  Er  Er8  1  0.410163  0.365946  0.285056  1
  Er  Er9  1  0.589837  0.634054  0.714944  1
  Er  Er10  1  0.460846  0.316698  0.520345  1
  Er  Er11  1  0.539154  0.683302  0.479655  1
  Ru  Ru12  1  0.000000  0.500000  0.500000  1
  Ru  Ru13  1  0.337794  0.500259  0.499931  1
  Ru  Ru14  1  0.662207  0.499741  0.500069  1
  I  I15  1  0.392013  0.735309  0.876123  1
  I  I16  1  0.607987  0.264691  0.123877  1
  I  I17  1  0.185160  0.958305  0.778575  1
  I  I18  1  0.814840  0.041695  0.221425  1
  I  I19  1  0.341344  0.103992  0.256719  1
  I  I20  1  0.658656  0.896008  0.743281  1
  I  I21  1  0.559218  0.439051  0.793876  1
  I  I22  1  0.440782  0.560949  0.206124  1
  I  I23  1  0.306039  0.821667  0.463032  1
  I  I24  1  0.693961  0.178333  0.536968  1
  I  I25  1  0.168881  0.177576  0.534837  1
  I  I26  1  0.831119  0.822424  0.465163  1
  I  I27  1  0.926479  0.574851  0.163266  1
  I  I28  1  0.073521  0.425149  0.836734  1
  I  I29  1  0.921219  0.733285  0.875600  1
  I  I30  1  0.078781  0.266715  0.124400  1
