# generated using pymatgen
data_Ta3Ti5Si6(MoC)2
_symmetry_space_group_name_H-M   'P 1'
_cell_length_a   7.47669938
_cell_length_b   7.47468851
_cell_length_c   5.17944926
_cell_angle_alpha   90.00952879
_cell_angle_beta   89.96452984
_cell_angle_gamma   120.04134923
_symmetry_Int_Tables_number   1
_chemical_formula_structural   Ta3Ti5Si6(MoC)2
_chemical_formula_sum   'Ta3 Ti5 Si6 Mo2 C2'
_cell_volume   250.57401913
_cell_formula_units_Z   1
loop_
 _symmetry_equiv_pos_site_id
 _symmetry_equiv_pos_as_xyz
  1  'x, y, z'
loop_
 _atom_site_type_symbol
 _atom_site_label
 _atom_site_symmetry_multiplicity
 _atom_site_fract_x
 _atom_site_fract_y
 _atom_site_fract_z
 _atom_site_occupancy
  Ta  Ta0  1  0.234148  0.999303  0.252367  1
  Ta  Ta1  1  0.765722  0.999159  0.747970  1
  Ta  Ta2  1  0.000058  0.237091  0.252424  1
  Ti  Ti3  1  0.666570  0.332335  0.500574  1
  Ti  Ti4  1  0.333321  0.666401  0.500588  1
  Ti  Ti5  1  0.000140  0.766999  0.747870  1
  Ti  Ti6  1  0.764460  0.763956  0.252706  1
  Ti  Ti7  1  0.236111  0.235452  0.747386  1
  Si  Si8  1  0.591273  0.997514  0.244968  1
  Si  Si9  1  0.405998  0.999541  0.754639  1
  Si  Si10  1  0.997782  0.592762  0.244368  1
  Si  Si11  1  0.001689  0.411952  0.755404  1
  Si  Si12  1  0.411395  0.411034  0.243832  1
  Si  Si13  1  0.591418  0.589193  0.755916  1
  Mo  Mo14  1  0.333174  0.666594  0.999774  1
  Mo  Mo15  1  0.666541  0.332707  0.999764  1
  C  C16  1  0.000155  0.998674  0.999075  1
  C  C17  1  0.000045  0.999336  0.500374  1
