# generated using pymatgen
data_NdPa(GeRh)2
_symmetry_space_group_name_H-M   'P 1'
_cell_length_a   4.40102300
_cell_length_b   7.41627975
_cell_length_c   7.49591200
_cell_angle_alpha   93.22903354
_cell_angle_beta   90.00000000
_cell_angle_gamma   90.00000000
_symmetry_Int_Tables_number   1
_chemical_formula_structural   NdPa(GeRh)2
_chemical_formula_sum   'Nd2 Pa2 Ge4 Rh4'
_cell_volume   244.27226819
_cell_formula_units_Z   2
loop_
 _symmetry_equiv_pos_site_id
 _symmetry_equiv_pos_as_xyz
  1  'x, y, z'
loop_
 _atom_site_type_symbol
 _atom_site_label
 _atom_site_symmetry_multiplicity
 _atom_site_fract_x
 _atom_site_fract_y
 _atom_site_fract_z
 _atom_site_occupancy
  Nd  Nd0  1  0.250000  0.996971  0.771873  1
  Nd  Nd1  1  0.750000  0.003029  0.228127  1
  Pa  Pa2  1  0.250000  0.502032  0.695190  1
  Pa  Pa3  1  0.750000  0.497968  0.304810  1
  Ge  Ge4  1  0.250000  0.282888  0.087820  1
  Ge  Ge5  1  0.750000  0.717112  0.912180  1
  Ge  Ge6  1  0.250000  0.791800  0.395129  1
  Ge  Ge7  1  0.750000  0.208200  0.604871  1
  Rh  Rh8  1  0.750000  0.745054  0.569645  1
  Rh  Rh9  1  0.250000  0.254946  0.430355  1
  Rh  Rh10  1  0.750000  0.365141  0.938871  1
  Rh  Rh11  1  0.250000  0.634859  0.061129  1
