# generated using pymatgen
data_Sc10Sn6Ge
_symmetry_space_group_name_H-M   'P 1'
_cell_length_a   6.13947701
_cell_length_b   8.60116759
_cell_length_c   8.60124501
_cell_angle_alpha   119.99971528
_cell_angle_beta   89.99992713
_cell_angle_gamma   90.00013887
_symmetry_Int_Tables_number   1
_chemical_formula_structural   Sc10Sn6Ge
_chemical_formula_sum   'Sc10 Sn6 Ge1'
_cell_volume   393.35256220
_cell_formula_units_Z   1
loop_
 _symmetry_equiv_pos_site_id
 _symmetry_equiv_pos_as_xyz
  1  'x, y, z'
loop_
 _atom_site_type_symbol
 _atom_site_label
 _atom_site_symmetry_multiplicity
 _atom_site_fract_x
 _atom_site_fract_y
 _atom_site_fract_z
 _atom_site_occupancy
  Sc  Sc0  1  0.500003  0.333327  0.666656  1
  Sc  Sc1  1  0.500003  0.666672  0.333344  1
  Sc  Sc2  1  0.000000  0.666652  0.333310  1
  Sc  Sc3  1  0.000000  0.333342  0.666690  1
  Sc  Sc4  1  0.751521  0.252858  0.000000  1
  Sc  Sc5  1  0.751488  0.747153  0.747139  1
  Sc  Sc6  1  0.751488  0.000013  0.252861  1
  Sc  Sc7  1  0.248480  0.747142  0.000000  1
  Sc  Sc8  1  0.248506  0.252848  0.252859  1
  Sc  Sc9  1  0.248506  0.999991  0.747141  1
  Sn  Sn10  1  0.749269  0.608892  0.000000  1
  Sn  Sn11  1  0.749281  0.391127  0.391120  1
  Sn  Sn12  1  0.749281  0.000007  0.608880  1
  Sn  Sn13  1  0.250739  0.391111  0.000000  1
  Sn  Sn14  1  0.250718  0.608873  0.608881  1
  Sn  Sn15  1  0.250718  0.999991  0.391119  1
  Ge  Ge16  1  0.500000  0.999998  0.000000  1
