# generated using pymatgen
data_BeNb12Al(Au3N2)2
_symmetry_space_group_name_H-M   'P 1'
_cell_length_a   7.13976701
_cell_length_b   7.12509953
_cell_length_c   7.11354948
_cell_angle_alpha   89.95560599
_cell_angle_beta   89.91084417
_cell_angle_gamma   89.91824021
_symmetry_Int_Tables_number   1
_chemical_formula_structural   BeNb12Al(Au3N2)2
_chemical_formula_sum   'Be1 Nb12 Al1 Au6 N4'
_cell_volume   361.87637753
_cell_formula_units_Z   1
loop_
 _symmetry_equiv_pos_site_id
 _symmetry_equiv_pos_as_xyz
  1  'x, y, z'
loop_
 _atom_site_type_symbol
 _atom_site_label
 _atom_site_symmetry_multiplicity
 _atom_site_fract_x
 _atom_site_fract_y
 _atom_site_fract_z
 _atom_site_occupancy
  Be  Be0  1  0.932020  0.568734  0.423964  1
  Nb  Nb1  1  0.787485  0.955188  0.373573  1
  Nb  Nb2  1  0.707626  0.041426  0.875835  1
  Nb  Nb3  1  0.211804  0.457972  0.127943  1
  Nb  Nb4  1  0.289755  0.542691  0.621883  1
  Nb  Nb5  1  0.955316  0.381487  0.784712  1
  Nb  Nb6  1  0.043891  0.880080  0.712541  1
  Nb  Nb7  1  0.459842  0.127929  0.208493  1
  Nb  Nb8  1  0.542279  0.626891  0.291951  1
  Nb  Nb9  1  0.373704  0.788199  0.956618  1
  Nb  Nb10  1  0.873801  0.709046  0.041754  1
  Nb  Nb11  1  0.125421  0.211638  0.459838  1
  Nb  Nb12  1  0.626911  0.289302  0.542637  1
  Al  Al13  1  0.066962  0.069426  0.077583  1
  Au  Au14  1  0.161001  0.808180  0.317542  1
  Au  Au15  1  0.302634  0.178977  0.830124  1
  Au  Au16  1  0.834074  0.325988  0.195122  1
  Au  Au17  1  0.705706  0.674747  0.661080  1
  Au  Au18  1  0.569913  0.433828  0.932431  1
  Au  Au19  1  0.431568  0.931833  0.566462  1
  N  N20  1  0.872406  0.124142  0.623762  1
  N  N21  1  0.619768  0.873967  0.123928  1
  N  N22  1  0.126426  0.623183  0.873939  1
  N  N23  1  0.379686  0.375147  0.376285  1
