# generated using pymatgen
data_Zr6Sc4Al12Ni7
_symmetry_space_group_name_H-M   'P 1'
_cell_length_a   8.73556680
_cell_length_b   8.73556628
_cell_length_c   8.73556500
_cell_angle_alpha   60.00000104
_cell_angle_beta   60.00000304
_cell_angle_gamma   60.00000003
_symmetry_Int_Tables_number   1
_chemical_formula_structural   Zr6Sc4Al12Ni7
_chemical_formula_sum   'Zr6 Sc4 Al12 Ni7'
_cell_volume   471.36590687
_cell_formula_units_Z   1
loop_
 _symmetry_equiv_pos_site_id
 _symmetry_equiv_pos_as_xyz
  1  'x, y, z'
loop_
 _atom_site_type_symbol
 _atom_site_label
 _atom_site_symmetry_multiplicity
 _atom_site_fract_x
 _atom_site_fract_y
 _atom_site_fract_z
 _atom_site_occupancy
  Zr  Zr0  1  0.686327  0.686327  0.313673  1
  Zr  Zr1  1  0.313673  0.686327  0.313673  1
  Zr  Zr2  1  0.686327  0.313673  0.313673  1
  Zr  Zr3  1  0.313673  0.313673  0.686327  1
  Zr  Zr4  1  0.686327  0.313673  0.686327  1
  Zr  Zr5  1  0.313673  0.686327  0.686327  1
  Sc  Sc6  1  0.882903  0.882903  0.351290  1
  Sc  Sc7  1  0.882903  0.351290  0.882903  1
  Sc  Sc8  1  0.351290  0.882903  0.882903  1
  Sc  Sc9  1  0.882903  0.882903  0.882903  1
  Al  Al10  1  0.121099  0.121099  0.636703  1
  Al  Al11  1  0.121099  0.636703  0.121099  1
  Al  Al12  1  0.636703  0.121099  0.121099  1
  Al  Al13  1  0.121099  0.121099  0.121099  1
  Al  Al14  1  0.665477  0.665477  0.003569  1
  Al  Al15  1  0.665477  0.003569  0.665477  1
  Al  Al16  1  0.003569  0.665477  0.665477  1
  Al  Al17  1  0.665477  0.665477  0.665477  1
  Al  Al18  1  0.333765  0.333765  0.998705  1
  Al  Al19  1  0.333765  0.998705  0.333765  1
  Al  Al20  1  0.998705  0.333765  0.333765  1
  Al  Al21  1  0.333765  0.333765  0.333765  1
  Ni  Ni22  1  0.000000  0.000000  0.000000  1
  Ni  Ni23  1  0.000090  0.000090  0.499910  1
  Ni  Ni24  1  0.499910  0.000090  0.499910  1
  Ni  Ni25  1  0.000090  0.499910  0.499910  1
  Ni  Ni26  1  0.499910  0.499910  0.000090  1
  Ni  Ni27  1  0.000090  0.499910  0.000090  1
  Ni  Ni28  1  0.499910  0.000090  0.000090  1
