# generated using pymatgen
data_Dy20CoIr3Pt8
_symmetry_space_group_name_H-M   'P 1'
_cell_length_a   11.04276800
_cell_length_b   11.04276800
_cell_length_c   6.33192300
_cell_angle_alpha   90.00000000
_cell_angle_beta   90.00000000
_cell_angle_gamma   90.00000000
_symmetry_Int_Tables_number   1
_chemical_formula_structural   Dy20CoIr3Pt8
_chemical_formula_sum   'Dy20 Co1 Ir3 Pt8'
_cell_volume   772.13194575
_cell_formula_units_Z   1
loop_
 _symmetry_equiv_pos_site_id
 _symmetry_equiv_pos_as_xyz
  1  'x, y, z'
loop_
 _atom_site_type_symbol
 _atom_site_label
 _atom_site_symmetry_multiplicity
 _atom_site_fract_x
 _atom_site_fract_y
 _atom_site_fract_z
 _atom_site_occupancy
  Dy  Dy0  1  0.296339  0.086442  0.369683  1
  Dy  Dy1  1  0.297280  0.913072  0.875098  1
  Dy  Dy2  1  0.702720  0.086928  0.875098  1
  Dy  Dy3  1  0.703661  0.913558  0.369683  1
  Dy  Dy4  1  0.586928  0.797280  0.875098  1
  Dy  Dy5  1  0.586442  0.203661  0.369683  1
  Dy  Dy6  1  0.413558  0.796339  0.369683  1
  Dy  Dy7  1  0.413072  0.202720  0.875098  1
  Dy  Dy8  1  0.205457  0.410861  0.628362  1
  Dy  Dy9  1  0.205651  0.588429  0.128141  1
  Dy  Dy10  1  0.794349  0.411571  0.128141  1
  Dy  Dy11  1  0.794543  0.589139  0.628362  1
  Dy  Dy12  1  0.911571  0.705651  0.128141  1
  Dy  Dy13  1  0.910861  0.294543  0.628362  1
  Dy  Dy14  1  0.089139  0.705457  0.628362  1
  Dy  Dy15  1  0.088429  0.294349  0.128141  1
  Dy  Dy16  1  0.000000  0.000000  0.499203  1
  Dy  Dy17  1  0.000000  0.000000  0.999067  1
  Dy  Dy18  1  0.500000  0.500000  0.999067  1
  Dy  Dy19  1  0.500000  0.500000  0.499203  1
  Co  Co20  1  0.500000  0.000000  0.119394  1
  Ir  Ir21  1  0.500000  0.000000  0.617615  1
  Ir  Ir22  1  0.000000  0.500000  0.882237  1
  Ir  Ir23  1  0.000000  0.500000  0.382777  1
  Pt  Pt24  1  0.845506  0.153257  0.249420  1
  Pt  Pt25  1  0.845296  0.846967  0.749656  1
  Pt  Pt26  1  0.154704  0.153033  0.749656  1
  Pt  Pt27  1  0.154494  0.846743  0.249420  1
  Pt  Pt28  1  0.653033  0.345296  0.749656  1
  Pt  Pt29  1  0.653257  0.654494  0.249420  1
  Pt  Pt30  1  0.346743  0.345506  0.249420  1
  Pt  Pt31  1  0.346967  0.654704  0.749656  1
