# generated using pymatgen
data_HoScSb5
_symmetry_space_group_name_H-M   'P 1'
_cell_length_a   4.19984900
_cell_length_b   13.05279782
_cell_length_c   14.22825984
_cell_angle_alpha   78.85710314
_cell_angle_beta   90.00000000
_cell_angle_gamma   90.00000000
_symmetry_Int_Tables_number   1
_chemical_formula_structural   HoScSb5
_chemical_formula_sum   'Ho4 Sc4 Sb20'
_cell_volume   765.28589406
_cell_formula_units_Z   4
loop_
 _symmetry_equiv_pos_site_id
 _symmetry_equiv_pos_as_xyz
  1  'x, y, z'
loop_
 _atom_site_type_symbol
 _atom_site_label
 _atom_site_symmetry_multiplicity
 _atom_site_fract_x
 _atom_site_fract_y
 _atom_site_fract_z
 _atom_site_occupancy
  Ho  Ho0  1  0.250000  0.669058  0.576421  1
  Ho  Ho1  1  0.750000  0.330942  0.423579  1
  Ho  Ho2  1  0.250000  0.953657  0.355263  1
  Ho  Ho3  1  0.750000  0.046343  0.644737  1
  Sc  Sc4  1  0.250000  0.396523  0.772568  1
  Sc  Sc5  1  0.750000  0.603477  0.227432  1
  Sc  Sc6  1  0.250000  0.657473  0.858664  1
  Sc  Sc7  1  0.750000  0.342527  0.141336  1
  Sb  Sb8  1  0.250000  0.147467  0.779881  1
  Sb  Sb9  1  0.750000  0.852533  0.220119  1
  Sb  Sb10  1  0.250000  0.143564  0.483505  1
  Sb  Sb11  1  0.750000  0.856436  0.516495  1
  Sb  Sb12  1  0.250000  0.162549  0.161783  1
  Sb  Sb13  1  0.750000  0.837451  0.838217  1
  Sb  Sb14  1  0.250000  0.422005  0.974919  1
  Sb  Sb15  1  0.750000  0.577995  0.025081  1
  Sb  Sb16  1  0.750000  0.028159  0.913580  1
  Sb  Sb17  1  0.250000  0.971841  0.086420  1
  Sb  Sb18  1  0.750000  0.142638  0.316581  1
  Sb  Sb19  1  0.250000  0.857362  0.683419  1
  Sb  Sb20  1  0.750000  0.279875  0.936495  1
  Sb  Sb21  1  0.250000  0.720125  0.063505  1
  Sb  Sb22  1  0.750000  0.289181  0.658698  1
  Sb  Sb23  1  0.250000  0.710819  0.341302  1
  Sb  Sb24  1  0.750000  0.573188  0.741358  1
  Sb  Sb25  1  0.250000  0.426812  0.258642  1
  Sb  Sb26  1  0.750000  0.570223  0.443920  1
  Sb  Sb27  1  0.250000  0.429777  0.556080  1
