# generated using pymatgen
data_Pr4DyYRh18
_symmetry_space_group_name_H-M   'P 1'
_cell_length_a   5.34228100
_cell_length_b   5.34228156
_cell_length_c   17.64482700
_cell_angle_alpha   90.00000000
_cell_angle_beta   90.00000000
_cell_angle_gamma   119.99999032
_symmetry_Int_Tables_number   1
_chemical_formula_structural   Pr4DyYRh18
_chemical_formula_sum   'Pr4 Dy1 Y1 Rh18'
_cell_volume   436.11555829
_cell_formula_units_Z   1
loop_
 _symmetry_equiv_pos_site_id
 _symmetry_equiv_pos_as_xyz
  1  'x, y, z'
loop_
 _atom_site_type_symbol
 _atom_site_label
 _atom_site_symmetry_multiplicity
 _atom_site_fract_x
 _atom_site_fract_y
 _atom_site_fract_z
 _atom_site_occupancy
  Pr  Pr0  1  0.333333  0.666667  0.956842  1
  Pr  Pr1  1  0.666667  0.333333  0.043168  1
  Pr  Pr2  1  0.333333  0.666667  0.747489  1
  Pr  Pr3  1  0.666667  0.333333  0.252502  1
  Dy  Dy4  1  0.666667  0.333333  0.458973  1
  Y  Y5  1  0.333333  0.666667  0.541038  1
  Rh  Rh6  1  0.167520  0.832480  0.376232  1
  Rh  Rh7  1  0.167520  0.335039  0.376232  1
  Rh  Rh8  1  0.664961  0.832480  0.376232  1
  Rh  Rh9  1  0.832467  0.167533  0.623800  1
  Rh  Rh10  1  0.832467  0.664935  0.623800  1
  Rh  Rh11  1  0.335065  0.167533  0.623800  1
  Rh  Rh12  1  0.833576  0.166424  0.870337  1
  Rh  Rh13  1  0.833576  0.667152  0.870337  1
  Rh  Rh14  1  0.332848  0.166424  0.870337  1
  Rh  Rh15  1  0.166421  0.833579  0.129645  1
  Rh  Rh16  1  0.166421  0.332842  0.129645  1
  Rh  Rh17  1  0.667158  0.833579  0.129645  1
  Rh  Rh18  1  0.333333  0.666667  0.252339  1
  Rh  Rh19  1  0.666667  0.333333  0.747620  1
  Rh  Rh20  1  0.000000  0.000000  0.253098  1
  Rh  Rh21  1  0.000000  0.000000  0.746855  1
  Rh  Rh22  1  0.000000  0.000000  0.500034  1
  Rh  Rh23  1  0.000000  0.000000  0.000001  1
