# generated using pymatgen
data_Tb3Nd2Er5(In2Pd)4
_symmetry_space_group_name_H-M   'P 1'
_cell_length_a   3.63883900
_cell_length_b   8.20193808
_cell_length_c   18.34823975
_cell_angle_alpha   89.93396759
_cell_angle_beta   90.00000000
_cell_angle_gamma   90.00000000
_symmetry_Int_Tables_number   1
_chemical_formula_structural   Tb3Nd2Er5(In2Pd)4
_chemical_formula_sum   'Tb3 Nd2 Er5 In8 Pd4'
_cell_volume   547.61261587
_cell_formula_units_Z   1
loop_
 _symmetry_equiv_pos_site_id
 _symmetry_equiv_pos_as_xyz
  1  'x, y, z'
loop_
 _atom_site_type_symbol
 _atom_site_label
 _atom_site_symmetry_multiplicity
 _atom_site_fract_x
 _atom_site_fract_y
 _atom_site_fract_z
 _atom_site_occupancy
  Tb  Tb0  1  0.000000  0.739363  0.281894  1
  Tb  Tb1  1  0.000000  0.261180  0.717849  1
  Tb  Tb2  1  0.000000  0.761246  0.782121  1
  Nd  Nd3  1  0.000000  0.500247  0.499588  1
  Nd  Nd4  1  0.000000  0.999574  0.999949  1
  Er  Er5  1  0.000000  0.239304  0.218430  1
  Er  Er6  1  0.000000  0.617897  0.084819  1
  Er  Er7  1  0.000000  0.381055  0.916063  1
  Er  Er8  1  0.000000  0.881288  0.584052  1
  Er  Er9  1  0.000000  0.119094  0.415306  1
  In  In10  1  0.500000  0.701188  0.933744  1
  In  In11  1  0.500000  0.296809  0.067569  1
  In  In12  1  0.500000  0.799258  0.433283  1
  In  In13  1  0.500000  0.201686  0.566345  1
  In  In14  1  0.500000  0.582782  0.651727  1
  In  In15  1  0.500000  0.416740  0.347785  1
  In  In16  1  0.500000  0.919098  0.151720  1
  In  In17  1  0.500000  0.082788  0.848271  1
  Pd  Pd18  1  0.500000  0.520594  0.195333  1
  Pd  Pd19  1  0.500000  0.475891  0.805257  1
  Pd  Pd20  1  0.500000  0.976008  0.694797  1
  Pd  Pd21  1  0.500000  0.026907  0.304096  1
