# generated using pymatgen
data_Th8SnSe17
_symmetry_space_group_name_H-M   'P 1'
_cell_length_a   8.54513086
_cell_length_b   8.54513039
_cell_length_c   11.54505938
_cell_angle_alpha   79.41554467
_cell_angle_beta   79.41559879
_cell_angle_gamma   64.32425670
_symmetry_Int_Tables_number   1
_chemical_formula_structural   Th8SnSe17
_chemical_formula_sum   'Th8 Sn1 Se17'
_cell_volume   741.67217881
_cell_formula_units_Z   1
loop_
 _symmetry_equiv_pos_site_id
 _symmetry_equiv_pos_as_xyz
  1  'x, y, z'
loop_
 _atom_site_type_symbol
 _atom_site_label
 _atom_site_symmetry_multiplicity
 _atom_site_fract_x
 _atom_site_fract_y
 _atom_site_fract_z
 _atom_site_occupancy
  Th  Th0  1  0.794923  0.794923  0.460772  1
  Th  Th1  1  0.205077  0.205077  0.539228  1
  Th  Th2  1  0.696141  0.185192  0.699879  1
  Th  Th3  1  0.185193  0.696143  0.699879  1
  Th  Th4  1  0.814807  0.303857  0.300121  1
  Th  Th5  1  0.680616  0.680615  0.979946  1
  Th  Th6  1  0.319384  0.319385  0.020054  1
  Th  Th7  1  0.303859  0.814808  0.300121  1
  Sn  Sn8  1  0.000000  0.000000  0.000000  1
  Se  Se9  1  0.481034  0.481034  0.168018  1
  Se  Se10  1  0.695929  0.695929  0.249860  1
  Se  Se11  1  0.569422  0.176860  0.470158  1
  Se  Se12  1  0.054722  0.663893  0.955324  1
  Se  Se13  1  0.209479  0.209479  0.279439  1
  Se  Se14  1  0.430578  0.823140  0.529842  1
  Se  Se15  1  0.518966  0.518966  0.831982  1
  Se  Se16  1  0.663893  0.054722  0.955324  1
  Se  Se17  1  0.940050  0.940050  0.242896  1
  Se  Se18  1  0.059950  0.059950  0.757104  1
  Se  Se19  1  0.304071  0.304071  0.750140  1
  Se  Se20  1  0.336107  0.945278  0.044676  1
  Se  Se21  1  0.823140  0.430578  0.529842  1
  Se  Se22  1  0.945278  0.336107  0.044676  1
  Se  Se23  1  0.176860  0.569422  0.470158  1
  Se  Se24  1  0.000000  0.000000  0.500000  1
  Se  Se25  1  0.790521  0.790521  0.720561  1
