# generated using pymatgen
data_La4Nd2OsO12
_symmetry_space_group_name_H-M   'P 1'
_cell_length_a   6.79305019
_cell_length_b   6.78015082
_cell_length_c   6.81596621
_cell_angle_alpha   98.25014982
_cell_angle_beta   98.57815272
_cell_angle_gamma   98.44844032
_symmetry_Int_Tables_number   1
_chemical_formula_structural   La4Nd2OsO12
_chemical_formula_sum   'La4 Nd2 Os1 O12'
_cell_volume   302.62611948
_cell_formula_units_Z   1
loop_
 _symmetry_equiv_pos_site_id
 _symmetry_equiv_pos_as_xyz
  1  'x, y, z'
loop_
 _atom_site_type_symbol
 _atom_site_label
 _atom_site_symmetry_multiplicity
 _atom_site_fract_x
 _atom_site_fract_y
 _atom_site_fract_z
 _atom_site_occupancy
  La  La0  1  0.691837  0.391042  0.856424  1
  La  La1  1  0.304898  0.608115  0.143396  1
  La  La2  1  0.609431  0.144996  0.310172  1
  La  La3  1  0.859283  0.699870  0.399590  1
  Nd  Nd4  1  0.142418  0.301979  0.607483  1
  Nd  Nd5  1  0.385508  0.853748  0.690257  1
  Os  Os6  1  0.000783  0.000641  0.998703  1
  O  O7  1  0.066572  0.282111  0.963030  1
  O  O8  1  0.041171  0.936722  0.707930  1
  O  O9  1  0.402815  0.558582  0.823267  1
  O  O10  1  0.177556  0.591503  0.441185  1
  O  O11  1  0.717029  0.023324  0.928846  1
  O  O12  1  0.440121  0.176190  0.597211  1
  O  O13  1  0.556256  0.822212  0.408919  1
  O  O14  1  0.283728  0.971168  0.063074  1
  O  O15  1  0.823326  0.404999  0.563023  1
  O  O16  1  0.593941  0.441880  0.178054  1
  O  O17  1  0.969649  0.071565  0.288488  1
  O  O18  1  0.933680  0.719352  0.030946  1
