# generated using pymatgen
data_Ho(FeSb3)4
_symmetry_space_group_name_H-M   'P 1'
_cell_length_a   7.92122565
_cell_length_b   7.92122627
_cell_length_c   7.92122600
_cell_angle_alpha   109.47122249
_cell_angle_beta   109.47122410
_cell_angle_gamma   109.47121918
_symmetry_Int_Tables_number   1
_chemical_formula_structural   Ho(FeSb3)4
_chemical_formula_sum   'Ho1 Fe4 Sb12'
_cell_volume   382.60910175
_cell_formula_units_Z   1
loop_
 _symmetry_equiv_pos_site_id
 _symmetry_equiv_pos_as_xyz
  1  'x, y, z'
loop_
 _atom_site_type_symbol
 _atom_site_label
 _atom_site_symmetry_multiplicity
 _atom_site_fract_x
 _atom_site_fract_y
 _atom_site_fract_z
 _atom_site_occupancy
  Ho  Ho0  1  0.000000  0.000000  0.000000  1
  Fe  Fe1  1  0.500000  0.500000  0.500000  1
  Fe  Fe2  1  0.500000  0.000000  0.000000  1
  Fe  Fe3  1  0.000000  0.500000  0.000000  1
  Fe  Fe4  1  0.000000  0.000000  0.500000  1
  Sb  Sb5  1  0.838287  0.668025  0.506312  1
  Sb  Sb6  1  0.161713  0.331975  0.493688  1
  Sb  Sb7  1  0.161713  0.668025  0.829739  1
  Sb  Sb8  1  0.838287  0.331975  0.170261  1
  Sb  Sb9  1  0.668025  0.506312  0.838287  1
  Sb  Sb10  1  0.331975  0.493688  0.161713  1
  Sb  Sb11  1  0.668025  0.829739  0.161713  1
  Sb  Sb12  1  0.331975  0.170261  0.838287  1
  Sb  Sb13  1  0.506312  0.838287  0.668025  1
  Sb  Sb14  1  0.493688  0.161713  0.331975  1
  Sb  Sb15  1  0.170261  0.838287  0.331975  1
  Sb  Sb16  1  0.829739  0.161713  0.668025  1
