# generated using pymatgen
data_BaLi4Ca(SiO4)2
_symmetry_space_group_name_H-M   'P 1'
_cell_length_a   5.13487800
_cell_length_b   10.18998600
_cell_length_c   14.30910300
_cell_angle_alpha   90.00000000
_cell_angle_beta   90.00000000
_cell_angle_gamma   90.00000000
_symmetry_Int_Tables_number   1
_chemical_formula_structural   BaLi4Ca(SiO4)2
_chemical_formula_sum   'Ba4 Li16 Ca4 Si8 O32'
_cell_volume   748.71429794
_cell_formula_units_Z   4
loop_
 _symmetry_equiv_pos_site_id
 _symmetry_equiv_pos_as_xyz
  1  'x, y, z'
loop_
 _atom_site_type_symbol
 _atom_site_label
 _atom_site_symmetry_multiplicity
 _atom_site_fract_x
 _atom_site_fract_y
 _atom_site_fract_z
 _atom_site_occupancy
  Ba  Ba0  1  0.047850  0.264166  0.250000  1
  Ba  Ba1  1  0.952150  0.735834  0.750000  1
  Ba  Ba2  1  0.047850  0.235834  0.750000  1
  Ba  Ba3  1  0.952150  0.764166  0.250000  1
  Li  Li4  1  0.514361  0.224071  0.873393  1
  Li  Li5  1  0.955723  0.999011  0.626567  1
  Li  Li6  1  0.044277  0.000989  0.126567  1
  Li  Li7  1  0.485639  0.724071  0.873393  1
  Li  Li8  1  0.044277  0.000989  0.373433  1
  Li  Li9  1  0.514361  0.275929  0.126607  1
  Li  Li10  1  0.955723  0.500989  0.373433  1
  Li  Li11  1  0.955723  0.999011  0.873433  1
  Li  Li12  1  0.514361  0.224071  0.626607  1
  Li  Li13  1  0.955723  0.500989  0.126567  1
  Li  Li14  1  0.485639  0.724071  0.626607  1
  Li  Li15  1  0.044277  0.499011  0.873433  1
  Li  Li16  1  0.514361  0.275929  0.373393  1
  Li  Li17  1  0.485639  0.775929  0.373393  1
  Li  Li18  1  0.485639  0.775929  0.126607  1
  Li  Li19  1  0.044277  0.499011  0.626567  1
  Ca  Ca20  1  0.500000  0.000000  0.500000  1
  Ca  Ca21  1  0.500000  0.500000  0.000000  1
  Ca  Ca22  1  0.500000  0.000000  0.000000  1
  Ca  Ca23  1  0.500000  0.500000  0.500000  1
  Si  Si24  1  0.477895  0.974824  0.750000  1
  Si  Si25  1  0.522105  0.474824  0.750000  1
  Si  Si26  1  0.477895  0.525176  0.250000  1
  Si  Si27  1  0.522105  0.025176  0.250000  1
  Si  Si28  1  0.985540  0.750000  0.000000  1
  Si  Si29  1  0.014460  0.250000  0.500000  1
  Si  Si30  1  0.985540  0.750000  0.500000  1
  Si  Si31  1  0.014460  0.250000  0.000000  1
  O  O32  1  0.661822  0.539529  0.654970  1
  O  O33  1  0.562585  0.313124  0.750000  1
  O  O34  1  0.206982  0.337725  0.569494  1
  O  O35  1  0.206982  0.162275  0.069494  1
  O  O36  1  0.338178  0.039529  0.654970  1
  O  O37  1  0.338178  0.460471  0.345030  1
  O  O38  1  0.661822  0.960471  0.154970  1
  O  O39  1  0.793018  0.837725  0.569494  1
  O  O40  1  0.180057  0.653227  0.561807  1
  O  O41  1  0.793462  0.497281  0.250000  1
  O  O42  1  0.793462  0.002719  0.750000  1
  O  O43  1  0.819943  0.153227  0.561807  1
  O  O44  1  0.180057  0.846773  0.061807  1
  O  O45  1  0.661822  0.539529  0.845030  1
  O  O46  1  0.562585  0.186876  0.250000  1
  O  O47  1  0.661822  0.960471  0.345030  1
  O  O48  1  0.180057  0.846773  0.438193  1
  O  O49  1  0.206538  0.502719  0.750000  1
  O  O50  1  0.819943  0.346773  0.061807  1
  O  O51  1  0.819943  0.153227  0.938193  1
  O  O52  1  0.206538  0.997281  0.250000  1
  O  O53  1  0.180057  0.653227  0.938193  1
  O  O54  1  0.206982  0.162275  0.430506  1
  O  O55  1  0.793018  0.837725  0.930506  1
  O  O56  1  0.338178  0.039529  0.845030  1
  O  O57  1  0.338178  0.460471  0.154970  1
  O  O58  1  0.437415  0.686876  0.250000  1
  O  O59  1  0.206982  0.337725  0.930506  1
  O  O60  1  0.437415  0.813124  0.750000  1
  O  O61  1  0.793018  0.662275  0.430506  1
  O  O62  1  0.793018  0.662275  0.069494  1
  O  O63  1  0.819943  0.346773  0.438193  1
