# generated using pymatgen
data_Er2FeCo3(PRh)6
_symmetry_space_group_name_H-M   'P 1'
_cell_length_a   3.78894600
_cell_length_b   10.65142400
_cell_length_c   12.19302600
_cell_angle_alpha   90.00000000
_cell_angle_beta   90.00000000
_cell_angle_gamma   90.00000000
_symmetry_Int_Tables_number   1
_chemical_formula_structural   Er2FeCo3(PRh)6
_chemical_formula_sum   'Er4 Fe2 Co6 P12 Rh12'
_cell_volume   492.08212399
_cell_formula_units_Z   2
loop_
 _symmetry_equiv_pos_site_id
 _symmetry_equiv_pos_as_xyz
  1  'x, y, z'
loop_
 _atom_site_type_symbol
 _atom_site_label
 _atom_site_symmetry_multiplicity
 _atom_site_fract_x
 _atom_site_fract_y
 _atom_site_fract_z
 _atom_site_occupancy
  Er  Er0  1  0.250000  0.579300  0.709947  1
  Er  Er1  1  0.250000  0.920700  0.209947  1
  Er  Er2  1  0.750000  0.420469  0.290054  1
  Er  Er3  1  0.750000  0.079531  0.790054  1
  Fe  Fe4  1  0.750000  0.538670  0.067806  1
  Fe  Fe5  1  0.750000  0.961330  0.567806  1
  Co  Co6  1  0.250000  0.878819  0.697750  1
  Co  Co7  1  0.250000  0.621181  0.197750  1
  Co  Co8  1  0.750000  0.119395  0.302370  1
  Co  Co9  1  0.750000  0.380605  0.802370  1
  Co  Co10  1  0.250000  0.461375  0.931846  1
  Co  Co11  1  0.250000  0.038625  0.431846  1
  P  P12  1  0.250000  0.435739  0.111517  1
  P  P13  1  0.250000  0.064261  0.611517  1
  P  P14  1  0.750000  0.565321  0.889338  1
  P  P15  1  0.750000  0.934679  0.389338  1
  P  P16  1  0.250000  0.271763  0.869551  1
  P  P17  1  0.250000  0.228237  0.369551  1
  P  P18  1  0.750000  0.728023  0.130663  1
  P  P19  1  0.750000  0.771977  0.630663  1
  P  P20  1  0.250000  0.602316  0.381768  1
  P  P21  1  0.250000  0.897684  0.881768  1
  P  P22  1  0.750000  0.398252  0.618500  1
  P  P23  1  0.750000  0.101748  0.118500  1
  Rh  Rh24  1  0.250000  0.715043  0.992207  1
  Rh  Rh25  1  0.250000  0.784957  0.492207  1
  Rh  Rh26  1  0.750000  0.282006  0.006375  1
  Rh  Rh27  1  0.750000  0.217994  0.506375  1
  Rh  Rh28  1  0.250000  0.409959  0.477778  1
  Rh  Rh29  1  0.250000  0.090042  0.977778  1
  Rh  Rh30  1  0.750000  0.591024  0.522254  1
  Rh  Rh31  1  0.750000  0.908976  0.022254  1
  Rh  Rh32  1  0.250000  0.229814  0.178614  1
  Rh  Rh33  1  0.250000  0.270186  0.678614  1
  Rh  Rh34  1  0.750000  0.770435  0.821661  1
  Rh  Rh35  1  0.750000  0.729565  0.321661  1
