# generated using pymatgen
data_BaSrB4(S3O13)2
_symmetry_space_group_name_H-M   'P 1'
_cell_length_a   4.48682300
_cell_length_b   12.48638700
_cell_length_c   17.23079800
_cell_angle_alpha   90.00000000
_cell_angle_beta   90.00000000
_cell_angle_gamma   90.00000000
_symmetry_Int_Tables_number   1
_chemical_formula_structural   BaSrB4(S3O13)2
_chemical_formula_sum   'Ba2 Sr2 B8 S12 O52'
_cell_volume   965.34181768
_cell_formula_units_Z   2
loop_
 _symmetry_equiv_pos_site_id
 _symmetry_equiv_pos_as_xyz
  1  'x, y, z'
loop_
 _atom_site_type_symbol
 _atom_site_label
 _atom_site_symmetry_multiplicity
 _atom_site_fract_x
 _atom_site_fract_y
 _atom_site_fract_z
 _atom_site_occupancy
  Ba  Ba0  1  0.026202  0.750000  0.218530  1
  Ba  Ba1  1  0.473798  0.750000  0.718530  1
  Sr  Sr2  1  0.970309  0.250000  0.785947  1
  Sr  Sr3  1  0.529691  0.250000  0.285947  1
  B  B4  1  0.561950  0.149903  0.080444  1
  B  B5  1  0.938050  0.350097  0.580444  1
  B  B6  1  0.436483  0.648756  0.920097  1
  B  B7  1  0.063517  0.851244  0.420097  1
  B  B8  1  0.436483  0.851244  0.920097  1
  B  B9  1  0.063517  0.648756  0.420097  1
  B  B10  1  0.561950  0.350097  0.080444  1
  B  B11  1  0.938050  0.149903  0.580444  1
  S  S12  1  0.442689  0.064595  0.649480  1
  S  S13  1  0.057311  0.435405  0.149480  1
  S  S14  1  0.557455  0.560191  0.351059  1
  S  S15  1  0.942545  0.939809  0.851059  1
  S  S16  1  0.557455  0.939809  0.351059  1
  S  S17  1  0.942545  0.560191  0.851059  1
  S  S18  1  0.442689  0.435405  0.649480  1
  S  S19  1  0.057311  0.064595  0.149480  1
  S  S20  1  0.369925  0.250000  0.950909  1
  S  S21  1  0.130075  0.250000  0.450909  1
  S  S22  1  0.634350  0.750000  0.047132  1
  S  S23  1  0.865650  0.750000  0.547132  1
  O  O24  1  0.969118  0.250000  0.618544  1
  O  O25  1  0.530882  0.250000  0.118544  1
  O  O26  1  0.037702  0.750000  0.382846  1
  O  O27  1  0.462298  0.750000  0.882846  1
  O  O28  1  0.485025  0.152033  0.995812  1
  O  O29  1  0.014975  0.347967  0.495812  1
  O  O30  1  0.514045  0.651386  0.003712  1
  O  O31  1  0.985955  0.848614  0.503712  1
  O  O32  1  0.514045  0.848614  0.003712  1
  O  O33  1  0.985955  0.651386  0.503712  1
  O  O34  1  0.485025  0.347967  0.995812  1
  O  O35  1  0.014975  0.152033  0.495812  1
  O  O36  1  0.471457  0.137775  0.715208  1
  O  O37  1  0.028543  0.362225  0.215208  1
  O  O38  1  0.523029  0.633032  0.285452  1
  O  O39  1  0.976971  0.866968  0.785452  1
  O  O40  1  0.523029  0.866968  0.285452  1
  O  O41  1  0.976971  0.633032  0.785452  1
  O  O42  1  0.471457  0.362225  0.715208  1
  O  O43  1  0.028543  0.137775  0.215208  1
  O  O44  1  0.500168  0.250000  0.873144  1
  O  O45  1  0.999832  0.250000  0.373144  1
  O  O46  1  0.506712  0.750000  0.124734  1
  O  O47  1  0.993288  0.750000  0.624734  1
  O  O48  1  0.049366  0.250000  0.946594  1
  O  O49  1  0.450634  0.250000  0.446594  1
  O  O50  1  0.954536  0.750000  0.048560  1
  O  O51  1  0.545464  0.750000  0.548560  1
  O  O52  1  0.516232  0.954582  0.665491  1
  O  O53  1  0.983768  0.545418  0.165491  1
  O  O54  1  0.491025  0.449401  0.334863  1
  O  O55  1  0.008975  0.050599  0.834863  1
  O  O56  1  0.491025  0.050599  0.334863  1
  O  O57  1  0.008975  0.449401  0.834863  1
  O  O58  1  0.516232  0.545418  0.665491  1
  O  O59  1  0.983768  0.954582  0.165491  1
  O  O60  1  0.119848  0.064289  0.619123  1
  O  O61  1  0.380152  0.435711  0.119123  1
  O  O62  1  0.881150  0.563336  0.380530  1
  O  O63  1  0.618850  0.936664  0.880530  1
  O  O64  1  0.881150  0.936664  0.380530  1
  O  O65  1  0.618850  0.563336  0.880530  1
  O  O66  1  0.119848  0.435711  0.619123  1
  O  O67  1  0.380152  0.064289  0.119123  1
  O  O68  1  0.622783  0.106196  0.579765  1
  O  O69  1  0.877217  0.393804  0.079765  1
  O  O70  1  0.376306  0.601786  0.420492  1
  O  O71  1  0.123694  0.898214  0.920492  1
  O  O72  1  0.376306  0.898214  0.420492  1
  O  O73  1  0.123694  0.601786  0.920492  1
  O  O74  1  0.622783  0.393804  0.579765  1
  O  O75  1  0.877217  0.106196  0.079765  1
