# generated using pymatgen
data_TbHoHf2(Al3Ir)6
_symmetry_space_group_name_H-M   'P 1'
_cell_length_a   7.51995905
_cell_length_b   7.50477586
_cell_length_c   9.34451500
_cell_angle_alpha   90.00000000
_cell_angle_beta   90.00000000
_cell_angle_gamma   119.75448307
_symmetry_Int_Tables_number   1
_chemical_formula_structural   TbHoHf2(Al3Ir)6
_chemical_formula_sum   'Tb1 Ho1 Hf2 Al18 Ir6'
_cell_volume   457.83578222
_cell_formula_units_Z   1
loop_
 _symmetry_equiv_pos_site_id
 _symmetry_equiv_pos_as_xyz
  1  'x, y, z'
loop_
 _atom_site_type_symbol
 _atom_site_label
 _atom_site_symmetry_multiplicity
 _atom_site_fract_x
 _atom_site_fract_y
 _atom_site_fract_z
 _atom_site_occupancy
  Tb  Tb0  1  0.670325  0.994482  0.250000  1
  Ho  Ho1  1  0.329582  0.005497  0.750000  1
  Hf  Hf2  1  0.995475  0.670866  0.250000  1
  Hf  Hf3  1  0.004583  0.329144  0.750000  1
  Al  Al4  1  0.126359  0.124077  0.250000  1
  Al  Al5  1  0.873937  0.876029  0.750000  1
  Al  Al6  1  0.000237  0.337193  0.075295  1
  Al  Al7  1  0.000022  0.663053  0.924520  1
  Al  Al8  1  0.000022  0.663053  0.575480  1
  Al  Al9  1  0.331885  0.998271  0.422059  1
  Al  Al10  1  0.000237  0.337193  0.424705  1
  Al  Al11  1  0.667883  0.001752  0.578319  1
  Al  Al12  1  0.667883  0.001752  0.921681  1
  Al  Al13  1  0.331885  0.998271  0.077941  1
  Al  Al14  1  0.331314  0.333656  0.557434  1
  Al  Al15  1  0.668686  0.666116  0.442757  1
  Al  Al16  1  0.668686  0.666116  0.057243  1
  Al  Al17  1  0.331314  0.333656  0.942566  1
  Al  Al18  1  0.334222  0.547315  0.250000  1
  Al  Al19  1  0.665544  0.452365  0.750000  1
  Al  Al20  1  0.553292  0.343459  0.250000  1
  Al  Al21  1  0.446603  0.656680  0.750000  1
  Ir  Ir22  1  0.672798  0.328106  0.999506  1
  Ir  Ir23  1  0.327017  0.671881  0.000283  1
  Ir  Ir24  1  0.327017  0.671881  0.499717  1
  Ir  Ir25  1  0.672798  0.328106  0.500494  1
  Ir  Ir26  1  0.000198  0.000016  0.999883  1
  Ir  Ir27  1  0.000198  0.000016  0.500117  1
