# generated using pymatgen
data_LaBPt3Rh
_symmetry_space_group_name_H-M   'P 1'
_cell_length_a   5.52542705
_cell_length_b   5.49279834
_cell_length_c   7.66794000
_cell_angle_alpha   90.00000000
_cell_angle_beta   90.00000000
_cell_angle_gamma   119.80485441
_symmetry_Int_Tables_number   1
_chemical_formula_structural   LaBPt3Rh
_chemical_formula_sum   'La2 B2 Pt6 Rh2'
_cell_volume   201.93866991
_cell_formula_units_Z   2
loop_
 _symmetry_equiv_pos_site_id
 _symmetry_equiv_pos_as_xyz
  1  'x, y, z'
loop_
 _atom_site_type_symbol
 _atom_site_label
 _atom_site_symmetry_multiplicity
 _atom_site_fract_x
 _atom_site_fract_y
 _atom_site_fract_z
 _atom_site_occupancy
  La  La0  1  0.000000  0.000000  0.500000  1
  La  La1  1  0.000000  0.000000  0.000000  1
  B  B2  1  0.330630  0.665316  0.000000  1
  B  B3  1  0.669370  0.334684  0.000000  1
  Pt  Pt4  1  0.311333  0.655667  0.500000  1
  Pt  Pt5  1  0.688667  0.344333  0.500000  1
  Pt  Pt6  1  0.500000  0.000000  0.201498  1
  Pt  Pt7  1  0.500000  0.000000  0.798502  1
  Pt  Pt8  1  0.500000  0.500000  0.201498  1
  Pt  Pt9  1  0.500000  0.500000  0.798502  1
  Rh  Rh10  1  0.000000  0.500000  0.189665  1
  Rh  Rh11  1  0.000000  0.500000  0.810335  1
