# generated using pymatgen
data_Hf16VNi4IrRh2
_symmetry_space_group_name_H-M   'P 1'
_cell_length_a   8.59497250
_cell_length_b   8.66499130
_cell_length_c   8.58891200
_cell_angle_alpha   60.29003535
_cell_angle_beta   60.02333788
_cell_angle_gamma   60.28359088
_symmetry_Int_Tables_number   1
_chemical_formula_structural   Hf16VNi4IrRh2
_chemical_formula_sum   'Hf16 V1 Ni4 Ir1 Rh2'
_cell_volume   454.34125763
_cell_formula_units_Z   1
loop_
 _symmetry_equiv_pos_site_id
 _symmetry_equiv_pos_as_xyz
  1  'x, y, z'
loop_
 _atom_site_type_symbol
 _atom_site_label
 _atom_site_symmetry_multiplicity
 _atom_site_fract_x
 _atom_site_fract_y
 _atom_site_fract_z
 _atom_site_occupancy
  Hf  Hf0  1  0.681996  0.106098  0.105952  1
  Hf  Hf1  1  0.111271  0.665923  0.111402  1
  Hf  Hf2  1  0.105355  0.105376  0.684182  1
  Hf  Hf3  1  0.105355  0.105376  0.105085  1
  Hf  Hf4  1  0.315396  0.316808  0.683898  1
  Hf  Hf5  1  0.676407  0.695474  0.314060  1
  Hf  Hf6  1  0.314717  0.696032  0.314507  1
  Hf  Hf7  1  0.685026  0.316911  0.683363  1
  Hf  Hf8  1  0.685026  0.316911  0.314699  1
  Hf  Hf9  1  0.314717  0.696032  0.674745  1
  Hf  Hf10  1  0.953301  0.948711  0.548994  1
  Hf  Hf11  1  0.552853  0.553932  0.946607  1
  Hf  Hf12  1  0.947505  0.552920  0.947768  1
  Hf  Hf13  1  0.551368  0.945855  0.551172  1
  Hf  Hf14  1  0.551368  0.945855  0.951607  1
  Hf  Hf15  1  0.947505  0.552920  0.551809  1
  V  V16  1  0.331899  0.001539  0.333281  1
  Ni  Ni17  1  0.317789  0.887223  0.897494  1
  Ni  Ni18  1  0.891254  0.323592  0.892577  1
  Ni  Ni19  1  0.896768  0.888604  0.316592  1
  Ni  Ni20  1  0.896768  0.888604  0.898036  1
  Ir  Ir21  1  0.991555  0.329838  0.339303  1
  Rh  Rh22  1  0.337398  0.329733  0.994011  1
  Rh  Rh23  1  0.337398  0.329733  0.338856  1
