# generated using pymatgen
data_Li6Hf5ZnPt12
_symmetry_space_group_name_H-M   'P 1'
_cell_length_a   4.16451200
_cell_length_b   7.27038200
_cell_length_c   12.43438500
_cell_angle_alpha   89.99998290
_cell_angle_beta   89.99991265
_cell_angle_gamma   89.99997048
_symmetry_Int_Tables_number   1
_chemical_formula_structural   Li6Hf5ZnPt12
_chemical_formula_sum   'Li6 Hf5 Zn1 Pt12'
_cell_volume   376.48324927
_cell_formula_units_Z   1
loop_
 _symmetry_equiv_pos_site_id
 _symmetry_equiv_pos_as_xyz
  1  'x, y, z'
loop_
 _atom_site_type_symbol
 _atom_site_label
 _atom_site_symmetry_multiplicity
 _atom_site_fract_x
 _atom_site_fract_y
 _atom_site_fract_z
 _atom_site_occupancy
  Li  Li0  1  0.000000  0.000000  0.999999  1
  Li  Li1  1  0.500006  0.499999  0.158415  1
  Li  Li2  1  0.000001  0.000000  0.329610  1
  Li  Li3  1  0.500000  0.499999  0.500001  1
  Li  Li4  1  0.999998  0.000000  0.670390  1
  Li  Li5  1  0.499993  0.499999  0.841585  1
  Hf  Hf6  1  0.500000  0.000000  0.163161  1
  Hf  Hf7  1  0.000002  0.500000  0.331943  1
  Hf  Hf8  1  0.499999  0.000000  0.500000  1
  Hf  Hf9  1  0.999997  0.500000  0.668056  1
  Hf  Hf10  1  0.500001  0.000000  0.836839  1
  Zn  Zn11  1  0.000000  0.499999  0.000000  1
  Pt  Pt12  1  0.500001  0.252187  0.000000  1
  Pt  Pt13  1  0.500001  0.747813  0.000000  1
  Pt  Pt14  1  0.000002  0.253202  0.161602  1
  Pt  Pt15  1  0.000001  0.746798  0.161601  1
  Pt  Pt16  1  0.500002  0.250816  0.331191  1
  Pt  Pt17  1  0.500002  0.749183  0.331191  1
  Pt  Pt18  1  0.999999  0.248745  0.500000  1
  Pt  Pt19  1  0.000001  0.751254  0.500000  1
  Pt  Pt20  1  0.499998  0.250817  0.668809  1
  Pt  Pt21  1  0.499997  0.749183  0.668808  1
  Pt  Pt22  1  0.999999  0.253203  0.838399  1
  Pt  Pt23  1  0.000000  0.746798  0.838399  1
