# generated using pymatgen
data_Nb2Co2IrPt3
_symmetry_space_group_name_H-M   'P 1'
_cell_length_a   4.43825900
_cell_length_b   4.85898662
_cell_length_c   5.49571500
_cell_angle_alpha   90.17093294
_cell_angle_beta   90.00000000
_cell_angle_gamma   90.00000000
_symmetry_Int_Tables_number   1
_chemical_formula_structural   Nb2Co2IrPt3
_chemical_formula_sum   'Nb2 Co2 Ir1 Pt3'
_cell_volume   118.51699078
_cell_formula_units_Z   1
loop_
 _symmetry_equiv_pos_site_id
 _symmetry_equiv_pos_as_xyz
  1  'x, y, z'
loop_
 _atom_site_type_symbol
 _atom_site_label
 _atom_site_symmetry_multiplicity
 _atom_site_fract_x
 _atom_site_fract_y
 _atom_site_fract_z
 _atom_site_occupancy
  Nb  Nb0  1  0.500000  0.657404  0.493477  1
  Nb  Nb1  1  0.000000  0.349922  0.004206  1
  Co  Co2  1  0.000000  0.325277  0.498030  1
  Co  Co3  1  0.500000  0.673473  0.003588  1
  Ir  Ir4  1  0.000000  0.823847  0.246136  1
  Pt  Pt5  1  0.500000  0.167785  0.253122  1
  Pt  Pt6  1  0.000000  0.827581  0.752731  1
  Pt  Pt7  1  0.500000  0.174711  0.748712  1
