# generated using pymatgen
data_AcEu(CdPd)2
_symmetry_space_group_name_H-M   'P 1'
_cell_length_a   4.45511400
_cell_length_b   7.62126362
_cell_length_c   8.95835805
_cell_angle_alpha   89.56443052
_cell_angle_beta   90.00000000
_cell_angle_gamma   90.00000000
_symmetry_Int_Tables_number   1
_chemical_formula_structural   AcEu(CdPd)2
_chemical_formula_sum   'Ac2 Eu2 Cd4 Pd4'
_cell_volume   304.15970118
_cell_formula_units_Z   2
loop_
 _symmetry_equiv_pos_site_id
 _symmetry_equiv_pos_as_xyz
  1  'x, y, z'
loop_
 _atom_site_type_symbol
 _atom_site_label
 _atom_site_symmetry_multiplicity
 _atom_site_fract_x
 _atom_site_fract_y
 _atom_site_fract_z
 _atom_site_occupancy
  Ac  Ac0  1  0.250000  0.540140  0.187020  1
  Ac  Ac1  1  0.750000  0.459860  0.812980  1
  Eu  Eu2  1  0.250000  0.038433  0.318908  1
  Eu  Eu3  1  0.750000  0.961567  0.681092  1
  Cd  Cd4  1  0.250000  0.131554  0.938574  1
  Cd  Cd5  1  0.750000  0.351557  0.439792  1
  Cd  Cd6  1  0.250000  0.648443  0.560208  1
  Cd  Cd7  1  0.750000  0.868446  0.061426  1
  Pd  Pd8  1  0.750000  0.246412  0.126858  1
  Pd  Pd9  1  0.250000  0.257828  0.629736  1
  Pd  Pd10  1  0.750000  0.742172  0.370264  1
  Pd  Pd11  1  0.250000  0.753588  0.873142  1
