# generated using pymatgen
data_Y3Ho(Re3Tc)2
_symmetry_space_group_name_H-M   'P 1'
_cell_length_a   5.39631400
_cell_length_b   5.39631399
_cell_length_c   8.96705400
_cell_angle_alpha   90.00000000
_cell_angle_beta   90.00000000
_cell_angle_gamma   120.00000006
_symmetry_Int_Tables_number   1
_chemical_formula_structural   Y3Ho(Re3Tc)2
_chemical_formula_sum   'Y3 Ho1 Re6 Tc2'
_cell_volume   226.13867365
_cell_formula_units_Z   1
loop_
 _symmetry_equiv_pos_site_id
 _symmetry_equiv_pos_as_xyz
  1  'x, y, z'
loop_
 _atom_site_type_symbol
 _atom_site_label
 _atom_site_symmetry_multiplicity
 _atom_site_fract_x
 _atom_site_fract_y
 _atom_site_fract_z
 _atom_site_occupancy
  Y  Y0  1  0.333333  0.666667  0.436682  1
  Y  Y1  1  0.666667  0.333333  0.563302  1
  Y  Y2  1  0.666667  0.333333  0.936739  1
  Ho  Ho3  1  0.333333  0.666667  0.063283  1
  Re  Re4  1  0.828422  0.171578  0.249922  1
  Re  Re5  1  0.828422  0.656843  0.249922  1
  Re  Re6  1  0.343157  0.171578  0.249922  1
  Re  Re7  1  0.171607  0.828393  0.750059  1
  Re  Re8  1  0.171607  0.343215  0.750059  1
  Re  Re9  1  0.656785  0.828393  0.750059  1
  Tc  Tc10  1  0.000000  0.000000  0.500026  1
  Tc  Tc11  1  0.000000  0.000000  0.000028  1
