# generated using pymatgen
data_Th2Ga12Pd
_symmetry_space_group_name_H-M   'P 1'
_cell_length_a   6.15498300
_cell_length_b   6.15498300
_cell_length_c   15.51090700
_cell_angle_alpha   90.00000000
_cell_angle_beta   90.00000000
_cell_angle_gamma   90.00000000
_symmetry_Int_Tables_number   1
_chemical_formula_structural   Th2Ga12Pd
_chemical_formula_sum   'Th4 Ga24 Pd2'
_cell_volume   587.61234260
_cell_formula_units_Z   2
loop_
 _symmetry_equiv_pos_site_id
 _symmetry_equiv_pos_as_xyz
  1  'x, y, z'
loop_
 _atom_site_type_symbol
 _atom_site_label
 _atom_site_symmetry_multiplicity
 _atom_site_fract_x
 _atom_site_fract_y
 _atom_site_fract_z
 _atom_site_occupancy
  Th  Th0  1  0.500000  0.000000  0.247529  1
  Th  Th1  1  0.000000  0.500000  0.247529  1
  Th  Th2  1  0.000000  0.500000  0.752471  1
  Th  Th3  1  0.500000  0.000000  0.752471  1
  Ga  Ga4  1  0.000000  0.000000  0.186153  1
  Ga  Ga5  1  0.500000  0.500000  0.186153  1
  Ga  Ga6  1  0.500000  0.500000  0.813847  1
  Ga  Ga7  1  0.000000  0.000000  0.813847  1
  Ga  Ga8  1  0.000000  0.000000  0.344331  1
  Ga  Ga9  1  0.500000  0.500000  0.344331  1
  Ga  Ga10  1  0.500000  0.500000  0.655669  1
  Ga  Ga11  1  0.000000  0.000000  0.655669  1
  Ga  Ga12  1  0.250898  0.750898  0.910056  1
  Ga  Ga13  1  0.750898  0.749102  0.910056  1
  Ga  Ga14  1  0.249102  0.250898  0.910056  1
  Ga  Ga15  1  0.749102  0.249102  0.910056  1
  Ga  Ga16  1  0.249102  0.749102  0.089944  1
  Ga  Ga17  1  0.749102  0.750898  0.089944  1
  Ga  Ga18  1  0.250898  0.249102  0.089944  1
  Ga  Ga19  1  0.750898  0.250898  0.089944  1
  Ga  Ga20  1  0.328877  0.828877  0.429498  1
  Ga  Ga21  1  0.828877  0.671123  0.429498  1
  Ga  Ga22  1  0.171123  0.328877  0.429498  1
  Ga  Ga23  1  0.671123  0.171123  0.429498  1
  Ga  Ga24  1  0.171123  0.671123  0.570502  1
  Ga  Ga25  1  0.671123  0.828877  0.570502  1
  Ga  Ga26  1  0.328877  0.171123  0.570502  1
  Ga  Ga27  1  0.828877  0.328877  0.570502  1
  Pd  Pd28  1  0.500000  0.000000  0.000000  1
  Pd  Pd29  1  0.000000  0.500000  0.000000  1
