# generated using pymatgen
data_Dy8Tm7Sc5Sn16
_symmetry_space_group_name_H-M   'P 1'
_cell_length_a   7.86045030
_cell_length_b   8.02425883
_cell_length_c   15.19624882
_cell_angle_alpha   90.05483146
_cell_angle_beta   89.82303471
_cell_angle_gamma   90.05493518
_symmetry_Int_Tables_number   1
_chemical_formula_structural   Dy8Tm7Sc5Sn16
_chemical_formula_sum   'Dy8 Tm7 Sc5 Sn16'
_cell_volume   958.48712181
_cell_formula_units_Z   1
loop_
 _symmetry_equiv_pos_site_id
 _symmetry_equiv_pos_as_xyz
  1  'x, y, z'
loop_
 _atom_site_type_symbol
 _atom_site_label
 _atom_site_symmetry_multiplicity
 _atom_site_fract_x
 _atom_site_fract_y
 _atom_site_fract_z
 _atom_site_occupancy
  Dy  Dy0  1  0.519622  0.320718  0.904679  1
  Dy  Dy1  1  0.021398  0.178551  0.596732  1
  Dy  Dy2  1  0.479305  0.679043  0.404453  1
  Dy  Dy3  1  0.979195  0.820979  0.095060  1
  Dy  Dy4  1  0.480682  0.679962  0.093997  1
  Dy  Dy5  1  0.979152  0.820794  0.404080  1
  Dy  Dy6  1  0.520483  0.320945  0.597168  1
  Dy  Dy7  1  0.019151  0.178210  0.904258  1
  Tm  Tm8  1  0.862640  0.661460  0.625910  1
  Tm  Tm9  1  0.637039  0.160895  0.375550  1
  Tm  Tm10  1  0.140097  0.338752  0.122071  1
  Tm  Tm11  1  0.637889  0.161045  0.124380  1
  Tm  Tm12  1  0.137079  0.338852  0.375662  1
  Tm  Tm13  1  0.363496  0.839193  0.624936  1
  Tm  Tm14  1  0.862905  0.660177  0.876267  1
  Sc  Sc15  1  0.360797  0.839755  0.873135  1
  Sc  Sc16  1  0.193532  0.504727  0.750600  1
  Sc  Sc17  1  0.692158  0.994308  0.750812  1
  Sc  Sc18  1  0.807624  0.495110  0.250079  1
  Sc  Sc19  1  0.307159  0.004216  0.249521  1
  Sn  Sn20  1  0.300014  0.035126  0.039361  1
  Sn  Sn21  1  0.797102  0.462506  0.457343  1
  Sn  Sn22  1  0.703897  0.962450  0.543913  1
  Sn  Sn23  1  0.206235  0.544881  0.954943  1
  Sn  Sn24  1  0.693260  0.959933  0.955493  1
  Sn  Sn25  1  0.202338  0.537359  0.544266  1
  Sn  Sn26  1  0.297007  0.037641  0.456805  1
  Sn  Sn27  1  0.798702  0.461968  0.043552  1
  Sn  Sn28  1  0.553313  0.622033  0.752536  1
  Sn  Sn29  1  0.057643  0.880961  0.752498  1
  Sn  Sn30  1  0.444888  0.382429  0.249795  1
  Sn  Sn31  1  0.945844  0.118380  0.249128  1
  Sn  Sn32  1  0.329805  0.151140  0.751356  1
  Sn  Sn33  1  0.828477  0.346564  0.750604  1
  Sn  Sn34  1  0.669999  0.845516  0.249737  1
  Sn  Sn35  1  0.170072  0.653420  0.249321  1
