# generated using pymatgen
data_Sc4ZnGaSi3(GeIr3)2
_symmetry_space_group_name_H-M   'P 1'
_cell_length_a   7.01995095
_cell_length_b   7.05145418
_cell_length_c   7.05072800
_cell_angle_alpha   109.68829081
_cell_angle_beta   109.56898149
_cell_angle_gamma   109.21208512
_symmetry_Int_Tables_number   1
_chemical_formula_structural   Sc4ZnGaSi3(GeIr3)2
_chemical_formula_sum   'Sc4 Zn1 Ga1 Si3 Ge2 Ir6'
_cell_volume   268.48490634
_cell_formula_units_Z   1
loop_
 _symmetry_equiv_pos_site_id
 _symmetry_equiv_pos_as_xyz
  1  'x, y, z'
loop_
 _atom_site_type_symbol
 _atom_site_label
 _atom_site_symmetry_multiplicity
 _atom_site_fract_x
 _atom_site_fract_y
 _atom_site_fract_z
 _atom_site_occupancy
  Sc  Sc0  1  0.002536  0.996205  0.528961  1
  Sc  Sc1  1  0.002690  0.487967  0.006315  1
  Sc  Sc2  1  0.482340  0.995815  0.992777  1
  Sc  Sc3  1  0.499667  0.506810  0.503552  1
  Zn  Zn4  1  0.748303  0.248968  0.501517  1
  Ga  Ga5  1  0.702844  0.701438  0.005125  1
  Si  Si6  1  0.332034  0.332162  0.002161  1
  Si  Si7  1  0.672041  0.989278  0.684944  1
  Si  Si8  1  0.005284  0.686985  0.683678  1
  Ge  Ge9  1  0.287507  0.988719  0.302024  1
  Ge  Ge10  1  0.003219  0.303723  0.303932  1
  Ir  Ir11  1  0.746265  0.492076  0.257292  1
  Ir  Ir12  1  0.508526  0.252461  0.747751  1
  Ir  Ir13  1  0.238365  0.494293  0.748246  1
  Ir  Ir14  1  0.249632  0.749318  0.502885  1
  Ir  Ir15  1  0.508127  0.762640  0.257436  1
  Ir  Ir16  1  0.010617  0.011143  0.971402  1
