# generated using pymatgen
data_Tb14Tm2MgAg3Ir4
_symmetry_space_group_name_H-M   'P 1'
_cell_length_a   9.55379863
_cell_length_b   9.58444717
_cell_length_c   9.58444782
_cell_angle_alpha   60.32457832
_cell_angle_beta   60.42012433
_cell_angle_gamma   60.42012580
_symmetry_Int_Tables_number   1
_chemical_formula_structural   Tb14Tm2MgAg3Ir4
_chemical_formula_sum   'Tb14 Tm2 Mg1 Ag3 Ir4'
_cell_volume   626.02476233
_cell_formula_units_Z   1
loop_
 _symmetry_equiv_pos_site_id
 _symmetry_equiv_pos_as_xyz
  1  'x, y, z'
loop_
 _atom_site_type_symbol
 _atom_site_label
 _atom_site_symmetry_multiplicity
 _atom_site_fract_x
 _atom_site_fract_y
 _atom_site_fract_z
 _atom_site_occupancy
  Tb  Tb0  1  0.063954  0.437057  0.061645  1
  Tb  Tb1  1  0.060468  0.646496  0.646496  1
  Tb  Tb2  1  0.649352  0.651409  0.651409  1
  Tb  Tb3  1  0.063954  0.061645  0.437057  1
  Tb  Tb4  1  0.190119  0.811609  0.188704  1
  Tb  Tb5  1  0.814237  0.813131  0.186757  1
  Tb  Tb6  1  0.814237  0.186757  0.813131  1
  Tb  Tb7  1  0.437952  0.062441  0.437182  1
  Tb  Tb8  1  0.437952  0.437182  0.062441  1
  Tb  Tb9  1  0.436866  0.062906  0.062906  1
  Tb  Tb10  1  0.065302  0.437148  0.437148  1
  Tb  Tb11  1  0.190119  0.188704  0.811609  1
  Tb  Tb12  1  0.650031  0.649744  0.048768  1
  Tb  Tb13  1  0.650031  0.048768  0.649744  1
  Tm  Tm14  1  0.189993  0.811094  0.811094  1
  Tm  Tm15  1  0.814495  0.186926  0.186926  1
  Mg  Mg16  1  0.712983  0.428790  0.428790  1
  Ag  Ag17  1  0.417653  0.415588  0.750375  1
  Ag  Ag18  1  0.417653  0.750375  0.415588  1
  Ag  Ag19  1  0.417868  0.415532  0.415532  1
  Ir  Ir20  1  0.858629  0.858091  0.425638  1
  Ir  Ir21  1  0.858629  0.425638  0.858091  1
  Ir  Ir22  1  0.862258  0.856482  0.856482  1
  Ir  Ir23  1  0.425270  0.856490  0.856490  1
