# generated using pymatgen
data_Dy7Er(Si4W3)4
_symmetry_space_group_name_H-M   'P 1'
_cell_length_a   6.77831342
_cell_length_b   6.94041212
_cell_length_c   12.91575781
_cell_angle_alpha   90.01471057
_cell_angle_beta   89.99643706
_cell_angle_gamma   90.02137707
_symmetry_Int_Tables_number   1
_chemical_formula_structural   Dy7Er(Si4W3)4
_chemical_formula_sum   'Dy7 Er1 Si16 W12'
_cell_volume   607.61257445
_cell_formula_units_Z   1
loop_
 _symmetry_equiv_pos_site_id
 _symmetry_equiv_pos_as_xyz
  1  'x, y, z'
loop_
 _atom_site_type_symbol
 _atom_site_label
 _atom_site_symmetry_multiplicity
 _atom_site_fract_x
 _atom_site_fract_y
 _atom_site_fract_z
 _atom_site_occupancy
  Dy  Dy0  1  0.495346  0.667594  0.593357  1
  Dy  Dy1  1  0.995593  0.832413  0.906702  1
  Dy  Dy2  1  0.504781  0.332408  0.093502  1
  Dy  Dy3  1  0.004333  0.168003  0.407082  1
  Dy  Dy4  1  0.504267  0.332136  0.407160  1
  Dy  Dy5  1  0.004449  0.167743  0.093481  1
  Dy  Dy6  1  0.495367  0.667752  0.905964  1
  Er  Er7  1  0.994553  0.831898  0.593390  1
  Si  Si8  1  0.661929  0.957496  0.453648  1
  Si  Si9  1  0.161839  0.542432  0.046925  1
  Si  Si10  1  0.338869  0.042811  0.952650  1
  Si  Si11  1  0.838557  0.458336  0.547110  1
  Si  Si12  1  0.336739  0.041467  0.547044  1
  Si  Si13  1  0.838265  0.457370  0.952835  1
  Si  Si14  1  0.661531  0.957177  0.046995  1
  Si  Si15  1  0.161676  0.543347  0.453532  1
  Si  Si16  1  0.463472  0.370162  0.749885  1
  Si  Si17  1  0.963981  0.128347  0.749225  1
  Si  Si18  1  0.536688  0.629655  0.250218  1
  Si  Si19  1  0.036575  0.870822  0.250209  1
  Si  Si20  1  0.697723  0.866442  0.749493  1
  Si  Si21  1  0.195855  0.633814  0.749351  1
  Si  Si22  1  0.303176  0.133519  0.250286  1
  Si  Si23  1  0.803382  0.367078  0.250510  1
  W  W24  1  0.667607  0.163250  0.625599  1
  W  W25  1  0.167128  0.336106  0.873723  1
  W  W26  1  0.332363  0.836746  0.125578  1
  W  W27  1  0.832606  0.664163  0.374825  1
  W  W28  1  0.332332  0.836561  0.374423  1
  W  W29  1  0.832699  0.663725  0.125895  1
  W  W30  1  0.668429  0.163094  0.874101  1
  W  W31  1  0.167797  0.336473  0.625398  1
  W  W32  1  0.833795  0.499128  0.749658  1
  W  W33  1  0.333839  0.000170  0.749447  1
  W  W34  1  0.166368  0.501117  0.250300  1
  W  W35  1  0.666089  0.999242  0.250501  1
