# generated using pymatgen
data_Hf5Zr(PdN)2
_symmetry_space_group_name_H-M   'P 1'
_cell_length_a   5.93208474
_cell_length_b   5.93208424
_cell_length_c   8.91741100
_cell_angle_alpha   90.00000000
_cell_angle_beta   90.00000000
_cell_angle_gamma   147.67494335
_symmetry_Int_Tables_number   1
_chemical_formula_structural   Hf5Zr(PdN)2
_chemical_formula_sum   'Hf5 Zr1 Pd2 N2'
_cell_volume   167.79594098
_cell_formula_units_Z   1
loop_
 _symmetry_equiv_pos_site_id
 _symmetry_equiv_pos_as_xyz
  1  'x, y, z'
loop_
 _atom_site_type_symbol
 _atom_site_label
 _atom_site_symmetry_multiplicity
 _atom_site_fract_x
 _atom_site_fract_y
 _atom_site_fract_z
 _atom_site_occupancy
  Hf  Hf0  1  0.628430  0.371568  0.052883  1
  Hf  Hf1  1  0.628430  0.371568  0.447117  1
  Hf  Hf2  1  0.372220  0.627778  0.554612  1
  Hf  Hf3  1  0.052194  0.947804  0.750000  1
  Hf  Hf4  1  0.372220  0.627778  0.945388  1
  Zr  Zr5  1  0.947878  0.052120  0.250000  1
  Pd  Pd6  1  0.247462  0.752536  0.250000  1
  Pd  Pd7  1  0.749842  0.250156  0.750000  1
  N  N8  1  0.000658  0.999342  0.996694  1
  N  N9  1  0.000658  0.999342  0.503306  1
