# generated using pymatgen
data_Tb2PrMn2Co9B4
_symmetry_space_group_name_H-M   'P 1'
_cell_length_a   5.12110200
_cell_length_b   5.12076302
_cell_length_c   9.72773800
_cell_angle_alpha   89.99995761
_cell_angle_beta   90.00006240
_cell_angle_gamma   120.00218982
_symmetry_Int_Tables_number   1
_chemical_formula_structural   Tb2PrMn2Co9B4
_chemical_formula_sum   'Tb2 Pr1 Mn2 Co9 B4'
_cell_volume   220.91795629
_cell_formula_units_Z   1
loop_
 _symmetry_equiv_pos_site_id
 _symmetry_equiv_pos_as_xyz
  1  'x, y, z'
loop_
 _atom_site_type_symbol
 _atom_site_label
 _atom_site_symmetry_multiplicity
 _atom_site_fract_x
 _atom_site_fract_y
 _atom_site_fract_z
 _atom_site_occupancy
  Tb  Tb0  1  0.999991  0.000000  0.342386  1
  Tb  Tb1  1  0.999994  0.000000  0.657590  1
  Pr  Pr2  1  0.000014  0.000000  0.000036  1
  Mn  Mn3  1  0.333331  0.666667  0.999999  1
  Mn  Mn4  1  0.666664  0.333333  0.999999  1
  Co  Co5  1  0.499993  0.000000  0.500001  1
  Co  Co6  1  0.499992  0.500000  0.499993  1
  Co  Co7  1  0.999993  0.500000  0.499993  1
  Co  Co8  1  0.499992  0.000000  0.209270  1
  Co  Co9  1  0.499992  0.500000  0.209306  1
  Co  Co10  1  0.999992  0.500000  0.209306  1
  Co  Co11  1  0.499995  0.000000  0.790722  1
  Co  Co12  1  0.499994  0.500000  0.790724  1
  Co  Co13  1  0.999993  0.500000  0.790724  1
  B  B14  1  0.333317  0.666649  0.351428  1
  B  B15  1  0.666666  0.333351  0.351428  1
  B  B16  1  0.666621  0.333255  0.648549  1
  B  B17  1  0.333365  0.666745  0.648549  1
