# generated using pymatgen
data_DyHo2Th3Si4
_symmetry_space_group_name_H-M   'P 1'
_cell_length_a   7.62181471
_cell_length_b   7.62181557
_cell_length_c   4.24726100
_cell_angle_alpha   90.00000000
_cell_angle_beta   90.00000000
_cell_angle_gamma   90.56709684
_symmetry_Int_Tables_number   1
_chemical_formula_structural   DyHo2Th3Si4
_chemical_formula_sum   'Dy1 Ho2 Th3 Si4'
_cell_volume   246.72008095
_cell_formula_units_Z   1
loop_
 _symmetry_equiv_pos_site_id
 _symmetry_equiv_pos_as_xyz
  1  'x, y, z'
loop_
 _atom_site_type_symbol
 _atom_site_label
 _atom_site_symmetry_multiplicity
 _atom_site_fract_x
 _atom_site_fract_y
 _atom_site_fract_z
 _atom_site_occupancy
  Dy  Dy0  1  0.676219  0.176219  0.500000  1
  Ho  Ho1  1  0.500597  0.501321  0.000000  1
  Ho  Ho2  1  0.001321  0.000597  0.000000  1
  Th  Th3  1  0.322855  0.822855  0.500000  1
  Th  Th4  1  0.178171  0.320230  0.500000  1
  Th  Th5  1  0.820230  0.678171  0.500000  1
  Si  Si6  1  0.116085  0.616085  0.000000  1
  Si  Si7  1  0.880350  0.380350  0.000000  1
  Si  Si8  1  0.617945  0.886226  0.000000  1
  Si  Si9  1  0.386226  0.117945  0.000000  1
