# generated using pymatgen
data_Pr6Cd21Ag2Sn
_symmetry_space_group_name_H-M   'P 1'
_cell_length_a   10.15942686
_cell_length_b   10.13753951
_cell_length_c   10.13753968
_cell_angle_alpha   60.14289759
_cell_angle_beta   59.92855288
_cell_angle_gamma   59.92855184
_symmetry_Int_Tables_number   1
_chemical_formula_structural   Pr6Cd21Ag2Sn
_chemical_formula_sum   'Pr6 Cd21 Ag2 Sn1'
_cell_volume   738.27011262
_cell_formula_units_Z   1
loop_
 _symmetry_equiv_pos_site_id
 _symmetry_equiv_pos_as_xyz
  1  'x, y, z'
loop_
 _atom_site_type_symbol
 _atom_site_label
 _atom_site_symmetry_multiplicity
 _atom_site_fract_x
 _atom_site_fract_y
 _atom_site_fract_z
 _atom_site_occupancy
  Pr  Pr0  1  0.777634  0.777634  0.222366  1
  Pr  Pr1  1  0.222366  0.777634  0.222366  1
  Pr  Pr2  1  0.776848  0.223152  0.223152  1
  Pr  Pr3  1  0.222366  0.222366  0.777634  1
  Pr  Pr4  1  0.777634  0.222366  0.777634  1
  Pr  Pr5  1  0.223152  0.776848  0.776848  1
  Cd  Cd6  1  0.843907  0.836241  0.475947  1
  Cd  Cd7  1  0.843907  0.475947  0.836241  1
  Cd  Cd8  1  0.475947  0.843907  0.843907  1
  Cd  Cd9  1  0.836241  0.843907  0.843907  1
  Cd  Cd10  1  0.156093  0.163759  0.524053  1
  Cd  Cd11  1  0.156093  0.524053  0.163759  1
  Cd  Cd12  1  0.524053  0.156093  0.156093  1
  Cd  Cd13  1  0.163759  0.156093  0.156093  1
  Cd  Cd14  1  0.624309  0.630555  0.120828  1
  Cd  Cd15  1  0.624309  0.120828  0.630555  1
  Cd  Cd16  1  0.120828  0.624309  0.624309  1
  Cd  Cd17  1  0.630555  0.624309  0.624309  1
  Cd  Cd18  1  0.375691  0.369445  0.879172  1
  Cd  Cd19  1  0.375691  0.879172  0.369445  1
  Cd  Cd20  1  0.879172  0.375691  0.375691  1
  Cd  Cd21  1  0.369445  0.375691  0.375691  1
  Cd  Cd22  1  0.000000  0.000000  0.500000  1
  Cd  Cd23  1  0.500000  0.000000  0.500000  1
  Cd  Cd24  1  0.500000  0.500000  0.000000  1
  Cd  Cd25  1  0.000000  0.500000  0.000000  1
  Cd  Cd26  1  0.500000  0.500000  0.500000  1
  Ag  Ag27  1  0.000000  0.500000  0.500000  1
  Ag  Ag28  1  0.500000  0.000000  0.000000  1
  Sn  Sn29  1  0.000000  0.000000  0.000000  1
