# generated using pymatgen
data_Li4Tb3TmSi8
_symmetry_space_group_name_H-M   'P 1'
_cell_length_a   3.80088500
_cell_length_b   7.58824328
_cell_length_c   10.17846476
_cell_angle_alpha   90.10017265
_cell_angle_beta   90.00000000
_cell_angle_gamma   90.00000000
_symmetry_Int_Tables_number   1
_chemical_formula_structural   Li4Tb3TmSi8
_chemical_formula_sum   'Li4 Tb3 Tm1 Si8'
_cell_volume   293.56723949
_cell_formula_units_Z   1
loop_
 _symmetry_equiv_pos_site_id
 _symmetry_equiv_pos_as_xyz
  1  'x, y, z'
loop_
 _atom_site_type_symbol
 _atom_site_label
 _atom_site_symmetry_multiplicity
 _atom_site_fract_x
 _atom_site_fract_y
 _atom_site_fract_z
 _atom_site_occupancy
  Li  Li0  1  0.250000  0.989905  0.391786  1
  Li  Li1  1  0.250000  0.490803  0.108196  1
  Li  Li2  1  0.750000  0.009740  0.608126  1
  Li  Li3  1  0.750000  0.509365  0.891919  1
  Tb  Tb4  1  0.250000  0.139877  0.864306  1
  Tb  Tb5  1  0.250000  0.639026  0.635470  1
  Tb  Tb6  1  0.750000  0.860463  0.136226  1
  Tm  Tm7  1  0.750000  0.362321  0.364001  1
  Si  Si8  1  0.250000  0.233000  0.565194  1
  Si  Si9  1  0.250000  0.731330  0.931558  1
  Si  Si10  1  0.750000  0.766439  0.431259  1
  Si  Si11  1  0.750000  0.270451  0.070864  1
  Si  Si12  1  0.250000  0.653031  0.320756  1
  Si  Si13  1  0.250000  0.158952  0.182186  1
  Si  Si14  1  0.750000  0.343037  0.678072  1
  Si  Si15  1  0.750000  0.842260  0.820079  1
