# generated using pymatgen
data_Li2YbHoSi4
_symmetry_space_group_name_H-M   'P 1'
_cell_length_a   3.78219000
_cell_length_b   7.74333614
_cell_length_c   10.35948893
_cell_angle_alpha   89.39656804
_cell_angle_beta   90.00000000
_cell_angle_gamma   90.00000000
_symmetry_Int_Tables_number   1
_chemical_formula_structural   Li2YbHoSi4
_chemical_formula_sum   'Li4 Yb2 Ho2 Si8'
_cell_volume   303.37912802
_cell_formula_units_Z   2
loop_
 _symmetry_equiv_pos_site_id
 _symmetry_equiv_pos_as_xyz
  1  'x, y, z'
loop_
 _atom_site_type_symbol
 _atom_site_label
 _atom_site_symmetry_multiplicity
 _atom_site_fract_x
 _atom_site_fract_y
 _atom_site_fract_z
 _atom_site_occupancy
  Li  Li0  1  0.250000  0.995039  0.391400  1
  Li  Li1  1  0.750000  0.004961  0.608600  1
  Li  Li2  1  0.250000  0.490329  0.108947  1
  Li  Li3  1  0.750000  0.509671  0.891053  1
  Yb  Yb4  1  0.250000  0.638890  0.634317  1
  Yb  Yb5  1  0.750000  0.361110  0.365683  1
  Ho  Ho6  1  0.250000  0.132785  0.864997  1
  Ho  Ho7  1  0.750000  0.867215  0.135003  1
  Si  Si8  1  0.750000  0.260330  0.063484  1
  Si  Si9  1  0.250000  0.739670  0.936516  1
  Si  Si10  1  0.750000  0.768762  0.427422  1
  Si  Si11  1  0.250000  0.231238  0.572578  1
  Si  Si12  1  0.750000  0.845962  0.824864  1
  Si  Si13  1  0.250000  0.154038  0.175136  1
  Si  Si14  1  0.750000  0.337615  0.682396  1
  Si  Si15  1  0.250000  0.662385  0.317604  1
