# generated using pymatgen
data_Y2Er2HfRh5
_symmetry_space_group_name_H-M   'P 1'
_cell_length_a   3.39413300
_cell_length_b   3.39413300
_cell_length_c   16.93034100
_cell_angle_alpha   90.00000000
_cell_angle_beta   90.00000000
_cell_angle_gamma   90.00000000
_symmetry_Int_Tables_number   1
_chemical_formula_structural   Y2Er2HfRh5
_chemical_formula_sum   'Y2 Er2 Hf1 Rh5'
_cell_volume   195.03987862
_cell_formula_units_Z   1
loop_
 _symmetry_equiv_pos_site_id
 _symmetry_equiv_pos_as_xyz
  1  'x, y, z'
loop_
 _atom_site_type_symbol
 _atom_site_label
 _atom_site_symmetry_multiplicity
 _atom_site_fract_x
 _atom_site_fract_y
 _atom_site_fract_z
 _atom_site_occupancy
  Y  Y0  1  0.000000  0.000000  0.600549  1
  Y  Y1  1  0.000000  0.000000  0.802968  1
  Er  Er2  1  0.000000  0.000000  0.197528  1
  Er  Er3  1  0.000000  0.000000  0.398685  1
  Hf  Hf4  1  0.000000  0.000000  0.000547  1
  Rh  Rh5  1  0.500000  0.500000  0.089074  1
  Rh  Rh6  1  0.500000  0.500000  0.296106  1
  Rh  Rh7  1  0.500000  0.500000  0.498061  1
  Rh  Rh8  1  0.500000  0.500000  0.703601  1
  Rh  Rh9  1  0.500000  0.500000  0.912881  1
