# generated using pymatgen
data_Ta6Zn3Cu3O
_symmetry_space_group_name_H-M   'P 1'
_cell_length_a   8.03641520
_cell_length_b   8.03905773
_cell_length_c   8.03905800
_cell_angle_alpha   59.93058953
_cell_angle_beta   60.01087119
_cell_angle_gamma   60.01086919
_symmetry_Int_Tables_number   1
_chemical_formula_structural   Ta6Zn3Cu3O
_chemical_formula_sum   'Ta12 Zn6 Cu6 O2'
_cell_volume   367.11371011
_cell_formula_units_Z   2
loop_
 _symmetry_equiv_pos_site_id
 _symmetry_equiv_pos_as_xyz
  1  'x, y, z'
loop_
 _atom_site_type_symbol
 _atom_site_label
 _atom_site_symmetry_multiplicity
 _atom_site_fract_x
 _atom_site_fract_y
 _atom_site_fract_z
 _atom_site_occupancy
  Ta  Ta0  1  0.195176  0.804394  0.196399  1
  Ta  Ta1  1  0.445069  0.055721  0.444057  1
  Ta  Ta2  1  0.443260  0.056740  0.056740  1
  Ta  Ta3  1  0.445069  0.444057  0.055721  1
  Ta  Ta4  1  0.195759  0.804241  0.804241  1
  Ta  Ta5  1  0.055153  0.444057  0.055721  1
  Ta  Ta6  1  0.804032  0.804394  0.196399  1
  Ta  Ta7  1  0.053759  0.446241  0.446241  1
  Ta  Ta8  1  0.195176  0.196399  0.804394  1
  Ta  Ta9  1  0.804019  0.195981  0.195981  1
  Ta  Ta10  1  0.804032  0.196399  0.804394  1
  Ta  Ta11  1  0.055153  0.055721  0.444057  1
  Zn  Zn12  1  0.833169  0.831308  0.831308  1
  Zn  Zn13  1  0.504216  0.831308  0.831308  1
  Zn  Zn14  1  0.624471  0.128867  0.622193  1
  Zn  Zn15  1  0.624471  0.622193  0.128867  1
  Zn  Zn16  1  0.126868  0.623476  0.623476  1
  Zn  Zn17  1  0.626181  0.623476  0.623476  1
  Cu  Cu18  1  0.833659  0.499692  0.832991  1
  Cu  Cu19  1  0.416774  0.417563  0.748890  1
  Cu  Cu20  1  0.749168  0.417260  0.417260  1
  Cu  Cu21  1  0.416313  0.417260  0.417260  1
  Cu  Cu22  1  0.833659  0.832991  0.499692  1
  Cu  Cu23  1  0.416774  0.748890  0.417563  1
  O  O24  1  0.999740  0.000260  0.000260  1
  O  O25  1  0.248884  0.251116  0.251116  1
