# generated using pymatgen
data_Ca4Ga14CuAu
_symmetry_space_group_name_H-M   'P 1'
_cell_length_a   6.03371429
_cell_length_b   6.03711730
_cell_length_c   11.56485400
_cell_angle_alpha   74.86992080
_cell_angle_beta   74.87865361
_cell_angle_gamma   90.00000481
_symmetry_Int_Tables_number   1
_chemical_formula_structural   Ca4Ga14CuAu
_chemical_formula_sum   'Ca4 Ga14 Cu1 Au1'
_cell_volume   391.53165333
_cell_formula_units_Z   1
loop_
 _symmetry_equiv_pos_site_id
 _symmetry_equiv_pos_as_xyz
  1  'x, y, z'
loop_
 _atom_site_type_symbol
 _atom_site_label
 _atom_site_symmetry_multiplicity
 _atom_site_fract_x
 _atom_site_fract_y
 _atom_site_fract_z
 _atom_site_occupancy
  Ca  Ca0  1  0.001420  0.001420  0.997161  1
  Ca  Ca1  1  0.501311  0.501311  0.997378  1
  Ca  Ca2  1  0.750663  0.250663  0.498674  1
  Ca  Ca3  1  0.246227  0.746227  0.507549  1
  Ga  Ga4  1  0.193277  0.193277  0.613447  1
  Ga  Ga5  1  0.807192  0.807192  0.385617  1
  Ga  Ga6  1  0.623446  0.121215  0.245807  1
  Ga  Ga7  1  0.130746  0.632978  0.245807  1
  Ga  Ga8  1  0.623446  0.632978  0.245807  1
  Ga  Ga9  1  0.130746  0.121215  0.245807  1
  Ga  Ga10  1  0.865708  0.363837  0.754352  1
  Ga  Ga11  1  0.379940  0.881810  0.754352  1
  Ga  Ga12  1  0.865708  0.881810  0.754352  1
  Ga  Ga13  1  0.379940  0.363837  0.754352  1
  Ga  Ga14  1  0.692905  0.692905  0.614190  1
  Ga  Ga15  1  0.058261  0.558261  0.883479  1
  Ga  Ga16  1  0.451416  0.951416  0.097167  1
  Ga  Ga17  1  0.944212  0.444212  0.111575  1
  Cu  Cu18  1  0.560268  0.060268  0.879466  1
  Au  Au19  1  0.307998  0.307998  0.384003  1
