# generated using pymatgen
data_Pm2Pt3
_symmetry_space_group_name_H-M   'P 1'
_cell_length_a   5.63389716
_cell_length_b   5.63474752
_cell_length_c   5.61826128
_cell_angle_alpha   88.92213778
_cell_angle_beta   106.61265694
_cell_angle_gamma   137.21497538
_symmetry_Int_Tables_number   1
_chemical_formula_structural   Pm2Pt3
_chemical_formula_sum   'Pm2 Pt3'
_cell_volume   110.97942445
_cell_formula_units_Z   1
loop_
 _symmetry_equiv_pos_site_id
 _symmetry_equiv_pos_as_xyz
  1  'x, y, z'
loop_
 _atom_site_type_symbol
 _atom_site_label
 _atom_site_symmetry_multiplicity
 _atom_site_fract_x
 _atom_site_fract_y
 _atom_site_fract_z
 _atom_site_occupancy
  Pm  Pm0  1  0.556317  0.273857  0.729442  1
  Pm  Pm1  1  0.557189  0.824994  0.282089  1
  Pt  Pt2  1  0.258988  0.548291  0.708965  1
  Pt  Pt3  1  0.855049  0.550362  0.303497  1
  Pt  Pt4  1  0.057687  0.049991  0.007247  1
