# generated using pymatgen
data_Ho2ThSb3
_symmetry_space_group_name_H-M   'P 1'
_cell_length_a   4.42546200
_cell_length_b   4.42546155
_cell_length_c   10.74777700
_cell_angle_alpha   90.00000000
_cell_angle_beta   90.00000000
_cell_angle_gamma   120.00000334
_symmetry_Int_Tables_number   1
_chemical_formula_structural   Ho2ThSb3
_chemical_formula_sum   'Ho2 Th1 Sb3'
_cell_volume   182.29151407
_cell_formula_units_Z   1
loop_
 _symmetry_equiv_pos_site_id
 _symmetry_equiv_pos_as_xyz
  1  'x, y, z'
loop_
 _atom_site_type_symbol
 _atom_site_label
 _atom_site_symmetry_multiplicity
 _atom_site_fract_x
 _atom_site_fract_y
 _atom_site_fract_z
 _atom_site_occupancy
  Ho  Ho0  1  0.333333  0.666667  0.659879  1
  Ho  Ho1  1  0.666667  0.333333  0.340121  1
  Th  Th2  1  0.000000  0.000000  0.000000  1
  Sb  Sb3  1  0.333333  0.666667  0.175942  1
  Sb  Sb4  1  0.666667  0.333333  0.824058  1
  Sb  Sb5  1  0.000000  0.000000  0.500000  1
