# generated using pymatgen
data_Nd8Tl3Co
_symmetry_space_group_name_H-M   'P 1'
_cell_length_a   10.73521900
_cell_length_b   10.73214128
_cell_length_c   7.38106302
_cell_angle_alpha   89.99267541
_cell_angle_beta   89.99970841
_cell_angle_gamma   120.00958118
_symmetry_Int_Tables_number   1
_chemical_formula_structural   Nd8Tl3Co
_chemical_formula_sum   'Nd16 Tl6 Co2'
_cell_volume   736.38493036
_cell_formula_units_Z   2
loop_
 _symmetry_equiv_pos_site_id
 _symmetry_equiv_pos_as_xyz
  1  'x, y, z'
loop_
 _atom_site_type_symbol
 _atom_site_label
 _atom_site_symmetry_multiplicity
 _atom_site_fract_x
 _atom_site_fract_y
 _atom_site_fract_z
 _atom_site_occupancy
  Nd  Nd0  1  0.666661  0.333321  0.184180  1
  Nd  Nd1  1  0.999900  0.999803  0.274958  1
  Nd  Nd2  1  0.459148  0.918293  0.286874  1
  Nd  Nd3  1  0.081699  0.540956  0.286909  1
  Nd  Nd4  1  0.459260  0.540961  0.286905  1
  Nd  Nd5  1  0.351438  0.175745  0.488004  1
  Nd  Nd6  1  0.824306  0.175746  0.488010  1
  Nd  Nd7  1  0.824258  0.648514  0.488244  1
  Nd  Nd8  1  0.333334  0.666669  0.684001  1
  Nd  Nd9  1  0.000100  0.000199  0.774935  1
  Nd  Nd10  1  0.540892  0.081786  0.786813  1
  Nd  Nd11  1  0.540785  0.459007  0.786863  1
  Nd  Nd12  1  0.918222  0.459006  0.786866  1
  Nd  Nd13  1  0.175652  0.824301  0.988013  1
  Nd  Nd14  1  0.648648  0.824300  0.988009  1
  Nd  Nd15  1  0.175697  0.351394  0.988257  1
  Tl  Tl16  1  0.836111  0.672221  0.041707  1
  Tl  Tl17  1  0.327631  0.163773  0.041669  1
  Tl  Tl18  1  0.836142  0.163773  0.041669  1
  Tl  Tl19  1  0.163872  0.327744  0.541694  1
  Tl  Tl20  1  0.163841  0.836247  0.541658  1
  Tl  Tl21  1  0.672405  0.836246  0.541658  1
  Co  Co22  1  0.333332  0.666665  0.054059  1
  Co  Co23  1  0.666666  0.333331  0.554052  1
