# generated using pymatgen
data_Yb2LuRuO6
_symmetry_space_group_name_H-M   'P 1'
_cell_length_a   5.48091009
_cell_length_b   5.71607600
_cell_length_c   7.88184669
_cell_angle_alpha   90.00000000
_cell_angle_beta   90.58007744
_cell_angle_gamma   90.00000000
_symmetry_Int_Tables_number   1
_chemical_formula_structural   Yb2LuRuO6
_chemical_formula_sum   'Yb4 Lu2 Ru2 O12'
_cell_volume   246.92007351
_cell_formula_units_Z   2
loop_
 _symmetry_equiv_pos_site_id
 _symmetry_equiv_pos_as_xyz
  1  'x, y, z'
loop_
 _atom_site_type_symbol
 _atom_site_label
 _atom_site_symmetry_multiplicity
 _atom_site_fract_x
 _atom_site_fract_y
 _atom_site_fract_z
 _atom_site_occupancy
  Yb  Yb0  1  0.519048  0.561190  0.250438  1
  Yb  Yb1  1  0.980952  0.061189  0.249562  1
  Yb  Yb2  1  0.019049  0.938811  0.750437  1
  Yb  Yb3  1  0.480951  0.438811  0.749562  1
  Lu  Lu4  1  0.000000  0.500000  0.000000  1
  Lu  Lu5  1  0.500000  0.000000  0.500000  1
  Ru  Ru6  1  0.500000  0.000000  0.000000  1
  Ru  Ru7  1  0.000000  0.500000  0.500000  1
  O  O8  1  0.790778  0.810813  0.056611  1
  O  O9  1  0.683102  0.288370  0.061651  1
  O  O10  1  0.388438  0.958168  0.236420  1
  O  O11  1  0.111563  0.458167  0.263580  1
  O  O12  1  0.816900  0.788369  0.438349  1
  O  O13  1  0.709222  0.310812  0.443389  1
  O  O14  1  0.290777  0.689186  0.556611  1
  O  O15  1  0.183101  0.211630  0.561652  1
  O  O16  1  0.888438  0.541833  0.736420  1
  O  O17  1  0.611563  0.041833  0.763579  1
  O  O18  1  0.316899  0.711630  0.938348  1
  O  O19  1  0.209223  0.189186  0.943389  1
