# generated using pymatgen
data_LiSmMnPt3
_symmetry_space_group_name_H-M   'P 1'
_cell_length_a   5.52455357
_cell_length_b   5.52455397
_cell_length_c   5.18704160
_cell_angle_alpha   57.82314198
_cell_angle_beta   57.82315224
_cell_angle_gamma   59.99999755
_symmetry_Int_Tables_number   1
_chemical_formula_structural   LiSmMnPt3
_chemical_formula_sum   'Li1 Sm1 Mn1 Pt3'
_cell_volume   108.11768246
_cell_formula_units_Z   1
loop_
 _symmetry_equiv_pos_site_id
 _symmetry_equiv_pos_as_xyz
  1  'x, y, z'
loop_
 _atom_site_type_symbol
 _atom_site_label
 _atom_site_symmetry_multiplicity
 _atom_site_fract_x
 _atom_site_fract_y
 _atom_site_fract_z
 _atom_site_occupancy
  Li  Li0  1  0.739566  0.739566  0.781303  1
  Sm  Sm1  1  0.994305  0.994305  0.017084  1
  Mn  Mn2  1  0.379368  0.379368  0.861897  1
  Pt  Pt3  1  0.379788  0.379788  0.363239  1
  Pt  Pt4  1  0.877186  0.379788  0.363239  1
  Pt  Pt5  1  0.379788  0.877186  0.363239  1
