# generated using pymatgen
data_K11Rb(TaSe4)4
_symmetry_space_group_name_H-M   'P 1'
_cell_length_a   9.64671200
_cell_length_b   10.21751231
_cell_length_c   11.04629300
_cell_angle_alpha   90.00000000
_cell_angle_beta   90.00000000
_cell_angle_gamma   89.72427297
_symmetry_Int_Tables_number   1
_chemical_formula_structural   K11Rb(TaSe4)4
_chemical_formula_sum   'K11 Rb1 Ta4 Se16'
_cell_volume   1088.76966556
_cell_formula_units_Z   1
loop_
 _symmetry_equiv_pos_site_id
 _symmetry_equiv_pos_as_xyz
  1  'x, y, z'
loop_
 _atom_site_type_symbol
 _atom_site_label
 _atom_site_symmetry_multiplicity
 _atom_site_fract_x
 _atom_site_fract_y
 _atom_site_fract_z
 _atom_site_occupancy
  K  K0  1  0.120572  0.071357  0.750000  1
  K  K1  1  0.376744  0.572534  0.250000  1
  K  K2  1  0.875816  0.928785  0.250000  1
  K  K3  1  0.563160  0.209065  0.045306  1
  K  K4  1  0.065480  0.292116  0.456817  1
  K  K5  1  0.435271  0.791032  0.544384  1
  K  K6  1  0.935738  0.710324  0.957452  1
  K  K7  1  0.435271  0.791032  0.955616  1
  K  K8  1  0.935738  0.710324  0.542548  1
  K  K9  1  0.563160  0.209065  0.454694  1
  K  K10  1  0.065480  0.292116  0.043183  1
  Rb  Rb11  1  0.632445  0.416285  0.750000  1
  Ta  Ta12  1  0.706859  0.982381  0.750000  1
  Ta  Ta13  1  0.211001  0.517712  0.750000  1
  Ta  Ta14  1  0.290032  0.017359  0.250000  1
  Ta  Ta15  1  0.792059  0.483652  0.250000  1
  Se  Se16  1  0.831714  0.045688  0.570396  1
  Se  Se17  1  0.335586  0.458648  0.931054  1
  Se  Se18  1  0.164063  0.957239  0.070182  1
  Se  Se19  1  0.665854  0.545113  0.429428  1
  Se  Se20  1  0.164063  0.957239  0.429818  1
  Se  Se21  1  0.665854  0.545113  0.070572  1
  Se  Se22  1  0.831714  0.045688  0.929604  1
  Se  Se23  1  0.335586  0.458648  0.568946  1
  Se  Se24  1  0.683335  0.747326  0.750000  1
  Se  Se25  1  0.178479  0.752469  0.750000  1
  Se  Se26  1  0.318181  0.252487  0.250000  1
  Se  Se27  1  0.820162  0.248221  0.250000  1
  Se  Se28  1  0.479854  0.083582  0.750000  1
  Se  Se29  1  0.990150  0.407448  0.750000  1
  Se  Se30  1  0.514445  0.910659  0.250000  1
  Se  Se31  1  0.016130  0.589297  0.250000  1
