# generated using pymatgen
data_LiMg12Ga7Pd8
_symmetry_space_group_name_H-M   'P 1'
_cell_length_a   8.54203500
_cell_length_b   8.54203498
_cell_length_c   7.77838500
_cell_angle_alpha   90.00000000
_cell_angle_beta   90.00000000
_cell_angle_gamma   120.00000394
_symmetry_Int_Tables_number   1
_chemical_formula_structural   LiMg12Ga7Pd8
_chemical_formula_sum   'Li1 Mg12 Ga7 Pd8'
_cell_volume   491.52175181
_cell_formula_units_Z   1
loop_
 _symmetry_equiv_pos_site_id
 _symmetry_equiv_pos_as_xyz
  1  'x, y, z'
loop_
 _atom_site_type_symbol
 _atom_site_label
 _atom_site_symmetry_multiplicity
 _atom_site_fract_x
 _atom_site_fract_y
 _atom_site_fract_z
 _atom_site_occupancy
  Li  Li0  1  0.000000  0.000000  0.500000  1
  Mg  Mg1  1  0.795232  0.204768  0.936717  1
  Mg  Mg2  1  0.795232  0.590463  0.936717  1
  Mg  Mg3  1  0.409537  0.204768  0.936717  1
  Mg  Mg4  1  0.204768  0.795232  0.063283  1
  Mg  Mg5  1  0.204768  0.409537  0.063283  1
  Mg  Mg6  1  0.590463  0.795232  0.063283  1
  Mg  Mg7  1  0.539854  0.460146  0.288492  1
  Mg  Mg8  1  0.539854  0.079711  0.288492  1
  Mg  Mg9  1  0.920289  0.460146  0.288492  1
  Mg  Mg10  1  0.460146  0.539854  0.711508  1
  Mg  Mg11  1  0.460146  0.920289  0.711508  1
  Mg  Mg12  1  0.079711  0.539854  0.711508  1
  Ga  Ga13  1  0.172803  0.827197  0.428555  1
  Ga  Ga14  1  0.172803  0.345605  0.428555  1
  Ga  Ga15  1  0.654395  0.827197  0.428555  1
  Ga  Ga16  1  0.827197  0.172803  0.571445  1
  Ga  Ga17  1  0.827197  0.654395  0.571445  1
  Ga  Ga18  1  0.345605  0.172803  0.571445  1
  Ga  Ga19  1  0.000000  0.000000  0.000000  1
  Pd  Pd20  1  0.880214  0.119786  0.247816  1
  Pd  Pd21  1  0.880214  0.760429  0.247816  1
  Pd  Pd22  1  0.239571  0.119786  0.247816  1
  Pd  Pd23  1  0.119786  0.880214  0.752184  1
  Pd  Pd24  1  0.119786  0.239571  0.752184  1
  Pd  Pd25  1  0.760429  0.880214  0.752184  1
  Pd  Pd26  1  0.333333  0.666667  0.338110  1
  Pd  Pd27  1  0.666667  0.333333  0.661890  1
