# generated using pymatgen
data_K4Ti6BBr18
_symmetry_space_group_name_H-M   'P 1'
_cell_length_a   10.20029846
_cell_length_b   10.37298099
_cell_length_c   10.48855200
_cell_angle_alpha   118.44233158
_cell_angle_beta   100.12662321
_cell_angle_gamma   103.85090589
_symmetry_Int_Tables_number   1
_chemical_formula_structural   K4Ti6BBr18
_chemical_formula_sum   'K4 Ti6 B1 Br18'
_cell_volume   891.16755408
_cell_formula_units_Z   1
loop_
 _symmetry_equiv_pos_site_id
 _symmetry_equiv_pos_as_xyz
  1  'x, y, z'
loop_
 _atom_site_type_symbol
 _atom_site_label
 _atom_site_symmetry_multiplicity
 _atom_site_fract_x
 _atom_site_fract_y
 _atom_site_fract_z
 _atom_site_occupancy
  K  K0  1  0.184804  0.724864  0.562869  1
  K  K1  1  0.848660  0.963020  0.772987  1
  K  K2  1  0.151340  0.036980  0.227013  1
  K  K3  1  0.815196  0.275136  0.437131  1
  Ti  Ti4  1  0.357223  0.448955  0.780460  1
  Ti  Ti5  1  0.367136  0.622157  0.127943  1
  Ti  Ti6  1  0.638359  0.727994  0.041209  1
  Ti  Ti7  1  0.642777  0.551045  0.219540  1
  Ti  Ti8  1  0.361641  0.272006  0.958791  1
  Ti  Ti9  1  0.632864  0.377843  0.872057  1
  B  B10  1  0.500000  0.500000  0.000000  1
  Br  Br11  1  0.811993  0.424656  0.106557  1
  Br  Br12  1  0.514827  0.697956  0.395727  1
  Br  Br13  1  0.184272  0.987636  0.902626  1
  Br  Br14  1  0.188007  0.575344  0.893443  1
  Br  Br15  1  0.819948  0.820923  0.299697  1
  Br  Br16  1  0.503905  0.299912  0.203372  1
  Br  Br17  1  0.791384  0.230960  0.718791  1
  Br  Br18  1  0.180052  0.179077  0.700303  1
  Br  Br19  1  0.508821  0.898216  0.191482  1
  Br  Br20  1  0.808291  0.623412  0.905933  1
  Br  Br21  1  0.208616  0.769040  0.281209  1
  Br  Br22  1  0.173065  0.381534  0.507595  1
  Br  Br23  1  0.496095  0.700088  0.796628  1
  Br  Br24  1  0.815728  0.012364  0.097374  1
  Br  Br25  1  0.485173  0.302044  0.604273  1
  Br  Br26  1  0.191709  0.376588  0.094067  1
  Br  Br27  1  0.826935  0.618466  0.492405  1
  Br  Br28  1  0.491179  0.101784  0.808518  1
