# generated using pymatgen
data_Nd4Ho15TmBi12
_symmetry_space_group_name_H-M   'P 1'
_cell_length_a   8.35214316
_cell_length_b   9.51055000
_cell_length_c   12.16963624
_cell_angle_alpha   90.00000000
_cell_angle_beta   89.97729547
_cell_angle_gamma   90.00000000
_symmetry_Int_Tables_number   1
_chemical_formula_structural   Nd4Ho15TmBi12
_chemical_formula_sum   'Nd4 Ho15 Tm1 Bi12'
_cell_volume   966.67642208
_cell_formula_units_Z   1
loop_
 _symmetry_equiv_pos_site_id
 _symmetry_equiv_pos_as_xyz
  1  'x, y, z'
loop_
 _atom_site_type_symbol
 _atom_site_label
 _atom_site_symmetry_multiplicity
 _atom_site_fract_x
 _atom_site_fract_y
 _atom_site_fract_z
 _atom_site_occupancy
  Nd  Nd0  1  0.171834  0.750000  0.226386  1
  Nd  Nd1  1  0.328299  0.750000  0.726538  1
  Nd  Nd2  1  0.828241  0.250000  0.773599  1
  Nd  Nd3  1  0.671772  0.250000  0.273460  1
  Ho  Ho4  1  0.810072  0.563184  0.064685  1
  Ho  Ho5  1  0.689762  0.936893  0.564736  1
  Ho  Ho6  1  0.189806  0.063042  0.935298  1
  Ho  Ho7  1  0.310262  0.436936  0.435256  1
  Ho  Ho8  1  0.189806  0.436958  0.935298  1
  Ho  Ho9  1  0.310262  0.063064  0.435256  1
  Ho  Ho10  1  0.810072  0.936816  0.064685  1
  Ho  Ho11  1  0.689762  0.563107  0.564736  1
  Ho  Ho12  1  0.023163  0.750000  0.503824  1
  Ho  Ho13  1  0.523227  0.250000  0.996144  1
  Ho  Ho14  1  0.976767  0.250000  0.496132  1
  Ho  Ho15  1  0.664050  0.750000  0.289208  1
  Ho  Ho16  1  0.835887  0.750000  0.789465  1
  Ho  Ho17  1  0.335858  0.250000  0.710695  1
  Ho  Ho18  1  0.164060  0.250000  0.210596  1
  Tm  Tm19  1  0.476934  0.750000  0.003956  1
  Bi  Bi20  1  0.403086  0.750000  0.467632  1
  Bi  Bi21  1  0.097474  0.750000  0.967608  1
  Bi  Bi22  1  0.596882  0.250000  0.532428  1
  Bi  Bi23  1  0.903176  0.250000  0.032400  1
  Bi  Bi24  1  0.935037  0.507164  0.327976  1
  Bi  Bi25  1  0.564705  0.992539  0.828301  1
  Bi  Bi26  1  0.064945  0.007158  0.672017  1
  Bi  Bi27  1  0.435056  0.493187  0.171696  1
  Bi  Bi28  1  0.064945  0.492842  0.672017  1
  Bi  Bi29  1  0.435056  0.006813  0.171696  1
  Bi  Bi30  1  0.935037  0.992836  0.327976  1
  Bi  Bi31  1  0.564705  0.507461  0.828301  1
