# generated using pymatgen
data_Sb(PO3)3
_symmetry_space_group_name_H-M   'P 1'
_cell_length_a   9.80218200
_cell_length_b   7.09810248
_cell_length_c   11.14837100
_cell_angle_alpha   87.92318038
_cell_angle_beta   90.00000000
_cell_angle_gamma   90.00000000
_symmetry_Int_Tables_number   1
_chemical_formula_structural   Sb(PO3)3
_chemical_formula_sum   'Sb4 P12 O36'
_cell_volume   775.15950092
_cell_formula_units_Z   4
loop_
 _symmetry_equiv_pos_site_id
 _symmetry_equiv_pos_as_xyz
  1  'x, y, z'
loop_
 _atom_site_type_symbol
 _atom_site_label
 _atom_site_symmetry_multiplicity
 _atom_site_fract_x
 _atom_site_fract_y
 _atom_site_fract_z
 _atom_site_occupancy
  Sb  Sb0  1  0.750000  0.320048  0.455785  1
  Sb  Sb1  1  0.250000  0.679952  0.544215  1
  Sb  Sb2  1  0.250000  0.810080  0.028497  1
  Sb  Sb3  1  0.750000  0.189920  0.971503  1
  P  P4  1  0.750000  0.666494  0.888449  1
  P  P5  1  0.250000  0.333506  0.111551  1
  P  P6  1  0.250000  0.184458  0.629846  1
  P  P7  1  0.750000  0.815542  0.370154  1
  P  P8  1  0.467206  0.830099  0.286278  1
  P  P9  1  0.967206  0.169901  0.713722  1
  P  P10  1  0.532794  0.169901  0.713722  1
  P  P11  1  0.032794  0.830099  0.286278  1
  P  P12  1  0.509215  0.235289  0.228320  1
  P  P13  1  0.009215  0.764711  0.771680  1
  P  P14  1  0.490785  0.764711  0.771680  1
  P  P15  1  0.990785  0.235289  0.228320  1
  O  O16  1  0.374406  0.358508  0.204275  1
  O  O17  1  0.874406  0.641492  0.795725  1
  O  O18  1  0.625594  0.641492  0.795725  1
  O  O19  1  0.125594  0.358508  0.204275  1
  O  O20  1  0.628827  0.803104  0.272778  1
  O  O21  1  0.128827  0.196896  0.727222  1
  O  O22  1  0.371173  0.196896  0.727222  1
  O  O23  1  0.871173  0.803104  0.272778  1
  O  O24  1  0.250000  0.143300  0.059025  1
  O  O25  1  0.750000  0.856700  0.940975  1
  O  O26  1  0.750000  0.006917  0.424802  1
  O  O27  1  0.250000  0.993083  0.575198  1
  O  O28  1  0.250000  0.503496  0.025160  1
  O  O29  1  0.750000  0.496504  0.974840  1
  O  O30  1  0.750000  0.647520  0.455874  1
  O  O31  1  0.250000  0.352480  0.544126  1
  O  O32  1  0.092276  0.774009  0.168089  1
  O  O33  1  0.592276  0.225991  0.831911  1
  O  O34  1  0.907724  0.225991  0.831911  1
  O  O35  1  0.407724  0.774009  0.168089  1
  O  O36  1  0.927198  0.177074  0.113230  1
  O  O37  1  0.427198  0.822926  0.886770  1
  O  O38  1  0.072802  0.822926  0.886770  1
  O  O39  1  0.572802  0.177074  0.113230  1
  O  O40  1  0.081951  0.734718  0.399995  1
  O  O41  1  0.581951  0.265282  0.600005  1
  O  O42  1  0.918049  0.265282  0.600005  1
  O  O43  1  0.418049  0.734718  0.399995  1
  O  O44  1  0.051872  0.053720  0.301945  1
  O  O45  1  0.551872  0.946280  0.698055  1
  O  O46  1  0.948128  0.946280  0.698055  1
  O  O47  1  0.448128  0.053720  0.301945  1
  O  O48  1  0.907553  0.347716  0.314197  1
  O  O49  1  0.407553  0.652284  0.685803  1
  O  O50  1  0.092447  0.652284  0.685803  1
  O  O51  1  0.592447  0.347716  0.314197  1
