# generated using pymatgen
data_Li2P7Ru11Rh
_symmetry_space_group_name_H-M   'P 1'
_cell_length_a   9.32239342
_cell_length_b   9.42852677
_cell_length_c   3.89598500
_cell_angle_alpha   90.00000000
_cell_angle_beta   90.00000000
_cell_angle_gamma   119.69180279
_symmetry_Int_Tables_number   1
_chemical_formula_structural   Li2P7Ru11Rh
_chemical_formula_sum   'Li2 P7 Ru11 Rh1'
_cell_volume   297.48122266
_cell_formula_units_Z   1
loop_
 _symmetry_equiv_pos_site_id
 _symmetry_equiv_pos_as_xyz
  1  'x, y, z'
loop_
 _atom_site_type_symbol
 _atom_site_label
 _atom_site_symmetry_multiplicity
 _atom_site_fract_x
 _atom_site_fract_y
 _atom_site_fract_z
 _atom_site_occupancy
  Li  Li0  1  0.000301  0.998835  0.000000  1
  Li  Li1  1  0.331291  0.665879  0.500000  1
  P  P2  1  0.667902  0.330573  0.000000  1
  P  P3  1  0.087751  0.648089  0.000000  1
  P  P4  1  0.558346  0.916708  0.000000  1
  P  P5  1  0.362351  0.444381  0.000000  1
  P  P6  1  0.778292  0.731117  0.500000  1
  P  P7  1  0.946270  0.209125  0.500000  1
  P  P8  1  0.263320  0.048552  0.500000  1
  Ru  Ru9  1  0.309589  0.906102  0.000000  1
  Ru  Ru10  1  0.595666  0.691584  0.000000  1
  Ru  Ru11  1  0.823176  0.602768  0.000000  1
  Ru  Ru12  1  0.787314  0.174721  0.000000  1
  Ru  Ru13  1  0.392471  0.217792  0.000000  1
  Ru  Ru14  1  0.056922  0.776767  0.500000  1
  Ru  Ru15  1  0.712429  0.937799  0.500000  1
  Ru  Ru16  1  0.221295  0.284067  0.500000  1
  Ru  Ru17  1  0.876828  0.419601  0.500000  1
  Ru  Ru18  1  0.546777  0.128896  0.500000  1
  Ru  Ru19  1  0.578994  0.452307  0.500000  1
  Rh  Rh20  1  0.102716  0.414336  0.000000  1
