# generated using pymatgen
data_Dy11In9CoRu3
_symmetry_space_group_name_H-M   'P 1'
_cell_length_a   3.69641000
_cell_length_b   13.04759285
_cell_length_c   13.05804395
_cell_angle_alpha   112.44080381
_cell_angle_beta   90.00000000
_cell_angle_gamma   90.00000000
_symmetry_Int_Tables_number   1
_chemical_formula_structural   Dy11In9CoRu3
_chemical_formula_sum   'Dy11 In9 Co1 Ru3'
_cell_volume   582.08926578
_cell_formula_units_Z   1
loop_
 _symmetry_equiv_pos_site_id
 _symmetry_equiv_pos_as_xyz
  1  'x, y, z'
loop_
 _atom_site_type_symbol
 _atom_site_label
 _atom_site_symmetry_multiplicity
 _atom_site_fract_x
 _atom_site_fract_y
 _atom_site_fract_z
 _atom_site_occupancy
  Dy  Dy0  1  0.000000  0.916411  0.580959  1
  Dy  Dy1  1  0.000000  0.081259  0.419156  1
  Dy  Dy2  1  0.000000  0.581231  0.918128  1
  Dy  Dy3  1  0.000000  0.419109  0.081684  1
  Dy  Dy4  1  0.000000  0.159571  0.838554  1
  Dy  Dy5  1  0.000000  0.838759  0.162036  1
  Dy  Dy6  1  0.000000  0.374876  0.625443  1
  Dy  Dy7  1  0.000000  0.628329  0.378255  1
  Dy  Dy8  1  0.000000  0.688309  0.685676  1
  Dy  Dy9  1  0.000000  0.312026  0.312498  1
  Dy  Dy10  1  0.000000  0.000252  0.999668  1
  In  In11  1  0.500000  0.155618  0.631928  1
  In  In12  1  0.500000  0.841406  0.369226  1
  In  In13  1  0.500000  0.631285  0.158391  1
  In  In14  1  0.500000  0.367114  0.841957  1
  In  In15  1  0.500000  0.922304  0.778942  1
  In  In16  1  0.500000  0.074416  0.219414  1
  In  In17  1  0.500000  0.779371  0.922334  1
  In  In18  1  0.500000  0.220253  0.076214  1
  In  In19  1  0.500000  0.502209  0.500185  1
  Co  Co20  1  0.500000  0.753546  0.547562  1
  Ru  Ru21  1  0.500000  0.252536  0.451062  1
  Ru  Ru22  1  0.500000  0.548849  0.748259  1
  Ru  Ru23  1  0.500000  0.450962  0.252472  1
