# generated using pymatgen
data_Ho3Er7(Ir2Ru)2
_symmetry_space_group_name_H-M   'P 1'
_cell_length_a   10.73833500
_cell_length_b   10.73847800
_cell_length_c   6.38220100
_cell_angle_alpha   90.00070228
_cell_angle_beta   90.00233557
_cell_angle_gamma   89.99874079
_symmetry_Int_Tables_number   1
_chemical_formula_structural   Ho3Er7(Ir2Ru)2
_chemical_formula_sum   'Ho6 Er14 Ir8 Ru4'
_cell_volume   735.95313142
_cell_formula_units_Z   2
loop_
 _symmetry_equiv_pos_site_id
 _symmetry_equiv_pos_as_xyz
  1  'x, y, z'
loop_
 _atom_site_type_symbol
 _atom_site_label
 _atom_site_symmetry_multiplicity
 _atom_site_fract_x
 _atom_site_fract_y
 _atom_site_fract_z
 _atom_site_occupancy
  Ho  Ho0  1  0.293191  0.086432  0.376873  1
  Ho  Ho1  1  0.293200  0.913583  0.876853  1
  Ho  Ho2  1  0.706818  0.086522  0.876873  1
  Ho  Ho3  1  0.706818  0.913465  0.376901  1
  Ho  Ho4  1  0.586411  0.793058  0.876776  1
  Ho  Ho5  1  0.586393  0.206920  0.376789  1
  Er  Er6  1  0.413648  0.793244  0.377083  1
  Er  Er7  1  0.413643  0.206767  0.877081  1
  Er  Er8  1  0.206396  0.413697  0.622976  1
  Er  Er9  1  0.206382  0.586288  0.122972  1
  Er  Er10  1  0.793587  0.413827  0.122909  1
  Er  Er11  1  0.793572  0.586186  0.622932  1
  Er  Er12  1  0.913772  0.706336  0.122849  1
  Er  Er13  1  0.913774  0.293673  0.622865  1
  Er  Er14  1  0.086214  0.706335  0.622862  1
  Er  Er15  1  0.086224  0.293657  0.122835  1
  Er  Er16  1  0.000040  0.999963  0.500005  1
  Er  Er17  1  0.000031  0.000045  0.999985  1
  Er  Er18  1  0.499929  0.499933  0.999984  1
  Er  Er19  1  0.499930  0.500058  0.499992  1
  Ir  Ir20  1  0.848050  0.152747  0.250235  1
  Ir  Ir21  1  0.848036  0.847239  0.750232  1
  Ir  Ir22  1  0.152228  0.152766  0.750398  1
  Ir  Ir23  1  0.152214  0.847251  0.250395  1
  Ir  Ir24  1  0.652546  0.347930  0.750353  1
  Ir  Ir25  1  0.652555  0.652081  0.250358  1
  Ir  Ir26  1  0.347357  0.347867  0.249838  1
  Ir  Ir27  1  0.347369  0.652123  0.749839  1
  Ru  Ru28  1  0.499817  0.000064  0.122536  1
  Ru  Ru29  1  0.499813  0.999947  0.622533  1
  Ru  Ru30  1  0.000021  0.500023  0.877436  1
  Ru  Ru31  1  0.000019  0.499972  0.377449  1
