# generated using pymatgen
data_Yb3DyIr8
_symmetry_space_group_name_H-M   'P 1'
_cell_length_a   5.33212401
_cell_length_b   5.33212354
_cell_length_c   8.69955300
_cell_angle_alpha   90.00076822
_cell_angle_beta   89.99923228
_cell_angle_gamma   119.99978379
_symmetry_Int_Tables_number   1
_chemical_formula_structural   Yb3DyIr8
_chemical_formula_sum   'Yb3 Dy1 Ir8'
_cell_volume   214.20468266
_cell_formula_units_Z   1
loop_
 _symmetry_equiv_pos_site_id
 _symmetry_equiv_pos_as_xyz
  1  'x, y, z'
loop_
 _atom_site_type_symbol
 _atom_site_label
 _atom_site_symmetry_multiplicity
 _atom_site_fract_x
 _atom_site_fract_y
 _atom_site_fract_z
 _atom_site_occupancy
  Yb  Yb0  1  0.333346  0.666654  0.426770  1
  Yb  Yb1  1  0.333356  0.666644  0.067816  1
  Yb  Yb2  1  0.666670  0.333330  0.938055  1
  Dy  Dy3  1  0.666664  0.333336  0.569996  1
  Ir  Ir4  1  0.000003  0.999997  0.498875  1
  Ir  Ir5  1  0.000010  0.999990  0.999758  1
  Ir  Ir6  1  0.170841  0.341714  0.749116  1
  Ir  Ir7  1  0.170841  0.829159  0.749117  1
  Ir  Ir8  1  0.658286  0.829159  0.749116  1
  Ir  Ir9  1  0.829366  0.658711  0.250457  1
  Ir  Ir10  1  0.829327  0.170673  0.250468  1
  Ir  Ir11  1  0.341289  0.170634  0.250457  1
