# generated using pymatgen
data_Zr2Al2GaNi
_symmetry_space_group_name_H-M   'P 1'
_cell_length_a   6.67790300
_cell_length_b   6.67790219
_cell_length_c   7.95358000
_cell_angle_alpha   90.00000000
_cell_angle_beta   90.00000000
_cell_angle_gamma   119.99999904
_symmetry_Int_Tables_number   1
_chemical_formula_structural   Zr2Al2GaNi
_chemical_formula_sum   'Zr6 Al6 Ga3 Ni3'
_cell_volume   307.16621768
_cell_formula_units_Z   3
loop_
 _symmetry_equiv_pos_site_id
 _symmetry_equiv_pos_as_xyz
  1  'x, y, z'
loop_
 _atom_site_type_symbol
 _atom_site_label
 _atom_site_symmetry_multiplicity
 _atom_site_fract_x
 _atom_site_fract_y
 _atom_site_fract_z
 _atom_site_occupancy
  Zr  Zr0  1  0.006363  0.595879  0.752175  1
  Zr  Zr1  1  0.006563  0.595925  0.247858  1
  Zr  Zr2  1  0.589362  0.993437  0.247858  1
  Zr  Zr3  1  0.589515  0.993637  0.752175  1
  Zr  Zr4  1  0.404075  0.410638  0.247858  1
  Zr  Zr5  1  0.404121  0.410485  0.752175  1
  Al  Al6  1  0.999196  0.235822  0.500041  1
  Al  Al7  1  0.748708  0.763663  0.999934  1
  Al  Al8  1  0.014955  0.251292  0.999934  1
  Al  Al9  1  0.236626  0.000804  0.500041  1
  Al  Al10  1  0.236337  0.985045  0.999934  1
  Al  Al11  1  0.764178  0.763374  0.500041  1
  Ga  Ga12  1  0.333333  0.666667  0.500129  1
  Ga  Ga13  1  0.666667  0.333333  0.499947  1
  Ga  Ga14  1  0.666667  0.333333  0.000101  1
  Ni  Ni15  1  0.000000  0.000000  0.247959  1
  Ni  Ni16  1  0.000000  0.000000  0.751990  1
  Ni  Ni17  1  0.333333  0.666667  0.999847  1
