# generated using pymatgen
data_Mg2(TaRe8)3
_symmetry_space_group_name_H-M   'P 1'
_cell_length_a   8.41932240
_cell_length_b   8.41932090
_cell_length_c   8.40568400
_cell_angle_alpha   109.43841560
_cell_angle_beta   109.43841200
_cell_angle_gamma   109.50400953
_symmetry_Int_Tables_number   1
_chemical_formula_structural   Mg2(TaRe8)3
_chemical_formula_sum   'Mg2 Ta3 Re24'
_cell_volume   458.86088451
_cell_formula_units_Z   1
loop_
 _symmetry_equiv_pos_site_id
 _symmetry_equiv_pos_as_xyz
  1  'x, y, z'
loop_
 _atom_site_type_symbol
 _atom_site_label
 _atom_site_symmetry_multiplicity
 _atom_site_fract_x
 _atom_site_fract_y
 _atom_site_fract_z
 _atom_site_occupancy
  Mg  Mg0  1  0.000000  0.000000  0.634398  1
  Mg  Mg1  1  0.000000  0.000000  0.996646  1
  Ta  Ta2  1  0.365059  0.365059  0.364619  1
  Ta  Ta3  1  0.000000  0.634941  0.999560  1
  Ta  Ta4  1  0.634941  0.000000  0.999560  1
  Re  Re5  1  0.000000  0.396009  0.680604  1
  Re  Re6  1  0.282196  0.602559  0.600268  1
  Re  Re7  1  0.717804  0.320363  0.318072  1
  Re  Re8  1  0.320363  0.717804  0.318072  1
  Re  Re9  1  0.674703  0.000000  0.395185  1
  Re  Re10  1  0.000000  0.674703  0.395185  1
  Re  Re11  1  0.603991  0.603991  0.284597  1
  Re  Re12  1  0.807565  0.807565  0.184251  1
  Re  Re13  1  0.375482  0.192459  0.000147  1
  Re  Re14  1  0.192459  0.375482  0.000147  1
  Re  Re15  1  0.624518  0.816977  0.624664  1
  Re  Re16  1  0.374507  0.000000  0.196117  1
  Re  Re17  1  0.000000  0.374507  0.196117  1
  Re  Re18  1  0.816977  0.624518  0.624664  1
  Re  Re19  1  0.183023  0.807541  0.807688  1
  Re  Re20  1  0.807541  0.183023  0.807688  1
  Re  Re21  1  0.192435  0.000000  0.376686  1
  Re  Re22  1  0.000000  0.192435  0.376686  1
  Re  Re23  1  0.625493  0.625493  0.821608  1
  Re  Re24  1  0.396009  0.000000  0.680604  1
  Re  Re25  1  0.602559  0.282196  0.600268  1
  Re  Re26  1  0.679637  0.397441  0.997710  1
  Re  Re27  1  0.397441  0.679637  0.997710  1
  Re  Re28  1  0.325297  0.325297  0.720482  1
