# generated using pymatgen
data_Ca(AlFe)6
_symmetry_space_group_name_H-M   'P 1'
_cell_length_a   6.57924217
_cell_length_b   6.57924239
_cell_length_c   6.57924143
_cell_angle_alpha   135.33911774
_cell_angle_beta   99.27969489
_cell_angle_gamma   97.32320640
_symmetry_Int_Tables_number   1
_chemical_formula_structural   Ca(AlFe)6
_chemical_formula_sum   'Ca1 Al6 Fe6'
_cell_volume   185.13463169
_cell_formula_units_Z   1
loop_
 _symmetry_equiv_pos_site_id
 _symmetry_equiv_pos_as_xyz
  1  'x, y, z'
loop_
 _atom_site_type_symbol
 _atom_site_label
 _atom_site_symmetry_multiplicity
 _atom_site_fract_x
 _atom_site_fract_y
 _atom_site_fract_z
 _atom_site_occupancy
  Ca  Ca0  1  0.000000  0.000000  0.000000  1
  Al  Al1  1  0.654356  0.654356  0.000000  1
  Al  Al2  1  0.345644  0.345644  0.000000  1
  Al  Al3  1  0.332564  0.000000  0.332564  1
  Al  Al4  1  0.667436  0.000000  0.667436  1
  Al  Al5  1  0.189010  0.689010  0.500000  1
  Al  Al6  1  0.810990  0.310990  0.500000  1
  Fe  Fe7  1  0.500000  0.500000  0.500000  1
  Fe  Fe8  1  0.500000  0.000000  0.000000  1
  Fe  Fe9  1  0.000000  0.500000  0.000000  1
  Fe  Fe10  1  0.000000  0.000000  0.500000  1
  Fe  Fe11  1  0.756438  0.500000  0.256438  1
  Fe  Fe12  1  0.243562  0.500000  0.743562  1
