# generated using pymatgen
data_SrAc17(TbPb8)2
_symmetry_space_group_name_H-M   'P 1'
_cell_length_a   8.82060300
_cell_length_b   8.90408820
_cell_length_c   17.12599800
_cell_angle_alpha   90.00000000
_cell_angle_beta   90.00000000
_cell_angle_gamma   90.26771324
_symmetry_Int_Tables_number   1
_chemical_formula_structural   SrAc17(TbPb8)2
_chemical_formula_sum   'Sr1 Ac17 Tb2 Pb16'
_cell_volume   1345.05138806
_cell_formula_units_Z   1
loop_
 _symmetry_equiv_pos_site_id
 _symmetry_equiv_pos_as_xyz
  1  'x, y, z'
loop_
 _atom_site_type_symbol
 _atom_site_label
 _atom_site_symmetry_multiplicity
 _atom_site_fract_x
 _atom_site_fract_y
 _atom_site_fract_z
 _atom_site_occupancy
  Sr  Sr0  1  0.210438  0.505127  0.750000  1
  Ac  Ac1  1  0.377430  0.842926  0.885798  1
  Ac  Ac2  1  0.879738  0.656061  0.614592  1
  Ac  Ac3  1  0.623646  0.155264  0.379558  1
  Ac  Ac4  1  0.124054  0.343941  0.120389  1
  Ac  Ac5  1  0.623646  0.155264  0.120442  1
  Ac  Ac6  1  0.124054  0.343941  0.379611  1
  Ac  Ac7  1  0.377430  0.842926  0.614202  1
  Ac  Ac8  1  0.879738  0.656061  0.885408  1
  Ac  Ac9  1  0.530053  0.322401  0.902348  1
  Ac  Ac10  1  0.031930  0.179849  0.597430  1
  Ac  Ac11  1  0.466352  0.679166  0.398349  1
  Ac  Ac12  1  0.966604  0.822184  0.102643  1
  Ac  Ac13  1  0.466352  0.679166  0.101651  1
  Ac  Ac14  1  0.966604  0.822184  0.397357  1
  Ac  Ac15  1  0.530053  0.322401  0.597652  1
  Ac  Ac16  1  0.031930  0.179849  0.902570  1
  Ac  Ac17  1  0.709506  0.997277  0.750000  1
  Tb  Tb18  1  0.784889  0.500186  0.250000  1
  Tb  Tb19  1  0.284952  0.001252  0.250000  1
  Pb  Pb20  1  0.280944  0.030477  0.050016  1
  Pb  Pb21  1  0.780824  0.470702  0.449309  1
  Pb  Pb22  1  0.719853  0.968053  0.543630  1
  Pb  Pb23  1  0.219481  0.529826  0.956672  1
  Pb  Pb24  1  0.719853  0.968053  0.956370  1
  Pb  Pb25  1  0.219481  0.529826  0.543328  1
  Pb  Pb26  1  0.280944  0.030477  0.449984  1
  Pb  Pb27  1  0.780824  0.470702  0.050691  1
  Pb  Pb28  1  0.579032  0.610627  0.750000  1
  Pb  Pb29  1  0.081679  0.882752  0.750000  1
  Pb  Pb30  1  0.430286  0.377509  0.250000  1
  Pb  Pb31  1  0.929051  0.122790  0.250000  1
  Pb  Pb32  1  0.331889  0.144656  0.750000  1
  Pb  Pb33  1  0.836414  0.358364  0.750000  1
  Pb  Pb34  1  0.660007  0.844770  0.250000  1
  Pb  Pb35  1  0.160043  0.652997  0.250000  1
