# generated using pymatgen
data_ThBeGaIrPt
_symmetry_space_group_name_H-M   'P 1'
_cell_length_a   4.07469200
_cell_length_b   4.07469200
_cell_length_c   10.22590700
_cell_angle_alpha   90.00000000
_cell_angle_beta   90.00000000
_cell_angle_gamma   90.00000000
_symmetry_Int_Tables_number   1
_chemical_formula_structural   ThBeGaIrPt
_chemical_formula_sum   'Th2 Be2 Ga2 Ir2 Pt2'
_cell_volume   169.78190883
_cell_formula_units_Z   2
loop_
 _symmetry_equiv_pos_site_id
 _symmetry_equiv_pos_as_xyz
  1  'x, y, z'
loop_
 _atom_site_type_symbol
 _atom_site_label
 _atom_site_symmetry_multiplicity
 _atom_site_fract_x
 _atom_site_fract_y
 _atom_site_fract_z
 _atom_site_occupancy
  Th  Th0  1  0.000000  0.500000  0.224315  1
  Th  Th1  1  0.500000  0.000000  0.775685  1
  Be  Be2  1  0.000000  0.500000  0.892318  1
  Be  Be3  1  0.500000  0.000000  0.107682  1
  Ga  Ga4  1  0.000000  0.000000  0.500000  1
  Ga  Ga5  1  0.500000  0.500000  0.500000  1
  Ir  Ir6  1  0.000000  0.000000  0.000000  1
  Ir  Ir7  1  0.500000  0.500000  0.000000  1
  Pt  Pt8  1  0.000000  0.500000  0.659963  1
  Pt  Pt9  1  0.500000  0.000000  0.340037  1
