# generated using pymatgen
data_Tb4HoIn3
_symmetry_space_group_name_H-M   'P 1'
_cell_length_a   6.04839180
_cell_length_b   9.20221820
_cell_length_c   9.20221859
_cell_angle_alpha   83.79980778
_cell_angle_beta   70.81388894
_cell_angle_gamma   70.81389343
_symmetry_Int_Tables_number   1
_chemical_formula_structural   Tb4HoIn3
_chemical_formula_sum   'Tb8 Ho2 In6'
_cell_volume   456.86566111
_cell_formula_units_Z   2
loop_
 _symmetry_equiv_pos_site_id
 _symmetry_equiv_pos_as_xyz
  1  'x, y, z'
loop_
 _atom_site_type_symbol
 _atom_site_label
 _atom_site_symmetry_multiplicity
 _atom_site_fract_x
 _atom_site_fract_y
 _atom_site_fract_z
 _atom_site_occupancy
  Tb  Tb0  1  0.719561  0.862282  0.698595  1
  Tb  Tb1  1  0.280439  0.137718  0.301405  1
  Tb  Tb2  1  0.780439  0.301405  0.137718  1
  Tb  Tb3  1  0.219561  0.698595  0.862282  1
  Tb  Tb4  1  0.581843  0.698595  0.137718  1
  Tb  Tb5  1  0.418157  0.301405  0.862282  1
  Tb  Tb6  1  0.081843  0.137718  0.698595  1
  Tb  Tb7  1  0.918157  0.862282  0.301405  1
  Ho  Ho8  1  0.750000  0.500000  0.500000  1
  Ho  Ho9  1  0.250000  0.500000  0.500000  1
  In  In10  1  0.161364  0.500000  0.177271  1
  In  In11  1  0.838636  0.500000  0.822729  1
  In  In12  1  0.338636  0.822729  0.500000  1
  In  In13  1  0.661364  0.177271  0.500000  1
  In  In14  1  0.250000  0.000000  0.000000  1
  In  In15  1  0.750000  0.000000  0.000000  1
