# generated using pymatgen
data_Tb3Sc7(Co2Si5)4
_symmetry_space_group_name_H-M   'P 1'
_cell_length_a   12.10371603
_cell_length_b   12.10371575
_cell_length_c   3.97188300
_cell_angle_alpha   90.00000000
_cell_angle_beta   90.00000000
_cell_angle_gamma   90.08547235
_symmetry_Int_Tables_number   1
_chemical_formula_structural   Tb3Sc7(Co2Si5)4
_chemical_formula_sum   'Tb3 Sc7 Co8 Si20'
_cell_volume   581.87996688
_cell_formula_units_Z   1
loop_
 _symmetry_equiv_pos_site_id
 _symmetry_equiv_pos_as_xyz
  1  'x, y, z'
loop_
 _atom_site_type_symbol
 _atom_site_label
 _atom_site_symmetry_multiplicity
 _atom_site_fract_x
 _atom_site_fract_y
 _atom_site_fract_z
 _atom_site_occupancy
  Tb  Tb0  1  0.113794  0.613322  0.500000  1
  Tb  Tb1  1  0.886678  0.386206  0.500000  1
  Tb  Tb2  1  0.612429  0.887571  0.500000  1
  Sc  Sc3  1  0.387103  0.112897  0.500000  1
  Sc  Sc4  1  0.673901  0.175619  0.500000  1
  Sc  Sc5  1  0.324381  0.826099  0.500000  1
  Sc  Sc6  1  0.177208  0.322792  0.500000  1
  Sc  Sc7  1  0.824390  0.675610  0.500000  1
  Sc  Sc8  1  0.001107  0.000221  0.000000  1
  Sc  Sc9  1  0.499779  0.498893  0.000000  1
  Co  Co10  1  0.024679  0.242567  0.000000  1
  Co  Co11  1  0.976418  0.756968  0.000000  1
  Co  Co12  1  0.245313  0.977465  0.000000  1
  Co  Co13  1  0.522535  0.254687  0.000000  1
  Co  Co14  1  0.755185  0.024006  0.000000  1
  Co  Co15  1  0.475994  0.744815  0.000000  1
  Co  Co16  1  0.743032  0.523582  0.000000  1
  Co  Co17  1  0.257433  0.475321  0.000000  1
  Si  Si18  1  0.567247  0.071000  0.000000  1
  Si  Si19  1  0.429000  0.932753  0.000000  1
  Si  Si20  1  0.070789  0.429211  0.000000  1
  Si  Si21  1  0.930155  0.569845  0.000000  1
  Si  Si22  1  0.198123  0.156763  0.000000  1
  Si  Si23  1  0.804764  0.842960  0.000000  1
  Si  Si24  1  0.157975  0.805739  0.000000  1
  Si  Si25  1  0.694261  0.342025  0.000000  1
  Si  Si26  1  0.842458  0.194737  0.000000  1
  Si  Si27  1  0.305263  0.657542  0.000000  1
  Si  Si28  1  0.657040  0.695236  0.000000  1
  Si  Si29  1  0.343237  0.301877  0.000000  1
  Si  Si30  1  0.006619  0.160481  0.500000  1
  Si  Si31  1  0.993819  0.839194  0.500000  1
  Si  Si32  1  0.163924  0.997809  0.500000  1
  Si  Si33  1  0.502191  0.336076  0.500000  1
  Si  Si34  1  0.838889  0.007434  0.500000  1
  Si  Si35  1  0.492566  0.661111  0.500000  1
  Si  Si36  1  0.660806  0.506181  0.500000  1
  Si  Si37  1  0.339519  0.493381  0.500000  1
