# generated using pymatgen
data_DyThMn2Fe10P7
_symmetry_space_group_name_H-M   'P 1'
_cell_length_a   9.05257934
_cell_length_b   9.04800396
_cell_length_c   3.66889000
_cell_angle_alpha   90.00000000
_cell_angle_beta   90.00000000
_cell_angle_gamma   119.88120235
_symmetry_Int_Tables_number   1
_chemical_formula_structural   DyThMn2Fe10P7
_chemical_formula_sum   'Dy1 Th1 Mn2 Fe10 P7'
_cell_volume   260.56080534
_cell_formula_units_Z   1
loop_
 _symmetry_equiv_pos_site_id
 _symmetry_equiv_pos_as_xyz
  1  'x, y, z'
loop_
 _atom_site_type_symbol
 _atom_site_label
 _atom_site_symmetry_multiplicity
 _atom_site_fract_x
 _atom_site_fract_y
 _atom_site_fract_z
 _atom_site_occupancy
  Dy  Dy0  1  0.664858  0.330693  0.000000  1
  Th  Th1  1  0.333277  0.668008  0.500000  1
  Mn  Mn2  1  0.104383  0.216171  0.500000  1
  Mn  Mn3  1  0.784729  0.884085  0.500000  1
  Fe  Fe4  1  0.367591  0.942546  0.000000  1
  Fe  Fe5  1  0.056832  0.427286  0.000000  1
  Fe  Fe6  1  0.573755  0.631052  0.000000  1
  Fe  Fe7  1  0.876892  0.726570  0.000000  1
  Fe  Fe8  1  0.273027  0.150912  0.000000  1
  Fe  Fe9  1  0.851289  0.122498  0.000000  1
  Fe  Fe10  1  0.947614  0.566952  0.500000  1
  Fe  Fe11  1  0.434034  0.380622  0.500000  1
  Fe  Fe12  1  0.617984  0.052592  0.500000  1
  Fe  Fe13  1  0.116631  0.902553  0.500000  1
  P  P14  1  0.102995  0.701676  0.000000  1
  P  P15  1  0.303588  0.406173  0.000000  1
  P  P16  1  0.595020  0.898724  0.000000  1
  P  P17  1  0.707275  0.590988  0.500000  1
  P  P18  1  0.399344  0.108699  0.500000  1
  P  P19  1  0.886077  0.292800  0.500000  1
  P  P20  1  0.002801  0.998401  0.000000  1
