# generated using pymatgen
data_Dy8Ta5Si16Mo7
_symmetry_space_group_name_H-M   'P 1'
_cell_length_a   6.94504956
_cell_length_b   6.94952081
_cell_length_c   12.92576611
_cell_angle_alpha   90.11478993
_cell_angle_beta   89.96668219
_cell_angle_gamma   90.01423825
_symmetry_Int_Tables_number   1
_chemical_formula_structural   Dy8Ta5Si16Mo7
_chemical_formula_sum   'Dy8 Ta5 Si16 Mo7'
_cell_volume   623.85770565
_cell_formula_units_Z   1
loop_
 _symmetry_equiv_pos_site_id
 _symmetry_equiv_pos_as_xyz
  1  'x, y, z'
loop_
 _atom_site_type_symbol
 _atom_site_label
 _atom_site_symmetry_multiplicity
 _atom_site_fract_x
 _atom_site_fract_y
 _atom_site_fract_z
 _atom_site_occupancy
  Dy  Dy0  1  0.999679  0.661155  0.032517  1
  Dy  Dy1  1  0.001049  0.338914  0.530998  1
  Dy  Dy2  1  0.660755  0.997969  0.968665  1
  Dy  Dy3  1  0.161210  0.501059  0.781866  1
  Dy  Dy4  1  0.838952  0.499036  0.281844  1
  Dy  Dy5  1  0.501081  0.160347  0.218865  1
  Dy  Dy6  1  0.499131  0.839698  0.717108  1
  Dy  Dy7  1  0.339131  0.000410  0.468212  1
  Ta  Ta8  1  0.669001  0.668728  0.499440  1
  Ta  Ta9  1  0.831834  0.169172  0.749443  1
  Ta  Ta10  1  0.168737  0.830994  0.250339  1
  Ta  Ta11  1  0.330901  0.330862  0.000297  1
  Ta  Ta12  1  0.657598  0.494598  0.875316  1
  Si  Si13  1  0.040529  0.709750  0.436915  1
  Si  Si14  1  0.960606  0.288702  0.937832  1
  Si  Si15  1  0.710638  0.040500  0.562668  1
  Si  Si16  1  0.209474  0.458927  0.187582  1
  Si  Si17  1  0.792010  0.541981  0.685534  1
  Si  Si18  1  0.456585  0.206461  0.812683  1
  Si  Si19  1  0.539950  0.789814  0.313075  1
  Si  Si20  1  0.289650  0.960041  0.063155  1
  Si  Si21  1  0.798337  0.872199  0.184103  1
  Si  Si22  1  0.298147  0.627221  0.566329  1
  Si  Si23  1  0.703067  0.371651  0.067682  1
  Si  Si24  1  0.627951  0.297011  0.433658  1
  Si  Si25  1  0.368456  0.705027  0.933701  1
  Si  Si26  1  0.128438  0.201158  0.316220  1
  Si  Si27  1  0.201447  0.129196  0.683447  1
  Si  Si28  1  0.872544  0.800901  0.815483  1
  Mo  Mo29  1  0.341344  0.504880  0.375082  1
  Mo  Mo30  1  0.839109  0.995054  0.374050  1
  Mo  Mo31  1  0.005466  0.160317  0.126517  1
  Mo  Mo32  1  0.996465  0.840248  0.625187  1
  Mo  Mo33  1  0.506006  0.340835  0.625018  1
  Mo  Mo34  1  0.161538  0.004984  0.873931  1
  Mo  Mo35  1  0.493185  0.660202  0.125237  1
