# generated using pymatgen
data_Sr13Pr7Si15Ag
_symmetry_space_group_name_H-M   'P 1'
_cell_length_a   8.26348045
_cell_length_b   8.23034054
_cell_length_c   15.56411300
_cell_angle_alpha   89.94984216
_cell_angle_beta   89.40776179
_cell_angle_gamma   89.75103696
_symmetry_Int_Tables_number   1
_chemical_formula_structural   Sr13Pr7Si15Ag
_chemical_formula_sum   'Sr13 Pr7 Si15 Ag1'
_cell_volume   1058.46800027
_cell_formula_units_Z   1
loop_
 _symmetry_equiv_pos_site_id
 _symmetry_equiv_pos_as_xyz
  1  'x, y, z'
loop_
 _atom_site_type_symbol
 _atom_site_label
 _atom_site_symmetry_multiplicity
 _atom_site_fract_x
 _atom_site_fract_y
 _atom_site_fract_z
 _atom_site_occupancy
  Sr  Sr0  1  0.312872  0.308521  0.999488  1
  Sr  Sr1  1  0.189268  0.810715  0.251064  1
  Sr  Sr2  1  0.808785  0.185892  0.752175  1
  Sr  Sr3  1  0.681582  0.688301  0.496016  1
  Sr  Sr4  1  0.366120  0.012896  0.453366  1
  Sr  Sr5  1  0.491225  0.867514  0.705088  1
  Sr  Sr6  1  0.512074  0.130214  0.205581  1
  Sr  Sr7  1  0.866240  0.485865  0.292184  1
  Sr  Sr8  1  0.131827  0.520778  0.798689  1
  Sr  Sr9  1  0.630762  0.989182  0.956346  1
  Sr  Sr10  1  0.003154  0.365799  0.537310  1
  Sr  Sr11  1  0.993010  0.629602  0.049843  1
  Sr  Sr12  1  0.134243  0.985398  0.878041  1
  Pr  Pr13  1  0.511723  0.627385  0.126585  1
  Pr  Pr14  1  0.500638  0.374370  0.624885  1
  Pr  Pr15  1  0.638096  0.512491  0.879459  1
  Pr  Pr16  1  0.368203  0.487700  0.374833  1
  Pr  Pr17  1  0.869004  0.010365  0.373272  1
  Pr  Pr18  1  0.991036  0.130106  0.126289  1
  Pr  Pr19  1  0.996180  0.865521  0.617428  1
  Si  Si20  1  0.354082  0.704386  0.951093  1
  Si  Si21  1  0.649277  0.287525  0.442489  1
  Si  Si22  1  0.713847  0.351184  0.058757  1
  Si  Si23  1  0.284115  0.651259  0.555191  1
  Si  Si24  1  0.789484  0.849108  0.196760  1
  Si  Si25  1  0.151090  0.210331  0.305082  1
  Si  Si26  1  0.841214  0.793249  0.796523  1
  Si  Si27  1  0.283500  0.910462  0.059595  1
  Si  Si28  1  0.585101  0.777213  0.304393  1
  Si  Si29  1  0.430558  0.231800  0.805196  1
  Si  Si30  1  0.775762  0.582964  0.693672  1
  Si  Si31  1  0.222295  0.413317  0.197012  1
  Si  Si32  1  0.713744  0.083819  0.551954  1
  Si  Si33  1  0.916023  0.284384  0.949146  1
  Si  Si34  1  0.083790  0.720402  0.445377  1
  Ag  Ag35  1  0.210071  0.159984  0.689819  1
