# generated using pymatgen
data_Rb4Mn9ZnO20
_symmetry_space_group_name_H-M   'P 1'
_cell_length_a   7.90196797
_cell_length_b   5.16529842
_cell_length_c   12.98721500
_cell_angle_alpha   86.73828040
_cell_angle_beta   83.46505847
_cell_angle_gamma   69.60016950
_symmetry_Int_Tables_number   1
_chemical_formula_structural   Rb4Mn9ZnO20
_chemical_formula_sum   'Rb4 Mn9 Zn1 O20'
_cell_volume   493.52841002
_cell_formula_units_Z   1
loop_
 _symmetry_equiv_pos_site_id
 _symmetry_equiv_pos_as_xyz
  1  'x, y, z'
loop_
 _atom_site_type_symbol
 _atom_site_label
 _atom_site_symmetry_multiplicity
 _atom_site_fract_x
 _atom_site_fract_y
 _atom_site_fract_z
 _atom_site_occupancy
  Rb  Rb0  1  0.058648  0.739257  0.500984  1
  Rb  Rb1  1  0.555258  0.449856  0.497802  1
  Rb  Rb2  1  0.554309  0.219882  0.999643  1
  Rb  Rb3  1  0.056518  0.994203  0.999994  1
  Mn  Mn4  1  0.050220  0.354617  0.749832  1
  Mn  Mn5  1  0.345974  0.445548  0.250998  1
  Mn  Mn6  1  0.256437  0.753797  0.745966  1
  Mn  Mn7  1  0.451678  0.156103  0.745541  1
  Mn  Mn8  1  0.546767  0.845330  0.249356  1
  Mn  Mn9  1  0.749525  0.245191  0.246632  1
  Mn  Mn10  1  0.646952  0.553209  0.754939  1
  Mn  Mn11  1  0.949404  0.642616  0.246887  1
  Mn  Mn12  1  0.848755  0.952000  0.755883  1
  Zn  Zn13  1  0.146982  0.045538  0.254995  1
  O  O14  1  0.055089  0.021504  0.675999  1
  O  O15  1  0.132802  0.405616  0.329688  1
  O  O16  1  0.162837  0.684250  0.171221  1
  O  O17  1  0.043344  0.687791  0.826188  1
  O  O18  1  0.241180  0.086012  0.819407  1
  O  O19  1  0.373050  0.117852  0.175338  1
  O  O20  1  0.280773  0.441447  0.666588  1
  O  O21  1  0.353715  0.752086  0.329666  1
  O  O22  1  0.536898  0.169424  0.324215  1
  O  O23  1  0.432024  0.523027  0.831050  1
  O  O24  1  0.558644  0.520849  0.173300  1
  O  O25  1  0.470473  0.792588  0.668273  1
  O  O26  1  0.670441  0.222893  0.678967  1
  O  O27  1  0.737979  0.571492  0.322479  1
  O  O28  1  0.760555  0.920829  0.170078  1
  O  O29  1  0.637061  0.876917  0.827295  1
  O  O30  1  0.945472  0.333045  0.170616  1
  O  O31  1  0.816996  0.270790  0.836176  1
  O  O32  1  0.857678  0.623890  0.678913  1
  O  O33  1  0.914764  0.972582  0.324811  1
