# generated using pymatgen
data_Pr10CdSi4Os
_symmetry_space_group_name_H-M   'P 1'
_cell_length_a   7.75787800
_cell_length_b   9.35344887
_cell_length_c   7.75787800
_cell_angle_alpha   114.50086138
_cell_angle_beta   90.00000000
_cell_angle_gamma   114.50086138
_symmetry_Int_Tables_number   1
_chemical_formula_structural   Pr10CdSi4Os
_chemical_formula_sum   'Pr10 Cd1 Si4 Os1'
_cell_volume   455.95461431
_cell_formula_units_Z   1
loop_
 _symmetry_equiv_pos_site_id
 _symmetry_equiv_pos_as_xyz
  1  'x, y, z'
loop_
 _atom_site_type_symbol
 _atom_site_label
 _atom_site_symmetry_multiplicity
 _atom_site_fract_x
 _atom_site_fract_y
 _atom_site_fract_z
 _atom_site_occupancy
  Pr  Pr0  1  0.969627  0.939254  0.969627  1
  Pr  Pr1  1  0.530373  0.060746  0.530373  1
  Pr  Pr2  1  0.511914  0.718519  0.660276  1
  Pr  Pr3  1  0.206607  0.718519  0.058244  1
  Pr  Pr4  1  0.660276  0.718519  0.206607  1
  Pr  Pr5  1  0.058244  0.718519  0.511914  1
  Pr  Pr6  1  0.441756  0.281481  0.293393  1
  Pr  Pr7  1  0.839724  0.281481  0.988086  1
  Pr  Pr8  1  0.293393  0.281481  0.839724  1
  Pr  Pr9  1  0.988086  0.281481  0.441756  1
  Cd  Cd10  1  0.750000  0.500000  0.750000  1
  Si  Si11  1  0.885742  0.000000  0.614258  1
  Si  Si12  1  0.114258  0.000000  0.385742  1
  Si  Si13  1  0.614258  0.000000  0.114258  1
  Si  Si14  1  0.385742  0.000000  0.885742  1
  Os  Os15  1  0.250000  0.500000  0.250000  1
