# generated using pymatgen
data_Y13Er3(CoAg)4
_symmetry_space_group_name_H-M   'P 1'
_cell_length_a   9.45754647
_cell_length_b   9.45780890
_cell_length_c   9.45781000
_cell_angle_alpha   60.00000316
_cell_angle_beta   59.99908524
_cell_angle_gamma   59.99908707
_symmetry_Int_Tables_number   1
_chemical_formula_structural   Y13Er3(CoAg)4
_chemical_formula_sum   'Y13 Er3 Co4 Ag4'
_cell_volume   598.18926818
_cell_formula_units_Z   1
loop_
 _symmetry_equiv_pos_site_id
 _symmetry_equiv_pos_as_xyz
  1  'x, y, z'
loop_
 _atom_site_type_symbol
 _atom_site_label
 _atom_site_symmetry_multiplicity
 _atom_site_fract_x
 _atom_site_fract_y
 _atom_site_fract_z
 _atom_site_occupancy
  Y  Y0  1  0.955307  0.348231  0.348231  1
  Y  Y1  1  0.811258  0.188629  0.188629  1
  Y  Y2  1  0.189008  0.811033  0.811033  1
  Y  Y3  1  0.189008  0.811033  0.188927  1
  Y  Y4  1  0.811258  0.188629  0.811485  1
  Y  Y5  1  0.189008  0.188927  0.811033  1
  Y  Y6  1  0.811258  0.811485  0.188629  1
  Y  Y7  1  0.938196  0.562231  0.562231  1
  Y  Y8  1  0.561461  0.938352  0.938352  1
  Y  Y9  1  0.561461  0.938352  0.561834  1
  Y  Y10  1  0.938196  0.562231  0.937342  1
  Y  Y11  1  0.561461  0.561834  0.938352  1
  Y  Y12  1  0.938196  0.937342  0.562231  1
  Er  Er13  1  0.347443  0.347442  0.347442  1
  Er  Er14  1  0.347443  0.347442  0.957673  1
  Er  Er15  1  0.347443  0.957673  0.347442  1
  Co  Co16  1  0.144289  0.141321  0.141321  1
  Co  Co17  1  0.144289  0.141321  0.573069  1
  Co  Co18  1  0.144289  0.573069  0.141321  1
  Co  Co19  1  0.571341  0.142886  0.142886  1
  Ag  Ag20  1  0.580816  0.581714  0.581714  1
  Ag  Ag21  1  0.580816  0.581714  0.255757  1
  Ag  Ag22  1  0.580816  0.255757  0.581714  1
  Ag  Ag23  1  0.255941  0.581353  0.581353  1
