# generated using pymatgen
data_Nd4SmYOsI10
_symmetry_space_group_name_H-M   'P 1'
_cell_length_a   7.93411481
_cell_length_b   9.97469748
_cell_length_c   9.98096533
_cell_angle_alpha   107.12840536
_cell_angle_beta   96.48760605
_cell_angle_gamma   104.57056717
_symmetry_Int_Tables_number   1
_chemical_formula_structural   Nd4SmYOsI10
_chemical_formula_sum   'Nd4 Sm1 Y1 Os1 I10'
_cell_volume   715.48478273
_cell_formula_units_Z   1
loop_
 _symmetry_equiv_pos_site_id
 _symmetry_equiv_pos_as_xyz
  1  'x, y, z'
loop_
 _atom_site_type_symbol
 _atom_site_label
 _atom_site_symmetry_multiplicity
 _atom_site_fract_x
 _atom_site_fract_y
 _atom_site_fract_z
 _atom_site_occupancy
  Nd  Nd0  1  0.115544  0.042233  0.759996  1
  Nd  Nd1  1  0.881634  0.956611  0.239020  1
  Nd  Nd2  1  0.964945  0.281320  0.082644  1
  Nd  Nd3  1  0.032793  0.717944  0.916197  1
  Sm  Sm4  1  0.353805  0.127250  0.169892  1
  Y  Y5  1  0.650203  0.874366  0.832390  1
  Os  Os6  1  0.999569  0.999850  0.000076  1
  I  I7  1  0.348799  0.447650  0.270832  1
  I  I8  1  0.647911  0.556805  0.728868  1
  I  I9  1  0.257475  0.085946  0.456151  1
  I  I10  1  0.738213  0.912137  0.546148  1
  I  I11  1  0.087028  0.369712  0.817997  1
  I  I12  1  0.912398  0.629995  0.181413  1
  I  I13  1  0.455758  0.816952  0.087025  1
  I  I14  1  0.545100  0.178514  0.907306  1
  I  I15  1  0.780415  0.257501  0.348284  1
  I  I16  1  0.228409  0.745217  0.655758  1
