# generated using pymatgen
data_U3AlGa2Ir2Pt
_symmetry_space_group_name_H-M   'P 1'
_cell_length_a   7.00737594
_cell_length_b   6.96700752
_cell_length_c   4.05679100
_cell_angle_alpha   90.00000000
_cell_angle_beta   90.00000000
_cell_angle_gamma   119.80961296
_symmetry_Int_Tables_number   1
_chemical_formula_structural   U3AlGa2Ir2Pt
_chemical_formula_sum   'U3 Al1 Ga2 Ir2 Pt1'
_cell_volume   171.84818478
_cell_formula_units_Z   1
loop_
 _symmetry_equiv_pos_site_id
 _symmetry_equiv_pos_as_xyz
  1  'x, y, z'
loop_
 _atom_site_type_symbol
 _atom_site_label
 _atom_site_symmetry_multiplicity
 _atom_site_fract_x
 _atom_site_fract_y
 _atom_site_fract_z
 _atom_site_occupancy
  U  U0  1  0.428256  0.427219  0.500000  1
  U  U1  1  0.571744  0.998962  0.500000  1
  U  U2  1  0.000000  0.577245  0.500000  1
  Al  Al3  1  0.000000  0.239056  0.000000  1
  Ga  Ga4  1  0.755373  0.757156  0.000000  1
  Ga  Ga5  1  0.244627  0.001783  0.000000  1
  Ir  Ir6  1  0.672262  0.331551  0.000000  1
  Ir  Ir7  1  0.327738  0.659290  0.000000  1
  Pt  Pt8  1  0.000000  0.007739  0.500000  1
