# generated using pymatgen
data_Sc6Al7Ni16
_symmetry_space_group_name_H-M   'P 1'
_cell_length_a   8.28382794
_cell_length_b   8.28382726
_cell_length_c   8.28382800
_cell_angle_alpha   60.00000502
_cell_angle_beta   60.00000776
_cell_angle_gamma   60.00000474
_symmetry_Int_Tables_number   1
_chemical_formula_structural   Sc6Al7Ni16
_chemical_formula_sum   'Sc6 Al7 Ni16'
_cell_volume   401.95574154
_cell_formula_units_Z   1
loop_
 _symmetry_equiv_pos_site_id
 _symmetry_equiv_pos_as_xyz
  1  'x, y, z'
loop_
 _atom_site_type_symbol
 _atom_site_label
 _atom_site_symmetry_multiplicity
 _atom_site_fract_x
 _atom_site_fract_y
 _atom_site_fract_z
 _atom_site_occupancy
  Sc  Sc0  1  0.214895  0.785105  0.785105  1
  Sc  Sc1  1  0.214895  0.785105  0.214895  1
  Sc  Sc2  1  0.785105  0.214895  0.214895  1
  Sc  Sc3  1  0.785105  0.214895  0.785105  1
  Sc  Sc4  1  0.785105  0.785105  0.214895  1
  Sc  Sc5  1  0.214895  0.214895  0.785105  1
  Al  Al6  1  0.000000  0.000000  0.500000  1
  Al  Al7  1  0.500000  0.000000  0.500000  1
  Al  Al8  1  0.500000  0.500000  0.500000  1
  Al  Al9  1  0.000000  0.500000  0.000000  1
  Al  Al10  1  0.500000  0.500000  0.000000  1
  Al  Al11  1  0.500000  0.000000  0.000000  1
  Al  Al12  1  0.000000  0.500000  0.500000  1
  Ni  Ni13  1  0.378650  0.378650  0.378650  1
  Ni  Ni14  1  0.509972  0.830009  0.830009  1
  Ni  Ni15  1  0.621350  0.621350  0.135952  1
  Ni  Ni16  1  0.169991  0.169991  0.490028  1
  Ni  Ni17  1  0.830009  0.830009  0.509972  1
  Ni  Ni18  1  0.169991  0.169991  0.169991  1
  Ni  Ni19  1  0.830009  0.830009  0.830009  1
  Ni  Ni20  1  0.378650  0.378650  0.864048  1
  Ni  Ni21  1  0.830009  0.509972  0.830009  1
  Ni  Ni22  1  0.621350  0.621350  0.621350  1
  Ni  Ni23  1  0.378650  0.864048  0.378650  1
  Ni  Ni24  1  0.135952  0.621350  0.621350  1
  Ni  Ni25  1  0.621350  0.135952  0.621350  1
  Ni  Ni26  1  0.169991  0.490028  0.169991  1
  Ni  Ni27  1  0.864048  0.378650  0.378650  1
  Ni  Ni28  1  0.490028  0.169991  0.169991  1
