# generated using pymatgen
data_Tb20Ir8RuPt3
_symmetry_space_group_name_H-M   'P 1'
_cell_length_a   11.01346076
_cell_length_b   11.00546058
_cell_length_c   6.38690022
_cell_angle_alpha   89.98592496
_cell_angle_beta   89.97344443
_cell_angle_gamma   90.26965592
_symmetry_Int_Tables_number   1
_chemical_formula_structural   Tb20Ir8RuPt3
_chemical_formula_sum   'Tb20 Ir8 Ru1 Pt3'
_cell_volume   774.13605170
_cell_formula_units_Z   1
loop_
 _symmetry_equiv_pos_site_id
 _symmetry_equiv_pos_as_xyz
  1  'x, y, z'
loop_
 _atom_site_type_symbol
 _atom_site_label
 _atom_site_symmetry_multiplicity
 _atom_site_fract_x
 _atom_site_fract_y
 _atom_site_fract_z
 _atom_site_occupancy
  Tb  Tb0  1  0.294868  0.086580  0.372243  1
  Tb  Tb1  1  0.294654  0.908577  0.880106  1
  Tb  Tb2  1  0.703496  0.089668  0.876672  1
  Tb  Tb3  1  0.703194  0.909921  0.373048  1
  Tb  Tb4  1  0.584875  0.792362  0.881465  1
  Tb  Tb5  1  0.584997  0.207849  0.378715  1
  Tb  Tb6  1  0.411025  0.792371  0.378711  1
  Tb  Tb7  1  0.414336  0.207645  0.880827  1
  Tb  Tb8  1  0.209243  0.414188  0.619600  1
  Tb  Tb9  1  0.208641  0.590064  0.120080  1
  Tb  Tb10  1  0.790986  0.414116  0.119676  1
  Tb  Tb11  1  0.790747  0.586622  0.620273  1
  Tb  Tb12  1  0.912286  0.706092  0.126819  1
  Tb  Tb13  1  0.908822  0.294745  0.625458  1
  Tb  Tb14  1  0.092967  0.707069  0.621733  1
  Tb  Tb15  1  0.091293  0.295814  0.125572  1
  Tb  Tb16  1  0.001415  0.997984  0.498913  1
  Tb  Tb17  1  0.001976  0.998543  0.999538  1
  Tb  Tb18  1  0.499676  0.499814  0.999579  1
  Tb  Tb19  1  0.500220  0.500189  0.498415  1
  Ir  Ir20  1  0.151709  0.847781  0.249519  1
  Ir  Ir21  1  0.654302  0.345774  0.749613  1
  Ir  Ir22  1  0.654792  0.653900  0.249042  1
  Ir  Ir23  1  0.345726  0.345560  0.250100  1
  Ir  Ir24  1  0.346725  0.653112  0.749390  1
  Ir  Ir25  1  0.500399  0.000312  0.624672  1
  Ir  Ir26  1  0.999621  0.499566  0.876716  1
  Ir  Ir27  1  0.999810  0.499351  0.377995  1
  Ru  Ru28  1  0.500707  0.000167  0.126724  1
  Pt  Pt29  1  0.847318  0.153391  0.249610  1
  Pt  Pt30  1  0.845979  0.846764  0.749544  1
  Pt  Pt31  1  0.153194  0.154109  0.749630  1
