# generated using pymatgen
data_Ta8VTc3Os4
_symmetry_space_group_name_H-M   'P 1'
_cell_length_a   6.37409600
_cell_length_b   4.50020700
_cell_length_c   8.98864800
_cell_angle_alpha   90.00000000
_cell_angle_beta   89.99955218
_cell_angle_gamma   90.00000000
_symmetry_Int_Tables_number   1
_chemical_formula_structural   Ta8VTc3Os4
_chemical_formula_sum   'Ta8 V1 Tc3 Os4'
_cell_volume   257.83713364
_cell_formula_units_Z   1
loop_
 _symmetry_equiv_pos_site_id
 _symmetry_equiv_pos_as_xyz
  1  'x, y, z'
loop_
 _atom_site_type_symbol
 _atom_site_label
 _atom_site_symmetry_multiplicity
 _atom_site_fract_x
 _atom_site_fract_y
 _atom_site_fract_z
 _atom_site_occupancy
  Ta  Ta0  1  0.001962  0.750001  0.121573  1
  Ta  Ta1  1  0.498020  0.750001  0.121572  1
  Ta  Ta2  1  0.000023  0.250000  0.375002  1
  Ta  Ta3  1  0.499981  0.250000  0.375002  1
  Ta  Ta4  1  0.498023  0.750001  0.628425  1
  Ta  Ta5  1  0.001979  0.750001  0.628425  1
  Ta  Ta6  1  0.496397  0.250000  0.875008  1
  Ta  Ta7  1  0.003618  0.250000  0.875008  1
  V  V8  1  0.249995  0.750001  0.875000  1
  Tc  Tc9  1  0.749999  0.250000  0.125885  1
  Tc  Tc10  1  0.249996  0.750001  0.375017  1
  Tc  Tc11  1  0.750005  0.250000  0.624108  1
  Os  Os12  1  0.250000  0.250000  0.126173  1
  Os  Os13  1  0.749996  0.750001  0.374999  1
  Os  Os14  1  0.250003  0.250000  0.623806  1
  Os  Os15  1  0.750003  0.750001  0.874998  1
