# generated using pymatgen
data_Sr20Si3Bi8As
_symmetry_space_group_name_H-M   'P 1'
_cell_length_a   8.69094051
_cell_length_b   10.08112200
_cell_length_c   13.70678340
_cell_angle_alpha   90.00000000
_cell_angle_beta   90.55246692
_cell_angle_gamma   90.00000000
_symmetry_Int_Tables_number   1
_chemical_formula_structural   Sr20Si3Bi8As
_chemical_formula_sum   'Sr20 Si3 Bi8 As1'
_cell_volume   1200.85620891
_cell_formula_units_Z   1
loop_
 _symmetry_equiv_pos_site_id
 _symmetry_equiv_pos_as_xyz
  1  'x, y, z'
loop_
 _atom_site_type_symbol
 _atom_site_label
 _atom_site_symmetry_multiplicity
 _atom_site_fract_x
 _atom_site_fract_y
 _atom_site_fract_z
 _atom_site_occupancy
  Sr  Sr0  1  0.823706  0.530486  0.075028  1
  Sr  Sr1  1  0.674534  0.970928  0.577205  1
  Sr  Sr2  1  0.177589  0.030090  0.922592  1
  Sr  Sr3  1  0.325114  0.470393  0.425019  1
  Sr  Sr4  1  0.177589  0.469910  0.922592  1
  Sr  Sr5  1  0.325114  0.029607  0.425019  1
  Sr  Sr6  1  0.823706  0.969514  0.075028  1
  Sr  Sr7  1  0.674534  0.529072  0.577205  1
  Sr  Sr8  1  0.170800  0.750000  0.214527  1
  Sr  Sr9  1  0.332964  0.750000  0.714149  1
  Sr  Sr10  1  0.828241  0.250000  0.782693  1
  Sr  Sr11  1  0.663891  0.250000  0.289228  1
  Sr  Sr12  1  0.442904  0.750000  0.000574  1
  Sr  Sr13  1  0.056778  0.750000  0.499069  1
  Sr  Sr14  1  0.551080  0.250000  0.998519  1
  Sr  Sr15  1  0.944354  0.250000  0.499463  1
  Sr  Sr16  1  0.642379  0.750000  0.304901  1
  Sr  Sr17  1  0.858044  0.750000  0.804684  1
  Sr  Sr18  1  0.357296  0.250000  0.697885  1
  Sr  Sr19  1  0.143086  0.250000  0.195924  1
  Si  Si20  1  0.439571  0.750000  0.491188  1
  Si  Si21  1  0.060657  0.750000  0.991851  1
  Si  Si22  1  0.561433  0.250000  0.511427  1
  Bi  Bi23  1  0.943279  0.505082  0.327684  1
  Bi  Bi24  1  0.561783  0.991616  0.832758  1
  Bi  Bi25  1  0.057051  0.006617  0.669827  1
  Bi  Bi26  1  0.441682  0.490888  0.167676  1
  Bi  Bi27  1  0.057051  0.493383  0.669827  1
  Bi  Bi28  1  0.441682  0.009112  0.167676  1
  Bi  Bi29  1  0.943279  0.994918  0.327684  1
  Bi  Bi30  1  0.561783  0.508384  0.832758  1
  As  As31  1  0.937046  0.250000  0.008341  1
