# generated using pymatgen
data_Be7Cr4Si
_symmetry_space_group_name_H-M   'P 1'
_cell_length_a   4.24612300
_cell_length_b   4.29341734
_cell_length_c   6.92440200
_cell_angle_alpha   90.00000000
_cell_angle_beta   90.00000000
_cell_angle_gamma   119.63628047
_symmetry_Int_Tables_number   1
_chemical_formula_structural   Be7Cr4Si
_chemical_formula_sum   'Be7 Cr4 Si1'
_cell_volume   109.72072415
_cell_formula_units_Z   1
loop_
 _symmetry_equiv_pos_site_id
 _symmetry_equiv_pos_as_xyz
  1  'x, y, z'
loop_
 _atom_site_type_symbol
 _atom_site_label
 _atom_site_symmetry_multiplicity
 _atom_site_fract_x
 _atom_site_fract_y
 _atom_site_fract_z
 _atom_site_occupancy
  Be  Be0  1  0.172801  0.839031  0.750000  1
  Be  Be1  1  0.342321  0.171424  0.250000  1
  Be  Be2  1  0.827566  0.655133  0.250000  1
  Be  Be3  1  0.994335  0.988670  0.008023  1
  Be  Be4  1  0.666231  0.839031  0.750000  1
  Be  Be5  1  0.829102  0.171424  0.250000  1
  Be  Be6  1  0.994335  0.988670  0.491977  1
  Cr  Cr7  1  0.332493  0.664986  0.433691  1
  Cr  Cr8  1  0.668004  0.336007  0.940120  1
  Cr  Cr9  1  0.332493  0.664986  0.066309  1
  Cr  Cr10  1  0.668004  0.336007  0.559880  1
  Si  Si11  1  0.172316  0.344630  0.750000  1
