# generated using pymatgen
data_Nd4NiHg
_symmetry_space_group_name_H-M   'P 1'
_cell_length_a   9.85664168
_cell_length_b   9.85664147
_cell_length_c   9.85664100
_cell_angle_alpha   59.99999821
_cell_angle_beta   59.99999893
_cell_angle_gamma   60.00000050
_symmetry_Int_Tables_number   1
_chemical_formula_structural   Nd4NiHg
_chemical_formula_sum   'Nd16 Ni4 Hg4'
_cell_volume   677.12969788
_cell_formula_units_Z   4
loop_
 _symmetry_equiv_pos_site_id
 _symmetry_equiv_pos_as_xyz
  1  'x, y, z'
loop_
 _atom_site_type_symbol
 _atom_site_label
 _atom_site_symmetry_multiplicity
 _atom_site_fract_x
 _atom_site_fract_y
 _atom_site_fract_z
 _atom_site_occupancy
  Nd  Nd0  1  0.598950  0.598950  0.598950  1
  Nd  Nd1  1  0.598950  0.598950  0.203150  1
  Nd  Nd2  1  0.598950  0.203150  0.598950  1
  Nd  Nd3  1  0.203150  0.598950  0.598950  1
  Nd  Nd4  1  0.059179  0.440821  0.440821  1
  Nd  Nd5  1  0.440821  0.059179  0.059179  1
  Nd  Nd6  1  0.440821  0.059179  0.440821  1
  Nd  Nd7  1  0.059179  0.440821  0.059179  1
  Nd  Nd8  1  0.440821  0.440821  0.059179  1
  Nd  Nd9  1  0.059179  0.059179  0.440821  1
  Nd  Nd10  1  0.186867  0.813133  0.813133  1
  Nd  Nd11  1  0.813133  0.186867  0.186867  1
  Nd  Nd12  1  0.813133  0.186867  0.813133  1
  Nd  Nd13  1  0.186867  0.813133  0.186867  1
  Nd  Nd14  1  0.813133  0.813133  0.186867  1
  Nd  Nd15  1  0.186867  0.186867  0.813133  1
  Ni  Ni16  1  0.392259  0.392259  0.392259  1
  Ni  Ni17  1  0.392259  0.392259  0.823223  1
  Ni  Ni18  1  0.392259  0.823223  0.392259  1
  Ni  Ni19  1  0.823223  0.392259  0.392259  1
  Hg  Hg20  1  0.833544  0.833544  0.833544  1
  Hg  Hg21  1  0.833544  0.833544  0.499369  1
  Hg  Hg22  1  0.833544  0.499369  0.833544  1
  Hg  Hg23  1  0.499369  0.833544  0.833544  1
