# generated using pymatgen
data_TbDySi2NiOs
_symmetry_space_group_name_H-M   'P 1'
_cell_length_a   4.26581600
_cell_length_b   6.94505964
_cell_length_c   7.15680034
_cell_angle_alpha   91.74433237
_cell_angle_beta   90.00000000
_cell_angle_gamma   90.00000000
_symmetry_Int_Tables_number   1
_chemical_formula_structural   TbDySi2NiOs
_chemical_formula_sum   'Tb2 Dy2 Si4 Ni2 Os2'
_cell_volume   211.93159362
_cell_formula_units_Z   2
loop_
 _symmetry_equiv_pos_site_id
 _symmetry_equiv_pos_as_xyz
  1  'x, y, z'
loop_
 _atom_site_type_symbol
 _atom_site_label
 _atom_site_symmetry_multiplicity
 _atom_site_fract_x
 _atom_site_fract_y
 _atom_site_fract_z
 _atom_site_occupancy
  Tb  Tb0  1  0.750000  0.012997  0.700470  1
  Tb  Tb1  1  0.250000  0.987003  0.299530  1
  Dy  Dy2  1  0.250000  0.487252  0.179078  1
  Dy  Dy3  1  0.750000  0.512748  0.820922  1
  Si  Si4  1  0.250000  0.804647  0.893955  1
  Si  Si5  1  0.750000  0.195353  0.106045  1
  Si  Si6  1  0.750000  0.697566  0.402749  1
  Si  Si7  1  0.250000  0.302434  0.597251  1
  Ni  Ni8  1  0.750000  0.839150  0.073626  1
  Ni  Ni9  1  0.250000  0.160850  0.926374  1
  Os  Os10  1  0.250000  0.655343  0.571396  1
  Os  Os11  1  0.750000  0.344657  0.428604  1
