# generated using pymatgen
data_ErTm7(ScBi3)2
_symmetry_space_group_name_H-M   'P 1'
_cell_length_a   8.06648500
_cell_length_b   9.35314700
_cell_length_c   11.85590700
_cell_angle_alpha   90.00000000
_cell_angle_beta   90.00000000
_cell_angle_gamma   90.00000000
_symmetry_Int_Tables_number   1
_chemical_formula_structural   ErTm7(ScBi3)2
_chemical_formula_sum   'Er2 Tm14 Sc4 Bi12'
_cell_volume   894.49285229
_cell_formula_units_Z   2
loop_
 _symmetry_equiv_pos_site_id
 _symmetry_equiv_pos_as_xyz
  1  'x, y, z'
loop_
 _atom_site_type_symbol
 _atom_site_label
 _atom_site_symmetry_multiplicity
 _atom_site_fract_x
 _atom_site_fract_y
 _atom_site_fract_z
 _atom_site_occupancy
  Er  Er0  1  0.644499  0.250000  0.784002  1
  Er  Er1  1  0.144499  0.250000  0.715998  1
  Tm  Tm2  1  0.185610  0.750000  0.719133  1
  Tm  Tm3  1  0.685610  0.750000  0.780867  1
  Tm  Tm4  1  0.813425  0.250000  0.280642  1
  Tm  Tm5  1  0.313425  0.250000  0.219358  1
  Tm  Tm6  1  0.303767  0.433550  0.941561  1
  Tm  Tm7  1  0.803767  0.066450  0.558439  1
  Tm  Tm8  1  0.695868  0.933456  0.059436  1
  Tm  Tm9  1  0.195868  0.566544  0.440564  1
  Tm  Tm10  1  0.695868  0.566544  0.059436  1
  Tm  Tm11  1  0.195868  0.933456  0.440564  1
  Tm  Tm12  1  0.303767  0.066450  0.941561  1
  Tm  Tm13  1  0.803767  0.433550  0.558439  1
  Tm  Tm14  1  0.356067  0.750000  0.216573  1
  Tm  Tm15  1  0.856067  0.750000  0.283427  1
  Sc  Sc16  1  0.024869  0.750000  0.988227  1
  Sc  Sc17  1  0.524869  0.750000  0.511773  1
  Sc  Sc18  1  0.975401  0.250000  0.013252  1
  Sc  Sc19  1  0.475401  0.250000  0.486748  1
  Bi  Bi20  1  0.433537  0.003172  0.669322  1
  Bi  Bi21  1  0.933537  0.496828  0.830678  1
  Bi  Bi22  1  0.566816  0.504220  0.330070  1
  Bi  Bi23  1  0.066816  0.995780  0.169930  1
  Bi  Bi24  1  0.566816  0.995780  0.330070  1
  Bi  Bi25  1  0.066816  0.504220  0.169930  1
  Bi  Bi26  1  0.433537  0.496828  0.669322  1
  Bi  Bi27  1  0.933537  0.003172  0.830678  1
  Bi  Bi28  1  0.402358  0.750000  0.957161  1
  Bi  Bi29  1  0.902358  0.750000  0.542839  1
  Bi  Bi30  1  0.597798  0.250000  0.044066  1
  Bi  Bi31  1  0.097798  0.250000  0.455934  1
