# generated using pymatgen
data_Tb8Si8Pd3Pt5
_symmetry_space_group_name_H-M   'P 1'
_cell_length_a   4.28137100
_cell_length_b   7.52872361
_cell_length_c   14.09348100
_cell_angle_alpha   89.92410254
_cell_angle_beta   90.00000000
_cell_angle_gamma   90.00000000
_symmetry_Int_Tables_number   1
_chemical_formula_structural   Tb8Si8Pd3Pt5
_chemical_formula_sum   'Tb8 Si8 Pd3 Pt5'
_cell_volume   454.27842347
_cell_formula_units_Z   1
loop_
 _symmetry_equiv_pos_site_id
 _symmetry_equiv_pos_as_xyz
  1  'x, y, z'
loop_
 _atom_site_type_symbol
 _atom_site_label
 _atom_site_symmetry_multiplicity
 _atom_site_fract_x
 _atom_site_fract_y
 _atom_site_fract_z
 _atom_site_occupancy
  Tb  Tb0  1  0.500000  0.796535  0.750551  1
  Tb  Tb1  1  0.000000  0.203492  0.749808  1
  Tb  Tb2  1  0.500000  0.795526  0.250027  1
  Tb  Tb3  1  0.000000  0.202789  0.249710  1
  Tb  Tb4  1  0.500000  0.706212  0.999978  1
  Tb  Tb5  1  0.000000  0.293435  0.499405  1
  Tb  Tb6  1  0.500000  0.699525  0.500348  1
  Tb  Tb7  1  0.000000  0.300316  0.999971  1
  Si  Si8  1  0.500000  0.403087  0.643074  1
  Si  Si9  1  0.000000  0.596665  0.857837  1
  Si  Si10  1  0.500000  0.403869  0.352629  1
  Si  Si11  1  0.000000  0.592939  0.144258  1
  Si  Si12  1  0.500000  0.094139  0.092665  1
  Si  Si13  1  0.000000  0.908100  0.408790  1
  Si  Si14  1  0.500000  0.092488  0.908442  1
  Si  Si15  1  0.000000  0.907521  0.591913  1
  Pd  Pd16  1  0.000000  0.580624  0.343871  1
  Pd  Pd17  1  0.500000  0.422623  0.838563  1
  Pd  Pd18  1  0.000000  0.578303  0.659525  1
  Pt  Pt19  1  0.500000  0.074109  0.608340  1
  Pt  Pt20  1  0.000000  0.926055  0.891968  1
  Pt  Pt21  1  0.500000  0.074575  0.391929  1
  Pt  Pt22  1  0.000000  0.924104  0.108700  1
  Pt  Pt23  1  0.500000  0.422970  0.157699  1
