# generated using pymatgen
data_HfCd6IO12
_symmetry_space_group_name_H-M   'P 1'
_cell_length_a   5.77275413
_cell_length_b   5.61953971
_cell_length_c   9.99403000
_cell_angle_alpha   55.12506395
_cell_angle_beta   89.15679346
_cell_angle_gamma   89.52627787
_symmetry_Int_Tables_number   1
_chemical_formula_structural   HfCd6IO12
_chemical_formula_sum   'Hf1 Cd6 I1 O12'
_cell_volume   265.95255578
_cell_formula_units_Z   1
loop_
 _symmetry_equiv_pos_site_id
 _symmetry_equiv_pos_as_xyz
  1  'x, y, z'
loop_
 _atom_site_type_symbol
 _atom_site_label
 _atom_site_symmetry_multiplicity
 _atom_site_fract_x
 _atom_site_fract_y
 _atom_site_fract_z
 _atom_site_occupancy
  Hf  Hf0  1  0.000000  0.000000  0.000000  1
  Cd  Cd1  1  0.043339  0.734922  0.766412  1
  Cd  Cd2  1  0.956661  0.265078  0.233588  1
  Cd  Cd3  1  0.558334  0.263899  0.755748  1
  Cd  Cd4  1  0.441666  0.736101  0.244252  1
  Cd  Cd5  1  0.500000  0.500000  0.000000  1
  Cd  Cd6  1  0.000000  0.500000  0.500000  1
  I  I7  1  0.500000  0.000000  0.500000  1
  O  O8  1  0.426559  0.926318  0.709976  1
  O  O9  1  0.573441  0.073682  0.290024  1
  O  O10  1  0.934898  0.132822  0.759126  1
  O  O11  1  0.065102  0.867178  0.240874  1
  O  O12  1  0.771702  0.759812  0.585014  1
  O  O13  1  0.228298  0.240188  0.414986  1
  O  O14  1  0.301378  0.250668  0.927205  1
  O  O15  1  0.698622  0.749332  0.072795  1
  O  O16  1  0.324958  0.661573  0.565552  1
  O  O17  1  0.675042  0.338427  0.434448  1
  O  O18  1  0.819255  0.358585  0.952692  1
  O  O19  1  0.180745  0.641415  0.047308  1
