# generated using pymatgen
data_Eu12Pd3Ru
_symmetry_space_group_name_H-M   'P 1'
_cell_length_a   6.78028700
_cell_length_b   7.51679162
_cell_length_c   10.24434100
_cell_angle_alpha   90.00000000
_cell_angle_beta   90.00000000
_cell_angle_gamma   89.94375451
_symmetry_Int_Tables_number   1
_chemical_formula_structural   Eu12Pd3Ru
_chemical_formula_sum   'Eu12 Pd3 Ru1'
_cell_volume   522.11287809
_cell_formula_units_Z   1
loop_
 _symmetry_equiv_pos_site_id
 _symmetry_equiv_pos_as_xyz
  1  'x, y, z'
loop_
 _atom_site_type_symbol
 _atom_site_label
 _atom_site_symmetry_multiplicity
 _atom_site_fract_x
 _atom_site_fract_y
 _atom_site_fract_z
 _atom_site_occupancy
  Eu  Eu0  1  0.339479  0.677562  0.059479  1
  Eu  Eu1  1  0.162626  0.174579  0.438156  1
  Eu  Eu2  1  0.663520  0.330740  0.570617  1
  Eu  Eu3  1  0.825037  0.818587  0.930075  1
  Eu  Eu4  1  0.663520  0.330740  0.929383  1
  Eu  Eu5  1  0.825037  0.818587  0.569925  1
  Eu  Eu6  1  0.339479  0.677562  0.440521  1
  Eu  Eu7  1  0.162626  0.174579  0.061844  1
  Eu  Eu8  1  0.859600  0.536045  0.250000  1
  Eu  Eu9  1  0.643190  0.037619  0.250000  1
  Eu  Eu10  1  0.151362  0.466644  0.750000  1
  Eu  Eu11  1  0.366158  0.959539  0.750000  1
  Pd  Pd12  1  0.060654  0.884348  0.250000  1
  Pd  Pd13  1  0.439363  0.383647  0.250000  1
  Pd  Pd14  1  0.953763  0.112771  0.750000  1
  Ru  Ru15  1  0.544585  0.616454  0.750000  1
