# generated using pymatgen
data_Li6Zr5TaPt12
_symmetry_space_group_name_H-M   'P 1'
_cell_length_a   4.73142702
_cell_length_b   5.87175300
_cell_length_c   14.15604207
_cell_angle_alpha   90.00000000
_cell_angle_beta   89.98867032
_cell_angle_gamma   90.00000000
_symmetry_Int_Tables_number   1
_chemical_formula_structural   Li6Zr5TaPt12
_chemical_formula_sum   'Li6 Zr5 Ta1 Pt12'
_cell_volume   393.27990876
_cell_formula_units_Z   1
loop_
 _symmetry_equiv_pos_site_id
 _symmetry_equiv_pos_as_xyz
  1  'x, y, z'
loop_
 _atom_site_type_symbol
 _atom_site_label
 _atom_site_symmetry_multiplicity
 _atom_site_fract_x
 _atom_site_fract_y
 _atom_site_fract_z
 _atom_site_occupancy
  Li  Li0  1  0.000000  0.000000  0.000000  1
  Li  Li1  1  0.501219  0.500001  0.166896  1
  Li  Li2  1  0.001213  0.000000  0.332098  1
  Li  Li3  1  0.500000  0.500001  0.500000  1
  Li  Li4  1  0.998784  0.000000  0.667902  1
  Li  Li5  1  0.498781  0.500001  0.833104  1
  Zr  Zr6  1  0.501359  0.000000  0.166240  1
  Zr  Zr7  1  0.001395  0.500001  0.331316  1
  Zr  Zr8  1  0.500000  0.000000  0.500000  1
  Zr  Zr9  1  0.998606  0.500001  0.668684  1
  Zr  Zr10  1  0.498643  0.000000  0.833760  1
  Ta  Ta11  1  0.000000  0.500001  0.000000  1
  Pt  Pt12  1  0.500000  0.259413  0.000000  1
  Pt  Pt13  1  0.500000  0.740586  0.000000  1
  Pt  Pt14  1  0.001350  0.251902  0.159556  1
  Pt  Pt15  1  0.001350  0.748098  0.159556  1
  Pt  Pt16  1  0.501419  0.249729  0.332999  1
  Pt  Pt17  1  0.501419  0.750270  0.332999  1
  Pt  Pt18  1  0.000000  0.249514  0.500000  1
  Pt  Pt19  1  0.000000  0.750485  0.500000  1
  Pt  Pt20  1  0.498582  0.249729  0.667001  1
  Pt  Pt21  1  0.498582  0.750270  0.667001  1
  Pt  Pt22  1  0.998649  0.251902  0.840444  1
  Pt  Pt23  1  0.998649  0.748098  0.840444  1
