# generated using pymatgen
data_Er3Mg3Ag2Ir
_symmetry_space_group_name_H-M   'P 1'
_cell_length_a   7.77322800
_cell_length_b   7.77322757
_cell_length_c   3.88049200
_cell_angle_alpha   90.00000000
_cell_angle_beta   90.00000000
_cell_angle_gamma   119.99999331
_symmetry_Int_Tables_number   1
_chemical_formula_structural   Er3Mg3Ag2Ir
_chemical_formula_sum   'Er3 Mg3 Ag2 Ir1'
_cell_volume   203.05806447
_cell_formula_units_Z   1
loop_
 _symmetry_equiv_pos_site_id
 _symmetry_equiv_pos_as_xyz
  1  'x, y, z'
loop_
 _atom_site_type_symbol
 _atom_site_label
 _atom_site_symmetry_multiplicity
 _atom_site_fract_x
 _atom_site_fract_y
 _atom_site_fract_z
 _atom_site_occupancy
  Er  Er0  1  0.430574  0.397494  0.500000  1
  Er  Er1  1  0.602506  0.033080  0.500000  1
  Er  Er2  1  0.966920  0.569426  0.500000  1
  Mg  Mg3  1  0.744292  0.743806  0.000000  1
  Mg  Mg4  1  0.256194  0.000486  0.000000  1
  Mg  Mg5  1  0.999514  0.255708  0.000000  1
  Ag  Ag6  1  0.333333  0.666667  0.000000  1
  Ag  Ag7  1  0.000000  0.000000  0.500000  1
  Ir  Ir8  1  0.666667  0.333333  0.000000  1
