# generated using pymatgen
data_Ho10CdIn7Pt4
_symmetry_space_group_name_H-M   'P 1'
_cell_length_a   3.61433500
_cell_length_b   8.13984412
_cell_length_c   18.23840426
_cell_angle_alpha   89.98070223
_cell_angle_beta   90.00000000
_cell_angle_gamma   90.00000000
_symmetry_Int_Tables_number   1
_chemical_formula_structural   Ho10CdIn7Pt4
_chemical_formula_sum   'Ho10 Cd1 In7 Pt4'
_cell_volume   536.57607495
_cell_formula_units_Z   1
loop_
 _symmetry_equiv_pos_site_id
 _symmetry_equiv_pos_as_xyz
  1  'x, y, z'
loop_
 _atom_site_type_symbol
 _atom_site_label
 _atom_site_symmetry_multiplicity
 _atom_site_fract_x
 _atom_site_fract_y
 _atom_site_fract_z
 _atom_site_occupancy
  Ho  Ho0  1  0.000000  0.115966  0.414103  1
  Ho  Ho1  1  0.000000  0.885027  0.585428  1
  Ho  Ho2  1  0.000000  0.384269  0.914662  1
  Ho  Ho3  1  0.000000  0.615337  0.085674  1
  Ho  Ho4  1  0.000000  0.245065  0.220277  1
  Ho  Ho5  1  0.000000  0.756893  0.780614  1
  Ho  Ho6  1  0.000000  0.256042  0.719444  1
  Ho  Ho7  1  0.000000  0.742059  0.280829  1
  Ho  Ho8  1  0.000000  0.000292  0.999941  1
  Ho  Ho9  1  0.000000  0.499712  0.499996  1
  Cd  Cd10  1  0.500000  0.424523  0.352278  1
  In  In11  1  0.500000  0.576212  0.648379  1
  In  In12  1  0.500000  0.075799  0.851354  1
  In  In13  1  0.500000  0.924003  0.148350  1
  In  In14  1  0.500000  0.291335  0.066593  1
  In  In15  1  0.500000  0.707986  0.933353  1
  In  In16  1  0.500000  0.207914  0.566299  1
  In  In17  1  0.500000  0.790899  0.433213  1
  Pt  Pt18  1  0.500000  0.025271  0.302613  1
  Pt  Pt19  1  0.500000  0.974630  0.697184  1
  Pt  Pt20  1  0.500000  0.474567  0.802797  1
  Pt  Pt21  1  0.500000  0.526199  0.196616  1
