# generated using pymatgen
data_Sc18ReTc7P2
_symmetry_space_group_name_H-M   'P 1'
_cell_length_a   8.60750500
_cell_length_b   8.60750612
_cell_length_c   8.57528100
_cell_angle_alpha   90.00000000
_cell_angle_beta   90.00000000
_cell_angle_gamma   119.99999953
_symmetry_Int_Tables_number   1
_chemical_formula_structural   Sc18ReTc7P2
_chemical_formula_sum   'Sc18 Re1 Tc7 P2'
_cell_volume   550.21650998
_cell_formula_units_Z   1
loop_
 _symmetry_equiv_pos_site_id
 _symmetry_equiv_pos_as_xyz
  1  'x, y, z'
loop_
 _atom_site_type_symbol
 _atom_site_label
 _atom_site_symmetry_multiplicity
 _atom_site_fract_x
 _atom_site_fract_y
 _atom_site_fract_z
 _atom_site_occupancy
  Sc  Sc0  1  0.197598  0.802402  0.451978  1
  Sc  Sc1  1  0.197598  0.395196  0.451978  1
  Sc  Sc2  1  0.604804  0.802402  0.451978  1
  Sc  Sc3  1  0.802402  0.197598  0.548022  1
  Sc  Sc4  1  0.802402  0.604804  0.548022  1
  Sc  Sc5  1  0.395196  0.197598  0.548022  1
  Sc  Sc6  1  0.802395  0.197605  0.952294  1
  Sc  Sc7  1  0.802395  0.604790  0.952294  1
  Sc  Sc8  1  0.395210  0.197605  0.952294  1
  Sc  Sc9  1  0.197605  0.802395  0.047706  1
  Sc  Sc10  1  0.197605  0.395210  0.047706  1
  Sc  Sc11  1  0.604790  0.802395  0.047706  1
  Sc  Sc12  1  0.537965  0.462035  0.250033  1
  Sc  Sc13  1  0.537965  0.075929  0.250033  1
  Sc  Sc14  1  0.924071  0.462035  0.250033  1
  Sc  Sc15  1  0.462035  0.537965  0.749967  1
  Sc  Sc16  1  0.462035  0.924071  0.749967  1
  Sc  Sc17  1  0.075929  0.537965  0.749967  1
  Re  Re18  1  0.000000  0.000000  0.000000  1
  Tc  Tc19  1  0.892319  0.107681  0.249158  1
  Tc  Tc20  1  0.892319  0.784637  0.249158  1
  Tc  Tc21  1  0.215363  0.107681  0.249158  1
  Tc  Tc22  1  0.107681  0.892319  0.750842  1
  Tc  Tc23  1  0.107681  0.215363  0.750842  1
  Tc  Tc24  1  0.784637  0.892319  0.750842  1
  Tc  Tc25  1  0.000000  0.000000  0.500000  1
  P  P26  1  0.333333  0.666667  0.250037  1
  P  P27  1  0.666667  0.333333  0.749963  1
