# generated using pymatgen
data_Y7Th(Si3Pt)4
_symmetry_space_group_name_H-M   'P 1'
_cell_length_a   8.16557100
_cell_length_b   8.14780074
_cell_length_c   8.27563300
_cell_angle_alpha   90.00000000
_cell_angle_beta   90.00000000
_cell_angle_gamma   120.07216059
_symmetry_Int_Tables_number   1
_chemical_formula_structural   Y7Th(Si3Pt)4
_chemical_formula_sum   'Y7 Th1 Si12 Pt4'
_cell_volume   476.47768050
_cell_formula_units_Z   1
loop_
 _symmetry_equiv_pos_site_id
 _symmetry_equiv_pos_as_xyz
  1  'x, y, z'
loop_
 _atom_site_type_symbol
 _atom_site_label
 _atom_site_symmetry_multiplicity
 _atom_site_fract_x
 _atom_site_fract_y
 _atom_site_fract_z
 _atom_site_occupancy
  Y  Y0  1  0.499248  0.998496  0.750000  1
  Y  Y1  1  0.998785  0.499450  0.250000  1
  Y  Y2  1  0.001616  0.500763  0.750000  1
  Y  Y3  1  0.500665  0.499450  0.250000  1
  Y  Y4  1  0.499147  0.500763  0.750000  1
  Y  Y5  1  0.999982  0.999963  0.250000  1
  Y  Y6  1  0.000000  0.000000  0.750000  1
  Th  Th7  1  0.500654  0.001307  0.250000  1
  Si  Si8  1  0.166008  0.332015  0.001615  1
  Si  Si9  1  0.833968  0.667936  0.999875  1
  Si  Si10  1  0.669739  0.833813  0.998858  1
  Si  Si11  1  0.833968  0.667936  0.500125  1
  Si  Si12  1  0.330273  0.166183  0.997197  1
  Si  Si13  1  0.166008  0.332015  0.498385  1
  Si  Si14  1  0.164075  0.833813  0.998858  1
  Si  Si15  1  0.330273  0.166183  0.502803  1
  Si  Si16  1  0.835910  0.166183  0.997197  1
  Si  Si17  1  0.669739  0.833813  0.501142  1
  Si  Si18  1  0.835910  0.166183  0.502803  1
  Si  Si19  1  0.164075  0.833813  0.501142  1
  Pt  Pt20  1  0.333559  0.667119  0.998344  1
  Pt  Pt21  1  0.666421  0.332842  0.995497  1
  Pt  Pt22  1  0.666421  0.332842  0.504503  1
  Pt  Pt23  1  0.333559  0.667119  0.501656  1
