# generated using pymatgen
data_DyTm15MgCo4Ag3
_symmetry_space_group_name_H-M   'P 1'
_cell_length_a   9.32740639
_cell_length_b   9.33746388
_cell_length_c   9.33746407
_cell_angle_alpha   59.98935303
_cell_angle_beta   59.95218241
_cell_angle_gamma   59.95218455
_symmetry_Int_Tables_number   1
_chemical_formula_structural   DyTm15MgCo4Ag3
_chemical_formula_sum   'Dy1 Tm15 Mg1 Co4 Ag3'
_cell_volume   574.58543069
_cell_formula_units_Z   1
loop_
 _symmetry_equiv_pos_site_id
 _symmetry_equiv_pos_as_xyz
  1  'x, y, z'
loop_
 _atom_site_type_symbol
 _atom_site_label
 _atom_site_symmetry_multiplicity
 _atom_site_fract_x
 _atom_site_fract_y
 _atom_site_fract_z
 _atom_site_occupancy
  Dy  Dy0  1  0.346683  0.345681  0.345681  1
  Tm  Tm1  1  0.346524  0.345463  0.962357  1
  Tm  Tm2  1  0.346524  0.962357  0.345463  1
  Tm  Tm3  1  0.952331  0.349171  0.349171  1
  Tm  Tm4  1  0.810031  0.189022  0.189022  1
  Tm  Tm5  1  0.185866  0.813752  0.813752  1
  Tm  Tm6  1  0.185621  0.814112  0.186570  1
  Tm  Tm7  1  0.809700  0.189257  0.811955  1
  Tm  Tm8  1  0.185621  0.186570  0.814112  1
  Tm  Tm9  1  0.809700  0.811955  0.189257  1
  Tm  Tm10  1  0.934728  0.562928  0.562928  1
  Tm  Tm11  1  0.561981  0.937166  0.937166  1
  Tm  Tm12  1  0.562193  0.936845  0.563881  1
  Tm  Tm13  1  0.935030  0.562748  0.939518  1
  Tm  Tm14  1  0.562193  0.563881  0.936845  1
  Tm  Tm15  1  0.935030  0.939518  0.562748  1
  Mg  Mg16  1  0.287732  0.570872  0.570872  1
  Co  Co17  1  0.138650  0.142551  0.142551  1
  Co  Co18  1  0.138218  0.142081  0.576678  1
  Co  Co19  1  0.138218  0.576678  0.142081  1
  Co  Co20  1  0.576352  0.140952  0.140952  1
  Ag  Ag21  1  0.583598  0.582884  0.582884  1
  Ag  Ag22  1  0.583738  0.583030  0.250525  1
  Ag  Ag23  1  0.583738  0.250525  0.583030  1
