# generated using pymatgen
data_Nb16Ni7AsC4
_symmetry_space_group_name_H-M   'P 1'
_cell_length_a   8.33920216
_cell_length_b   8.33920235
_cell_length_c   8.33920212
_cell_angle_alpha   59.52993946
_cell_angle_beta   59.52993504
_cell_angle_gamma   59.52993894
_symmetry_Int_Tables_number   1
_chemical_formula_structural   Nb16Ni7AsC4
_chemical_formula_sum   'Nb16 Ni7 As1 C4'
_cell_volume   405.68743830
_cell_formula_units_Z   1
loop_
 _symmetry_equiv_pos_site_id
 _symmetry_equiv_pos_as_xyz
  1  'x, y, z'
loop_
 _atom_site_type_symbol
 _atom_site_label
 _atom_site_symmetry_multiplicity
 _atom_site_fract_x
 _atom_site_fract_y
 _atom_site_fract_z
 _atom_site_occupancy
  Nb  Nb0  1  0.435967  0.065178  0.065178  1
  Nb  Nb1  1  0.067076  0.433041  0.433041  1
  Nb  Nb2  1  0.065178  0.435967  0.065178  1
  Nb  Nb3  1  0.065178  0.065178  0.435967  1
  Nb  Nb4  1  0.433041  0.067076  0.433041  1
  Nb  Nb5  1  0.433041  0.433041  0.067076  1
  Nb  Nb6  1  0.182037  0.817826  0.182037  1
  Nb  Nb7  1  0.813057  0.193975  0.813057  1
  Nb  Nb8  1  0.817826  0.182037  0.182037  1
  Nb  Nb9  1  0.182037  0.182037  0.817826  1
  Nb  Nb10  1  0.193975  0.813057  0.813057  1
  Nb  Nb11  1  0.813057  0.813057  0.193975  1
  Nb  Nb12  1  0.623686  0.623686  0.623686  1
  Nb  Nb13  1  0.620924  0.620924  0.124851  1
  Nb  Nb14  1  0.124851  0.620924  0.620924  1
  Nb  Nb15  1  0.620924  0.124851  0.620924  1
  Ni  Ni16  1  0.829893  0.829893  0.505567  1
  Ni  Ni17  1  0.505567  0.829893  0.829893  1
  Ni  Ni18  1  0.829893  0.505567  0.829893  1
  Ni  Ni19  1  0.421574  0.421574  0.421574  1
  Ni  Ni20  1  0.418812  0.418812  0.738331  1
  Ni  Ni21  1  0.418812  0.738331  0.418812  1
  Ni  Ni22  1  0.738331  0.418812  0.418812  1
  As  As23  1  0.843172  0.843172  0.843172  1
  C  C24  1  0.124968  0.626225  0.124968  1
  C  C25  1  0.626225  0.124968  0.124968  1
  C  C26  1  0.124968  0.124968  0.626225  1
  C  C27  1  0.125924  0.125924  0.125924  1
