# generated using pymatgen
data_La3(SnRh)2
_symmetry_space_group_name_H-M   'P 1'
_cell_length_a   6.05199400
_cell_length_b   8.68644700
_cell_length_c   13.89376500
_cell_angle_alpha   90.00000000
_cell_angle_beta   90.00000000
_cell_angle_gamma   90.00000000
_symmetry_Int_Tables_number   1
_chemical_formula_structural   La3(SnRh)2
_chemical_formula_sum   'La12 Sn8 Rh8'
_cell_volume   730.39974326
_cell_formula_units_Z   4
loop_
 _symmetry_equiv_pos_site_id
 _symmetry_equiv_pos_as_xyz
  1  'x, y, z'
loop_
 _atom_site_type_symbol
 _atom_site_label
 _atom_site_symmetry_multiplicity
 _atom_site_fract_x
 _atom_site_fract_y
 _atom_site_fract_z
 _atom_site_occupancy
  La  La0  1  0.634564  0.255394  0.250000  1
  La  La1  1  0.365436  0.744606  0.750000  1
  La  La2  1  0.365436  0.755394  0.250000  1
  La  La3  1  0.634564  0.244606  0.750000  1
  La  La4  1  0.170745  0.397123  0.092373  1
  La  La5  1  0.829255  0.602877  0.907627  1
  La  La6  1  0.829255  0.602877  0.592373  1
  La  La7  1  0.829255  0.897123  0.407627  1
  La  La8  1  0.170745  0.397123  0.407627  1
  La  La9  1  0.170745  0.102877  0.592373  1
  La  La10  1  0.170745  0.102877  0.907627  1
  La  La11  1  0.829255  0.897123  0.092373  1
  Sn  Sn12  1  0.135629  0.106307  0.250000  1
  Sn  Sn13  1  0.864371  0.893693  0.750000  1
  Sn  Sn14  1  0.864371  0.606307  0.250000  1
  Sn  Sn15  1  0.135629  0.393693  0.750000  1
  Sn  Sn16  1  0.663411  0.250000  0.000000  1
  Sn  Sn17  1  0.336589  0.750000  0.000000  1
  Sn  Sn18  1  0.336589  0.750000  0.500000  1
  Sn  Sn19  1  0.663411  0.250000  0.500000  1
  Rh  Rh20  1  0.385771  0.041738  0.091589  1
  Rh  Rh21  1  0.614229  0.958262  0.908411  1
  Rh  Rh22  1  0.614229  0.958262  0.591589  1
  Rh  Rh23  1  0.614229  0.541738  0.408411  1
  Rh  Rh24  1  0.385771  0.041738  0.408411  1
  Rh  Rh25  1  0.385771  0.458262  0.591589  1
  Rh  Rh26  1  0.385771  0.458262  0.908411  1
  Rh  Rh27  1  0.614229  0.541738  0.091589  1
