# generated using pymatgen
data_La2InCuIr
_symmetry_space_group_name_H-M   'P 1'
_cell_length_a   7.85107900
_cell_length_b   7.85904500
_cell_length_c   3.95975000
_cell_angle_alpha   90.00000000
_cell_angle_beta   90.00000000
_cell_angle_gamma   90.00000000
_symmetry_Int_Tables_number   1
_chemical_formula_structural   La2InCuIr
_chemical_formula_sum   'La4 In2 Cu2 Ir2'
_cell_volume   244.32442782
_cell_formula_units_Z   2
loop_
 _symmetry_equiv_pos_site_id
 _symmetry_equiv_pos_as_xyz
  1  'x, y, z'
loop_
 _atom_site_type_symbol
 _atom_site_label
 _atom_site_symmetry_multiplicity
 _atom_site_fract_x
 _atom_site_fract_y
 _atom_site_fract_z
 _atom_site_occupancy
  La  La0  1  0.677806  0.188650  0.500000  1
  La  La1  1  0.177806  0.311350  0.500000  1
  La  La2  1  0.820590  0.660771  0.500000  1
  La  La3  1  0.320590  0.839229  0.500000  1
  In  In4  1  0.998269  0.997139  0.000000  1
  In  In5  1  0.498269  0.502861  0.000000  1
  Cu  Cu6  1  0.123430  0.618353  0.000000  1
  Cu  Cu7  1  0.623430  0.881647  0.000000  1
  Ir  Ir8  1  0.379906  0.114820  0.000000  1
  Ir  Ir9  1  0.879906  0.385180  0.000000  1
