# generated using pymatgen
data_W(S4F3)2
_symmetry_space_group_name_H-M   'P 1'
_cell_length_a   8.14262116
_cell_length_b   8.17515985
_cell_length_c   12.43357247
_cell_angle_alpha   97.53267504
_cell_angle_beta   99.80816225
_cell_angle_gamma   90.37904965
_symmetry_Int_Tables_number   1
_chemical_formula_structural   W(S4F3)2
_chemical_formula_sum   'W2 S16 F12'
_cell_volume   808.17776011
_cell_formula_units_Z   2
loop_
 _symmetry_equiv_pos_site_id
 _symmetry_equiv_pos_as_xyz
  1  'x, y, z'
loop_
 _atom_site_type_symbol
 _atom_site_label
 _atom_site_symmetry_multiplicity
 _atom_site_fract_x
 _atom_site_fract_y
 _atom_site_fract_z
 _atom_site_occupancy
  W  W0  1  0.711462  0.220041  0.902013  1
  W  W1  1  0.288538  0.779959  0.097987  1
  S  S2  1  0.446102  0.752922  0.664474  1
  S  S3  1  0.553898  0.247078  0.335526  1
  S  S4  1  0.279369  0.901987  0.582268  1
  S  S5  1  0.720631  0.098013  0.417732  1
  S  S6  1  0.102185  0.974201  0.677844  1
  S  S7  1  0.897815  0.025799  0.322156  1
  S  S8  1  0.892225  0.823344  0.626170  1
  S  S9  1  0.107775  0.176656  0.373830  1
  S  S10  1  0.898191  0.639543  0.725735  1
  S  S11  1  0.101809  0.360457  0.274265  1
  S  S12  1  0.991277  0.429540  0.650197  1
  S  S13  1  0.008723  0.570460  0.349803  1
  S  S14  1  0.241451  0.419291  0.713475  1
  S  S15  1  0.758549  0.580709  0.286525  1
  S  S16  1  0.621047  0.490896  0.391912  1
  S  S17  1  0.378953  0.509104  0.608088  1
  F  F18  1  0.746889  0.247330  0.056669  1
  F  F19  1  0.253111  0.752670  0.943331  1
  F  F20  1  0.673643  0.192289  0.747058  1
  F  F21  1  0.326357  0.807711  0.252942  1
  F  F22  1  0.490291  0.148292  0.898363  1
  F  F23  1  0.509709  0.851708  0.101637  1
  F  F24  1  0.642964  0.439520  0.902892  1
  F  F25  1  0.357036  0.560480  0.097108  1
  F  F26  1  0.932616  0.291461  0.905367  1
  F  F27  1  0.067384  0.708539  0.094633  1
  F  F28  1  0.781622  0.000989  0.899862  1
  F  F29  1  0.218378  0.999011  0.100138  1
