# generated using pymatgen
data_EuGa2PtRh
_symmetry_space_group_name_H-M   'P 1'
_cell_length_a   4.36484200
_cell_length_b   4.36484200
_cell_length_c   10.16745100
_cell_angle_alpha   90.00000000
_cell_angle_beta   90.00000000
_cell_angle_gamma   90.00000000
_symmetry_Int_Tables_number   1
_chemical_formula_structural   EuGa2PtRh
_chemical_formula_sum   'Eu2 Ga4 Pt2 Rh2'
_cell_volume   193.70870746
_cell_formula_units_Z   2
loop_
 _symmetry_equiv_pos_site_id
 _symmetry_equiv_pos_as_xyz
  1  'x, y, z'
loop_
 _atom_site_type_symbol
 _atom_site_label
 _atom_site_symmetry_multiplicity
 _atom_site_fract_x
 _atom_site_fract_y
 _atom_site_fract_z
 _atom_site_occupancy
  Eu  Eu0  1  0.000000  0.500001  0.238980  1
  Eu  Eu1  1  0.500001  0.000000  0.761020  1
  Ga  Ga2  1  0.500001  0.000000  0.119370  1
  Ga  Ga3  1  0.000000  0.000000  0.500000  1
  Ga  Ga4  1  0.500001  0.500001  0.500000  1
  Ga  Ga5  1  0.000000  0.500001  0.880630  1
  Pt  Pt6  1  0.500001  0.000000  0.368373  1
  Pt  Pt7  1  0.000000  0.500001  0.631627  1
  Rh  Rh8  1  0.000000  0.000000  0.000000  1
  Rh  Rh9  1  0.500001  0.500001  0.000000  1
