# generated using pymatgen
data_YbGaAu5
_symmetry_space_group_name_H-M   'P 1'
_cell_length_a   5.71542223
_cell_length_b   5.71542234
_cell_length_c   5.71542316
_cell_angle_alpha   102.76641254
_cell_angle_beta   102.76639783
_cell_angle_gamma   123.92084699
_symmetry_Int_Tables_number   1
_chemical_formula_structural   YbGaAu5
_chemical_formula_sum   'Yb1 Ga1 Au5'
_cell_volume   136.74091983
_cell_formula_units_Z   1
loop_
 _symmetry_equiv_pos_site_id
 _symmetry_equiv_pos_as_xyz
  1  'x, y, z'
loop_
 _atom_site_type_symbol
 _atom_site_label
 _atom_site_symmetry_multiplicity
 _atom_site_fract_x
 _atom_site_fract_y
 _atom_site_fract_z
 _atom_site_occupancy
  Yb  Yb0  1  0.000000  0.000000  0.000000  1
  Ga  Ga1  1  0.750000  0.250000  0.500000  1
  Au  Au2  1  0.301439  0.698561  0.000000  1
  Au  Au3  1  0.698561  0.301439  0.000000  1
  Au  Au4  1  0.698561  0.698561  0.397119  1
  Au  Au5  1  0.301439  0.301439  0.602881  1
  Au  Au6  1  0.250000  0.750000  0.500000  1
