# generated using pymatgen
data_Li5Sm4Co12(NiP4)3
_symmetry_space_group_name_H-M   'P 1'
_cell_length_a   3.72552500
_cell_length_b   10.35569833
_cell_length_c   12.14671584
_cell_angle_alpha   89.75355536
_cell_angle_beta   90.00000000
_cell_angle_gamma   90.00000000
_symmetry_Int_Tables_number   1
_chemical_formula_structural   Li5Sm4Co12(NiP4)3
_chemical_formula_sum   'Li5 Sm4 Co12 Ni3 P12'
_cell_volume   468.62097901
_cell_formula_units_Z   1
loop_
 _symmetry_equiv_pos_site_id
 _symmetry_equiv_pos_as_xyz
  1  'x, y, z'
loop_
 _atom_site_type_symbol
 _atom_site_label
 _atom_site_symmetry_multiplicity
 _atom_site_fract_x
 _atom_site_fract_y
 _atom_site_fract_z
 _atom_site_occupancy
  Li  Li0  1  0.250000  0.701478  0.992594  1
  Li  Li1  1  0.250000  0.799368  0.494398  1
  Li  Li2  1  0.750000  0.299009  0.009264  1
  Li  Li3  1  0.750000  0.200884  0.508238  1
  Li  Li4  1  0.250000  0.404233  0.493765  1
  Sm  Sm5  1  0.250000  0.583741  0.707897  1
  Sm  Sm6  1  0.250000  0.917782  0.204641  1
  Sm  Sm7  1  0.750000  0.418545  0.293657  1
  Sm  Sm8  1  0.750000  0.081604  0.794172  1
  Co  Co9  1  0.250000  0.216225  0.166588  1
  Co  Co10  1  0.250000  0.284343  0.677085  1
  Co  Co11  1  0.750000  0.781571  0.826833  1
  Co  Co12  1  0.750000  0.720031  0.325402  1
  Co  Co13  1  0.250000  0.883273  0.698097  1
  Co  Co14  1  0.250000  0.620621  0.196468  1
  Co  Co15  1  0.750000  0.115697  0.297174  1
  Co  Co16  1  0.750000  0.380227  0.808038  1
  Co  Co17  1  0.250000  0.467798  0.935076  1
  Co  Co18  1  0.250000  0.033111  0.432518  1
  Co  Co19  1  0.750000  0.532376  0.067928  1
  Co  Co20  1  0.750000  0.969818  0.565980  1
  Ni  Ni21  1  0.250000  0.090695  0.984930  1
  Ni  Ni22  1  0.750000  0.589369  0.511846  1
  Ni  Ni23  1  0.750000  0.906136  0.011609  1
  P  P24  1  0.250000  0.421844  0.112540  1
  P  P25  1  0.250000  0.081143  0.612162  1
  P  P26  1  0.750000  0.578604  0.889481  1
  P  P27  1  0.750000  0.922450  0.387690  1
  P  P28  1  0.250000  0.275634  0.861216  1
  P  P29  1  0.250000  0.217346  0.346643  1
  P  P30  1  0.750000  0.723610  0.141222  1
  P  P31  1  0.750000  0.780002  0.643470  1
  P  P32  1  0.250000  0.612125  0.384399  1
  P  P33  1  0.250000  0.893496  0.887282  1
  P  P34  1  0.750000  0.392677  0.622370  1
  P  P35  1  0.750000  0.103139  0.107331  1
