# generated using pymatgen
data_Dy3Er(MoOs3)2
_symmetry_space_group_name_H-M   'P 1'
_cell_length_a   5.47214900
_cell_length_b   5.47214921
_cell_length_c   8.57475100
_cell_angle_alpha   90.00000000
_cell_angle_beta   90.00000000
_cell_angle_gamma   120.00000478
_symmetry_Int_Tables_number   1
_chemical_formula_structural   Dy3Er(MoOs3)2
_chemical_formula_sum   'Dy3 Er1 Mo2 Os6'
_cell_volume   222.36578975
_cell_formula_units_Z   1
loop_
 _symmetry_equiv_pos_site_id
 _symmetry_equiv_pos_as_xyz
  1  'x, y, z'
loop_
 _atom_site_type_symbol
 _atom_site_label
 _atom_site_symmetry_multiplicity
 _atom_site_fract_x
 _atom_site_fract_y
 _atom_site_fract_z
 _atom_site_occupancy
  Dy  Dy0  1  0.333333  0.666667  0.434762  1
  Dy  Dy1  1  0.666667  0.333333  0.565209  1
  Dy  Dy2  1  0.666667  0.333333  0.934835  1
  Er  Er3  1  0.333333  0.666667  0.065155  1
  Mo  Mo4  1  0.000000  0.000000  0.500005  1
  Mo  Mo5  1  0.000000  0.000000  0.000011  1
  Os  Os6  1  0.827379  0.172621  0.249894  1
  Os  Os7  1  0.827379  0.654757  0.249894  1
  Os  Os8  1  0.345243  0.172621  0.249894  1
  Os  Os9  1  0.172663  0.827337  0.750113  1
  Os  Os10  1  0.172663  0.345327  0.750113  1
  Os  Os11  1  0.654673  0.827337  0.750113  1
