# generated using pymatgen
data_Ca2PrU(Al3Ir)6
_symmetry_space_group_name_H-M   'P 1'
_cell_length_a   7.57844754
_cell_length_b   7.60894193
_cell_length_c   9.53863200
_cell_angle_alpha   90.00000000
_cell_angle_beta   90.00000000
_cell_angle_gamma   119.25987365
_symmetry_Int_Tables_number   1
_chemical_formula_structural   Ca2PrU(Al3Ir)6
_chemical_formula_sum   'Ca2 Pr1 U1 Al18 Ir6'
_cell_volume   479.85733663
_cell_formula_units_Z   1
loop_
 _symmetry_equiv_pos_site_id
 _symmetry_equiv_pos_as_xyz
  1  'x, y, z'
loop_
 _atom_site_type_symbol
 _atom_site_label
 _atom_site_symmetry_multiplicity
 _atom_site_fract_x
 _atom_site_fract_y
 _atom_site_fract_z
 _atom_site_occupancy
  Ca  Ca0  1  0.004208  0.325050  0.250000  1
  Ca  Ca1  1  0.671031  0.995236  0.750000  1
  Pr  Pr2  1  0.996724  0.671212  0.750000  1
  U  U3  1  0.325050  0.002686  0.250000  1
  Al  Al4  1  0.127889  0.129818  0.750000  1
  Al  Al5  1  0.868727  0.866494  0.250000  1
  Al  Al6  1  0.001260  0.332685  0.570135  1
  Al  Al7  1  0.997151  0.660726  0.420749  1
  Al  Al8  1  0.997151  0.660726  0.079251  1
  Al  Al9  1  0.339270  0.004583  0.927337  1
  Al  Al10  1  0.001260  0.332685  0.929865  1
  Al  Al11  1  0.665361  0.000143  0.075081  1
  Al  Al12  1  0.665361  0.000143  0.424919  1
  Al  Al13  1  0.339270  0.004583  0.572663  1
  Al  Al14  1  0.334212  0.335842  0.052956  1
  Al  Al15  1  0.666157  0.668053  0.954505  1
  Al  Al16  1  0.666157  0.668053  0.545495  1
  Al  Al17  1  0.334212  0.335842  0.447044  1
  Al  Al18  1  0.338431  0.546473  0.750000  1
  Al  Al19  1  0.652110  0.448602  0.250000  1
  Al  Al20  1  0.547743  0.338145  0.750000  1
  Al  Al21  1  0.453235  0.666418  0.250000  1
  Ir  Ir22  1  0.670108  0.328675  0.496902  1
  Ir  Ir23  1  0.328783  0.673305  0.496740  1
  Ir  Ir24  1  0.328783  0.673305  0.003260  1
  Ir  Ir25  1  0.670108  0.328675  0.003098  1
  Ir  Ir26  1  0.005126  0.000920  0.494251  1
  Ir  Ir27  1  0.005126  0.000920  0.005749  1
