# generated using pymatgen
data_Tb8Ta2Ti9Si16Ru
_symmetry_space_group_name_H-M   'P 1'
_cell_length_a   7.03738673
_cell_length_b   7.03738678
_cell_length_c   12.93575238
_cell_angle_alpha   90.12848488
_cell_angle_beta   89.87151580
_cell_angle_gamma   89.73284586
_symmetry_Int_Tables_number   1
_chemical_formula_structural   Tb8Ta2Ti9Si16Ru
_chemical_formula_sum   'Tb8 Ta2 Ti9 Si16 Ru1'
_cell_volume   640.63050800
_cell_formula_units_Z   1
loop_
 _symmetry_equiv_pos_site_id
 _symmetry_equiv_pos_as_xyz
  1  'x, y, z'
loop_
 _atom_site_type_symbol
 _atom_site_label
 _atom_site_symmetry_multiplicity
 _atom_site_fract_x
 _atom_site_fract_y
 _atom_site_fract_z
 _atom_site_occupancy
  Tb  Tb0  1  0.340397  0.004020  0.467279  1
  Tb  Tb1  1  0.496987  0.841246  0.718164  1
  Tb  Tb2  1  0.501177  0.159209  0.215527  1
  Tb  Tb3  1  0.841246  0.496987  0.281836  1
  Tb  Tb4  1  0.159209  0.501177  0.784473  1
  Tb  Tb5  1  0.658739  0.998740  0.968495  1
  Tb  Tb6  1  0.004020  0.340397  0.532721  1
  Tb  Tb7  1  0.998740  0.658739  0.031505  1
  Ta  Ta8  1  0.174602  0.826971  0.248388  1
  Ta  Ta9  1  0.826971  0.174602  0.751612  1
  Ti  Ti10  1  0.673868  0.673868  0.500000  1
  Ti  Ti11  1  0.149881  0.004172  0.875220  1
  Ti  Ti12  1  0.491373  0.657861  0.126035  1
  Ti  Ti13  1  0.508980  0.346503  0.628898  1
  Ti  Ti14  1  0.657861  0.491373  0.873965  1
  Ti  Ti15  1  0.346503  0.508980  0.371102  1
  Ti  Ti16  1  0.847977  0.992959  0.374400  1
  Ti  Ti17  1  0.004172  0.149881  0.124780  1
  Ti  Ti18  1  0.992959  0.847977  0.625600  1
  Si  Si19  1  0.202094  0.130901  0.685660  1
  Si  Si20  1  0.373966  0.698416  0.934737  1
  Si  Si21  1  0.629863  0.297429  0.435070  1
  Si  Si22  1  0.698416  0.373966  0.065263  1
  Si  Si23  1  0.297429  0.629863  0.564930  1
  Si  Si24  1  0.797290  0.869341  0.184749  1
  Si  Si25  1  0.130901  0.202094  0.314340  1
  Si  Si26  1  0.869341  0.797290  0.815251  1
  Si  Si27  1  0.287692  0.954349  0.063073  1
  Si  Si28  1  0.547206  0.791691  0.315641  1
  Si  Si29  1  0.450042  0.209567  0.818147  1
  Si  Si30  1  0.791691  0.547206  0.684359  1
  Si  Si31  1  0.209567  0.450042  0.181853  1
  Si  Si32  1  0.708419  0.047245  0.565059  1
  Si  Si33  1  0.954349  0.287692  0.936927  1
  Si  Si34  1  0.047245  0.708419  0.434941  1
  Ru  Ru35  1  0.328826  0.328826  0.000000  1
