# generated using pymatgen
data_TbDyTc4Ni6P7Ru2
_symmetry_space_group_name_H-M   'P 1'
_cell_length_a   9.37599800
_cell_length_b   9.37599897
_cell_length_c   3.72919200
_cell_angle_alpha   90.00000000
_cell_angle_beta   90.00000000
_cell_angle_gamma   120.00000362
_symmetry_Int_Tables_number   1
_chemical_formula_structural   TbDyTc4Ni6P7Ru2
_chemical_formula_sum   'Tb1 Dy1 Tc4 Ni6 P7 Ru2'
_cell_volume   283.90982164
_cell_formula_units_Z   1
loop_
 _symmetry_equiv_pos_site_id
 _symmetry_equiv_pos_as_xyz
  1  'x, y, z'
loop_
 _atom_site_type_symbol
 _atom_site_label
 _atom_site_symmetry_multiplicity
 _atom_site_fract_x
 _atom_site_fract_y
 _atom_site_fract_z
 _atom_site_occupancy
  Tb  Tb0  1  0.997841  0.998011  0.500000  1
  Dy  Dy1  1  0.668158  0.334156  0.000000  1
  Tc  Tc2  1  0.378515  0.276517  0.500000  1
  Tc  Tc3  1  0.546337  0.758185  0.500000  1
  Tc  Tc4  1  0.243371  0.790213  0.500000  1
  Tc  Tc5  1  0.213296  0.460478  0.500000  1
  Ni  Ni6  1  0.762709  0.730256  0.000000  1
  Ni  Ni7  1  0.270845  0.030205  0.000000  1
  Ni  Ni8  1  0.968294  0.237712  0.000000  1
  Ni  Ni9  1  0.493777  0.943635  0.000000  1
  Ni  Ni10  1  0.054203  0.548239  0.000000  1
  Ni  Ni11  1  0.451748  0.507942  0.000000  1
  P  P12  1  0.451718  0.070321  0.500000  1
  P  P13  1  0.930599  0.380269  0.500000  1
  P  P14  1  0.618081  0.548332  0.500000  1
  P  P15  1  0.332952  0.665881  0.000000  1
  P  P16  1  0.743000  0.960011  0.000000  1
  P  P17  1  0.039197  0.782245  0.000000  1
  P  P18  1  0.216032  0.254960  0.000000  1
  Ru  Ru19  1  0.723988  0.103870  0.500000  1
  Ru  Ru20  1  0.895337  0.618563  0.500000  1
