# generated using pymatgen
data_Ce2MnC4
_symmetry_space_group_name_H-M   'P 1'
_cell_length_a   6.75812029
_cell_length_b   6.75811970
_cell_length_c   6.75811921
_cell_angle_alpha   135.52910286
_cell_angle_beta   112.48259275
_cell_angle_gamma   84.49059322
_symmetry_Int_Tables_number   1
_chemical_formula_structural   Ce2MnC4
_chemical_formula_sum   'Ce4 Mn2 C8'
_cell_volume   192.19146369
_cell_formula_units_Z   2
loop_
 _symmetry_equiv_pos_site_id
 _symmetry_equiv_pos_as_xyz
  1  'x, y, z'
loop_
 _atom_site_type_symbol
 _atom_site_label
 _atom_site_symmetry_multiplicity
 _atom_site_fract_x
 _atom_site_fract_y
 _atom_site_fract_z
 _atom_site_occupancy
  Ce  Ce0  1  0.521124  0.855416  0.665707  1
  Ce  Ce1  1  0.478876  0.144584  0.334293  1
  Ce  Ce2  1  0.810291  0.644584  0.165707  1
  Ce  Ce3  1  0.189709  0.355416  0.834293  1
  Mn  Mn4  1  0.000000  0.250000  0.250000  1
  Mn  Mn5  1  0.000000  0.750000  0.750000  1
  C  C6  1  0.247688  0.580088  0.667601  1
  C  C7  1  0.752312  0.419912  0.332399  1
  C  C8  1  0.087512  0.919912  0.167601  1
  C  C9  1  0.912488  0.080088  0.832399  1
  C  C10  1  0.466797  0.622160  0.844636  1
  C  C11  1  0.533203  0.377840  0.155364  1
  C  C12  1  0.777524  0.122160  0.655364  1
  C  C13  1  0.222476  0.877840  0.344636  1
