# generated using pymatgen
data_Tb3ZnCd3PtAu
_symmetry_space_group_name_H-M   'P 1'
_cell_length_a   7.86012400
_cell_length_b   7.86012345
_cell_length_c   3.79663400
_cell_angle_alpha   90.00000000
_cell_angle_beta   90.00000000
_cell_angle_gamma   119.99999391
_symmetry_Int_Tables_number   1
_chemical_formula_structural   Tb3ZnCd3PtAu
_chemical_formula_sum   'Tb3 Zn1 Cd3 Pt1 Au1'
_cell_volume   203.13658887
_cell_formula_units_Z   1
loop_
 _symmetry_equiv_pos_site_id
 _symmetry_equiv_pos_as_xyz
  1  'x, y, z'
loop_
 _atom_site_type_symbol
 _atom_site_label
 _atom_site_symmetry_multiplicity
 _atom_site_fract_x
 _atom_site_fract_y
 _atom_site_fract_z
 _atom_site_occupancy
  Tb  Tb0  1  0.579667  0.983899  0.000000  1
  Tb  Tb1  1  0.016101  0.595770  0.000000  1
  Tb  Tb2  1  0.404230  0.420333  0.000000  1
  Zn  Zn3  1  0.000000  0.000000  0.000000  1
  Cd  Cd4  1  0.255817  0.002172  0.500000  1
  Cd  Cd5  1  0.997828  0.253644  0.500000  1
  Cd  Cd6  1  0.746356  0.744183  0.500000  1
  Pt  Pt7  1  0.333333  0.666667  0.500000  1
  Au  Au8  1  0.666667  0.333333  0.500000  1
