# generated using pymatgen
data_Sc2Pa2MnB12Ru
_symmetry_space_group_name_H-M   'P 1'
_cell_length_a   3.55862300
_cell_length_b   8.97847921
_cell_length_c   11.33513380
_cell_angle_alpha   90.04474500
_cell_angle_beta   90.00000000
_cell_angle_gamma   90.00000000
_symmetry_Int_Tables_number   1
_chemical_formula_structural   Sc2Pa2MnB12Ru
_chemical_formula_sum   'Sc4 Pa4 Mn2 B24 Ru2'
_cell_volume   362.16900607
_cell_formula_units_Z   2
loop_
 _symmetry_equiv_pos_site_id
 _symmetry_equiv_pos_as_xyz
  1  'x, y, z'
loop_
 _atom_site_type_symbol
 _atom_site_label
 _atom_site_symmetry_multiplicity
 _atom_site_fract_x
 _atom_site_fract_y
 _atom_site_fract_z
 _atom_site_occupancy
  Sc  Sc0  1  0.000000  0.441733  0.125116  1
  Sc  Sc1  1  0.000000  0.558267  0.874884  1
  Sc  Sc2  1  0.000000  0.947991  0.372743  1
  Sc  Sc3  1  0.000000  0.052009  0.627257  1
  Pa  Pa4  1  0.000000  0.824757  0.084288  1
  Pa  Pa5  1  0.000000  0.175243  0.915712  1
  Pa  Pa6  1  0.000000  0.320125  0.412021  1
  Pa  Pa7  1  0.000000  0.679875  0.587979  1
  Mn  Mn8  1  0.000000  0.140479  0.180723  1
  Mn  Mn9  1  0.000000  0.859521  0.819277  1
  B  B10  1  0.500000  0.055157  0.068410  1
  B  B11  1  0.500000  0.944843  0.931590  1
  B  B12  1  0.500000  0.553383  0.433673  1
  B  B13  1  0.500000  0.446617  0.566327  1
  B  B14  1  0.500000  0.250831  0.082228  1
  B  B15  1  0.500000  0.749169  0.917772  1
  B  B16  1  0.500000  0.754280  0.418584  1
  B  B17  1  0.500000  0.245720  0.581416  1
  B  B18  1  0.500000  0.293470  0.233547  1
  B  B19  1  0.500000  0.706530  0.766453  1
  B  B20  1  0.500000  0.796615  0.264631  1
  B  B21  1  0.500000  0.203385  0.735369  1
  B  B22  1  0.500000  0.131026  0.315738  1
  B  B23  1  0.500000  0.868974  0.684262  1
  B  B24  1  0.500000  0.630945  0.181374  1
  B  B25  1  0.500000  0.369055  0.818626  1
  B  B26  1  0.500000  0.481683  0.283742  1
  B  B27  1  0.500000  0.518317  0.716258  1
  B  B28  1  0.500000  0.984374  0.214390  1
  B  B29  1  0.500000  0.015626  0.785610  1
  B  B30  1  0.500000  0.100759  0.472823  1
  B  B31  1  0.500000  0.899241  0.527177  1
  B  B32  1  0.500000  0.601253  0.027306  1
  B  B33  1  0.500000  0.398747  0.972694  1
  Ru  Ru34  1  0.000000  0.641453  0.318679  1
  Ru  Ru35  1  0.000000  0.358547  0.681321  1
