# generated using pymatgen
data_Hf3ZrTi2(VP2)2
_symmetry_space_group_name_H-M   'P 1'
_cell_length_a   3.50153900
_cell_length_b   6.67355141
_cell_length_c   8.05551597
_cell_angle_alpha   90.17087649
_cell_angle_beta   90.00000000
_cell_angle_gamma   90.00000000
_symmetry_Int_Tables_number   1
_chemical_formula_structural   Hf3ZrTi2(VP2)2
_chemical_formula_sum   'Hf3 Zr1 Ti2 V2 P4'
_cell_volume   188.23804762
_cell_formula_units_Z   1
loop_
 _symmetry_equiv_pos_site_id
 _symmetry_equiv_pos_as_xyz
  1  'x, y, z'
loop_
 _atom_site_type_symbol
 _atom_site_label
 _atom_site_symmetry_multiplicity
 _atom_site_fract_x
 _atom_site_fract_y
 _atom_site_fract_z
 _atom_site_occupancy
  Hf  Hf0  1  0.250000  0.040472  0.832446  1
  Hf  Hf1  1  0.250000  0.540078  0.666365  1
  Hf  Hf2  1  0.750000  0.463671  0.330555  1
  Zr  Zr3  1  0.750000  0.963479  0.169799  1
  Ti  Ti4  1  0.250000  0.132500  0.442472  1
  Ti  Ti5  1  0.250000  0.631339  0.057229  1
  V  V6  1  0.750000  0.864400  0.560725  1
  V  V7  1  0.750000  0.365333  0.939726  1
  P  P8  1  0.250000  0.760705  0.366743  1
  P  P9  1  0.250000  0.263689  0.134195  1
  P  P10  1  0.750000  0.237047  0.643035  1
  P  P11  1  0.750000  0.737288  0.856710  1
