# generated using pymatgen
data_Ca5YSi24Ru5Rh3
_symmetry_space_group_name_H-M   'P 1'
_cell_length_a   10.16365501
_cell_length_b   10.16365153
_cell_length_c   8.18348501
_cell_angle_alpha   89.99926300
_cell_angle_beta   89.99936912
_cell_angle_gamma   132.52429252
_symmetry_Int_Tables_number   1
_chemical_formula_structural   Ca5YSi24Ru5Rh3
_chemical_formula_sum   'Ca5 Y1 Si24 Ru5 Rh3'
_cell_volume   623.01722965
_cell_formula_units_Z   1
loop_
 _symmetry_equiv_pos_site_id
 _symmetry_equiv_pos_as_xyz
  1  'x, y, z'
loop_
 _atom_site_type_symbol
 _atom_site_label
 _atom_site_symmetry_multiplicity
 _atom_site_fract_x
 _atom_site_fract_y
 _atom_site_fract_z
 _atom_site_occupancy
  Ca  Ca0  1  0.999721  0.000280  0.000002  1
  Ca  Ca1  1  0.002357  0.501776  0.249908  1
  Ca  Ca2  1  0.498224  0.997639  0.750099  1
  Ca  Ca3  1  0.998007  0.497324  0.749550  1
  Ca  Ca4  1  0.502682  0.001999  0.250444  1
  Y  Y5  1  0.499744  0.500254  0.500000  1
  Si  Si6  1  0.295518  0.704478  0.000002  1
  Si  Si7  1  0.795267  0.204731  0.500000  1
  Si  Si8  1  0.705660  0.294344  0.999999  1
  Si  Si9  1  0.206886  0.793119  0.500000  1
  Si  Si10  1  0.832391  0.836086  0.331819  1
  Si  Si11  1  0.163914  0.167608  0.668181  1
  Si  Si12  1  0.667886  0.668534  0.834025  1
  Si  Si13  1  0.331466  0.332115  0.165974  1
  Si  Si14  1  0.620469  0.387671  0.224469  1
  Si  Si15  1  0.612329  0.379531  0.775530  1
  Si  Si16  1  0.109734  0.877980  0.726179  1
  Si  Si17  1  0.122019  0.890266  0.273823  1
  Si  Si18  1  0.376390  0.609249  0.771588  1
  Si  Si19  1  0.390751  0.623610  0.228412  1
  Si  Si20  1  0.887729  0.120205  0.274875  1
  Si  Si21  1  0.879796  0.112271  0.725123  1
  Si  Si22  1  0.841805  0.610368  0.002367  1
  Si  Si23  1  0.389632  0.158195  0.997634  1
  Si  Si24  1  0.891801  0.659659  0.504577  1
  Si  Si25  1  0.340340  0.108198  0.495422  1
  Si  Si26  1  0.158839  0.390236  0.995863  1
  Si  Si27  1  0.609765  0.841161  0.004137  1
  Si  Si28  1  0.111526  0.344222  0.496738  1
  Si  Si29  1  0.655777  0.888473  0.503261  1
  Ru  Ru30  1  0.331986  0.668014  0.500001  1
  Ru  Ru31  1  0.625373  0.624168  0.127566  1
  Ru  Ru32  1  0.375833  0.374627  0.872433  1
  Ru  Ru33  1  0.872854  0.872438  0.624820  1
  Ru  Ru34  1  0.127562  0.127146  0.375179  1
  Rh  Rh35  1  0.168560  0.831438  0.000003  1
  Rh  Rh36  1  0.667292  0.332705  0.500000  1
  Rh  Rh37  1  0.832116  0.167883  0.999999  1
