# generated using pymatgen
data_Ca9Tm(Sn3H)2
_symmetry_space_group_name_H-M   'P 1'
_cell_length_a   9.42373752
_cell_length_b   9.42373769
_cell_length_c   9.42373855
_cell_angle_alpha   128.89735617
_cell_angle_beta   128.89736208
_cell_angle_gamma   75.17578326
_symmetry_Int_Tables_number   1
_chemical_formula_structural   Ca9Tm(Sn3H)2
_chemical_formula_sum   'Ca9 Tm1 Sn6 H2'
_cell_volume   493.49434074
_cell_formula_units_Z   1
loop_
 _symmetry_equiv_pos_site_id
 _symmetry_equiv_pos_as_xyz
  1  'x, y, z'
loop_
 _atom_site_type_symbol
 _atom_site_label
 _atom_site_symmetry_multiplicity
 _atom_site_fract_x
 _atom_site_fract_y
 _atom_site_fract_z
 _atom_site_occupancy
  Ca  Ca0  1  0.000000  0.000000  0.000000  1
  Ca  Ca1  1  0.509598  0.009895  0.823380  1
  Ca  Ca2  1  0.186514  0.686218  0.176620  1
  Ca  Ca3  1  0.009895  0.186514  0.500296  1
  Ca  Ca4  1  0.686218  0.509598  0.499704  1
  Ca  Ca5  1  0.490402  0.990105  0.176620  1
  Ca  Ca6  1  0.813486  0.313782  0.823380  1
  Ca  Ca7  1  0.990105  0.813486  0.499704  1
  Ca  Ca8  1  0.313782  0.490402  0.500296  1
  Tm  Tm9  1  0.500000  0.500000  0.000000  1
  Sn  Sn10  1  0.251707  0.251707  0.000000  1
  Sn  Sn11  1  0.748293  0.748293  0.000000  1
  Sn  Sn12  1  0.866440  0.374725  0.241165  1
  Sn  Sn13  1  0.133560  0.625275  0.758835  1
  Sn  Sn14  1  0.374725  0.133560  0.508285  1
  Sn  Sn15  1  0.625275  0.866440  0.491715  1
  H  H16  1  0.250000  0.750000  0.500000  1
  H  H17  1  0.750000  0.250000  0.500000  1
