# generated using pymatgen
data_Pr2Fe2NiN3
_symmetry_space_group_name_H-M   'P 1'
_cell_length_a   6.33715087
_cell_length_b   6.33714890
_cell_length_c   6.20246600
_cell_angle_alpha   88.67796984
_cell_angle_beta   88.67797025
_cell_angle_gamma   117.88895831
_symmetry_Int_Tables_number   1
_chemical_formula_structural   Pr2Fe2NiN3
_chemical_formula_sum   'Pr4 Fe4 Ni2 N6'
_cell_volume   219.93734605
_cell_formula_units_Z   2
loop_
 _symmetry_equiv_pos_site_id
 _symmetry_equiv_pos_as_xyz
  1  'x, y, z'
loop_
 _atom_site_type_symbol
 _atom_site_label
 _atom_site_symmetry_multiplicity
 _atom_site_fract_x
 _atom_site_fract_y
 _atom_site_fract_z
 _atom_site_occupancy
  Pr  Pr0  1  0.827580  0.671391  0.902714  1
  Pr  Pr1  1  0.328609  0.172420  0.597286  1
  Pr  Pr2  1  0.172420  0.328609  0.097286  1
  Pr  Pr3  1  0.671391  0.827580  0.402714  1
  Fe  Fe4  1  0.574728  0.169469  0.102524  1
  Fe  Fe5  1  0.425272  0.830531  0.897476  1
  Fe  Fe6  1  0.830531  0.425272  0.397476  1
  Fe  Fe7  1  0.169469  0.574728  0.602524  1
  Ni  Ni8  1  0.818020  0.181980  0.750000  1
  Ni  Ni9  1  0.181980  0.818020  0.250000  1
  N  N10  1  0.427181  0.572819  0.750000  1
  N  N11  1  0.572819  0.427181  0.250000  1
  N  N12  1  0.001149  0.734557  0.512497  1
  N  N13  1  0.734557  0.001149  0.012497  1
  N  N14  1  0.998851  0.265443  0.487503  1
  N  N15  1  0.265443  0.998851  0.987503  1
