# generated using pymatgen
data_NdHo19Sn16
_symmetry_space_group_name_H-M   'P 1'
_cell_length_a   8.02878834
_cell_length_b   8.16290879
_cell_length_c   15.42982097
_cell_angle_alpha   90.01231779
_cell_angle_beta   89.67287823
_cell_angle_gamma   90.13591230
_symmetry_Int_Tables_number   1
_chemical_formula_structural   NdHo19Sn16
_chemical_formula_sum   'Nd1 Ho19 Sn16'
_cell_volume   1011.22437875
_cell_formula_units_Z   1
loop_
 _symmetry_equiv_pos_site_id
 _symmetry_equiv_pos_as_xyz
  1  'x, y, z'
loop_
 _atom_site_type_symbol
 _atom_site_label
 _atom_site_symmetry_multiplicity
 _atom_site_fract_x
 _atom_site_fract_y
 _atom_site_fract_z
 _atom_site_occupancy
  Nd  Nd0  1  0.516631  0.320305  0.404202  1
  Ho  Ho1  1  0.019970  0.177918  0.402878  1
  Ho  Ho2  1  0.368029  0.837260  0.121298  1
  Ho  Ho3  1  0.134143  0.336900  0.623365  1
  Ho  Ho4  1  0.478740  0.678912  0.902358  1
  Ho  Ho5  1  0.868908  0.662742  0.121845  1
  Ho  Ho6  1  0.131496  0.337782  0.877639  1
  Ho  Ho7  1  0.198598  0.503461  0.249079  1
  Ho  Ho8  1  0.699022  0.996815  0.249248  1
  Ho  Ho9  1  0.480742  0.680549  0.597491  1
  Ho  Ho10  1  0.301288  0.003077  0.750415  1
  Ho  Ho11  1  0.634430  0.162296  0.622895  1
  Ho  Ho12  1  0.801632  0.496915  0.750581  1
  Ho  Ho13  1  0.866148  0.662722  0.376711  1
  Ho  Ho14  1  0.021058  0.178706  0.096275  1
  Ho  Ho15  1  0.978662  0.821171  0.902255  1
  Ho  Ho16  1  0.631751  0.162286  0.877875  1
  Ho  Ho17  1  0.522036  0.320785  0.097868  1
  Ho  Ho18  1  0.366889  0.837663  0.377422  1
  Ho  Ho19  1  0.980177  0.820755  0.597592  1
  Sn  Sn20  1  0.797334  0.464963  0.542971  1
  Sn  Sn21  1  0.707576  0.958894  0.459056  1
  Sn  Sn22  1  0.669591  0.851401  0.749825  1
  Sn  Sn23  1  0.200517  0.542321  0.459887  1
  Sn  Sn24  1  0.291617  0.037860  0.958546  1
  Sn  Sn25  1  0.832349  0.351240  0.249013  1
  Sn  Sn26  1  0.791910  0.462769  0.958809  1
  Sn  Sn27  1  0.564435  0.620808  0.249099  1
  Sn  Sn28  1  0.208720  0.536458  0.041577  1
  Sn  Sn29  1  0.436065  0.381573  0.750496  1
  Sn  Sn30  1  0.170545  0.648239  0.750002  1
  Sn  Sn31  1  0.935397  0.117546  0.750688  1
  Sn  Sn32  1  0.293346  0.037319  0.541543  1
  Sn  Sn33  1  0.707927  0.963050  0.041770  1
  Sn  Sn34  1  0.327764  0.146240  0.247875  1
  Sn  Sn35  1  0.064558  0.880298  0.249553  1
