# generated using pymatgen
data_Ba12Nb7Fe5O36
_symmetry_space_group_name_H-M   'P 1'
_cell_length_a   5.82996300
_cell_length_b   8.29090100
_cell_length_c   17.57931300
_cell_angle_alpha   90.00000000
_cell_angle_beta   90.00000000
_cell_angle_gamma   90.00000000
_symmetry_Int_Tables_number   1
_chemical_formula_structural   Ba12Nb7Fe5O36
_chemical_formula_sum   'Ba12 Nb7 Fe5 O36'
_cell_volume   849.70745126
_cell_formula_units_Z   1
loop_
 _symmetry_equiv_pos_site_id
 _symmetry_equiv_pos_as_xyz
  1  'x, y, z'
loop_
 _atom_site_type_symbol
 _atom_site_label
 _atom_site_symmetry_multiplicity
 _atom_site_fract_x
 _atom_site_fract_y
 _atom_site_fract_z
 _atom_site_occupancy
  Ba  Ba0  1  0.000000  0.743917  0.000000  1
  Ba  Ba1  1  0.500000  0.258153  0.169829  1
  Ba  Ba2  1  0.500000  0.741766  0.169868  1
  Ba  Ba3  1  0.000000  0.254831  0.335881  1
  Ba  Ba4  1  0.500000  0.747721  0.500000  1
  Ba  Ba5  1  0.500000  0.258153  0.830171  1
  Ba  Ba6  1  0.000000  0.254831  0.664119  1
  Ba  Ba7  1  0.500000  0.741766  0.830132  1
  Ba  Ba8  1  0.000000  0.255982  0.000000  1
  Ba  Ba9  1  0.000000  0.745006  0.335961  1
  Ba  Ba10  1  0.500000  0.252594  0.500000  1
  Ba  Ba11  1  0.000000  0.745006  0.664039  1
  Nb  Nb12  1  0.500000  0.001319  0.000000  1
  Nb  Nb13  1  0.500000  0.501672  0.000000  1
  Nb  Nb14  1  0.000000  0.999571  0.173758  1
  Nb  Nb15  1  0.500000  0.499700  0.334758  1
  Nb  Nb16  1  0.000000  0.000581  0.500000  1
  Nb  Nb17  1  0.500000  0.499700  0.665242  1
  Nb  Nb18  1  0.000000  0.999571  0.826242  1
  Fe  Fe19  1  0.000000  0.499523  0.166830  1
  Fe  Fe20  1  0.500000  0.999041  0.337153  1
  Fe  Fe21  1  0.500000  0.999041  0.662847  1
  Fe  Fe22  1  0.000000  0.499756  0.500000  1
  Fe  Fe23  1  0.000000  0.499523  0.833170  1
  O  O24  1  0.740858  0.498254  0.080229  1
  O  O25  1  0.500000  0.245078  0.000000  1
  O  O26  1  0.259142  0.498254  0.080229  1
  O  O27  1  0.249029  0.999665  0.249528  1
  O  O28  1  0.255120  0.999066  0.081511  1
  O  O29  1  0.000000  0.235658  0.164328  1
  O  O30  1  0.000000  0.763309  0.163863  1
  O  O31  1  0.750971  0.999665  0.249528  1
  O  O32  1  0.744880  0.999066  0.081511  1
  O  O33  1  0.748863  0.500887  0.417834  1
  O  O34  1  0.742555  0.500816  0.255827  1
  O  O35  1  0.500000  0.251975  0.335559  1
  O  O36  1  0.500000  0.749777  0.336014  1
  O  O37  1  0.251137  0.500887  0.417834  1
  O  O38  1  0.257445  0.500816  0.255827  1
  O  O39  1  0.246358  0.001398  0.582252  1
  O  O40  1  0.246358  0.001398  0.417748  1
  O  O41  1  0.000000  0.245901  0.500000  1
  O  O42  1  0.000000  0.756708  0.500000  1
  O  O43  1  0.753642  0.001398  0.582252  1
  O  O44  1  0.753642  0.001398  0.417748  1
  O  O45  1  0.742555  0.500816  0.744173  1
  O  O46  1  0.748863  0.500887  0.582166  1
  O  O47  1  0.500000  0.749777  0.663986  1
  O  O48  1  0.500000  0.251975  0.664441  1
  O  O49  1  0.257445  0.500816  0.744173  1
  O  O50  1  0.251137  0.500887  0.582166  1
  O  O51  1  0.249029  0.999665  0.750472  1
  O  O52  1  0.255120  0.999066  0.918489  1
  O  O53  1  0.000000  0.235658  0.835672  1
  O  O54  1  0.000000  0.763309  0.836137  1
  O  O55  1  0.750971  0.999665  0.750472  1
  O  O56  1  0.744880  0.999066  0.918489  1
  O  O57  1  0.740858  0.498254  0.919771  1
  O  O58  1  0.500000  0.751792  0.000000  1
  O  O59  1  0.259142  0.498254  0.919771  1
