# generated using pymatgen
data_Nd8Hf11Si16Hg
_symmetry_space_group_name_H-M   'P 1'
_cell_length_a   7.40685141
_cell_length_b   7.40685177
_cell_length_c   13.50325663
_cell_angle_alpha   89.72144657
_cell_angle_beta   90.27855234
_cell_angle_gamma   89.67172858
_symmetry_Int_Tables_number   1
_chemical_formula_structural   Nd8Hf11Si16Hg
_chemical_formula_sum   'Nd8 Hf11 Si16 Hg1'
_cell_volume   740.77847506
_cell_formula_units_Z   1
loop_
 _symmetry_equiv_pos_site_id
 _symmetry_equiv_pos_as_xyz
  1  'x, y, z'
loop_
 _atom_site_type_symbol
 _atom_site_label
 _atom_site_symmetry_multiplicity
 _atom_site_fract_x
 _atom_site_fract_y
 _atom_site_fract_z
 _atom_site_occupancy
  Nd  Nd0  1  0.996869  0.345401  0.211496  1
  Nd  Nd1  1  0.005702  0.656604  0.715838  1
  Nd  Nd2  1  0.155889  0.494340  0.465389  1
  Nd  Nd3  1  0.499221  0.847432  0.032606  1
  Nd  Nd4  1  0.847432  0.499221  0.967394  1
  Nd  Nd5  1  0.494340  0.155889  0.534611  1
  Nd  Nd6  1  0.345401  0.996869  0.788504  1
  Nd  Nd7  1  0.656604  0.005702  0.284162  1
  Hf  Hf8  1  0.824079  0.824079  0.500000  1
  Hf  Hf9  1  0.322733  0.676797  0.249956  1
  Hf  Hf10  1  0.676797  0.322733  0.750044  1
  Hf  Hf11  1  0.146316  0.994941  0.374990  1
  Hf  Hf12  1  0.855411  0.003437  0.878013  1
  Hf  Hf13  1  0.506338  0.649165  0.626195  1
  Hf  Hf14  1  0.354708  0.489495  0.878100  1
  Hf  Hf15  1  0.489495  0.354708  0.121900  1
  Hf  Hf16  1  0.649165  0.506338  0.373805  1
  Hf  Hf17  1  0.994941  0.146316  0.625010  1
  Hf  Hf18  1  0.003437  0.855411  0.121987  1
  Si  Si19  1  0.363259  0.297407  0.314844  1
  Si  Si20  1  0.636906  0.702475  0.817597  1
  Si  Si21  1  0.206750  0.864132  0.566593  1
  Si  Si22  1  0.129216  0.772581  0.928835  1
  Si  Si23  1  0.772581  0.129216  0.071165  1
  Si  Si24  1  0.864132  0.206750  0.433407  1
  Si  Si25  1  0.297407  0.363259  0.685156  1
  Si  Si26  1  0.702475  0.636906  0.182403  1
  Si  Si27  1  0.294033  0.048385  0.193248  1
  Si  Si28  1  0.708853  0.950230  0.686567  1
  Si  Si29  1  0.449508  0.791406  0.436130  1
  Si  Si30  1  0.214028  0.571682  0.065320  1
  Si  Si31  1  0.571682  0.214028  0.934680  1
  Si  Si32  1  0.791406  0.449508  0.563870  1
  Si  Si33  1  0.048385  0.294033  0.806752  1
  Si  Si34  1  0.950230  0.708853  0.313433  1
  Hg  Hg35  1  0.174270  0.174270  0.000000  1
