# generated using pymatgen
data_Ho11TmOs3Rh
_symmetry_space_group_name_H-M   'P 1'
_cell_length_a   6.34466226
_cell_length_b   7.32346901
_cell_length_c   9.03515417
_cell_angle_alpha   90.01523679
_cell_angle_beta   89.86709351
_cell_angle_gamma   90.23268012
_symmetry_Int_Tables_number   1
_chemical_formula_structural   Ho11TmOs3Rh
_chemical_formula_sum   'Ho11 Tm1 Os3 Rh1'
_cell_volume   419.81326829
_cell_formula_units_Z   1
loop_
 _symmetry_equiv_pos_site_id
 _symmetry_equiv_pos_as_xyz
  1  'x, y, z'
loop_
 _atom_site_type_symbol
 _atom_site_label
 _atom_site_symmetry_multiplicity
 _atom_site_fract_x
 _atom_site_fract_y
 _atom_site_fract_z
 _atom_site_occupancy
  Ho  Ho0  1  0.170502  0.177745  0.438786  1
  Ho  Ho1  1  0.670219  0.324454  0.563312  1
  Ho  Ho2  1  0.826063  0.823911  0.934050  1
  Ho  Ho3  1  0.669826  0.324532  0.937082  1
  Ho  Ho4  1  0.825445  0.823893  0.566310  1
  Ho  Ho5  1  0.333542  0.673061  0.438295  1
  Ho  Ho6  1  0.170400  0.178155  0.061516  1
  Ho  Ho7  1  0.870930  0.538804  0.249307  1
  Ho  Ho8  1  0.629924  0.039329  0.249775  1
  Ho  Ho9  1  0.127761  0.462356  0.750581  1
  Ho  Ho10  1  0.369122  0.961577  0.750602  1
  Tm  Tm11  1  0.334158  0.672156  0.061206  1
  Os  Os12  1  0.461625  0.383938  0.249365  1
  Os  Os13  1  0.961612  0.115248  0.749622  1
  Os  Os14  1  0.536291  0.616254  0.751011  1
  Rh  Rh15  1  0.042580  0.884590  0.249181  1
