# generated using pymatgen
data_AcPr2RuO7
_symmetry_space_group_name_H-M   'P 1'
_cell_length_a   6.70364300
_cell_length_b   6.70364306
_cell_length_c   7.66781300
_cell_angle_alpha   90.00000000
_cell_angle_beta   90.00000000
_cell_angle_gamma   111.50359731
_symmetry_Int_Tables_number   1
_chemical_formula_structural   AcPr2RuO7
_chemical_formula_sum   'Ac2 Pr4 Ru2 O14'
_cell_volume   320.59772252
_cell_formula_units_Z   2
loop_
 _symmetry_equiv_pos_site_id
 _symmetry_equiv_pos_as_xyz
  1  'x, y, z'
loop_
 _atom_site_type_symbol
 _atom_site_label
 _atom_site_symmetry_multiplicity
 _atom_site_fract_x
 _atom_site_fract_y
 _atom_site_fract_z
 _atom_site_occupancy
  Ac  Ac0  1  0.000000  0.000000  0.500000  1
  Ac  Ac1  1  0.000000  0.000000  0.000000  1
  Pr  Pr2  1  0.469934  0.908292  0.750000  1
  Pr  Pr3  1  0.530066  0.091708  0.250000  1
  Pr  Pr4  1  0.908292  0.469934  0.750000  1
  Pr  Pr5  1  0.091708  0.530066  0.250000  1
  Ru  Ru6  1  0.500000  0.500000  0.500000  1
  Ru  Ru7  1  0.500000  0.500000  0.000000  1
  O  O8  1  0.582987  0.582987  0.750000  1
  O  O9  1  0.417013  0.417013  0.250000  1
  O  O10  1  0.834122  0.107483  0.750000  1
  O  O11  1  0.165878  0.892517  0.250000  1
  O  O12  1  0.107483  0.834122  0.750000  1
  O  O13  1  0.892517  0.165878  0.250000  1
  O  O14  1  0.444522  0.192470  0.959382  1
  O  O15  1  0.555478  0.807530  0.459382  1
  O  O16  1  0.192470  0.444522  0.959382  1
  O  O17  1  0.807530  0.555478  0.459382  1
  O  O18  1  0.444522  0.192470  0.540618  1
  O  O19  1  0.555478  0.807530  0.040618  1
  O  O20  1  0.807530  0.555478  0.040618  1
  O  O21  1  0.192470  0.444522  0.540618  1
