# generated using pymatgen
data_Hf16Fe4Os3W
_symmetry_space_group_name_H-M   'P 1'
_cell_length_a   8.60383212
_cell_length_b   8.60383058
_cell_length_c   8.60383200
_cell_angle_alpha   59.99823361
_cell_angle_beta   59.99823953
_cell_angle_gamma   59.99823660
_symmetry_Int_Tables_number   1
_chemical_formula_structural   Hf16Fe4Os3W
_chemical_formula_sum   'Hf16 Fe4 Os3 W1'
_cell_volume   450.34291770
_cell_formula_units_Z   1
loop_
 _symmetry_equiv_pos_site_id
 _symmetry_equiv_pos_as_xyz
  1  'x, y, z'
loop_
 _atom_site_type_symbol
 _atom_site_label
 _atom_site_symmetry_multiplicity
 _atom_site_fract_x
 _atom_site_fract_y
 _atom_site_fract_z
 _atom_site_occupancy
  Hf  Hf0  1  0.689867  0.102837  0.102837  1
  Hf  Hf1  1  0.102837  0.689867  0.102837  1
  Hf  Hf2  1  0.102837  0.102837  0.689867  1
  Hf  Hf3  1  0.104349  0.104349  0.104349  1
  Hf  Hf4  1  0.313378  0.313378  0.686302  1
  Hf  Hf5  1  0.687031  0.687031  0.313166  1
  Hf  Hf6  1  0.313378  0.686302  0.313378  1
  Hf  Hf7  1  0.687031  0.313166  0.687031  1
  Hf  Hf8  1  0.686302  0.313378  0.313378  1
  Hf  Hf9  1  0.313166  0.687031  0.687031  1
  Hf  Hf10  1  0.950696  0.950696  0.548878  1
  Hf  Hf11  1  0.551118  0.551118  0.948793  1
  Hf  Hf12  1  0.950696  0.548878  0.950696  1
  Hf  Hf13  1  0.551118  0.948793  0.551118  1
  Hf  Hf14  1  0.548878  0.950696  0.950696  1
  Hf  Hf15  1  0.948793  0.551118  0.551118  1
  Fe  Fe16  1  0.326996  0.891452  0.891452  1
  Fe  Fe17  1  0.891452  0.326996  0.891452  1
  Fe  Fe18  1  0.891452  0.891452  0.326996  1
  Fe  Fe19  1  0.890860  0.890860  0.890860  1
  Os  Os20  1  0.997565  0.334598  0.334598  1
  Os  Os21  1  0.334598  0.997565  0.334598  1
  Os  Os22  1  0.334598  0.334598  0.997565  1
  W  W23  1  0.331001  0.331001  0.331001  1
