# generated using pymatgen
data_Nd8Ho12Si15P
_symmetry_space_group_name_H-M   'P 1'
_cell_length_a   7.55600482
_cell_length_b   7.73765923
_cell_length_c   14.73097414
_cell_angle_alpha   89.85728139
_cell_angle_beta   87.28161200
_cell_angle_gamma   90.03259558
_symmetry_Int_Tables_number   1
_chemical_formula_structural   Nd8Ho12Si15P
_chemical_formula_sum   'Nd8 Ho12 Si15 P1'
_cell_volume   860.28600595
_cell_formula_units_Z   1
loop_
 _symmetry_equiv_pos_site_id
 _symmetry_equiv_pos_as_xyz
  1  'x, y, z'
loop_
 _atom_site_type_symbol
 _atom_site_label
 _atom_site_symmetry_multiplicity
 _atom_site_fract_x
 _atom_site_fract_y
 _atom_site_fract_z
 _atom_site_occupancy
  Nd  Nd0  1  0.997306  0.820802  0.098657  1
  Nd  Nd1  1  0.477987  0.680019  0.399650  1
  Nd  Nd2  1  0.502410  0.320240  0.902678  1
  Nd  Nd3  1  0.021506  0.179979  0.600714  1
  Nd  Nd4  1  0.003944  0.181922  0.902628  1
  Nd  Nd5  1  0.521507  0.319367  0.600022  1
  Nd  Nd6  1  0.497599  0.683619  0.099110  1
  Nd  Nd7  1  0.977995  0.819022  0.399625  1
  Ho  Ho8  1  0.669691  0.995803  0.245755  1
  Ho  Ho9  1  0.166660  0.504606  0.245126  1
  Ho  Ho10  1  0.832652  0.493434  0.753461  1
  Ho  Ho11  1  0.330970  0.005358  0.754257  1
  Ho  Ho12  1  0.652105  0.828751  0.880357  1
  Ho  Ho13  1  0.173109  0.678573  0.623253  1
  Ho  Ho14  1  0.846832  0.339943  0.115376  1
  Ho  Ho15  1  0.326299  0.178201  0.376593  1
  Ho  Ho16  1  0.348834  0.167029  0.121239  1
  Ho  Ho17  1  0.826868  0.321444  0.377139  1
  Ho  Ho18  1  0.148869  0.664996  0.882545  1
  Ho  Ho19  1  0.673149  0.820980  0.623580  1
  Si  Si20  1  0.783759  0.622612  0.251179  1
  Si  Si21  1  0.283400  0.876930  0.251525  1
  Si  Si22  1  0.715510  0.121433  0.749315  1
  Si  Si23  1  0.216375  0.378086  0.749165  1
  Si  Si24  1  0.041894  0.115228  0.250571  1
  Si  Si25  1  0.543798  0.386875  0.251028  1
  Si  Si26  1  0.456131  0.613091  0.749738  1
  Si  Si27  1  0.956704  0.885346  0.749909  1
  Si  Si28  1  0.355811  0.968797  0.540722  1
  Si  Si29  1  0.691250  0.039729  0.042111  1
  Si  Si30  1  0.145317  0.468335  0.459870  1
  Si  Si31  1  0.199748  0.462372  0.044691  1
  Si  Si32  1  0.644550  0.030359  0.459198  1
  Si  Si33  1  0.310695  0.961162  0.956973  1
  Si  Si34  1  0.855610  0.530242  0.540872  1
  P  P35  1  0.803156  0.535315  0.951365  1
