# generated using pymatgen
data_Ti12Ga5Pd3O4
_symmetry_space_group_name_H-M   'P 1'
_cell_length_a   6.87929310
_cell_length_b   6.87929310
_cell_length_c   6.87929310
_cell_angle_alpha   90.14549365
_cell_angle_beta   90.14549365
_cell_angle_gamma   90.14549365
_symmetry_Int_Tables_number   1
_chemical_formula_structural   Ti12Ga5Pd3O4
_chemical_formula_sum   'Ti12 Ga5 Pd3 O4'
_cell_volume   325.55714653
_cell_formula_units_Z   1
loop_
 _symmetry_equiv_pos_site_id
 _symmetry_equiv_pos_as_xyz
  1  'x, y, z'
loop_
 _atom_site_type_symbol
 _atom_site_label
 _atom_site_symmetry_multiplicity
 _atom_site_fract_x
 _atom_site_fract_y
 _atom_site_fract_z
 _atom_site_occupancy
  Ti  Ti0  1  0.791032  0.958859  0.374309  1
  Ti  Ti1  1  0.710773  0.041405  0.876018  1
  Ti  Ti2  1  0.211901  0.458018  0.121329  1
  Ti  Ti3  1  0.289863  0.543274  0.623398  1
  Ti  Ti4  1  0.958859  0.374309  0.791032  1
  Ti  Ti5  1  0.041405  0.876018  0.710773  1
  Ti  Ti6  1  0.458018  0.121329  0.211901  1
  Ti  Ti7  1  0.543274  0.623398  0.289863  1
  Ti  Ti8  1  0.374309  0.791032  0.958859  1
  Ti  Ti9  1  0.876018  0.710773  0.041405  1
  Ti  Ti10  1  0.121329  0.211901  0.458018  1
  Ti  Ti11  1  0.623398  0.289863  0.543274  1
  Ga  Ga12  1  0.680296  0.680296  0.680296  1
  Ga  Ga13  1  0.569223  0.428388  0.932050  1
  Ga  Ga14  1  0.428388  0.932050  0.569223  1
  Ga  Ga15  1  0.932050  0.569223  0.428388  1
  Ga  Ga16  1  0.070851  0.070851  0.070851  1
  Pd  Pd17  1  0.179722  0.819924  0.320201  1
  Pd  Pd18  1  0.320201  0.179722  0.819924  1
  Pd  Pd19  1  0.819924  0.320201  0.179722  1
  O  O20  1  0.875809  0.124835  0.624781  1
  O  O21  1  0.624781  0.875809  0.124835  1
  O  O22  1  0.124835  0.624781  0.875809  1
  O  O23  1  0.373738  0.373738  0.373738  1
