# generated using pymatgen
data_Pr3Y5(InIr)2
_symmetry_space_group_name_H-M   'P 1'
_cell_length_a   9.83855289
_cell_length_b   9.83855214
_cell_length_c   9.83855200
_cell_angle_alpha   60.00000047
_cell_angle_beta   60.00000300
_cell_angle_gamma   59.99999752
_symmetry_Int_Tables_number   1
_chemical_formula_structural   Pr3Y5(InIr)2
_chemical_formula_sum   'Pr6 Y10 In4 Ir4'
_cell_volume   673.40852040
_cell_formula_units_Z   2
loop_
 _symmetry_equiv_pos_site_id
 _symmetry_equiv_pos_as_xyz
  1  'x, y, z'
loop_
 _atom_site_type_symbol
 _atom_site_label
 _atom_site_symmetry_multiplicity
 _atom_site_fract_x
 _atom_site_fract_y
 _atom_site_fract_z
 _atom_site_occupancy
  Pr  Pr0  1  0.942010  0.557990  0.557990  1
  Pr  Pr1  1  0.557990  0.942010  0.942010  1
  Pr  Pr2  1  0.557990  0.942010  0.557990  1
  Pr  Pr3  1  0.942010  0.557990  0.942010  1
  Pr  Pr4  1  0.557990  0.557990  0.942010  1
  Pr  Pr5  1  0.942010  0.942010  0.557990  1
  Y  Y6  1  0.347115  0.347115  0.347115  1
  Y  Y7  1  0.347115  0.347115  0.958655  1
  Y  Y8  1  0.347115  0.958655  0.347115  1
  Y  Y9  1  0.958655  0.347115  0.347115  1
  Y  Y10  1  0.810008  0.189992  0.189992  1
  Y  Y11  1  0.189992  0.810008  0.810008  1
  Y  Y12  1  0.189992  0.810008  0.189992  1
  Y  Y13  1  0.810008  0.189992  0.810008  1
  Y  Y14  1  0.189992  0.189992  0.810008  1
  Y  Y15  1  0.810008  0.810008  0.189992  1
  In  In16  1  0.580239  0.580239  0.580239  1
  In  In17  1  0.580239  0.580239  0.259282  1
  In  In18  1  0.580239  0.259282  0.580239  1
  In  In19  1  0.259282  0.580239  0.580239  1
  Ir  Ir20  1  0.140352  0.140352  0.140352  1
  Ir  Ir21  1  0.140352  0.140352  0.578946  1
  Ir  Ir22  1  0.140352  0.578946  0.140352  1
  Ir  Ir23  1  0.578946  0.140352  0.140352  1
