# generated using pymatgen
data_Tb12InFe4Hg
_symmetry_space_group_name_H-M   'P 1'
_cell_length_a   8.44883553
_cell_length_b   8.44883623
_cell_length_c   8.44883500
_cell_angle_alpha   111.28082075
_cell_angle_beta   110.33869390
_cell_angle_gamma   106.82752512
_symmetry_Int_Tables_number   1
_chemical_formula_structural   Tb12InFe4Hg
_chemical_formula_sum   'Tb12 In1 Fe4 Hg1'
_cell_volume   463.49800055
_cell_formula_units_Z   1
loop_
 _symmetry_equiv_pos_site_id
 _symmetry_equiv_pos_as_xyz
  1  'x, y, z'
loop_
 _atom_site_type_symbol
 _atom_site_label
 _atom_site_symmetry_multiplicity
 _atom_site_fract_x
 _atom_site_fract_y
 _atom_site_fract_z
 _atom_site_occupancy
  Tb  Tb0  1  0.435775  0.226227  0.209548  1
  Tb  Tb1  1  0.564225  0.773773  0.790452  1
  Tb  Tb2  1  0.016680  0.226227  0.790452  1
  Tb  Tb3  1  0.983320  0.773773  0.209548  1
  Tb  Tb4  1  0.187915  0.290171  0.478087  1
  Tb  Tb5  1  0.812085  0.709829  0.521913  1
  Tb  Tb6  1  0.187915  0.709829  0.897743  1
  Tb  Tb7  1  0.812085  0.290171  0.102257  1
  Tb  Tb8  1  0.312201  0.612528  0.300327  1
  Tb  Tb9  1  0.687799  0.387472  0.699673  1
  Tb  Tb10  1  0.312201  0.011874  0.699673  1
  Tb  Tb11  1  0.687799  0.988126  0.300327  1
  In  In12  1  0.500000  0.500000  0.000000  1
  Fe  Fe13  1  0.386317  0.000000  0.386317  1
  Fe  Fe14  1  0.613683  0.000000  0.613683  1
  Fe  Fe15  1  0.107212  0.607212  0.500000  1
  Fe  Fe16  1  0.892788  0.392788  0.500000  1
  Hg  Hg17  1  0.000000  0.000000  0.000000  1
