# generated using pymatgen
data_Pr5SmIn6O18
_symmetry_space_group_name_H-M   'P 1'
_cell_length_a   6.56521900
_cell_length_b   6.56521974
_cell_length_c   12.55431500
_cell_angle_alpha   90.00000000
_cell_angle_beta   90.00000000
_cell_angle_gamma   120.00000132
_symmetry_Int_Tables_number   1
_chemical_formula_structural   Pr5SmIn6O18
_chemical_formula_sum   'Pr5 Sm1 In6 O18'
_cell_volume   468.62141552
_cell_formula_units_Z   1
loop_
 _symmetry_equiv_pos_site_id
 _symmetry_equiv_pos_as_xyz
  1  'x, y, z'
loop_
 _atom_site_type_symbol
 _atom_site_label
 _atom_site_symmetry_multiplicity
 _atom_site_fract_x
 _atom_site_fract_y
 _atom_site_fract_z
 _atom_site_occupancy
  Pr  Pr0  1  0.333333  0.666667  0.231997  1
  Pr  Pr1  1  0.000000  0.000000  0.266709  1
  Pr  Pr2  1  0.000000  0.000000  0.769286  1
  Pr  Pr3  1  0.333333  0.666667  0.729403  1
  Pr  Pr4  1  0.666667  0.333333  0.730080  1
  Sm  Sm5  1  0.666667  0.333333  0.229910  1
  In  In6  1  0.998576  0.665211  0.494908  1
  In  In7  1  0.999301  0.334403  0.997758  1
  In  In8  1  0.334789  0.333364  0.494908  1
  In  In9  1  0.665597  0.664898  0.997758  1
  In  In10  1  0.335102  0.000699  0.997758  1
  In  In11  1  0.666636  0.001424  0.494908  1
  O  O12  1  0.001155  0.693592  0.663377  1
  O  O13  1  0.992608  0.634139  0.328331  1
  O  O14  1  0.000167  0.359390  0.830473  1
  O  O15  1  0.994307  0.308659  0.165727  1
  O  O16  1  0.333333  0.666667  0.022976  1
  O  O17  1  0.000000  0.000000  0.467315  1
  O  O18  1  0.333333  0.666667  0.516761  1
  O  O19  1  0.000000  0.000000  0.972573  1
  O  O20  1  0.306408  0.307564  0.663377  1
  O  O21  1  0.365861  0.358469  0.328331  1
  O  O22  1  0.314352  0.005693  0.165727  1
  O  O23  1  0.640610  0.640777  0.830473  1
  O  O24  1  0.691341  0.685648  0.165727  1
  O  O25  1  0.359223  0.999833  0.830473  1
  O  O26  1  0.666667  0.333333  0.522089  1
  O  O27  1  0.666667  0.333333  0.021749  1
  O  O28  1  0.641531  0.007392  0.328331  1
  O  O29  1  0.692436  0.998845  0.663377  1
