# generated using pymatgen
data_Dy3Y(Si3Ir)2
_symmetry_space_group_name_H-M   'P 1'
_cell_length_a   8.17741600
_cell_length_b   8.17741551
_cell_length_c   7.95170600
_cell_angle_alpha   90.00000000
_cell_angle_beta   90.00000000
_cell_angle_gamma   119.99999391
_symmetry_Int_Tables_number   1
_chemical_formula_structural   Dy3Y(Si3Ir)2
_chemical_formula_sum   'Dy6 Y2 Si12 Ir4'
_cell_volume   460.49310289
_cell_formula_units_Z   2
loop_
 _symmetry_equiv_pos_site_id
 _symmetry_equiv_pos_as_xyz
  1  'x, y, z'
loop_
 _atom_site_type_symbol
 _atom_site_label
 _atom_site_symmetry_multiplicity
 _atom_site_fract_x
 _atom_site_fract_y
 _atom_site_fract_z
 _atom_site_occupancy
  Dy  Dy0  1  0.509160  0.490840  0.250000  1
  Dy  Dy1  1  0.509160  0.018320  0.250000  1
  Dy  Dy2  1  0.981680  0.490840  0.250000  1
  Dy  Dy3  1  0.490840  0.509160  0.750000  1
  Dy  Dy4  1  0.490840  0.981680  0.750000  1
  Dy  Dy5  1  0.018320  0.509160  0.750000  1
  Y  Y6  1  0.000000  0.000000  0.250000  1
  Y  Y7  1  0.000000  0.000000  0.750000  1
  Si  Si8  1  0.166887  0.833113  0.499529  1
  Si  Si9  1  0.166887  0.333776  0.499529  1
  Si  Si10  1  0.666224  0.833113  0.499529  1
  Si  Si11  1  0.833113  0.166887  0.500471  1
  Si  Si12  1  0.833113  0.666224  0.500471  1
  Si  Si13  1  0.333776  0.166887  0.500471  1
  Si  Si14  1  0.833113  0.166887  0.999529  1
  Si  Si15  1  0.833113  0.666224  0.999529  1
  Si  Si16  1  0.333776  0.166887  0.999529  1
  Si  Si17  1  0.166887  0.833113  0.000471  1
  Si  Si18  1  0.166887  0.333776  0.000471  1
  Si  Si19  1  0.666224  0.833113  0.000471  1
  Ir  Ir20  1  0.333333  0.666667  0.466913  1
  Ir  Ir21  1  0.666667  0.333333  0.533087  1
  Ir  Ir22  1  0.666667  0.333333  0.966913  1
  Ir  Ir23  1  0.333333  0.666667  0.033087  1
