# generated using pymatgen
data_Y3TmCdCo
_symmetry_space_group_name_H-M   'P 1'
_cell_length_a   9.51636129
_cell_length_b   9.51636116
_cell_length_c   9.51636200
_cell_angle_alpha   60.00000403
_cell_angle_beta   60.00000448
_cell_angle_gamma   60.00000855
_symmetry_Int_Tables_number   1
_chemical_formula_structural   Y3TmCdCo
_chemical_formula_sum   'Y12 Tm4 Cd4 Co4'
_cell_volume   609.39354510
_cell_formula_units_Z   4
loop_
 _symmetry_equiv_pos_site_id
 _symmetry_equiv_pos_as_xyz
  1  'x, y, z'
loop_
 _atom_site_type_symbol
 _atom_site_label
 _atom_site_symmetry_multiplicity
 _atom_site_fract_x
 _atom_site_fract_y
 _atom_site_fract_z
 _atom_site_occupancy
  Y  Y0  1  0.810828  0.189172  0.189172  1
  Y  Y1  1  0.189172  0.810828  0.810828  1
  Y  Y2  1  0.189172  0.810828  0.189172  1
  Y  Y3  1  0.810828  0.189172  0.810828  1
  Y  Y4  1  0.189172  0.189172  0.810828  1
  Y  Y5  1  0.810828  0.810828  0.189172  1
  Y  Y6  1  0.939202  0.560798  0.560798  1
  Y  Y7  1  0.560798  0.939202  0.939202  1
  Y  Y8  1  0.560798  0.939202  0.560798  1
  Y  Y9  1  0.939202  0.560798  0.939202  1
  Y  Y10  1  0.560798  0.560798  0.939202  1
  Y  Y11  1  0.939202  0.939202  0.560798  1
  Tm  Tm12  1  0.345198  0.345198  0.345198  1
  Tm  Tm13  1  0.345198  0.345198  0.964405  1
  Tm  Tm14  1  0.345198  0.964405  0.345198  1
  Tm  Tm15  1  0.964405  0.345198  0.345198  1
  Cd  Cd16  1  0.580212  0.580212  0.580212  1
  Cd  Cd17  1  0.580212  0.580212  0.259364  1
  Cd  Cd18  1  0.580212  0.259364  0.580212  1
  Cd  Cd19  1  0.259364  0.580212  0.580212  1
  Co  Co20  1  0.142421  0.142421  0.142421  1
  Co  Co21  1  0.142421  0.142421  0.572738  1
  Co  Co22  1  0.142421  0.572738  0.142421  1
  Co  Co23  1  0.572738  0.142421  0.142421  1
