# generated using pymatgen
data_SrPrTaCdO6
_symmetry_space_group_name_H-M   'P 1'
_cell_length_a   8.32282628
_cell_length_b   8.32282647
_cell_length_c   10.01456580
_cell_angle_alpha   66.82921687
_cell_angle_beta   66.82921190
_cell_angle_gamma   92.49100362
_symmetry_Int_Tables_number   1
_chemical_formula_structural   SrPrTaCdO6
_chemical_formula_sum   'Sr4 Pr4 Ta4 Cd4 O24'
_cell_volume   569.94004318
_cell_formula_units_Z   4
loop_
 _symmetry_equiv_pos_site_id
 _symmetry_equiv_pos_as_xyz
  1  'x, y, z'
loop_
 _atom_site_type_symbol
 _atom_site_label
 _atom_site_symmetry_multiplicity
 _atom_site_fract_x
 _atom_site_fract_y
 _atom_site_fract_z
 _atom_site_occupancy
  Sr  Sr0  1  0.394964  0.347092  0.247724  1
  Sr  Sr1  1  0.894964  0.847091  0.247724  1
  Sr  Sr2  1  0.097091  0.644963  0.747724  1
  Sr  Sr3  1  0.597091  0.144963  0.747725  1
  Pr  Pr4  1  0.418977  0.855697  0.243650  1
  Pr  Pr5  1  0.918976  0.355698  0.243649  1
  Pr  Pr6  1  0.105698  0.168977  0.743649  1
  Pr  Pr7  1  0.605698  0.668977  0.743650  1
  Ta  Ta8  1  0.748907  0.252780  0.999431  1
  Ta  Ta9  1  0.248907  0.752781  0.999431  1
  Ta  Ta10  1  0.002781  0.998906  0.499432  1
  Ta  Ta11  1  0.502780  0.498907  0.499432  1
  Cd  Cd12  1  0.997855  0.506469  0.497630  1
  Cd  Cd13  1  0.256469  0.247856  0.997631  1
  Cd  Cd14  1  0.497855  0.006469  0.497631  1
  Cd  Cd15  1  0.756469  0.747856  0.997630  1
  O  O16  1  0.342644  0.795837  0.769083  1
  O  O17  1  0.842645  0.295838  0.769084  1
  O  O18  1  0.545838  0.592645  0.269083  1
  O  O19  1  0.045837  0.092644  0.269084  1
  O  O20  1  0.755604  0.991609  0.063464  1
  O  O21  1  0.255602  0.491608  0.063465  1
  O  O22  1  0.241609  0.505604  0.563463  1
  O  O23  1  0.741608  0.005602  0.563466  1
  O  O24  1  0.567495  0.754527  0.455659  1
  O  O25  1  0.067495  0.254527  0.455660  1
  O  O26  1  0.004527  0.317495  0.955660  1
  O  O27  1  0.504527  0.817494  0.955658  1
  O  O28  1  0.490100  0.166014  0.054929  1
  O  O29  1  0.990099  0.666015  0.054930  1
  O  O30  1  0.916015  0.740099  0.554930  1
  O  O31  1  0.416015  0.240100  0.554929  1
  O  O32  1  0.256484  0.964648  0.438588  1
  O  O33  1  0.756484  0.464647  0.438588  1
  O  O34  1  0.714647  0.506483  0.938589  1
  O  O35  1  0.214649  0.006484  0.938587  1
  O  O36  1  0.967145  0.925153  0.729839  1
  O  O37  1  0.467144  0.425153  0.729839  1
  O  O38  1  0.175153  0.717145  0.229838  1
  O  O39  1  0.675152  0.217144  0.229839  1
