# generated using pymatgen
data_DyEr9(Pb3Cl)2
_symmetry_space_group_name_H-M   'P 1'
_cell_length_a   9.14426200
_cell_length_b   9.14682726
_cell_length_c   6.56017400
_cell_angle_alpha   90.00000000
_cell_angle_beta   90.00000000
_cell_angle_gamma   119.99073759
_symmetry_Int_Tables_number   1
_chemical_formula_structural   DyEr9(Pb3Cl)2
_chemical_formula_sum   'Dy1 Er9 Pb6 Cl2'
_cell_volume   475.23197699
_cell_formula_units_Z   1
loop_
 _symmetry_equiv_pos_site_id
 _symmetry_equiv_pos_as_xyz
  1  'x, y, z'
loop_
 _atom_site_type_symbol
 _atom_site_label
 _atom_site_symmetry_multiplicity
 _atom_site_fract_x
 _atom_site_fract_y
 _atom_site_fract_z
 _atom_site_occupancy
  Dy  Dy0  1  0.260826  0.000000  0.250000  1
  Er  Er1  1  0.738915  0.000000  0.750000  1
  Er  Er2  1  0.999965  0.260966  0.250000  1
  Er  Er3  1  0.999958  0.738897  0.750000  1
  Er  Er4  1  0.738999  0.739034  0.250000  1
  Er  Er5  1  0.261061  0.261103  0.750000  1
  Er  Er6  1  0.333381  0.666594  0.999924  1
  Er  Er7  1  0.666788  0.333406  0.999924  1
  Er  Er8  1  0.666788  0.333406  0.500076  1
  Er  Er9  1  0.333381  0.666594  0.500076  1
  Pb  Pb10  1  0.610672  0.000000  0.250000  1
  Pb  Pb11  1  0.389773  0.000000  0.750000  1
  Pb  Pb12  1  0.999714  0.609831  0.250000  1
  Pb  Pb13  1  0.999985  0.389709  0.750000  1
  Pb  Pb14  1  0.389883  0.390169  0.250000  1
  Pb  Pb15  1  0.610277  0.610291  0.750000  1
  Cl  Cl16  1  0.999818  0.000000  0.999758  1
  Cl  Cl17  1  0.999818  0.000000  0.500242  1
