# generated using pymatgen
data_Th2Zn3Cd2Cu7
_symmetry_space_group_name_H-M   'P 1'
_cell_length_a   5.13011200
_cell_length_b   8.44658401
_cell_length_c   10.76997501
_cell_angle_alpha   89.99556876
_cell_angle_beta   90.00000000
_cell_angle_gamma   90.00000000
_symmetry_Int_Tables_number   1
_chemical_formula_structural   Th2Zn3Cd2Cu7
_chemical_formula_sum   'Th4 Zn6 Cd4 Cu14'
_cell_volume   466.68371527
_cell_formula_units_Z   2
loop_
 _symmetry_equiv_pos_site_id
 _symmetry_equiv_pos_as_xyz
  1  'x, y, z'
loop_
 _atom_site_type_symbol
 _atom_site_label
 _atom_site_symmetry_multiplicity
 _atom_site_fract_x
 _atom_site_fract_y
 _atom_site_fract_z
 _atom_site_occupancy
  Th  Th0  1  0.748315  0.240951  0.938408  1
  Th  Th1  1  0.248315  0.759049  0.061592  1
  Th  Th2  1  0.749626  0.746130  0.557525  1
  Th  Th3  1  0.249626  0.253870  0.442475  1
  Zn  Zn4  1  0.000871  0.432886  0.186891  1
  Zn  Zn5  1  0.500871  0.567114  0.813109  1
  Zn  Zn6  1  0.501579  0.933095  0.313179  1
  Zn  Zn7  1  0.001579  0.066905  0.686821  1
  Zn  Zn8  1  0.999232  0.567609  0.813006  1
  Zn  Zn9  1  0.499232  0.432391  0.186994  1
  Cd  Cd10  1  0.746377  0.362474  0.635629  1
  Cd  Cd11  1  0.246377  0.637526  0.364371  1
  Cd  Cd12  1  0.746467  0.864916  0.863856  1
  Cd  Cd13  1  0.246467  0.135084  0.136144  1
  Cu  Cu14  1  0.504186  0.066306  0.686833  1
  Cu  Cu15  1  0.004186  0.933694  0.313167  1
  Cu  Cu16  1  0.749453  0.440997  0.393740  1
  Cu  Cu17  1  0.249453  0.559003  0.606260  1
  Cu  Cu18  1  0.752477  0.941651  0.107485  1
  Cu  Cu19  1  0.252477  0.058349  0.892515  1
  Cu  Cu20  1  0.752304  0.183836  0.256176  1
  Cu  Cu21  1  0.252304  0.816164  0.743824  1
  Cu  Cu22  1  0.750236  0.685500  0.244823  1
  Cu  Cu23  1  0.250236  0.314500  0.755177  1
  Cu  Cu24  1  0.749140  0.085442  0.483071  1
  Cu  Cu25  1  0.249140  0.914558  0.516929  1
  Cu  Cu26  1  0.749737  0.584617  0.017324  1
  Cu  Cu27  1  0.249737  0.415383  0.982676  1
