# generated using pymatgen
data_YbY5Al17Si7Os8
_symmetry_space_group_name_H-M   'P 1'
_cell_length_a   8.69813735
_cell_length_b   8.68404178
_cell_length_c   9.51811500
_cell_angle_alpha   90.00000000
_cell_angle_beta   90.00000000
_cell_angle_gamma   120.05153222
_symmetry_Int_Tables_number   1
_chemical_formula_structural   YbY5Al17Si7Os8
_chemical_formula_sum   'Yb1 Y5 Al17 Si7 Os8'
_cell_volume   622.30600704
_cell_formula_units_Z   1
loop_
 _symmetry_equiv_pos_site_id
 _symmetry_equiv_pos_as_xyz
  1  'x, y, z'
loop_
 _atom_site_type_symbol
 _atom_site_label
 _atom_site_symmetry_multiplicity
 _atom_site_fract_x
 _atom_site_fract_y
 _atom_site_fract_z
 _atom_site_occupancy
  Yb  Yb0  1  0.195877  0.805117  0.250000  1
  Y  Y1  1  0.191649  0.387376  0.250000  1
  Y  Y2  1  0.807151  0.614373  0.750000  1
  Y  Y3  1  0.611755  0.808406  0.250000  1
  Y  Y4  1  0.387739  0.191151  0.750000  1
  Y  Y5  1  0.802373  0.192255  0.750000  1
  Al  Al6  1  0.165459  0.330896  0.577485  1
  Al  Al7  1  0.834137  0.670392  0.421060  1
  Al  Al8  1  0.670184  0.834083  0.576956  1
  Al  Al9  1  0.834137  0.670392  0.078940  1
  Al  Al10  1  0.330391  0.165850  0.422345  1
  Al  Al11  1  0.165459  0.330896  0.922515  1
  Al  Al12  1  0.164272  0.833839  0.574224  1
  Al  Al13  1  0.330391  0.165850  0.077655  1
  Al  Al14  1  0.834772  0.164480  0.421378  1
  Al  Al15  1  0.670184  0.834083  0.923044  1
  Al  Al16  1  0.834772  0.164480  0.078622  1
  Al  Al17  1  0.164272  0.833839  0.925776  1
  Al  Al18  1  0.126316  0.566355  0.750000  1
  Al  Al19  1  0.564853  0.434554  0.250000  1
  Al  Al20  1  0.438557  0.566873  0.750000  1
  Al  Al21  1  0.000369  0.998488  0.250000  1
  Al  Al22  1  0.999940  0.000775  0.750000  1
  Si  Si23  1  0.332882  0.665119  0.039580  1
  Si  Si24  1  0.666276  0.335830  0.960600  1
  Si  Si25  1  0.666276  0.335830  0.539400  1
  Si  Si26  1  0.332882  0.665119  0.460420  1
  Si  Si27  1  0.563896  0.124483  0.250000  1
  Si  Si28  1  0.435791  0.872521  0.750000  1
  Si  Si29  1  0.875070  0.435781  0.250000  1
  Os  Os30  1  0.502075  0.001757  0.999688  1
  Os  Os31  1  0.997417  0.498058  0.005358  1
  Os  Os32  1  0.502075  0.001757  0.500312  1
  Os  Os33  1  0.501004  0.499808  0.000008  1
  Os  Os34  1  0.997417  0.498058  0.494642  1
  Os  Os35  1  0.501004  0.499808  0.499992  1
  Os  Os36  1  0.000464  0.000631  0.999868  1
  Os  Os37  1  0.000464  0.000631  0.500132  1
