# generated using pymatgen
data_NaHo(InCl3)2
_symmetry_space_group_name_H-M   'P 1'
_cell_length_a   7.17566618
_cell_length_b   7.85604300
_cell_length_c   12.52350541
_cell_angle_alpha   90.00000000
_cell_angle_beta   123.22353502
_cell_angle_gamma   90.00000000
_symmetry_Int_Tables_number   1
_chemical_formula_structural   NaHo(InCl3)2
_chemical_formula_sum   'Na2 Ho2 In4 Cl12'
_cell_volume   590.57947184
_cell_formula_units_Z   2
loop_
 _symmetry_equiv_pos_site_id
 _symmetry_equiv_pos_as_xyz
  1  'x, y, z'
loop_
 _atom_site_type_symbol
 _atom_site_label
 _atom_site_symmetry_multiplicity
 _atom_site_fract_x
 _atom_site_fract_y
 _atom_site_fract_z
 _atom_site_occupancy
  Na  Na0  1  0.500000  0.000000  0.000000  1
  Na  Na1  1  0.500001  0.500000  0.500000  1
  Ho  Ho2  1  0.000000  0.500000  0.000000  1
  Ho  Ho3  1  0.000000  0.000000  0.500000  1
  In  In4  1  0.284470  0.089521  0.251771  1
  In  In5  1  0.715530  0.589521  0.248229  1
  In  In6  1  0.284469  0.410479  0.751771  1
  In  In7  1  0.715530  0.910479  0.748228  1
  Cl  Cl8  1  0.350868  0.323053  0.047094  1
  Cl  Cl9  1  0.226261  0.787472  0.055216  1
  Cl  Cl10  1  0.124521  0.464481  0.240776  1
  Cl  Cl11  1  0.875479  0.964481  0.259224  1
  Cl  Cl12  1  0.773740  0.287472  0.444785  1
  Cl  Cl13  1  0.649132  0.823053  0.452907  1
  Cl  Cl14  1  0.350869  0.176947  0.547094  1
  Cl  Cl15  1  0.226261  0.712528  0.555216  1
  Cl  Cl16  1  0.124520  0.035519  0.740776  1
  Cl  Cl17  1  0.875480  0.535520  0.759224  1
  Cl  Cl18  1  0.773739  0.212528  0.944785  1
  Cl  Cl19  1  0.649131  0.676947  0.952907  1
