# generated using pymatgen
data_Hf8ScMo4P
_symmetry_space_group_name_H-M   'P 1'
_cell_length_a   8.66008394
_cell_length_b   8.65309963
_cell_length_c   8.61691400
_cell_angle_alpha   90.00000000
_cell_angle_beta   90.00000000
_cell_angle_gamma   119.97332537
_symmetry_Int_Tables_number   1
_chemical_formula_structural   Hf8ScMo4P
_chemical_formula_sum   'Hf16 Sc2 Mo8 P2'
_cell_volume   559.36188209
_cell_formula_units_Z   2
loop_
 _symmetry_equiv_pos_site_id
 _symmetry_equiv_pos_as_xyz
  1  'x, y, z'
loop_
 _atom_site_type_symbol
 _atom_site_label
 _atom_site_symmetry_multiplicity
 _atom_site_fract_x
 _atom_site_fract_y
 _atom_site_fract_z
 _atom_site_occupancy
  Hf  Hf0  1  0.197768  0.802776  0.453323  1
  Hf  Hf1  1  0.197768  0.394991  0.453323  1
  Hf  Hf2  1  0.603592  0.801795  0.453608  1
  Hf  Hf3  1  0.802720  0.197287  0.548346  1
  Hf  Hf4  1  0.802720  0.605434  0.548346  1
  Hf  Hf5  1  0.394622  0.197311  0.549332  1
  Hf  Hf6  1  0.802720  0.197287  0.951654  1
  Hf  Hf7  1  0.802720  0.605434  0.951654  1
  Hf  Hf8  1  0.394622  0.197311  0.950668  1
  Hf  Hf9  1  0.197768  0.802776  0.046677  1
  Hf  Hf10  1  0.197768  0.394991  0.046677  1
  Hf  Hf11  1  0.603592  0.801795  0.046392  1
  Hf  Hf12  1  0.926471  0.463235  0.250000  1
  Hf  Hf13  1  0.458818  0.540650  0.750000  1
  Hf  Hf14  1  0.458818  0.918168  0.750000  1
  Hf  Hf15  1  0.080396  0.540198  0.750000  1
  Sc  Sc16  1  0.539926  0.460195  0.250000  1
  Sc  Sc17  1  0.539926  0.079731  0.250000  1
  Mo  Mo18  1  0.889269  0.111019  0.250000  1
  Mo  Mo19  1  0.889269  0.778248  0.250000  1
  Mo  Mo20  1  0.221011  0.110505  0.250000  1
  Mo  Mo21  1  0.110231  0.889973  0.750000  1
  Mo  Mo22  1  0.110231  0.220259  0.750000  1
  Mo  Mo23  1  0.779625  0.889813  0.750000  1
  Mo  Mo24  1  0.000125  0.000063  0.497142  1
  Mo  Mo25  1  0.000125  0.000063  0.002858  1
  P  P26  1  0.330109  0.665055  0.250000  1
  P  P27  1  0.667275  0.333637  0.750000  1
