# generated using pymatgen
data_CaHo3Re2(B8W)2
_symmetry_space_group_name_H-M   'P 1'
_cell_length_a   3.61121700
_cell_length_b   6.00836763
_cell_length_c   11.60908009
_cell_angle_alpha   89.93932008
_cell_angle_beta   90.00000000
_cell_angle_gamma   90.00000000
_symmetry_Int_Tables_number   1
_chemical_formula_structural   CaHo3Re2(B8W)2
_chemical_formula_sum   'Ca1 Ho3 Re2 B16 W2'
_cell_volume   251.88809824
_cell_formula_units_Z   1
loop_
 _symmetry_equiv_pos_site_id
 _symmetry_equiv_pos_as_xyz
  1  'x, y, z'
loop_
 _atom_site_type_symbol
 _atom_site_label
 _atom_site_symmetry_multiplicity
 _atom_site_fract_x
 _atom_site_fract_y
 _atom_site_fract_z
 _atom_site_occupancy
  Ca  Ca0  1  0.000000  0.627458  0.149641  1
  Ho  Ho1  1  0.000000  0.372322  0.850973  1
  Ho  Ho2  1  0.000000  0.127846  0.349279  1
  Ho  Ho3  1  0.000000  0.872796  0.649993  1
  Re  Re4  1  0.000000  0.133097  0.083301  1
  Re  Re5  1  0.000000  0.868432  0.914713  1
  B  B6  1  0.500000  0.979165  0.191430  1
  B  B7  1  0.500000  0.021890  0.808393  1
  B  B8  1  0.500000  0.475490  0.305969  1
  B  B9  1  0.500000  0.524229  0.694493  1
  B  B10  1  0.500000  0.788915  0.313143  1
  B  B11  1  0.500000  0.210674  0.687247  1
  B  B12  1  0.500000  0.284083  0.184254  1
  B  B13  1  0.500000  0.714604  0.816092  1
  B  B14  1  0.500000  0.867052  0.467922  1
  B  B15  1  0.500000  0.132835  0.532254  1
  B  B16  1  0.500000  0.363444  0.031392  1
  B  B17  1  0.500000  0.636402  0.968202  1
  B  B18  1  0.500000  0.886246  0.047475  1
  B  B19  1  0.500000  0.112841  0.952661  1
  B  B20  1  0.500000  0.385147  0.452494  1
  B  B21  1  0.500000  0.614225  0.547775  1
  W  W22  1  0.000000  0.631163  0.415021  1
  W  W23  1  0.000000  0.369644  0.585883  1
