# generated using pymatgen
data_HoHf4Zr5Sn6
_symmetry_space_group_name_H-M   'P 1'
_cell_length_a   8.60015312
_cell_length_b   8.60015353
_cell_length_c   5.82062800
_cell_angle_alpha   90.00000000
_cell_angle_beta   90.00000000
_cell_angle_gamma   120.93786336
_symmetry_Int_Tables_number   1
_chemical_formula_structural   HoHf4Zr5Sn6
_chemical_formula_sum   'Ho1 Hf4 Zr5 Sn6'
_cell_volume   369.25847985
_cell_formula_units_Z   1
loop_
 _symmetry_equiv_pos_site_id
 _symmetry_equiv_pos_as_xyz
  1  'x, y, z'
loop_
 _atom_site_type_symbol
 _atom_site_label
 _atom_site_symmetry_multiplicity
 _atom_site_fract_x
 _atom_site_fract_y
 _atom_site_fract_z
 _atom_site_occupancy
  Ho  Ho0  1  0.765772  0.765772  0.750000  1
  Hf  Hf1  1  0.665358  0.333417  0.000496  1
  Hf  Hf2  1  0.333417  0.665358  0.000496  1
  Hf  Hf3  1  0.333417  0.665358  0.499504  1
  Hf  Hf4  1  0.665358  0.333417  0.499504  1
  Zr  Zr5  1  0.252529  0.002104  0.750000  1
  Zr  Zr6  1  0.002104  0.252529  0.750000  1
  Zr  Zr7  1  0.238691  0.238691  0.250000  1
  Zr  Zr8  1  0.748265  0.998628  0.250000  1
  Zr  Zr9  1  0.998628  0.748265  0.250000  1
  Sn  Sn10  1  0.393047  0.393047  0.750000  1
  Sn  Sn11  1  0.605938  0.003168  0.750000  1
  Sn  Sn12  1  0.003168  0.605938  0.750000  1
  Sn  Sn13  1  0.604040  0.604040  0.250000  1
  Sn  Sn14  1  0.391101  0.999166  0.250000  1
  Sn  Sn15  1  0.999166  0.391101  0.250000  1
