# generated using pymatgen
data_Hf5Th4Si8W
_symmetry_space_group_name_H-M   'P 1'
_cell_length_a   7.33581094
_cell_length_b   7.33581094
_cell_length_c   13.52855200
_cell_angle_alpha   90.00000000
_cell_angle_beta   90.00000000
_cell_angle_gamma   89.91675651
_symmetry_Int_Tables_number   1
_chemical_formula_structural   Hf5Th4Si8W
_chemical_formula_sum   'Hf10 Th8 Si16 W2'
_cell_volume   728.02638056
_cell_formula_units_Z   2
loop_
 _symmetry_equiv_pos_site_id
 _symmetry_equiv_pos_as_xyz
  1  'x, y, z'
loop_
 _atom_site_type_symbol
 _atom_site_label
 _atom_site_symmetry_multiplicity
 _atom_site_fract_x
 _atom_site_fract_y
 _atom_site_fract_z
 _atom_site_occupancy
  Hf  Hf0  1  0.826598  0.826598  0.500000  1
  Hf  Hf1  1  0.173402  0.173402  0.000000  1
  Hf  Hf2  1  0.496897  0.348962  0.126091  1
  Hf  Hf3  1  0.503103  0.651038  0.626091  1
  Hf  Hf4  1  0.845547  0.005154  0.873074  1
  Hf  Hf5  1  0.154453  0.994846  0.373074  1
  Hf  Hf6  1  0.651038  0.503103  0.373909  1
  Hf  Hf7  1  0.348962  0.496897  0.873909  1
  Hf  Hf8  1  0.005154  0.845547  0.126926  1
  Hf  Hf9  1  0.994846  0.154453  0.626926  1
  Th  Th10  1  0.498006  0.158268  0.534032  1
  Th  Th11  1  0.501994  0.841732  0.034032  1
  Th  Th12  1  0.655459  0.001408  0.283306  1
  Th  Th13  1  0.344541  0.998592  0.783306  1
  Th  Th14  1  0.841732  0.501994  0.965968  1
  Th  Th15  1  0.158268  0.498006  0.465968  1
  Th  Th16  1  0.001408  0.655459  0.716694  1
  Th  Th17  1  0.998592  0.344541  0.216694  1
  Si  Si18  1  0.798327  0.133311  0.065076  1
  Si  Si19  1  0.201673  0.866689  0.565076  1
  Si  Si20  1  0.633570  0.699579  0.816003  1
  Si  Si21  1  0.366430  0.300421  0.316003  1
  Si  Si22  1  0.866689  0.201673  0.434924  1
  Si  Si23  1  0.133311  0.798327  0.934924  1
  Si  Si24  1  0.699579  0.633570  0.183997  1
  Si  Si25  1  0.300421  0.366430  0.683997  1
  Si  Si26  1  0.548449  0.209331  0.933514  1
  Si  Si27  1  0.451551  0.790669  0.433514  1
  Si  Si28  1  0.709244  0.955921  0.685327  1
  Si  Si29  1  0.290756  0.044079  0.185327  1
  Si  Si30  1  0.790669  0.451551  0.566486  1
  Si  Si31  1  0.209331  0.548449  0.066486  1
  Si  Si32  1  0.955921  0.709244  0.314673  1
  Si  Si33  1  0.044079  0.290756  0.814673  1
  W  W34  1  0.672337  0.327663  0.750000  1
  W  W35  1  0.327663  0.672337  0.250000  1
