# generated using pymatgen
data_PrYEr6(Si3Rh)4
_symmetry_space_group_name_H-M   'P 1'
_cell_length_a   8.17186100
_cell_length_b   8.17186056
_cell_length_c   7.91686400
_cell_angle_alpha   90.00000000
_cell_angle_beta   90.00000000
_cell_angle_gamma   119.99999774
_symmetry_Int_Tables_number   1
_chemical_formula_structural   PrYEr6(Si3Rh)4
_chemical_formula_sum   'Pr1 Y1 Er6 Si12 Rh4'
_cell_volume   457.85266271
_cell_formula_units_Z   1
loop_
 _symmetry_equiv_pos_site_id
 _symmetry_equiv_pos_as_xyz
  1  'x, y, z'
loop_
 _atom_site_type_symbol
 _atom_site_label
 _atom_site_symmetry_multiplicity
 _atom_site_fract_x
 _atom_site_fract_y
 _atom_site_fract_z
 _atom_site_occupancy
  Pr  Pr0  1  0.000000  0.000000  0.750000  1
  Y  Y1  1  0.000000  0.000000  0.250000  1
  Er  Er2  1  0.491576  0.508424  0.250000  1
  Er  Er3  1  0.491576  0.983151  0.250000  1
  Er  Er4  1  0.016849  0.508424  0.250000  1
  Er  Er5  1  0.508217  0.491783  0.750000  1
  Er  Er6  1  0.983564  0.491783  0.750000  1
  Er  Er7  1  0.508217  0.016436  0.750000  1
  Si  Si8  1  0.831691  0.168309  0.499373  1
  Si  Si9  1  0.831691  0.663384  0.499373  1
  Si  Si10  1  0.336616  0.168309  0.499373  1
  Si  Si11  1  0.831691  0.168309  0.000627  1
  Si  Si12  1  0.831691  0.663384  0.000627  1
  Si  Si13  1  0.336616  0.168309  0.000627  1
  Si  Si14  1  0.168067  0.831933  0.004736  1
  Si  Si15  1  0.663867  0.831933  0.004736  1
  Si  Si16  1  0.168067  0.336133  0.004736  1
  Si  Si17  1  0.168067  0.831933  0.495264  1
  Si  Si18  1  0.663867  0.831933  0.495264  1
  Si  Si19  1  0.168067  0.336133  0.495264  1
  Rh  Rh20  1  0.666667  0.333333  0.462845  1
  Rh  Rh21  1  0.666667  0.333333  0.037155  1
  Rh  Rh22  1  0.333333  0.666667  0.966185  1
  Rh  Rh23  1  0.333333  0.666667  0.533815  1
