# generated using pymatgen
data_Sr2Al16FePt8
_symmetry_space_group_name_H-M   'P 1'
_cell_length_a   11.18617261
_cell_length_b   11.18617401
_cell_length_c   11.18617427
_cell_angle_alpha   158.54913613
_cell_angle_beta   116.01964471
_cell_angle_gamma   68.32071213
_symmetry_Int_Tables_number   1
_chemical_formula_structural   Sr2Al16FePt8
_chemical_formula_sum   'Sr2 Al16 Fe1 Pt8'
_cell_volume   456.77242056
_cell_formula_units_Z   1
loop_
 _symmetry_equiv_pos_site_id
 _symmetry_equiv_pos_as_xyz
  1  'x, y, z'
loop_
 _atom_site_type_symbol
 _atom_site_label
 _atom_site_symmetry_multiplicity
 _atom_site_fract_x
 _atom_site_fract_y
 _atom_site_fract_z
 _atom_site_occupancy
  Sr  Sr0  1  0.229519  0.229868  0.999651  1
  Sr  Sr1  1  0.769784  0.770132  0.999651  1
  Al  Al2  1  0.276730  0.393093  0.883637  1
  Al  Al3  1  0.090389  0.923018  0.167372  1
  Al  Al4  1  0.506164  0.203594  0.302571  1
  Al  Al5  1  0.244353  0.076982  0.167372  1
  Al  Al6  1  0.911011  0.416840  0.494170  1
  Al  Al7  1  0.720099  0.595737  0.124361  1
  Al  Al8  1  0.902498  0.205781  0.696716  1
  Al  Al9  1  0.490936  0.794219  0.696716  1
  Al  Al10  1  0.385495  0.000000  0.385495  1
  Al  Al11  1  0.626505  0.000000  0.626505  1
  Al  Al12  1  0.490545  0.606907  0.883637  1
  Al  Al13  1  0.098977  0.796406  0.302571  1
  Al  Al14  1  0.898258  0.078741  0.819516  1
  Al  Al15  1  0.740775  0.921259  0.819516  1
  Al  Al16  1  0.528624  0.404263  0.124361  1
  Al  Al17  1  0.077330  0.583160  0.494170  1
  Fe  Fe18  1  0.773841  0.500000  0.273841  1
  Pt  Pt19  1  0.030101  0.342984  0.687118  1
  Pt  Pt20  1  0.623212  0.120398  0.502814  1
  Pt  Pt21  1  0.251381  0.500000  0.751381  1
  Pt  Pt22  1  0.382415  0.879602  0.502814  1
  Pt  Pt23  1  0.990101  0.000000  0.990101  1
  Pt  Pt24  1  0.649206  0.340793  0.308413  1
  Pt  Pt25  1  0.344134  0.657016  0.687118  1
  Pt  Pt26  1  0.967620  0.659207  0.308413  1
