# generated using pymatgen
data_Nd3Pa(B4W)4
_symmetry_space_group_name_H-M   'P 1'
_cell_length_a   3.69475100
_cell_length_b   6.10270780
_cell_length_c   11.80752636
_cell_angle_alpha   90.01956629
_cell_angle_beta   90.00000000
_cell_angle_gamma   90.00000000
_symmetry_Int_Tables_number   1
_chemical_formula_structural   Nd3Pa(B4W)4
_chemical_formula_sum   'Nd3 Pa1 B16 W4'
_cell_volume   266.23592069
_cell_formula_units_Z   1
loop_
 _symmetry_equiv_pos_site_id
 _symmetry_equiv_pos_as_xyz
  1  'x, y, z'
loop_
 _atom_site_type_symbol
 _atom_site_label
 _atom_site_symmetry_multiplicity
 _atom_site_fract_x
 _atom_site_fract_y
 _atom_site_fract_z
 _atom_site_occupancy
  Nd  Nd0  1  0.000000  0.125193  0.150490  1
  Nd  Nd1  1  0.000000  0.874742  0.849745  1
  Nd  Nd2  1  0.000000  0.625772  0.349351  1
  Pa  Pa3  1  0.000000  0.375744  0.650557  1
  B  B4  1  0.500000  0.475488  0.190562  1
  B  B5  1  0.500000  0.521372  0.806501  1
  B  B6  1  0.500000  0.975990  0.310109  1
  B  B7  1  0.500000  0.031239  0.690846  1
  B  B8  1  0.500000  0.282003  0.315309  1
  B  B9  1  0.500000  0.709857  0.684118  1
  B  B10  1  0.500000  0.783158  0.184524  1
  B  B11  1  0.500000  0.217520  0.812493  1
  B  B12  1  0.500000  0.363391  0.470627  1
  B  B13  1  0.500000  0.635214  0.534584  1
  B  B14  1  0.500000  0.863086  0.031986  1
  B  B15  1  0.500000  0.137173  0.966495  1
  B  B16  1  0.500000  0.386872  0.045199  1
  B  B17  1  0.500000  0.611776  0.953181  1
  B  B18  1  0.500000  0.887796  0.455266  1
  B  B19  1  0.500000  0.115200  0.548062  1
  W  W20  1  0.000000  0.130657  0.417423  1
  W  W21  1  0.000000  0.869860  0.586833  1
  W  W22  1  0.000000  0.628940  0.082886  1
  W  W23  1  0.000000  0.371962  0.912857  1
