# generated using pymatgen
data_La2B2MoO9
_symmetry_space_group_name_H-M   'P 1'
_cell_length_a   5.39675646
_cell_length_b   7.11791569
_cell_length_c   10.87681703
_cell_angle_alpha   74.84527892
_cell_angle_beta   76.12190771
_cell_angle_gamma   73.46161392
_symmetry_Int_Tables_number   1
_chemical_formula_structural   La2B2MoO9
_chemical_formula_sum   'La4 B4 Mo2 O18'
_cell_volume   380.37391354
_cell_formula_units_Z   2
loop_
 _symmetry_equiv_pos_site_id
 _symmetry_equiv_pos_as_xyz
  1  'x, y, z'
loop_
 _atom_site_type_symbol
 _atom_site_label
 _atom_site_symmetry_multiplicity
 _atom_site_fract_x
 _atom_site_fract_y
 _atom_site_fract_z
 _atom_site_occupancy
  La  La0  1  0.370295  0.079582  0.686843  1
  La  La1  1  0.629706  0.920417  0.313157  1
  La  La2  1  0.155146  0.207586  0.048900  1
  La  La3  1  0.844854  0.792414  0.951100  1
  B  B4  1  0.456139  0.587072  0.864111  1
  B  B5  1  0.543859  0.412928  0.135889  1
  B  B6  1  0.738756  0.246008  0.847321  1
  B  B7  1  0.261243  0.753991  0.152678  1
  Mo  Mo8  1  0.033048  0.709541  0.580109  1
  Mo  Mo9  1  0.966953  0.290458  0.419891  1
  O  O10  1  0.988758  0.135120  0.866397  1
  O  O11  1  0.011242  0.864880  0.133603  1
  O  O12  1  0.548708  0.143187  0.860510  1
  O  O13  1  0.451293  0.856811  0.139491  1
  O  O14  1  0.689828  0.453645  0.822746  1
  O  O15  1  0.310173  0.546355  0.177254  1
  O  O16  1  0.231397  0.524350  0.921373  1
  O  O17  1  0.768602  0.475651  0.078627  1
  O  O18  1  0.473931  0.780482  0.853590  1
  O  O19  1  0.526069  0.219519  0.146411  1
  O  O20  1  0.306901  0.182772  0.444333  1
  O  O21  1  0.693100  0.817228  0.555666  1
  O  O22  1  0.077404  0.826614  0.700005  1
  O  O23  1  0.922597  0.173386  0.299994  1
  O  O24  1  0.236458  0.789740  0.431064  1
  O  O25  1  0.763544  0.210259  0.568936  1
  O  O26  1  0.135451  0.442874  0.622714  1
  O  O27  1  0.864548  0.557126  0.377286  1
