# generated using pymatgen
data_La14Zn2NiPd3
_symmetry_space_group_name_H-M   'P 1'
_cell_length_a   3.88864400
_cell_length_b   12.52226286
_cell_length_c   12.52226286
_cell_angle_alpha   90.53182296
_cell_angle_beta   90.00000000
_cell_angle_gamma   90.00000000
_symmetry_Int_Tables_number   1
_chemical_formula_structural   La14Zn2NiPd3
_chemical_formula_sum   'La14 Zn2 Ni1 Pd3'
_cell_volume   609.74059315
_cell_formula_units_Z   1
loop_
 _symmetry_equiv_pos_site_id
 _symmetry_equiv_pos_as_xyz
  1  'x, y, z'
loop_
 _atom_site_type_symbol
 _atom_site_label
 _atom_site_symmetry_multiplicity
 _atom_site_fract_x
 _atom_site_fract_y
 _atom_site_fract_z
 _atom_site_occupancy
  La  La0  1  0.500000  0.999809  0.500191  1
  La  La1  1  0.500000  0.505806  0.994194  1
  La  La2  1  0.000000  0.320296  0.820742  1
  La  La3  1  0.000000  0.679258  0.179704  1
  La  La4  1  0.000000  0.180180  0.319820  1
  La  La5  1  0.000000  0.818049  0.681951  1
  La  La6  1  0.500000  0.559482  0.705480  1
  La  La7  1  0.500000  0.442712  0.300592  1
  La  La8  1  0.500000  0.942640  0.196580  1
  La  La9  1  0.500000  0.055812  0.802556  1
  La  La10  1  0.500000  0.697444  0.444188  1
  La  La11  1  0.500000  0.303420  0.557360  1
  La  La12  1  0.500000  0.199408  0.057288  1
  La  La13  1  0.500000  0.794520  0.940518  1
  Zn  Zn14  1  0.000000  0.500860  0.502396  1
  Zn  Zn15  1  0.000000  0.997604  0.999140  1
  Ni  Ni16  1  0.000000  0.631359  0.868641  1
  Pd  Pd17  1  0.000000  0.131697  0.631678  1
  Pd  Pd18  1  0.000000  0.868322  0.368303  1
  Pd  Pd19  1  0.000000  0.371322  0.128678  1
