# generated using pymatgen
data_Ce3Pr3Co17MoP12
_symmetry_space_group_name_H-M   'P 1'
_cell_length_a   3.78004100
_cell_length_b   10.66743352
_cell_length_c   12.38983820
_cell_angle_alpha   90.11078724
_cell_angle_beta   90.00000000
_cell_angle_gamma   90.00000000
_symmetry_Int_Tables_number   1
_chemical_formula_structural   Ce3Pr3Co17MoP12
_chemical_formula_sum   'Ce3 Pr3 Co17 Mo1 P12'
_cell_volume   499.59867571
_cell_formula_units_Z   1
loop_
 _symmetry_equiv_pos_site_id
 _symmetry_equiv_pos_as_xyz
  1  'x, y, z'
loop_
 _atom_site_type_symbol
 _atom_site_label
 _atom_site_symmetry_multiplicity
 _atom_site_fract_x
 _atom_site_fract_y
 _atom_site_fract_z
 _atom_site_occupancy
  Ce  Ce0  1  0.000000  0.500442  0.526660  1
  Ce  Ce1  1  0.500000  0.000296  0.475849  1
  Ce  Ce2  1  0.000000  0.682283  0.793434  1
  Pr  Pr3  1  0.500000  0.817298  0.206724  1
  Pr  Pr4  1  0.500000  0.182584  0.206425  1
  Pr  Pr5  1  0.000000  0.315161  0.795401  1
  Co  Co6  1  0.000000  0.998920  0.840419  1
  Co  Co7  1  0.500000  0.506115  0.700359  1
  Co  Co8  1  0.000000  0.000111  0.302916  1
  Co  Co9  1  0.000000  0.500984  0.986240  1
  Co  Co10  1  0.500000  0.998969  0.013003  1
  Co  Co11  1  0.500000  0.332098  0.992006  1
  Co  Co12  1  0.500000  0.667892  0.990110  1
  Co  Co13  1  0.000000  0.164864  0.003943  1
  Co  Co14  1  0.000000  0.833313  0.002276  1
  Co  Co15  1  0.500000  0.299312  0.431882  1
  Co  Co16  1  0.500000  0.700987  0.431941  1
  Co  Co17  1  0.000000  0.201663  0.568988  1
  Co  Co18  1  0.000000  0.799593  0.571086  1
  Co  Co19  1  0.500000  0.879477  0.712089  1
  Co  Co20  1  0.500000  0.116625  0.709723  1
  Co  Co21  1  0.000000  0.618343  0.292317  1
  Co  Co22  1  0.000000  0.381611  0.291874  1
  Mo  Mo23  1  0.500000  0.500574  0.154618  1
  P  P24  1  0.500000  0.500643  0.883986  1
  P  P25  1  0.000000  0.999392  0.113842  1
  P  P26  1  0.500000  0.500075  0.346444  1
  P  P27  1  0.000000  0.000378  0.658340  1
  P  P28  1  0.500000  0.306419  0.614003  1
  P  P29  1  0.500000  0.695830  0.613979  1
  P  P30  1  0.000000  0.194483  0.387700  1
  P  P31  1  0.000000  0.805684  0.388272  1
  P  P32  1  0.500000  0.849303  0.893711  1
  P  P33  1  0.500000  0.148239  0.894434  1
  P  P34  1  0.000000  0.654652  0.102900  1
  P  P35  1  0.000000  0.345386  0.102110  1
