# generated using pymatgen
data_Ba3PrEr2TmO9
_symmetry_space_group_name_H-M   'P 1'
_cell_length_a   9.24822000
_cell_length_b   9.24821911
_cell_length_c   9.24821830
_cell_angle_alpha   38.96973061
_cell_angle_beta   38.96973705
_cell_angle_gamma   38.96973436
_symmetry_Int_Tables_number   1
_chemical_formula_structural   Ba3PrEr2TmO9
_chemical_formula_sum   'Ba3 Pr1 Er2 Tm1 O9'
_cell_volume   281.34454092
_cell_formula_units_Z   1
loop_
 _symmetry_equiv_pos_site_id
 _symmetry_equiv_pos_as_xyz
  1  'x, y, z'
loop_
 _atom_site_type_symbol
 _atom_site_label
 _atom_site_symmetry_multiplicity
 _atom_site_fract_x
 _atom_site_fract_y
 _atom_site_fract_z
 _atom_site_occupancy
  Ba  Ba0  1  0.001265  0.001265  0.001265  1
  Ba  Ba1  1  0.832902  0.832902  0.832902  1
  Ba  Ba2  1  0.403802  0.403802  0.403802  1
  Pr  Pr3  1  0.574013  0.574013  0.574013  1
  Er  Er4  1  0.135933  0.135933  0.135933  1
  Er  Er5  1  0.261578  0.261578  0.261578  1
  Tm  Tm6  1  0.701143  0.701143  0.701143  1
  O  O7  1  0.520846  0.441070  0.973682  1
  O  O8  1  0.441070  0.973682  0.520846  1
  O  O9  1  0.973682  0.520846  0.441070  1
  O  O10  1  0.431771  0.261966  0.898297  1
  O  O11  1  0.261966  0.898297  0.431771  1
  O  O12  1  0.898297  0.431771  0.261966  1
  O  O13  1  0.974998  0.415099  0.862137  1
  O  O14  1  0.862137  0.974998  0.415099  1
  O  O15  1  0.415099  0.862137  0.974998  1
