# generated using pymatgen
data_Er6Tm10MgAg3Rh4
_symmetry_space_group_name_H-M   'P 1'
_cell_length_a   9.46049147
_cell_length_b   9.48102423
_cell_length_c   9.48102500
_cell_angle_alpha   60.00000079
_cell_angle_beta   59.92817955
_cell_angle_gamma   59.92818201
_symmetry_Int_Tables_number   1
_chemical_formula_structural   Er6Tm10MgAg3Rh4
_chemical_formula_sum   'Er6 Tm10 Mg1 Ag3 Rh4'
_cell_volume   600.67139419
_cell_formula_units_Z   1
loop_
 _symmetry_equiv_pos_site_id
 _symmetry_equiv_pos_as_xyz
  1  'x, y, z'
loop_
 _atom_site_type_symbol
 _atom_site_label
 _atom_site_symmetry_multiplicity
 _atom_site_fract_x
 _atom_site_fract_y
 _atom_site_fract_z
 _atom_site_occupancy
  Er  Er0  1  0.931939  0.565042  0.565042  1
  Er  Er1  1  0.563589  0.935397  0.935397  1
  Er  Er2  1  0.563589  0.935397  0.565616  1
  Er  Er3  1  0.931939  0.565042  0.937976  1
  Er  Er4  1  0.563589  0.565616  0.935397  1
  Er  Er5  1  0.931939  0.937976  0.565042  1
  Tm  Tm6  1  0.352032  0.350427  0.350427  1
  Tm  Tm7  1  0.352032  0.350427  0.947114  1
  Tm  Tm8  1  0.352032  0.947114  0.350427  1
  Tm  Tm9  1  0.939296  0.353568  0.353568  1
  Tm  Tm10  1  0.811449  0.188086  0.188086  1
  Tm  Tm11  1  0.186050  0.813323  0.813323  1
  Tm  Tm12  1  0.186050  0.813323  0.187302  1
  Tm  Tm13  1  0.811449  0.188086  0.812379  1
  Tm  Tm14  1  0.186050  0.187302  0.813323  1
  Tm  Tm15  1  0.811449  0.812379  0.188086  1
  Mg  Mg16  1  0.280716  0.573094  0.573094  1
  Ag  Ag17  1  0.582290  0.582687  0.582687  1
  Ag  Ag18  1  0.582290  0.582687  0.252335  1
  Ag  Ag19  1  0.582290  0.252335  0.582687  1
  Rh  Rh20  1  0.142637  0.143598  0.143598  1
  Rh  Rh21  1  0.142637  0.143598  0.570166  1
  Rh  Rh22  1  0.142637  0.570166  0.143598  1
  Rh  Rh23  1  0.570027  0.143324  0.143324  1
