# generated using pymatgen
data_Tb5Y5(In3Cl)2
_symmetry_space_group_name_H-M   'P 1'
_cell_length_a   9.15031326
_cell_length_b   9.15419727
_cell_length_c   6.71270600
_cell_angle_alpha   89.99991496
_cell_angle_beta   90.00002107
_cell_angle_gamma   120.01399941
_symmetry_Int_Tables_number   1
_chemical_formula_structural   Tb5Y5(In3Cl)2
_chemical_formula_sum   'Tb5 Y5 In6 Cl2'
_cell_volume   486.88142445
_cell_formula_units_Z   1
loop_
 _symmetry_equiv_pos_site_id
 _symmetry_equiv_pos_as_xyz
  1  'x, y, z'
loop_
 _atom_site_type_symbol
 _atom_site_label
 _atom_site_symmetry_multiplicity
 _atom_site_fract_x
 _atom_site_fract_y
 _atom_site_fract_z
 _atom_site_occupancy
  Tb  Tb0  1  0.742436  0.742388  0.249998  1
  Tb  Tb1  1  0.257569  0.999953  0.250001  1
  Tb  Tb2  1  0.000000  0.257503  0.250001  1
  Tb  Tb3  1  0.257480  0.257466  0.749997  1
  Tb  Tb4  1  0.742516  0.999986  0.750001  1
  Y  Y5  1  0.666686  0.333416  0.999946  1
  Y  Y6  1  0.333306  0.666726  0.999944  1
  Y  Y7  1  0.666695  0.333427  0.500055  1
  Y  Y8  1  0.333313  0.666734  0.500053  1
  Y  Y9  1  0.999999  0.742358  0.750001  1
  In  In10  1  0.604581  0.000029  0.250000  1
  In  In11  1  0.000000  0.604640  0.250000  1
  In  In12  1  0.395419  0.395447  0.250000  1
  In  In13  1  0.395001  0.999719  0.749999  1
  In  In14  1  0.000000  0.395397  0.749999  1
  In  In15  1  0.605000  0.604718  0.750001  1
  Cl  Cl16  1  0.000000  0.000047  0.999966  1
  Cl  Cl17  1  0.000000  0.000046  0.500035  1
