# generated using pymatgen
data_LiZr3(NiAs)4
_symmetry_space_group_name_H-M   'P 1'
_cell_length_a   3.87597000
_cell_length_b   6.48550012
_cell_length_c   7.29224619
_cell_angle_alpha   90.20160626
_cell_angle_beta   90.00000000
_cell_angle_gamma   90.00000000
_symmetry_Int_Tables_number   1
_chemical_formula_structural   LiZr3(NiAs)4
_chemical_formula_sum   'Li1 Zr3 Ni4 As4'
_cell_volume   183.30846155
_cell_formula_units_Z   1
loop_
 _symmetry_equiv_pos_site_id
 _symmetry_equiv_pos_as_xyz
  1  'x, y, z'
loop_
 _atom_site_type_symbol
 _atom_site_label
 _atom_site_symmetry_multiplicity
 _atom_site_fract_x
 _atom_site_fract_y
 _atom_site_fract_z
 _atom_site_occupancy
  Li  Li0  1  0.250000  0.483262  0.186697  1
  Zr  Zr1  1  0.750000  0.519853  0.813374  1
  Zr  Zr2  1  0.750000  0.024229  0.688211  1
  Zr  Zr3  1  0.250000  0.981669  0.312157  1
  Ni  Ni4  1  0.250000  0.857647  0.938003  1
  Ni  Ni5  1  0.750000  0.135984  0.064111  1
  Ni  Ni6  1  0.750000  0.652193  0.433050  1
  Ni  Ni7  1  0.250000  0.349560  0.558610  1
  As  As8  1  0.250000  0.728801  0.617188  1
  As  As9  1  0.750000  0.277815  0.379350  1
  As  As10  1  0.750000  0.754105  0.116009  1
  As  As11  1  0.250000  0.234882  0.893241  1
