# generated using pymatgen
data_Sm2HoIn3CuPt2
_symmetry_space_group_name_H-M   'P 1'
_cell_length_a   7.66890003
_cell_length_b   7.66889998
_cell_length_c   3.92837700
_cell_angle_alpha   90.00000000
_cell_angle_beta   90.00000000
_cell_angle_gamma   119.83419570
_symmetry_Int_Tables_number   1
_chemical_formula_structural   Sm2HoIn3CuPt2
_chemical_formula_sum   'Sm2 Ho1 In3 Cu1 Pt2'
_cell_volume   200.41633637
_cell_formula_units_Z   1
loop_
 _symmetry_equiv_pos_site_id
 _symmetry_equiv_pos_as_xyz
  1  'x, y, z'
loop_
 _atom_site_type_symbol
 _atom_site_label
 _atom_site_symmetry_multiplicity
 _atom_site_fract_x
 _atom_site_fract_y
 _atom_site_fract_z
 _atom_site_occupancy
  Sm  Sm0  1  0.586326  0.998862  0.500000  1
  Sm  Sm1  1  0.998862  0.586326  0.500000  1
  Ho  Ho2  1  0.413537  0.413537  0.500000  1
  In  In3  1  0.752066  0.752066  0.000000  1
  In  In4  1  0.248099  0.001842  0.000000  1
  In  In5  1  0.001842  0.248099  0.000000  1
  Cu  Cu6  1  0.002407  0.002407  0.500000  1
  Pt  Pt7  1  0.661941  0.334921  0.000000  1
  Pt  Pt8  1  0.334921  0.661941  0.000000  1
