# generated using pymatgen
data_Yb2In2AgPt
_symmetry_space_group_name_H-M   'P 1'
_cell_length_a   4.29852800
_cell_length_b   7.45647441
_cell_length_c   8.77382357
_cell_angle_alpha   89.72716518
_cell_angle_beta   90.00000000
_cell_angle_gamma   90.00000000
_symmetry_Int_Tables_number   1
_chemical_formula_structural   Yb2In2AgPt
_chemical_formula_sum   'Yb4 In4 Ag2 Pt2'
_cell_volume   281.21421160
_cell_formula_units_Z   2
loop_
 _symmetry_equiv_pos_site_id
 _symmetry_equiv_pos_as_xyz
  1  'x, y, z'
loop_
 _atom_site_type_symbol
 _atom_site_label
 _atom_site_symmetry_multiplicity
 _atom_site_fract_x
 _atom_site_fract_y
 _atom_site_fract_z
 _atom_site_occupancy
  Yb  Yb0  1  0.250000  0.025492  0.168038  1
  Yb  Yb1  1  0.750000  0.974508  0.831962  1
  Yb  Yb2  1  0.250000  0.545871  0.306858  1
  Yb  Yb3  1  0.750000  0.454129  0.693142  1
  In  In4  1  0.750000  0.355017  0.057920  1
  In  In5  1  0.250000  0.644983  0.942080  1
  In  In6  1  0.750000  0.853669  0.435830  1
  In  In7  1  0.250000  0.146331  0.564170  1
  Ag  Ag8  1  0.250000  0.758815  0.634266  1
  Ag  Ag9  1  0.750000  0.241185  0.365734  1
  Pt  Pt10  1  0.250000  0.258310  0.867400  1
  Pt  Pt11  1  0.750000  0.741690  0.132600  1
