# generated using pymatgen
data_Er2Tm14In6CoPt
_symmetry_space_group_name_H-M   'P 1'
_cell_length_a   10.32331000
_cell_length_b   10.32330888
_cell_length_c   6.91808400
_cell_angle_alpha   90.00000000
_cell_angle_beta   90.00000000
_cell_angle_gamma   119.99999717
_symmetry_Int_Tables_number   1
_chemical_formula_structural   Er2Tm14In6CoPt
_chemical_formula_sum   'Er2 Tm14 In6 Co1 Pt1'
_cell_volume   638.49039164
_cell_formula_units_Z   1
loop_
 _symmetry_equiv_pos_site_id
 _symmetry_equiv_pos_as_xyz
  1  'x, y, z'
loop_
 _atom_site_type_symbol
 _atom_site_label
 _atom_site_symmetry_multiplicity
 _atom_site_fract_x
 _atom_site_fract_y
 _atom_site_fract_z
 _atom_site_occupancy
  Er  Er0  1  0.000000  0.000000  0.778349  1
  Er  Er1  1  0.000000  0.000000  0.277331  1
  Tm  Tm2  1  0.530919  0.061838  0.795418  1
  Tm  Tm3  1  0.938162  0.469081  0.795418  1
  Tm  Tm4  1  0.530919  0.469081  0.795418  1
  Tm  Tm5  1  0.464516  0.929033  0.292298  1
  Tm  Tm6  1  0.070967  0.535484  0.292298  1
  Tm  Tm7  1  0.464516  0.535484  0.292298  1
  Tm  Tm8  1  0.824372  0.648743  0.499432  1
  Tm  Tm9  1  0.351257  0.175628  0.499432  1
  Tm  Tm10  1  0.824372  0.175628  0.499432  1
  Tm  Tm11  1  0.178477  0.356955  0.000574  1
  Tm  Tm12  1  0.643045  0.821523  0.000574  1
  Tm  Tm13  1  0.178477  0.821523  0.000574  1
  Tm  Tm14  1  0.666667  0.333333  0.170989  1
  Tm  Tm15  1  0.333333  0.666667  0.682918  1
  In  In16  1  0.837555  0.675109  0.037369  1
  In  In17  1  0.324891  0.162445  0.037369  1
  In  In18  1  0.837555  0.162445  0.037369  1
  In  In19  1  0.163073  0.326147  0.537894  1
  In  In20  1  0.673853  0.836927  0.537894  1
  In  In21  1  0.163073  0.836927  0.537894  1
  Co  Co22  1  0.333333  0.666667  0.068224  1
  Pt  Pt23  1  0.666667  0.333333  0.569133  1
