# generated using pymatgen
data_Tb2DyGa8Ag3
_symmetry_space_group_name_H-M   'P 1'
_cell_length_a   4.34804103
_cell_length_b   8.36439869
_cell_length_c   8.36439771
_cell_angle_alpha   69.82834510
_cell_angle_beta   74.93505550
_cell_angle_gamma   74.93506509
_symmetry_Int_Tables_number   1
_chemical_formula_structural   Tb2DyGa8Ag3
_chemical_formula_sum   'Tb2 Dy1 Ga8 Ag3'
_cell_volume   270.82068714
_cell_formula_units_Z   1
loop_
 _symmetry_equiv_pos_site_id
 _symmetry_equiv_pos_as_xyz
  1  'x, y, z'
loop_
 _atom_site_type_symbol
 _atom_site_label
 _atom_site_symmetry_multiplicity
 _atom_site_fract_x
 _atom_site_fract_y
 _atom_site_fract_z
 _atom_site_occupancy
  Tb  Tb0  1  0.499866  0.500134  0.500134  1
  Tb  Tb1  1  0.799714  0.200286  0.200286  1
  Dy  Dy2  1  0.200137  0.799863  0.799863  1
  Ga  Ga3  1  0.643696  0.073265  0.639342  1
  Ga  Ga4  1  0.356383  0.926253  0.360982  1
  Ga  Ga5  1  0.643696  0.639342  0.073265  1
  Ga  Ga6  1  0.356383  0.360982  0.926253  1
  Ga  Ga7  1  0.841462  0.789276  0.527799  1
  Ga  Ga8  1  0.158334  0.210998  0.472334  1
  Ga  Ga9  1  0.841462  0.527799  0.789276  1
  Ga  Ga10  1  0.158334  0.472334  0.210998  1
  Ag  Ag11  1  0.500208  0.999792  0.999792  1
  Ag  Ag12  1  0.000162  0.805071  0.194606  1
  Ag  Ag13  1  0.000162  0.194606  0.805071  1
