# generated using pymatgen
data_Dy6Tm10CdHg3Ir4
_symmetry_space_group_name_H-M   'P 1'
_cell_length_a   9.53596394
_cell_length_b   9.53522515
_cell_length_c   9.53522600
_cell_angle_alpha   59.99999705
_cell_angle_beta   60.00255983
_cell_angle_gamma   60.00256013
_symmetry_Int_Tables_number   1
_chemical_formula_structural   Dy6Tm10CdHg3Ir4
_chemical_formula_sum   'Dy6 Tm10 Cd1 Hg3 Ir4'
_cell_volume   613.09579754
_cell_formula_units_Z   1
loop_
 _symmetry_equiv_pos_site_id
 _symmetry_equiv_pos_as_xyz
  1  'x, y, z'
loop_
 _atom_site_type_symbol
 _atom_site_label
 _atom_site_symmetry_multiplicity
 _atom_site_fract_x
 _atom_site_fract_y
 _atom_site_fract_z
 _atom_site_occupancy
  Dy  Dy0  1  0.187574  0.811775  0.811775  1
  Dy  Dy1  1  0.811301  0.188408  0.188408  1
  Dy  Dy2  1  0.811301  0.188408  0.811883  1
  Dy  Dy3  1  0.187574  0.811775  0.188877  1
  Dy  Dy4  1  0.811301  0.811883  0.188408  1
  Dy  Dy5  1  0.187574  0.188877  0.811775  1
  Tm  Tm6  1  0.600469  0.599861  0.599861  1
  Tm  Tm7  1  0.600469  0.599861  0.199810  1
  Tm  Tm8  1  0.600469  0.199810  0.599861  1
  Tm  Tm9  1  0.196804  0.601065  0.601065  1
  Tm  Tm10  1  0.061286  0.438690  0.438690  1
  Tm  Tm11  1  0.437533  0.062083  0.062083  1
  Tm  Tm12  1  0.437533  0.062083  0.438302  1
  Tm  Tm13  1  0.061286  0.438690  0.061334  1
  Tm  Tm14  1  0.437533  0.438302  0.062083  1
  Tm  Tm15  1  0.061286  0.061334  0.438690  1
  Cd  Cd16  1  0.512383  0.829205  0.829205  1
  Hg  Hg17  1  0.832608  0.834349  0.834349  1
  Hg  Hg18  1  0.832608  0.834349  0.498693  1
  Hg  Hg19  1  0.832608  0.498693  0.834349  1
  Ir  Ir20  1  0.391747  0.392642  0.392642  1
  Ir  Ir21  1  0.391747  0.392642  0.822970  1
  Ir  Ir22  1  0.391747  0.822970  0.392642  1
  Ir  Ir23  1  0.823265  0.392245  0.392245  1
