# generated using pymatgen
data_Hf8PdPt3C2
_symmetry_space_group_name_H-M   'P 1'
_cell_length_a   8.81377527
_cell_length_b   8.81377550
_cell_length_c   8.81414100
_cell_angle_alpha   59.99863196
_cell_angle_beta   59.99863111
_cell_angle_gamma   59.99025776
_symmetry_Int_Tables_number   1
_chemical_formula_structural   Hf8PdPt3C2
_chemical_formula_sum   'Hf16 Pd2 Pt6 C4'
_cell_volume   484.11438236
_cell_formula_units_Z   2
loop_
 _symmetry_equiv_pos_site_id
 _symmetry_equiv_pos_as_xyz
  1  'x, y, z'
loop_
 _atom_site_type_symbol
 _atom_site_label
 _atom_site_symmetry_multiplicity
 _atom_site_fract_x
 _atom_site_fract_y
 _atom_site_fract_z
 _atom_site_occupancy
  Hf  Hf0  1  0.125708  0.624669  0.624812  1
  Hf  Hf1  1  0.624669  0.125708  0.624812  1
  Hf  Hf2  1  0.624928  0.624928  0.124829  1
  Hf  Hf3  1  0.624928  0.624928  0.625313  1
  Hf  Hf4  1  0.817451  0.817451  0.182549  1
  Hf  Hf5  1  0.182696  0.182696  0.817304  1
  Hf  Hf6  1  0.817452  0.183429  0.817477  1
  Hf  Hf7  1  0.183429  0.817452  0.181641  1
  Hf  Hf8  1  0.183429  0.817452  0.817477  1
  Hf  Hf9  1  0.817452  0.183429  0.181641  1
  Hf  Hf10  1  0.432926  0.432926  0.067074  1
  Hf  Hf11  1  0.068317  0.068317  0.431683  1
  Hf  Hf12  1  0.432322  0.067801  0.432436  1
  Hf  Hf13  1  0.067801  0.432322  0.067441  1
  Hf  Hf14  1  0.067801  0.432322  0.432436  1
  Hf  Hf15  1  0.432322  0.067801  0.067441  1
  Pd  Pd16  1  0.839493  0.839493  0.481982  1
  Pd  Pd17  1  0.839493  0.839493  0.839032  1
  Pt  Pt18  1  0.773965  0.408705  0.408664  1
  Pt  Pt19  1  0.408705  0.773965  0.408664  1
  Pt  Pt20  1  0.409021  0.409021  0.772810  1
  Pt  Pt21  1  0.409021  0.409021  0.409146  1
  Pt  Pt22  1  0.476033  0.841628  0.841171  1
  Pt  Pt23  1  0.841628  0.476033  0.841171  1
  C  C24  1  0.625249  0.124492  0.125129  1
  C  C25  1  0.124492  0.625249  0.125129  1
  C  C26  1  0.124633  0.124633  0.625633  1
  C  C27  1  0.124633  0.124633  0.125102  1
