# generated using pymatgen
data_VCuRh3S8
_symmetry_space_group_name_H-M   'P 1'
_cell_length_a   6.68370101
_cell_length_b   6.68370260
_cell_length_c   6.68370113
_cell_angle_alpha   63.75745383
_cell_angle_beta   63.75746133
_cell_angle_gamma   63.75744985
_symmetry_Int_Tables_number   1
_chemical_formula_structural   VCuRh3S8
_chemical_formula_sum   'V1 Cu1 Rh3 S8'
_cell_volume   228.62912924
_cell_formula_units_Z   1
loop_
 _symmetry_equiv_pos_site_id
 _symmetry_equiv_pos_as_xyz
  1  'x, y, z'
loop_
 _atom_site_type_symbol
 _atom_site_label
 _atom_site_symmetry_multiplicity
 _atom_site_fract_x
 _atom_site_fract_y
 _atom_site_fract_z
 _atom_site_occupancy
  V  V0  1  0.404367  0.404367  0.404367  1
  Cu  Cu1  1  0.987816  0.987816  0.987816  1
  Rh  Rh2  1  0.861134  0.374483  0.374483  1
  Rh  Rh3  1  0.374483  0.861134  0.374483  1
  Rh  Rh4  1  0.374483  0.374483  0.861134  1
  S  S5  1  0.129605  0.129605  0.129605  1
  S  S6  1  0.588549  0.142245  0.142245  1
  S  S7  1  0.142245  0.588549  0.142245  1
  S  S8  1  0.142245  0.142245  0.588549  1
  S  S9  1  0.617976  0.617976  0.617976  1
  S  S10  1  0.122318  0.627391  0.627391  1
  S  S11  1  0.627391  0.122318  0.627391  1
  S  S12  1  0.627391  0.627391  0.122318  1
