# generated using pymatgen
data_Y3Er(InAu2)2
_symmetry_space_group_name_H-M   'P 1'
_cell_length_a   7.98137327
_cell_length_b   7.98137327
_cell_length_c   3.73625600
_cell_angle_alpha   90.00000000
_cell_angle_beta   90.00000000
_cell_angle_gamma   89.65454671
_symmetry_Int_Tables_number   1
_chemical_formula_structural   Y3Er(InAu2)2
_chemical_formula_sum   'Y3 Er1 In2 Au4'
_cell_volume   238.00384640
_cell_formula_units_Z   1
loop_
 _symmetry_equiv_pos_site_id
 _symmetry_equiv_pos_as_xyz
  1  'x, y, z'
loop_
 _atom_site_type_symbol
 _atom_site_label
 _atom_site_symmetry_multiplicity
 _atom_site_fract_x
 _atom_site_fract_y
 _atom_site_fract_z
 _atom_site_occupancy
  Y  Y0  1  0.670353  0.169979  0.500000  1
  Y  Y1  1  0.330021  0.829647  0.500000  1
  Y  Y2  1  0.169902  0.330098  0.500000  1
  Er  Er3  1  0.830285  0.669715  0.500000  1
  In  In4  1  0.500225  0.500170  0.000000  1
  In  In5  1  0.999830  0.999775  0.000000  1
  Au  Au6  1  0.126332  0.629161  0.000000  1
  Au  Au7  1  0.870839  0.373668  0.000000  1
  Au  Au8  1  0.630178  0.869822  0.000000  1
  Au  Au9  1  0.372036  0.127964  0.000000  1
