# generated using pymatgen
data_Rb4YUSe6
_symmetry_space_group_name_H-M   'P 1'
_cell_length_a   7.67564463
_cell_length_b   7.67564550
_cell_length_c   8.40217011
_cell_angle_alpha   81.07988257
_cell_angle_beta   81.07988004
_cell_angle_gamma   119.93350331
_symmetry_Int_Tables_number   1
_chemical_formula_structural   Rb4YUSe6
_chemical_formula_sum   'Rb4 Y1 U1 Se6'
_cell_volume   407.87958921
_cell_formula_units_Z   1
loop_
 _symmetry_equiv_pos_site_id
 _symmetry_equiv_pos_as_xyz
  1  'x, y, z'
loop_
 _atom_site_type_symbol
 _atom_site_label
 _atom_site_symmetry_multiplicity
 _atom_site_fract_x
 _atom_site_fract_y
 _atom_site_fract_z
 _atom_site_occupancy
  Rb  Rb0  1  0.345427  0.654573  0.500000  1
  Rb  Rb1  1  0.653559  0.346441  0.500000  1
  Rb  Rb2  1  0.001335  0.998665  0.500000  1
  Rb  Rb3  1  0.499825  0.500175  0.000000  1
  Y  Y4  1  0.167763  0.832237  0.000000  1
  U  U5  1  0.832387  0.167613  0.000000  1
  Se  Se6  1  0.808040  0.820183  0.196133  1
  Se  Se7  1  0.444487  0.056460  0.200215  1
  Se  Se8  1  0.042922  0.419099  0.199652  1
  Se  Se9  1  0.580901  0.957078  0.800348  1
  Se  Se10  1  0.943540  0.555513  0.799785  1
  Se  Se11  1  0.179817  0.191960  0.803867  1
