# generated using pymatgen
data_Sc16Si16MoW3
_symmetry_space_group_name_H-M   'P 1'
_cell_length_a   6.77168615
_cell_length_b   7.03486860
_cell_length_c   13.25760600
_cell_angle_alpha   90.00000000
_cell_angle_beta   90.00000000
_cell_angle_gamma   89.98105253
_symmetry_Int_Tables_number   1
_chemical_formula_structural   Sc16Si16MoW3
_chemical_formula_sum   'Sc16 Si16 Mo1 W3'
_cell_volume   631.56477000
_cell_formula_units_Z   1
loop_
 _symmetry_equiv_pos_site_id
 _symmetry_equiv_pos_as_xyz
  1  'x, y, z'
loop_
 _atom_site_type_symbol
 _atom_site_label
 _atom_site_symmetry_multiplicity
 _atom_site_fract_x
 _atom_site_fract_y
 _atom_site_fract_z
 _atom_site_occupancy
  Sc  Sc0  1  0.988541  0.678693  0.596074  1
  Sc  Sc1  1  0.011522  0.321832  0.403927  1
  Sc  Sc2  1  0.512081  0.179044  0.403621  1
  Sc  Sc3  1  0.011522  0.321832  0.096073  1
  Sc  Sc4  1  0.488115  0.820995  0.595736  1
  Sc  Sc5  1  0.988541  0.678693  0.903926  1
  Sc  Sc6  1  0.488115  0.820995  0.904264  1
  Sc  Sc7  1  0.512081  0.179044  0.096379  1
  Sc  Sc8  1  0.325041  0.327676  0.625970  1
  Sc  Sc9  1  0.674665  0.671891  0.374029  1
  Sc  Sc10  1  0.174967  0.828699  0.373732  1
  Sc  Sc11  1  0.674665  0.671891  0.125971  1
  Sc  Sc12  1  0.825451  0.170821  0.626317  1
  Sc  Sc13  1  0.325041  0.327676  0.874030  1
  Sc  Sc14  1  0.825451  0.170821  0.873683  1
  Sc  Sc15  1  0.174967  0.828699  0.126268  1
  Si  Si16  1  0.019380  0.402542  0.750000  1
  Si  Si17  1  0.980698  0.598491  0.250000  1
  Si  Si18  1  0.481029  0.902801  0.250000  1
  Si  Si19  1  0.518926  0.096966  0.750000  1
  Si  Si20  1  0.285330  0.644588  0.750000  1
  Si  Si21  1  0.714908  0.355186  0.250000  1
  Si  Si22  1  0.214657  0.146285  0.250000  1
  Si  Si23  1  0.784114  0.853409  0.750000  1
  Si  Si24  1  0.160397  0.025688  0.545943  1
  Si  Si25  1  0.839579  0.974678  0.453306  1
  Si  Si26  1  0.339418  0.525866  0.453519  1
  Si  Si27  1  0.839579  0.974678  0.046694  1
  Si  Si28  1  0.660823  0.473891  0.546499  1
  Si  Si29  1  0.160397  0.025688  0.954057  1
  Si  Si30  1  0.660823  0.473891  0.953501  1
  Si  Si31  1  0.339418  0.525866  0.046481  1
  Mo  Mo32  1  0.150011  0.995362  0.750000  1
  W  W33  1  0.849902  0.005129  0.250000  1
  W  W34  1  0.349758  0.495923  0.250000  1
  W  W35  1  0.650089  0.503762  0.750000  1
