# generated using pymatgen
data_Dy2Ho2GaRu7
_symmetry_space_group_name_H-M   'P 1'
_cell_length_a   5.35983405
_cell_length_b   5.35983260
_cell_length_c   8.63877100
_cell_angle_alpha   89.99286895
_cell_angle_beta   90.00712949
_cell_angle_gamma   119.96006158
_symmetry_Int_Tables_number   1
_chemical_formula_structural   Dy2Ho2GaRu7
_chemical_formula_sum   'Dy2 Ho2 Ga1 Ru7'
_cell_volume   215.01056357
_cell_formula_units_Z   1
loop_
 _symmetry_equiv_pos_site_id
 _symmetry_equiv_pos_as_xyz
  1  'x, y, z'
loop_
 _atom_site_type_symbol
 _atom_site_label
 _atom_site_symmetry_multiplicity
 _atom_site_fract_x
 _atom_site_fract_y
 _atom_site_fract_z
 _atom_site_occupancy
  Dy  Dy0  1  0.666700  0.333300  0.570689  1
  Dy  Dy1  1  0.333300  0.666700  0.429311  1
  Ho  Ho2  1  0.333295  0.666705  0.064572  1
  Ho  Ho3  1  0.666705  0.333295  0.935428  1
  Ga  Ga4  1  0.000000  0.000000  0.500000  1
  Ru  Ru5  1  0.000000  0.000000  0.000000  1
  Ru  Ru6  1  0.171497  0.342859  0.749267  1
  Ru  Ru7  1  0.171403  0.828597  0.749277  1
  Ru  Ru8  1  0.657141  0.828503  0.749267  1
  Ru  Ru9  1  0.828503  0.657141  0.250733  1
  Ru  Ru10  1  0.828597  0.171403  0.250723  1
  Ru  Ru11  1  0.342859  0.171497  0.250733  1
