# generated using pymatgen
data_Er17Mg(ZrIr6)2
_symmetry_space_group_name_H-M   'P 1'
_cell_length_a   10.76324100
_cell_length_b   10.76324100
_cell_length_c   6.25028600
_cell_angle_alpha   90.00000000
_cell_angle_beta   90.00000000
_cell_angle_gamma   90.00000000
_symmetry_Int_Tables_number   1
_chemical_formula_structural   Er17Mg(ZrIr6)2
_chemical_formula_sum   'Er17 Mg1 Zr2 Ir12'
_cell_volume   724.07911249
_cell_formula_units_Z   1
loop_
 _symmetry_equiv_pos_site_id
 _symmetry_equiv_pos_as_xyz
  1  'x, y, z'
loop_
 _atom_site_type_symbol
 _atom_site_label
 _atom_site_symmetry_multiplicity
 _atom_site_fract_x
 _atom_site_fract_y
 _atom_site_fract_z
 _atom_site_occupancy
  Er  Er0  1  0.285363  0.084614  0.377628  1
  Er  Er1  1  0.291407  0.911825  0.877979  1
  Er  Er2  1  0.708593  0.088175  0.877979  1
  Er  Er3  1  0.714637  0.915386  0.377628  1
  Er  Er4  1  0.588129  0.790393  0.876793  1
  Er  Er5  1  0.586649  0.209401  0.375392  1
  Er  Er6  1  0.413351  0.790599  0.375392  1
  Er  Er7  1  0.411871  0.209607  0.876793  1
  Er  Er8  1  0.209401  0.413351  0.624608  1
  Er  Er9  1  0.209607  0.588129  0.123207  1
  Er  Er10  1  0.790393  0.411871  0.123207  1
  Er  Er11  1  0.790599  0.586649  0.624608  1
  Er  Er12  1  0.911825  0.708593  0.122021  1
  Er  Er13  1  0.915386  0.285363  0.622372  1
  Er  Er14  1  0.084614  0.714637  0.622372  1
  Er  Er15  1  0.088175  0.291407  0.122021  1
  Er  Er16  1  0.000000  0.000000  0.000000  1
  Mg  Mg17  1  0.000000  0.000000  0.500000  1
  Zr  Zr18  1  0.500000  0.500000  0.000000  1
  Zr  Zr19  1  0.500000  0.500000  0.500000  1
  Ir  Ir20  1  0.845544  0.154968  0.247491  1
  Ir  Ir21  1  0.845032  0.845544  0.752509  1
  Ir  Ir22  1  0.154968  0.154456  0.752509  1
  Ir  Ir23  1  0.154456  0.845032  0.247491  1
  Ir  Ir24  1  0.646533  0.353595  0.748472  1
  Ir  Ir25  1  0.646405  0.646533  0.251528  1
  Ir  Ir26  1  0.353595  0.353467  0.251528  1
  Ir  Ir27  1  0.353467  0.646405  0.748472  1
  Ir  Ir28  1  0.500000  0.000000  0.125029  1
  Ir  Ir29  1  0.500000  0.000000  0.622051  1
  Ir  Ir30  1  0.000000  0.500000  0.874971  1
  Ir  Ir31  1  0.000000  0.500000  0.377949  1
