# generated using pymatgen
data_Dy6Ni12B4IrRu
_symmetry_space_group_name_H-M   'P 1'
_cell_length_a   5.08135400
_cell_length_b   5.08135430
_cell_length_c   14.58694500
_cell_angle_alpha   90.00000000
_cell_angle_beta   90.00000000
_cell_angle_gamma   119.99999802
_symmetry_Int_Tables_number   1
_chemical_formula_structural   Dy6Ni12B4IrRu
_chemical_formula_sum   'Dy6 Ni12 B4 Ir1 Ru1'
_cell_volume   326.17743650
_cell_formula_units_Z   1
loop_
 _symmetry_equiv_pos_site_id
 _symmetry_equiv_pos_as_xyz
  1  'x, y, z'
loop_
 _atom_site_type_symbol
 _atom_site_label
 _atom_site_symmetry_multiplicity
 _atom_site_fract_x
 _atom_site_fract_y
 _atom_site_fract_z
 _atom_site_occupancy
  Dy  Dy0  1  0.333333  0.666667  0.468469  1
  Dy  Dy1  1  0.666667  0.333333  0.971863  1
  Dy  Dy2  1  0.666667  0.333333  0.531531  1
  Dy  Dy3  1  0.333333  0.666667  0.028137  1
  Dy  Dy4  1  0.666667  0.333333  0.751420  1
  Dy  Dy5  1  0.333333  0.666667  0.248580  1
  Ni  Ni6  1  0.834783  0.669566  0.347856  1
  Ni  Ni7  1  0.330434  0.165217  0.347856  1
  Ni  Ni8  1  0.834986  0.165014  0.152782  1
  Ni  Ni9  1  0.669566  0.834783  0.652144  1
  Ni  Ni10  1  0.165217  0.330434  0.652144  1
  Ni  Ni11  1  0.834986  0.669973  0.152782  1
  Ni  Ni12  1  0.330027  0.165014  0.152782  1
  Ni  Ni13  1  0.669973  0.834986  0.847218  1
  Ni  Ni14  1  0.165014  0.330027  0.847218  1
  Ni  Ni15  1  0.165217  0.834783  0.652144  1
  Ni  Ni16  1  0.165014  0.834986  0.847218  1
  Ni  Ni17  1  0.834783  0.165217  0.347856  1
  B  B18  1  0.666667  0.333333  0.250623  1
  B  B19  1  0.333333  0.666667  0.749377  1
  B  B20  1  0.000000  0.000000  0.749932  1
  B  B21  1  0.000000  0.000000  0.250068  1
  Ir  Ir22  1  0.000000  0.000000  0.500000  1
  Ru  Ru23  1  0.000000  0.000000  0.000000  1
