# generated using pymatgen
data_MgV4(FeO4)3
_symmetry_space_group_name_H-M   'P 1'
_cell_length_a   5.31748102
_cell_length_b   9.61334205
_cell_length_c   5.87369397
_cell_angle_alpha   84.38391936
_cell_angle_beta   89.99147602
_cell_angle_gamma   89.99314796
_symmetry_Int_Tables_number   1
_chemical_formula_structural   MgV4(FeO4)3
_chemical_formula_sum   'Mg1 V4 Fe3 O12'
_cell_volume   298.81473349
_cell_formula_units_Z   1
loop_
 _symmetry_equiv_pos_site_id
 _symmetry_equiv_pos_as_xyz
  1  'x, y, z'
loop_
 _atom_site_type_symbol
 _atom_site_label
 _atom_site_symmetry_multiplicity
 _atom_site_fract_x
 _atom_site_fract_y
 _atom_site_fract_z
 _atom_site_occupancy
  Mg  Mg0  1  0.987613  0.289311  0.865062  1
  V  V1  1  0.487166  0.533054  0.603024  1
  V  V2  1  0.987222  0.463338  0.394900  1
  V  V3  1  0.487253  0.035403  0.102385  1
  V  V4  1  0.987296  0.967448  0.897532  1
  Fe  Fe5  1  0.487751  0.209092  0.626478  1
  Fe  Fe6  1  0.487794  0.708262  0.126150  1
  Fe  Fe7  1  0.987741  0.790591  0.374316  1
  O  O8  1  0.486011  0.115065  0.348337  1
  O  O9  1  0.485918  0.616200  0.845577  1
  O  O10  1  0.986124  0.885723  0.652929  1
  O  O11  1  0.986209  0.382302  0.150904  1
  O  O12  1  0.235455  0.120687  0.885824  1
  O  O13  1  0.237435  0.615411  0.381449  1
  O  O14  1  0.235283  0.382062  0.621837  1
  O  O15  1  0.237713  0.883514  0.115799  1
  O  O16  1  0.737376  0.883731  0.116503  1
  O  O17  1  0.739592  0.382266  0.622425  1
  O  O18  1  0.737513  0.615657  0.382152  1
  O  O19  1  0.739540  0.120882  0.886421  1
