# generated using pymatgen
data_Tb3Er(Al3Ir)6
_symmetry_space_group_name_H-M   'P 1'
_cell_length_a   7.56056234
_cell_length_b   7.55850043
_cell_length_c   9.49019500
_cell_angle_alpha   90.00000000
_cell_angle_beta   90.00000000
_cell_angle_gamma   119.42424441
_symmetry_Int_Tables_number   1
_chemical_formula_structural   Tb3Er(Al3Ir)6
_chemical_formula_sum   'Tb3 Er1 Al18 Ir6'
_cell_volume   472.37404671
_cell_formula_units_Z   1
loop_
 _symmetry_equiv_pos_site_id
 _symmetry_equiv_pos_as_xyz
  1  'x, y, z'
loop_
 _atom_site_type_symbol
 _atom_site_label
 _atom_site_symmetry_multiplicity
 _atom_site_fract_x
 _atom_site_fract_y
 _atom_site_fract_z
 _atom_site_occupancy
  Tb  Tb0  1  0.005268  0.329350  0.750000  1
  Tb  Tb1  1  0.670716  0.994609  0.250000  1
  Tb  Tb2  1  0.329324  0.005189  0.750000  1
  Er  Er3  1  0.994678  0.670814  0.250000  1
  Al  Al4  1  0.128852  0.128437  0.250000  1
  Al  Al5  1  0.870997  0.870808  0.750000  1
  Al  Al6  1  0.001256  0.335508  0.074299  1
  Al  Al7  1  0.998773  0.665012  0.927012  1
  Al  Al8  1  0.998773  0.665012  0.572988  1
  Al  Al9  1  0.334588  0.000833  0.425766  1
  Al  Al10  1  0.001256  0.335508  0.425701  1
  Al  Al11  1  0.665000  0.998728  0.573608  1
  Al  Al12  1  0.665000  0.998728  0.926392  1
  Al  Al13  1  0.334588  0.000833  0.074234  1
  Al  Al14  1  0.333605  0.333581  0.551101  1
  Al  Al15  1  0.666742  0.666374  0.447946  1
  Al  Al16  1  0.666742  0.666374  0.052054  1
  Al  Al17  1  0.333605  0.333581  0.948899  1
  Al  Al18  1  0.338561  0.547583  0.250000  1
  Al  Al19  1  0.661049  0.452603  0.750000  1
  Al  Al20  1  0.548227  0.339863  0.250000  1
  Al  Al21  1  0.452411  0.660807  0.750000  1
  Ir  Ir22  1  0.672002  0.328344  0.000293  1
  Ir  Ir23  1  0.328147  0.671880  0.000244  1
  Ir  Ir24  1  0.328147  0.671880  0.499756  1
  Ir  Ir25  1  0.672002  0.328344  0.499707  1
  Ir  Ir26  1  0.999845  0.999709  0.000334  1
  Ir  Ir27  1  0.999845  0.999709  0.499666  1
