# generated using pymatgen
data_Dy7Y8Lu5Pt16
_symmetry_space_group_name_H-M   'P 1'
_cell_length_a   7.44995534
_cell_length_b   7.55666893
_cell_length_c   14.69116305
_cell_angle_alpha   89.93273407
_cell_angle_beta   89.97894524
_cell_angle_gamma   89.98337908
_symmetry_Int_Tables_number   1
_chemical_formula_structural   Dy7Y8Lu5Pt16
_chemical_formula_sum   'Dy7 Y8 Lu5 Pt16'
_cell_volume   827.06548354
_cell_formula_units_Z   1
loop_
 _symmetry_equiv_pos_site_id
 _symmetry_equiv_pos_as_xyz
  1  'x, y, z'
loop_
 _atom_site_type_symbol
 _atom_site_label
 _atom_site_symmetry_multiplicity
 _atom_site_fract_x
 _atom_site_fract_y
 _atom_site_fract_z
 _atom_site_occupancy
  Dy  Dy0  1  0.156174  0.668278  0.876857  1
  Dy  Dy1  1  0.843330  0.331585  0.378069  1
  Dy  Dy2  1  0.343892  0.168199  0.122690  1
  Dy  Dy3  1  0.344087  0.167900  0.377695  1
  Dy  Dy4  1  0.843688  0.331682  0.122631  1
  Dy  Dy5  1  0.156020  0.668199  0.622430  1
  Dy  Dy6  1  0.656298  0.831881  0.877067  1
  Y  Y7  1  0.997542  0.820429  0.406211  1
  Y  Y8  1  0.497920  0.679864  0.093876  1
  Y  Y9  1  0.502758  0.320051  0.593971  1
  Y  Y10  1  0.002450  0.179887  0.905776  1
  Y  Y11  1  0.001542  0.178346  0.594122  1
  Y  Y12  1  0.502376  0.320290  0.905535  1
  Y  Y13  1  0.498159  0.680206  0.407144  1
  Y  Y14  1  0.997629  0.820403  0.093879  1
  Lu  Lu15  1  0.681500  0.987476  0.250089  1
  Lu  Lu16  1  0.181536  0.512465  0.250153  1
  Lu  Lu17  1  0.818053  0.488346  0.749296  1
  Lu  Lu18  1  0.319189  0.011607  0.749309  1
  Lu  Lu19  1  0.656079  0.832092  0.623340  1
  Pt  Pt20  1  0.817311  0.644650  0.250144  1
  Pt  Pt21  1  0.317639  0.855240  0.250219  1
  Pt  Pt22  1  0.682212  0.143201  0.748688  1
  Pt  Pt23  1  0.183353  0.355760  0.749689  1
  Pt  Pt24  1  0.544761  0.389518  0.250240  1
  Pt  Pt25  1  0.044544  0.110426  0.250257  1
  Pt  Pt26  1  0.953250  0.888301  0.748500  1
  Pt  Pt27  1  0.456485  0.612990  0.748484  1
  Pt  Pt28  1  0.814840  0.535411  0.543673  1
  Pt  Pt29  1  0.317347  0.968633  0.956950  1
  Pt  Pt30  1  0.682738  0.029270  0.459255  1
  Pt  Pt31  1  0.182592  0.468795  0.042932  1
  Pt  Pt32  1  0.181997  0.468613  0.457131  1
  Pt  Pt33  1  0.682523  0.031186  0.042919  1
  Pt  Pt34  1  0.320761  0.967582  0.543828  1
  Pt  Pt35  1  0.817427  0.531239  0.956952  1
