# generated using pymatgen
data_Nd2Th2(Ga8Pt3)3
_symmetry_space_group_name_H-M   'P 1'
_cell_length_a   7.65925873
_cell_length_b   7.66783303
_cell_length_c   13.35515151
_cell_angle_alpha   84.44710810
_cell_angle_beta   78.93942591
_cell_angle_gamma   59.93618770
_symmetry_Int_Tables_number   1
_chemical_formula_structural   Nd2Th2(Ga8Pt3)3
_chemical_formula_sum   'Nd2 Th2 Ga24 Pt9'
_cell_volume   666.21770155
_cell_formula_units_Z   1
loop_
 _symmetry_equiv_pos_site_id
 _symmetry_equiv_pos_as_xyz
  1  'x, y, z'
loop_
 _atom_site_type_symbol
 _atom_site_label
 _atom_site_symmetry_multiplicity
 _atom_site_fract_x
 _atom_site_fract_y
 _atom_site_fract_z
 _atom_site_occupancy
  Nd  Nd0  1  0.732569  0.498367  0.809995  1
  Nd  Nd1  1  0.267431  0.501633  0.190005  1
  Th  Th2  1  0.396470  0.168092  0.807768  1
  Th  Th3  1  0.603530  0.831908  0.192232  1
  Ga  Ga4  1  0.688817  0.831572  0.939929  1
  Ga  Ga5  1  0.311183  0.168428  0.060071  1
  Ga  Ga6  1  0.144820  0.834013  0.560442  1
  Ga  Ga7  1  0.855180  0.165987  0.439558  1
  Ga  Ga8  1  0.481074  0.167276  0.556334  1
  Ga  Ga9  1  0.518926  0.832724  0.443666  1
  Ga  Ga10  1  0.216069  0.169357  0.329797  1
  Ga  Ga11  1  0.783931  0.830643  0.670203  1
  Ga  Ga12  1  0.439638  0.507257  0.670607  1
  Ga  Ga13  1  0.560362  0.492743  0.329393  1
  Ga  Ga14  1  0.106779  0.162849  0.669012  1
  Ga  Ga15  1  0.893221  0.837151  0.330988  1
  Ga  Ga16  1  0.353401  0.501881  0.941236  1
  Ga  Ga17  1  0.646599  0.498119  0.058764  1
  Ga  Ga18  1  0.016861  0.166985  0.946035  1
  Ga  Ga19  1  0.983139  0.833015  0.053965  1
  Ga  Ga20  1  0.186318  0.500442  0.442532  1
  Ga  Ga21  1  0.813682  0.499558  0.557468  1
  Ga  Ga22  1  0.735461  0.165014  0.182587  1
  Ga  Ga23  1  0.264539  0.834986  0.817413  1
  Ga  Ga24  1  0.062056  0.633838  0.816088  1
  Ga  Ga25  1  0.937944  0.366162  0.183912  1
  Ga  Ga26  1  0.862459  0.037433  0.815939  1
  Ga  Ga27  1  0.137541  0.962567  0.184062  1
  Pt  Pt28  1  0.122687  0.493940  0.638480  1
  Pt  Pt29  1  0.877313  0.506060  0.361520  1
  Pt  Pt30  1  0.658746  0.168386  0.999097  1
  Pt  Pt31  1  0.341254  0.831614  0.000903  1
  Pt  Pt32  1  0.541654  0.164161  0.361142  1
  Pt  Pt33  1  0.458346  0.835839  0.638858  1
  Pt  Pt34  1  0.780988  0.170882  0.637268  1
  Pt  Pt35  1  0.219012  0.829118  0.362732  1
  Pt  Pt36  1  0.000000  0.500000  0.000000  1
