# generated using pymatgen
data_PIO5
_symmetry_space_group_name_H-M   'P 1'
_cell_length_a   6.68005000
_cell_length_b   8.45316700
_cell_length_c   7.45547200
_cell_angle_alpha   90.00000000
_cell_angle_beta   90.00000000
_cell_angle_gamma   90.00000000
_symmetry_Int_Tables_number   1
_chemical_formula_structural   PIO5
_chemical_formula_sum   'P4 I4 O20'
_cell_volume   420.99244831
_cell_formula_units_Z   4
loop_
 _symmetry_equiv_pos_site_id
 _symmetry_equiv_pos_as_xyz
  1  'x, y, z'
loop_
 _atom_site_type_symbol
 _atom_site_label
 _atom_site_symmetry_multiplicity
 _atom_site_fract_x
 _atom_site_fract_y
 _atom_site_fract_z
 _atom_site_occupancy
  P  P0  1  0.750000  0.129210  0.624605  1
  P  P1  1  0.250000  0.370790  0.124605  1
  P  P2  1  0.750000  0.629210  0.875395  1
  P  P3  1  0.250000  0.870790  0.375395  1
  I  I4  1  0.250000  0.122514  0.746490  1
  I  I5  1  0.750000  0.377486  0.246490  1
  I  I6  1  0.250000  0.622514  0.753510  1
  I  I7  1  0.750000  0.877486  0.253510  1
  O  O8  1  0.250000  0.029299  0.481717  1
  O  O9  1  0.750000  0.065897  0.151566  1
  O  O10  1  0.567007  0.134410  0.752407  1
  O  O11  1  0.932993  0.134410  0.752407  1
  O  O12  1  0.250000  0.221031  0.003605  1
  O  O13  1  0.750000  0.278969  0.503605  1
  O  O14  1  0.067007  0.365590  0.252407  1
  O  O15  1  0.432993  0.365590  0.252407  1
  O  O16  1  0.250000  0.434103  0.651566  1
  O  O17  1  0.750000  0.470701  0.981717  1
  O  O18  1  0.250000  0.529299  0.018283  1
  O  O19  1  0.750000  0.565897  0.348434  1
  O  O20  1  0.567007  0.634410  0.747593  1
  O  O21  1  0.932993  0.634410  0.747593  1
  O  O22  1  0.250000  0.721031  0.496395  1
  O  O23  1  0.750000  0.778969  0.996395  1
  O  O24  1  0.067007  0.865590  0.247593  1
  O  O25  1  0.432993  0.865590  0.247593  1
  O  O26  1  0.250000  0.934103  0.848434  1
  O  O27  1  0.750000  0.970701  0.518283  1
