# generated using pymatgen
data_TaZn4Ga3Rh8
_symmetry_space_group_name_H-M   'P 1'
_cell_length_a   6.10674301
_cell_length_b   6.10673401
_cell_length_c   6.09890901
_cell_angle_alpha   90.00394325
_cell_angle_beta   90.00426244
_cell_angle_gamma   89.99380755
_symmetry_Int_Tables_number   1
_chemical_formula_structural   TaZn4Ga3Rh8
_chemical_formula_sum   'Ta1 Zn4 Ga3 Rh8'
_cell_volume   227.44206906
_cell_formula_units_Z   1
loop_
 _symmetry_equiv_pos_site_id
 _symmetry_equiv_pos_as_xyz
  1  'x, y, z'
loop_
 _atom_site_type_symbol
 _atom_site_label
 _atom_site_symmetry_multiplicity
 _atom_site_fract_x
 _atom_site_fract_y
 _atom_site_fract_z
 _atom_site_occupancy
  Ta  Ta0  1  0.250290  0.250006  0.999973  1
  Zn  Zn1  1  0.749574  0.250003  0.999999  1
  Zn  Zn2  1  0.250480  0.749995  0.999982  1
  Zn  Zn3  1  0.750457  0.250003  0.499989  1
  Zn  Zn4  1  0.249545  0.749997  0.500029  1
  Ga  Ga5  1  0.749614  0.750000  0.000006  1
  Ga  Ga6  1  0.750461  0.750000  0.499991  1
  Ga  Ga7  1  0.249540  0.250001  0.500020  1
  Rh  Rh8  1  0.997817  0.997804  0.251526  1
  Rh  Rh9  1  0.997829  0.502177  0.251504  1
  Rh  Rh10  1  0.502148  0.997836  0.252081  1
  Rh  Rh11  1  0.502161  0.502165  0.252095  1
  Rh  Rh12  1  0.502194  0.997843  0.747917  1
  Rh  Rh13  1  0.502212  0.502184  0.747881  1
  Rh  Rh14  1  0.997835  0.997822  0.748500  1
  Rh  Rh15  1  0.997843  0.502168  0.748507  1
