# generated using pymatgen
data_Lu12Mg2Fe2Tc
_symmetry_space_group_name_H-M   'P 1'
_cell_length_a   8.22857975
_cell_length_b   8.22858035
_cell_length_c   8.22857936
_cell_angle_alpha   108.09684324
_cell_angle_beta   108.09683996
_cell_angle_gamma   112.25638501
_symmetry_Int_Tables_number   1
_chemical_formula_structural   Lu12Mg2Fe2Tc
_chemical_formula_sum   'Lu12 Mg2 Fe2 Tc1'
_cell_volume   428.13268290
_cell_formula_units_Z   1
loop_
 _symmetry_equiv_pos_site_id
 _symmetry_equiv_pos_as_xyz
  1  'x, y, z'
loop_
 _atom_site_type_symbol
 _atom_site_label
 _atom_site_symmetry_multiplicity
 _atom_site_fract_x
 _atom_site_fract_y
 _atom_site_fract_z
 _atom_site_occupancy
  Lu  Lu0  1  0.309189  0.309189  0.618378  1
  Lu  Lu1  1  0.690811  0.690811  0.381622  1
  Lu  Lu2  1  0.690811  0.309189  0.000000  1
  Lu  Lu3  1  0.309189  0.690811  0.000000  1
  Lu  Lu4  1  0.195102  0.431475  0.236372  1
  Lu  Lu5  1  0.804898  0.568525  0.763628  1
  Lu  Lu6  1  0.195102  0.958729  0.763628  1
  Lu  Lu7  1  0.958729  0.195102  0.763628  1
  Lu  Lu8  1  0.804898  0.041271  0.236372  1
  Lu  Lu9  1  0.041271  0.804898  0.236372  1
  Lu  Lu10  1  0.431475  0.195102  0.236372  1
  Lu  Lu11  1  0.568525  0.804898  0.763628  1
  Mg  Mg12  1  0.000000  0.500000  0.500000  1
  Mg  Mg13  1  0.500000  0.000000  0.500000  1
  Fe  Fe14  1  0.381975  0.381975  0.000000  1
  Fe  Fe15  1  0.618025  0.618025  0.000000  1
  Tc  Tc16  1  0.000000  0.000000  0.000000  1
