# generated using pymatgen
data_YHo(SiTc2)4
_symmetry_space_group_name_H-M   'P 1'
_cell_length_a   7.36414972
_cell_length_b   7.36414972
_cell_length_c   4.14116600
_cell_angle_alpha   90.00000000
_cell_angle_beta   90.00000000
_cell_angle_gamma   90.09853057
_symmetry_Int_Tables_number   1
_chemical_formula_structural   YHo(SiTc2)4
_chemical_formula_sum   'Y1 Ho1 Si4 Tc8'
_cell_volume   224.57800361
_cell_formula_units_Z   1
loop_
 _symmetry_equiv_pos_site_id
 _symmetry_equiv_pos_as_xyz
  1  'x, y, z'
loop_
 _atom_site_type_symbol
 _atom_site_label
 _atom_site_symmetry_multiplicity
 _atom_site_fract_x
 _atom_site_fract_y
 _atom_site_fract_z
 _atom_site_occupancy
  Y  Y0  1  0.000000  0.000000  0.500000  1
  Ho  Ho1  1  0.500000  0.500000  0.000000  1
  Si  Si2  1  0.708399  0.708399  0.500000  1
  Si  Si3  1  0.291601  0.291601  0.500000  1
  Si  Si4  1  0.209218  0.790782  0.000000  1
  Si  Si5  1  0.790782  0.209218  0.000000  1
  Tc  Tc6  1  0.593253  0.156783  0.500000  1
  Tc  Tc7  1  0.406747  0.843217  0.500000  1
  Tc  Tc8  1  0.093819  0.344148  0.000000  1
  Tc  Tc9  1  0.906181  0.655852  0.000000  1
  Tc  Tc10  1  0.156783  0.593253  0.500000  1
  Tc  Tc11  1  0.843217  0.406747  0.500000  1
  Tc  Tc12  1  0.344148  0.093819  0.000000  1
  Tc  Tc13  1  0.655852  0.906181  0.000000  1
