# generated using pymatgen
data_HoAl6(ZnCu2)2
_symmetry_space_group_name_H-M   'P 1'
_cell_length_a   5.16262874
_cell_length_b   6.68120950
_cell_length_c   6.68120876
_cell_angle_alpha   98.85782618
_cell_angle_beta   112.72785816
_cell_angle_gamma   67.27214374
_symmetry_Int_Tables_number   1
_chemical_formula_structural   HoAl6(ZnCu2)2
_chemical_formula_sum   'Ho1 Al6 Zn2 Cu4'
_cell_volume   196.04970710
_cell_formula_units_Z   1
loop_
 _symmetry_equiv_pos_site_id
 _symmetry_equiv_pos_as_xyz
  1  'x, y, z'
loop_
 _atom_site_type_symbol
 _atom_site_label
 _atom_site_symmetry_multiplicity
 _atom_site_fract_x
 _atom_site_fract_y
 _atom_site_fract_z
 _atom_site_occupancy
  Ho  Ho0  1  0.000000  0.000000  0.000000  1
  Al  Al1  1  0.653142  0.346858  0.653142  1
  Al  Al2  1  0.346858  0.653142  0.346858  1
  Al  Al3  1  0.000000  0.347261  0.347261  1
  Al  Al4  1  0.000000  0.652739  0.652739  1
  Al  Al5  1  0.715008  0.784992  0.215008  1
  Al  Al6  1  0.284992  0.215008  0.784992  1
  Zn  Zn7  1  0.500000  0.778324  0.778324  1
  Zn  Zn8  1  0.500000  0.221676  0.221676  1
  Cu  Cu9  1  0.500000  0.000000  0.500000  1
  Cu  Cu10  1  0.000000  0.000000  0.500000  1
  Cu  Cu11  1  0.500000  0.500000  0.000000  1
  Cu  Cu12  1  0.000000  0.500000  0.000000  1
