# generated using pymatgen
data_Rb4USe5
_symmetry_space_group_name_H-M   'P 1'
_cell_length_a   8.30836581
_cell_length_b   8.35253464
_cell_length_c   12.33380501
_cell_angle_alpha   101.72167864
_cell_angle_beta   109.70393505
_cell_angle_gamma   102.37591063
_symmetry_Int_Tables_number   1
_chemical_formula_structural   Rb4USe5
_chemical_formula_sum   'Rb8 U2 Se10'
_cell_volume   750.94295464
_cell_formula_units_Z   2
loop_
 _symmetry_equiv_pos_site_id
 _symmetry_equiv_pos_as_xyz
  1  'x, y, z'
loop_
 _atom_site_type_symbol
 _atom_site_label
 _atom_site_symmetry_multiplicity
 _atom_site_fract_x
 _atom_site_fract_y
 _atom_site_fract_z
 _atom_site_occupancy
  Rb  Rb0  1  0.579851  0.794412  0.095603  1
  Rb  Rb1  1  0.204850  0.591429  0.701173  1
  Rb  Rb2  1  0.598813  0.296710  0.598011  1
  Rb  Rb3  1  0.401187  0.703290  0.401989  1
  Rb  Rb4  1  0.420149  0.205588  0.904397  1
  Rb  Rb5  1  0.000000  0.000000  0.500000  1
  Rb  Rb6  1  0.000000  0.500000  0.000000  1
  Rb  Rb7  1  0.795150  0.408571  0.298827  1
  U  U8  1  0.187011  0.098373  0.192573  1
  U  U9  1  0.812989  0.901627  0.807427  1
  Se  Se10  1  0.359345  0.381536  0.156214  1
  Se  Se11  1  0.640655  0.618464  0.843786  1
  Se  Se12  1  0.177983  0.298549  0.390154  1
  Se  Se13  1  0.822017  0.701451  0.609846  1
  Se  Se14  1  0.976264  0.181625  0.763759  1
  Se  Se15  1  0.023736  0.818375  0.236241  1
  Se  Se16  1  0.851397  0.106276  0.035143  1
  Se  Se17  1  0.148603  0.893724  0.964857  1
  Se  Se18  1  0.494695  0.941514  0.692773  1
  Se  Se19  1  0.505305  0.058486  0.307227  1
