# generated using pymatgen
data_Ho5Lu5(GaSb2)2
_symmetry_space_group_name_H-M   'P 1'
_cell_length_a   8.77538700
_cell_length_b   8.78777869
_cell_length_c   6.30557400
_cell_angle_alpha   89.99963488
_cell_angle_beta   90.00103161
_cell_angle_gamma   119.90848454
_symmetry_Int_Tables_number   1
_chemical_formula_structural   Ho5Lu5(GaSb2)2
_chemical_formula_sum   'Ho5 Lu5 Ga2 Sb4'
_cell_volume   421.50274107
_cell_formula_units_Z   1
loop_
 _symmetry_equiv_pos_site_id
 _symmetry_equiv_pos_as_xyz
  1  'x, y, z'
loop_
 _atom_site_type_symbol
 _atom_site_label
 _atom_site_symmetry_multiplicity
 _atom_site_fract_x
 _atom_site_fract_y
 _atom_site_fract_z
 _atom_site_occupancy
  Ho  Ho0  1  0.754674  0.998343  0.750012  1
  Ho  Ho1  1  0.010572  0.245118  0.250000  1
  Ho  Ho2  1  0.010502  0.765858  0.750019  1
  Ho  Ho3  1  0.245080  0.233153  0.749973  1
  Ho  Ho4  1  0.243422  0.011479  0.249972  1
  Lu  Lu5  1  0.335861  0.668311  0.000326  1
  Lu  Lu6  1  0.653842  0.326543  0.499889  1
  Lu  Lu7  1  0.653811  0.326535  0.000094  1
  Lu  Lu8  1  0.335864  0.668313  0.499686  1
  Lu  Lu9  1  0.753756  0.755134  0.250003  1
  Ga  Ga10  1  0.396792  0.996634  0.750019  1
  Ga  Ga11  1  0.397722  0.400832  0.250007  1
  Sb  Sb12  1  0.997117  0.607376  0.249992  1
  Sb  Sb13  1  0.998349  0.391651  0.750006  1
  Sb  Sb14  1  0.606097  0.604861  0.749998  1
  Sb  Sb15  1  0.606541  0.999854  0.250003  1
