# generated using pymatgen
data_TbLu2Mg(GaPt)4
_symmetry_space_group_name_H-M   'P 1'
_cell_length_a   4.28627000
_cell_length_b   6.80943372
_cell_length_c   7.78521742
_cell_angle_alpha   94.14674012
_cell_angle_beta   90.00000000
_cell_angle_gamma   90.00000000
_symmetry_Int_Tables_number   1
_chemical_formula_structural   TbLu2Mg(GaPt)4
_chemical_formula_sum   'Tb1 Lu2 Mg1 Ga4 Pt4'
_cell_volume   226.63284391
_cell_formula_units_Z   1
loop_
 _symmetry_equiv_pos_site_id
 _symmetry_equiv_pos_as_xyz
  1  'x, y, z'
loop_
 _atom_site_type_symbol
 _atom_site_label
 _atom_site_symmetry_multiplicity
 _atom_site_fract_x
 _atom_site_fract_y
 _atom_site_fract_z
 _atom_site_occupancy
  Tb  Tb0  1  0.250000  0.475584  0.187165  1
  Lu  Lu1  1  0.750000  0.023027  0.678691  1
  Lu  Lu2  1  0.750000  0.531475  0.812046  1
  Mg  Mg3  1  0.250000  0.971340  0.323700  1
  Ga  Ga4  1  0.250000  0.338453  0.561518  1
  Ga  Ga5  1  0.250000  0.855381  0.942476  1
  Ga  Ga6  1  0.750000  0.653608  0.433071  1
  Ga  Ga7  1  0.750000  0.151039  0.062897  1
  Pt  Pt8  1  0.250000  0.232931  0.871771  1
  Pt  Pt9  1  0.250000  0.730152  0.617097  1
  Pt  Pt10  1  0.750000  0.779857  0.124471  1
  Pt  Pt11  1  0.750000  0.257153  0.385096  1
