# generated using pymatgen
data_Ca13Er(Th3Pt8)2
_symmetry_space_group_name_H-M   'P 1'
_cell_length_a   7.75754965
_cell_length_b   7.87908662
_cell_length_c   14.96846000
_cell_angle_alpha   90.00893714
_cell_angle_beta   89.89653953
_cell_angle_gamma   90.05422066
_symmetry_Int_Tables_number   1
_chemical_formula_structural   Ca13Er(Th3Pt8)2
_chemical_formula_sum   'Ca13 Er1 Th6 Pt16'
_cell_volume   914.90637183
_cell_formula_units_Z   1
loop_
 _symmetry_equiv_pos_site_id
 _symmetry_equiv_pos_as_xyz
  1  'x, y, z'
loop_
 _atom_site_type_symbol
 _atom_site_label
 _atom_site_symmetry_multiplicity
 _atom_site_fract_x
 _atom_site_fract_y
 _atom_site_fract_z
 _atom_site_occupancy
  Ca  Ca0  1  0.839996  0.667364  0.880854  1
  Ca  Ca1  1  0.494359  0.322459  0.901639  1
  Ca  Ca2  1  0.989977  0.178374  0.598903  1
  Ca  Ca3  1  0.507757  0.678372  0.404257  1
  Ca  Ca4  1  0.008764  0.818060  0.092264  1
  Ca  Ca5  1  0.505981  0.680450  0.090900  1
  Ca  Ca6  1  0.007808  0.820845  0.404688  1
  Ca  Ca7  1  0.490729  0.320783  0.599518  1
  Ca  Ca8  1  0.993299  0.178557  0.903972  1
  Ca  Ca9  1  0.176614  0.480898  0.753722  1
  Ca  Ca10  1  0.682712  0.018166  0.752845  1
  Ca  Ca11  1  0.815988  0.526153  0.249796  1
  Ca  Ca12  1  0.315378  0.972641  0.249924  1
  Er  Er13  1  0.341001  0.836856  0.876689  1
  Th  Th14  1  0.838992  0.658754  0.621730  1
  Th  Th15  1  0.660852  0.158934  0.379936  1
  Th  Th16  1  0.162054  0.337980  0.120244  1
  Th  Th17  1  0.659829  0.161056  0.120756  1
  Th  Th18  1  0.160504  0.339527  0.380132  1
  Th  Th19  1  0.339193  0.839565  0.621605  1
  Pt  Pt20  1  0.324180  0.045107  0.041209  1
  Pt  Pt21  1  0.825326  0.451960  0.458045  1
  Pt  Pt22  1  0.676145  0.951013  0.540384  1
  Pt  Pt23  1  0.188362  0.544189  0.962574  1
  Pt  Pt24  1  0.661988  0.971806  0.958957  1
  Pt  Pt25  1  0.174796  0.545817  0.541124  1
  Pt  Pt26  1  0.324976  0.047459  0.458851  1
  Pt  Pt27  1  0.835006  0.449379  0.045717  1
  Pt  Pt28  1  0.537218  0.639755  0.745952  1
  Pt  Pt29  1  0.047016  0.862566  0.743274  1
  Pt  Pt30  1  0.459684  0.359094  0.251681  1
  Pt  Pt31  1  0.959751  0.138320  0.252143  1
  Pt  Pt32  1  0.305889  0.117534  0.751253  1
  Pt  Pt33  1  0.796157  0.381607  0.745232  1
  Pt  Pt34  1  0.695025  0.884057  0.249103  1
  Pt  Pt35  1  0.196702  0.614545  0.250128  1
