# generated using pymatgen
data_Ho16TlIn(HgRh2)2
_symmetry_space_group_name_H-M   'P 1'
_cell_length_a   9.59975682
_cell_length_b   9.58732445
_cell_length_c   9.61017400
_cell_angle_alpha   59.92113633
_cell_angle_beta   59.96410390
_cell_angle_gamma   59.77575937
_symmetry_Int_Tables_number   1
_chemical_formula_structural   Ho16TlIn(HgRh2)2
_chemical_formula_sum   'Ho16 Tl1 In1 Hg2 Rh4'
_cell_volume   623.81590944
_cell_formula_units_Z   1
loop_
 _symmetry_equiv_pos_site_id
 _symmetry_equiv_pos_as_xyz
  1  'x, y, z'
loop_
 _atom_site_type_symbol
 _atom_site_label
 _atom_site_symmetry_multiplicity
 _atom_site_fract_x
 _atom_site_fract_y
 _atom_site_fract_z
 _atom_site_occupancy
  Ho  Ho0  1  0.186866  0.187957  0.812588  1
  Ho  Ho1  1  0.600488  0.599916  0.200210  1
  Ho  Ho2  1  0.438966  0.060103  0.440721  1
  Ho  Ho3  1  0.441170  0.439749  0.059540  1
  Ho  Ho4  1  0.812207  0.185085  0.813731  1
  Ho  Ho5  1  0.184651  0.811749  0.190155  1
  Ho  Ho6  1  0.438966  0.060103  0.060210  1
  Ho  Ho7  1  0.184651  0.811749  0.813445  1
  Ho  Ho8  1  0.059790  0.438456  0.059900  1
  Ho  Ho9  1  0.812724  0.812734  0.187271  1
  Ho  Ho10  1  0.197058  0.601963  0.600490  1
  Ho  Ho11  1  0.059790  0.438456  0.441854  1
  Ho  Ho12  1  0.061067  0.061025  0.438954  1
  Ho  Ho13  1  0.812207  0.185085  0.188977  1
  Ho  Ho14  1  0.602507  0.196738  0.600378  1
  Ho  Ho15  1  0.600488  0.599916  0.599387  1
  Tl  Tl16  1  0.498447  0.833999  0.833777  1
  In  In17  1  0.833057  0.502813  0.832065  1
  Hg  Hg18  1  0.836995  0.835410  0.836119  1
  Hg  Hg19  1  0.836995  0.835410  0.491478  1
  Rh  Rh20  1  0.392870  0.822482  0.392324  1
  Rh  Rh21  1  0.392781  0.393005  0.392760  1
  Rh  Rh22  1  0.822479  0.393090  0.392216  1
  Rh  Rh23  1  0.392781  0.393005  0.821455  1
