# generated using pymatgen
data_Tm2B2Ir5
_symmetry_space_group_name_H-M   'P 1'
_cell_length_a   5.43785620
_cell_length_b   5.43785631
_cell_length_c   11.02850678
_cell_angle_alpha   89.99999943
_cell_angle_beta   75.72735399
_cell_angle_gamma   119.99999830
_symmetry_Int_Tables_number   1
_chemical_formula_structural   Tm2B2Ir5
_chemical_formula_sum   'Tm4 B4 Ir10'
_cell_volume   270.73914219
_cell_formula_units_Z   2
loop_
 _symmetry_equiv_pos_site_id
 _symmetry_equiv_pos_as_xyz
  1  'x, y, z'
loop_
 _atom_site_type_symbol
 _atom_site_label
 _atom_site_symmetry_multiplicity
 _atom_site_fract_x
 _atom_site_fract_y
 _atom_site_fract_z
 _atom_site_occupancy
  Tm  Tm0  1  0.900793  0.950397  0.148813  1
  Tm  Tm1  1  0.696627  0.848314  0.455060  1
  Tm  Tm2  1  0.303374  0.151687  0.544939  1
  Tm  Tm3  1  0.099208  0.049604  0.851188  1
  B  B4  1  0.234759  0.617379  0.147863  1
  B  B5  1  0.567596  0.283799  0.148606  1
  B  B6  1  0.432405  0.716202  0.851394  1
  B  B7  1  0.765242  0.382622  0.852138  1
  Ir  Ir8  1  0.500000  0.500000  0.000000  1
  Ir  Ir9  1  0.000000  0.500002  0.000000  1
  Ir  Ir10  1  0.809828  0.404913  0.290204  1
  Ir  Ir11  1  0.304882  0.404914  0.290204  1
  Ir  Ir12  1  0.304883  0.899969  0.290204  1
  Ir  Ir13  1  0.000001  0.500000  0.500000  1
  Ir  Ir14  1  0.695119  0.100031  0.709797  1
  Ir  Ir15  1  0.695119  0.595087  0.709797  1
  Ir  Ir16  1  0.190173  0.595088  0.709797  1
  Ir  Ir17  1  0.500002  0.000000  0.000000  1
