# generated using pymatgen
data_Mg3GaP6N13
_symmetry_space_group_name_H-M   'P 1'
_cell_length_a   7.04801113
_cell_length_b   7.04801176
_cell_length_c   7.04801142
_cell_angle_alpha   109.63057313
_cell_angle_beta   109.63058052
_cell_angle_gamma   109.63058046
_symmetry_Int_Tables_number   1
_chemical_formula_structural   Mg3GaP6N13
_chemical_formula_sum   'Mg3 Ga1 P6 N13'
_cell_volume   267.90994807
_cell_formula_units_Z   1
loop_
 _symmetry_equiv_pos_site_id
 _symmetry_equiv_pos_as_xyz
  1  'x, y, z'
loop_
 _atom_site_type_symbol
 _atom_site_label
 _atom_site_symmetry_multiplicity
 _atom_site_fract_x
 _atom_site_fract_y
 _atom_site_fract_z
 _atom_site_occupancy
  Mg  Mg0  1  0.005052  0.713062  0.005052  1
  Mg  Mg1  1  0.713062  0.005052  0.005052  1
  Mg  Mg2  1  0.005052  0.005052  0.713062  1
  Ga  Ga3  1  0.294992  0.294992  0.294992  1
  P  P4  1  0.496579  0.247890  0.747969  1
  P  P5  1  0.496579  0.747969  0.247890  1
  P  P6  1  0.747969  0.247890  0.496579  1
  P  P7  1  0.247890  0.496579  0.747969  1
  P  P8  1  0.747969  0.496579  0.247890  1
  P  P9  1  0.247890  0.747969  0.496579  1
  N  N10  1  0.023837  0.023837  0.023837  1
  N  N11  1  0.998710  0.731136  0.455563  1
  N  N12  1  0.263470  0.716771  0.263470  1
  N  N13  1  0.278964  0.539817  0.539817  1
  N  N14  1  0.539817  0.539817  0.278964  1
  N  N15  1  0.539817  0.278964  0.539817  1
  N  N16  1  0.731136  0.998710  0.455563  1
  N  N17  1  0.455563  0.998710  0.731136  1
  N  N18  1  0.731136  0.455563  0.998710  1
  N  N19  1  0.263470  0.263470  0.716771  1
  N  N20  1  0.716771  0.263470  0.263470  1
  N  N21  1  0.998710  0.455563  0.731136  1
  N  N22  1  0.455563  0.731136  0.998710  1
