# generated using pymatgen
data_Yb4Al18(PdPt)3
_symmetry_space_group_name_H-M   'P 1'
_cell_length_a   7.64726707
_cell_length_b   7.64726709
_cell_length_c   9.49717102
_cell_angle_alpha   89.98632320
_cell_angle_beta   89.98632086
_cell_angle_gamma   119.61780310
_symmetry_Int_Tables_number   1
_chemical_formula_structural   Yb4Al18(PdPt)3
_chemical_formula_sum   'Yb4 Al18 Pd3 Pt3'
_cell_volume   482.83316379
_cell_formula_units_Z   1
loop_
 _symmetry_equiv_pos_site_id
 _symmetry_equiv_pos_as_xyz
  1  'x, y, z'
loop_
 _atom_site_type_symbol
 _atom_site_label
 _atom_site_symmetry_multiplicity
 _atom_site_fract_x
 _atom_site_fract_y
 _atom_site_fract_z
 _atom_site_occupancy
  Yb  Yb0  1  0.997120  0.670008  0.251317  1
  Yb  Yb1  1  0.002880  0.329992  0.748683  1
  Yb  Yb2  1  0.670008  0.997120  0.251317  1
  Yb  Yb3  1  0.329992  0.002880  0.748683  1
  Al  Al4  1  0.129917  0.129917  0.249947  1
  Al  Al5  1  0.870083  0.870083  0.750053  1
  Al  Al6  1  0.000413  0.334629  0.076884  1
  Al  Al7  1  0.999587  0.665371  0.923116  1
  Al  Al8  1  0.000327  0.665523  0.576578  1
  Al  Al9  1  0.334477  0.999673  0.423422  1
  Al  Al10  1  0.999673  0.334477  0.423422  1
  Al  Al11  1  0.665523  0.000327  0.576578  1
  Al  Al12  1  0.665371  0.999587  0.923116  1
  Al  Al13  1  0.334629  0.000413  0.076884  1
  Al  Al14  1  0.332130  0.332130  0.556001  1
  Al  Al15  1  0.667870  0.667870  0.443999  1
  Al  Al16  1  0.666903  0.666903  0.057795  1
  Al  Al17  1  0.333097  0.333097  0.942205  1
  Al  Al18  1  0.339516  0.545288  0.250152  1
  Al  Al19  1  0.660484  0.454712  0.749848  1
  Al  Al20  1  0.545288  0.339516  0.250152  1
  Al  Al21  1  0.454712  0.660484  0.749848  1
  Pd  Pd22  1  0.671526  0.328474  0.000000  1
  Pd  Pd23  1  0.328474  0.671526  0.000000  1
  Pd  Pd24  1  0.000000  0.000000  0.000000  1
  Pt  Pt25  1  0.328516  0.671484  0.500000  1
  Pt  Pt26  1  0.671484  0.328516  0.500000  1
  Pt  Pt27  1  0.000000  0.000000  0.500000  1
