# generated using pymatgen
data_TmZrB(IrRh)3
_symmetry_space_group_name_H-M   'P 1'
_cell_length_a   5.77508138
_cell_length_b   5.77508207
_cell_length_c   5.76413820
_cell_angle_alpha   59.93717581
_cell_angle_beta   59.93717535
_cell_angle_gamma   60.00000492
_symmetry_Int_Tables_number   1
_chemical_formula_structural   TmZrB(IrRh)3
_chemical_formula_sum   'Tm1 Zr1 B1 Ir3 Rh3'
_cell_volume   135.80714410
_cell_formula_units_Z   1
loop_
 _symmetry_equiv_pos_site_id
 _symmetry_equiv_pos_as_xyz
  1  'x, y, z'
loop_
 _atom_site_type_symbol
 _atom_site_label
 _atom_site_symmetry_multiplicity
 _atom_site_fract_x
 _atom_site_fract_y
 _atom_site_fract_z
 _atom_site_occupancy
  Tm  Tm0  1  0.749989  0.749989  0.750033  1
  Zr  Zr1  1  0.249886  0.249886  0.250342  1
  B  B2  1  0.000016  0.000016  0.999952  1
  Ir  Ir3  1  0.258417  0.258417  0.741935  1
  Ir  Ir4  1  0.741231  0.258417  0.741935  1
  Ir  Ir5  1  0.258417  0.741231  0.741935  1
  Rh  Rh6  1  0.742251  0.742251  0.257956  1
  Rh  Rh7  1  0.257542  0.742251  0.257956  1
  Rh  Rh8  1  0.742251  0.257542  0.257956  1
