# generated using pymatgen
data_PuNb3Cl7
_symmetry_space_group_name_H-M   'P 1'
_cell_length_a   9.16861966
_cell_length_b   18.32986790
_cell_length_c   16.04779304
_cell_angle_alpha   76.82171224
_cell_angle_beta   100.68713326
_cell_angle_gamma   92.13677129
_symmetry_Int_Tables_number   1
_chemical_formula_structural   PuNb3Cl7
_chemical_formula_sum   'Pu1 Nb3 Cl7'
_cell_volume   2580.37750687
_cell_formula_units_Z   1
loop_
 _symmetry_equiv_pos_site_id
 _symmetry_equiv_pos_as_xyz
  1  'x, y, z'
loop_
 _atom_site_type_symbol
 _atom_site_label
 _atom_site_symmetry_multiplicity
 _atom_site_fract_x
 _atom_site_fract_y
 _atom_site_fract_z
 _atom_site_occupancy
  Pu  Pu0  1  0.735995  0.187185  0.154360  1
  Nb  Nb1  1  0.302361  0.864163  0.326445  1
  Nb  Nb2  1  0.864332  0.977647  0.709854  1
  Nb  Nb3  1  0.564295  0.250177  0.975343  1
  Cl  Cl4  1  0.984639  0.121715  0.235078  1
  Cl  Cl5  1  0.479698  0.915393  0.247566  1
  Cl  Cl6  1  0.078709  0.841678  0.242001  1
  Cl  Cl7  1  0.737787  0.555626  0.717248  1
  Cl  Cl8  1  0.624905  0.243453  0.258158  1
  Cl  Cl9  1  0.386270  0.853995  0.474552  1
  Cl  Cl10  1  0.971116  0.021141  0.832956  1
