# generated using pymatgen
data_Y6Tm4Si6O
_symmetry_space_group_name_H-M   'P 1'
_cell_length_a   8.36159400
_cell_length_b   8.36159366
_cell_length_c   6.23124900
_cell_angle_alpha   90.00000000
_cell_angle_beta   90.00000000
_cell_angle_gamma   119.99999345
_symmetry_Int_Tables_number   1
_chemical_formula_structural   Y6Tm4Si6O
_chemical_formula_sum   'Y6 Tm4 Si6 O1'
_cell_volume   377.29747717
_cell_formula_units_Z   1
loop_
 _symmetry_equiv_pos_site_id
 _symmetry_equiv_pos_as_xyz
  1  'x, y, z'
loop_
 _atom_site_type_symbol
 _atom_site_label
 _atom_site_symmetry_multiplicity
 _atom_site_fract_x
 _atom_site_fract_y
 _atom_site_fract_z
 _atom_site_occupancy
  Y  Y0  1  0.000000  0.762425  0.257889  1
  Y  Y1  1  0.237575  0.237575  0.257889  1
  Y  Y2  1  0.762425  0.000000  0.257889  1
  Y  Y3  1  0.000000  0.237575  0.742111  1
  Y  Y4  1  0.762425  0.762425  0.742111  1
  Y  Y5  1  0.237575  0.000000  0.742111  1
  Tm  Tm6  1  0.333333  0.666667  0.500000  1
  Tm  Tm7  1  0.666667  0.333333  0.500000  1
  Tm  Tm8  1  0.666667  0.333333  0.000000  1
  Tm  Tm9  1  0.333333  0.666667  0.000000  1
  Si  Si10  1  0.000000  0.398785  0.249093  1
  Si  Si11  1  0.601215  0.601215  0.249093  1
  Si  Si12  1  0.398785  0.000000  0.249093  1
  Si  Si13  1  0.000000  0.601215  0.750907  1
  Si  Si14  1  0.398785  0.398785  0.750907  1
  Si  Si15  1  0.601215  0.000000  0.750907  1
  O  O16  1  0.000000  0.000000  0.500000  1
