# generated using pymatgen
data_CaV8Fe3O16
_symmetry_space_group_name_H-M   'P 1'
_cell_length_a   6.24178800
_cell_length_b   8.48797700
_cell_length_c   6.24178800
_cell_angle_alpha   90.00000000
_cell_angle_beta   90.00000000
_cell_angle_gamma   90.00000000
_symmetry_Int_Tables_number   1
_chemical_formula_structural   CaV8Fe3O16
_chemical_formula_sum   'Ca1 V8 Fe3 O16'
_cell_volume   330.69088313
_cell_formula_units_Z   1
loop_
 _symmetry_equiv_pos_site_id
 _symmetry_equiv_pos_as_xyz
  1  'x, y, z'
loop_
 _atom_site_type_symbol
 _atom_site_label
 _atom_site_symmetry_multiplicity
 _atom_site_fract_x
 _atom_site_fract_y
 _atom_site_fract_z
 _atom_site_occupancy
  Ca  Ca0  1  0.250000  0.125000  0.000000  1
  V  V1  1  0.750000  0.256137  0.748057  1
  V  V2  1  0.250000  0.745915  0.253525  1
  V  V3  1  0.750000  0.256137  0.251943  1
  V  V4  1  0.250000  0.745915  0.746475  1
  V  V5  1  0.503525  0.504085  0.000000  1
  V  V6  1  0.998057  0.993863  0.500000  1
  V  V7  1  0.996475  0.504085  0.000000  1
  V  V8  1  0.501943  0.993863  0.500000  1
  Fe  Fe9  1  0.750000  0.625000  0.500000  1
  Fe  Fe10  1  0.750000  0.869563  0.000000  1
  Fe  Fe11  1  0.250000  0.380437  0.500000  1
  O  O12  1  0.750000  0.498718  0.222350  1
  O  O13  1  0.250000  0.981073  0.710849  1
  O  O14  1  0.750000  0.498718  0.777650  1
  O  O15  1  0.250000  0.981073  0.289151  1
  O  O16  1  0.960849  0.268927  0.000000  1
  O  O17  1  0.472350  0.751282  0.500000  1
  O  O18  1  0.539151  0.268927  0.000000  1
  O  O19  1  0.027650  0.751282  0.500000  1
  O  O20  1  0.250000  0.506224  0.779156  1
  O  O21  1  0.750000  0.008337  0.276949  1
  O  O22  1  0.250000  0.506224  0.220844  1
  O  O23  1  0.750000  0.008337  0.723051  1
  O  O24  1  0.029156  0.743776  0.000000  1
  O  O25  1  0.526949  0.241663  0.500000  1
  O  O26  1  0.470844  0.743776  0.000000  1
  O  O27  1  0.973051  0.241663  0.500000  1
