# generated using pymatgen
data_DyHo4GeBi2
_symmetry_space_group_name_H-M   'P 1'
_cell_length_a   8.06391500
_cell_length_b   9.20798700
_cell_length_c   11.99966800
_cell_angle_alpha   90.00000000
_cell_angle_beta   90.00000000
_cell_angle_gamma   90.00000000
_symmetry_Int_Tables_number   1
_chemical_formula_structural   DyHo4GeBi2
_chemical_formula_sum   'Dy4 Ho16 Ge4 Bi8'
_cell_volume   891.00444206
_cell_formula_units_Z   4
loop_
 _symmetry_equiv_pos_site_id
 _symmetry_equiv_pos_as_xyz
  1  'x, y, z'
loop_
 _atom_site_type_symbol
 _atom_site_label
 _atom_site_symmetry_multiplicity
 _atom_site_fract_x
 _atom_site_fract_y
 _atom_site_fract_z
 _atom_site_occupancy
  Dy  Dy0  1  0.169298  0.750000  0.214033  1
  Dy  Dy1  1  0.330702  0.750000  0.714033  1
  Dy  Dy2  1  0.830702  0.250000  0.785967  1
  Dy  Dy3  1  0.669298  0.250000  0.285967  1
  Ho  Ho4  1  0.820657  0.554845  0.062420  1
  Ho  Ho5  1  0.679343  0.945155  0.562420  1
  Ho  Ho6  1  0.179343  0.054845  0.937580  1
  Ho  Ho7  1  0.320657  0.445155  0.437580  1
  Ho  Ho8  1  0.179343  0.445155  0.937580  1
  Ho  Ho9  1  0.320657  0.054845  0.437580  1
  Ho  Ho10  1  0.820657  0.945155  0.062420  1
  Ho  Ho11  1  0.679343  0.554845  0.562420  1
  Ho  Ho12  1  0.464993  0.750000  0.002428  1
  Ho  Ho13  1  0.035007  0.750000  0.502428  1
  Ho  Ho14  1  0.535007  0.250000  0.997572  1
  Ho  Ho15  1  0.964993  0.250000  0.497572  1
  Ho  Ho16  1  0.640155  0.750000  0.294093  1
  Ho  Ho17  1  0.859845  0.750000  0.794093  1
  Ho  Ho18  1  0.359845  0.250000  0.705907  1
  Ho  Ho19  1  0.140155  0.250000  0.205907  1
  Ge  Ge20  1  0.408083  0.750000  0.476907  1
  Ge  Ge21  1  0.091917  0.750000  0.976907  1
  Ge  Ge22  1  0.591917  0.250000  0.523093  1
  Ge  Ge23  1  0.908083  0.250000  0.023093  1
  Bi  Bi24  1  0.934393  0.510931  0.325344  1
  Bi  Bi25  1  0.565607  0.989069  0.825344  1
  Bi  Bi26  1  0.065607  0.010931  0.674656  1
  Bi  Bi27  1  0.434393  0.489069  0.174656  1
  Bi  Bi28  1  0.065607  0.489069  0.674656  1
  Bi  Bi29  1  0.434393  0.010931  0.174656  1
  Bi  Bi30  1  0.934393  0.989069  0.325344  1
  Bi  Bi31  1  0.565607  0.510931  0.825344  1
