# generated using pymatgen
data_Nd17Ho2InIr12
_symmetry_space_group_name_H-M   'P 1'
_cell_length_a   11.22908000
_cell_length_b   11.22908000
_cell_length_c   6.46265100
_cell_angle_alpha   90.00000000
_cell_angle_beta   90.00000000
_cell_angle_gamma   90.00000000
_symmetry_Int_Tables_number   1
_chemical_formula_structural   Nd17Ho2InIr12
_chemical_formula_sum   'Nd17 Ho2 In1 Ir12'
_cell_volume   814.89012572
_cell_formula_units_Z   1
loop_
 _symmetry_equiv_pos_site_id
 _symmetry_equiv_pos_as_xyz
  1  'x, y, z'
loop_
 _atom_site_type_symbol
 _atom_site_label
 _atom_site_symmetry_multiplicity
 _atom_site_fract_x
 _atom_site_fract_y
 _atom_site_fract_z
 _atom_site_occupancy
  Nd  Nd0  1  0.281571  0.085443  0.381958  1
  Nd  Nd1  1  0.290512  0.911881  0.881626  1
  Nd  Nd2  1  0.709488  0.088119  0.881626  1
  Nd  Nd3  1  0.718429  0.914557  0.381958  1
  Nd  Nd4  1  0.588011  0.788889  0.883596  1
  Nd  Nd5  1  0.587408  0.210474  0.380155  1
  Nd  Nd6  1  0.412592  0.789526  0.380155  1
  Nd  Nd7  1  0.411989  0.211111  0.883596  1
  Nd  Nd8  1  0.210474  0.412592  0.619845  1
  Nd  Nd9  1  0.211111  0.588011  0.116404  1
  Nd  Nd10  1  0.788889  0.411989  0.116404  1
  Nd  Nd11  1  0.789526  0.587408  0.619845  1
  Nd  Nd12  1  0.911881  0.709488  0.118374  1
  Nd  Nd13  1  0.914557  0.281571  0.618042  1
  Nd  Nd14  1  0.085443  0.718429  0.618042  1
  Nd  Nd15  1  0.088119  0.290512  0.118374  1
  Nd  Nd16  1  0.000000  0.000000  0.000000  1
  Ho  Ho17  1  0.500000  0.500000  0.000000  1
  Ho  Ho18  1  0.500000  0.500000  0.500000  1
  In  In19  1  0.000000  0.000000  0.500000  1
  Ir  Ir20  1  0.846634  0.155482  0.247086  1
  Ir  Ir21  1  0.844518  0.846634  0.752914  1
  Ir  Ir22  1  0.155482  0.153366  0.752914  1
  Ir  Ir23  1  0.153366  0.844518  0.247086  1
  Ir  Ir24  1  0.649544  0.351531  0.747354  1
  Ir  Ir25  1  0.648469  0.649544  0.252646  1
  Ir  Ir26  1  0.351531  0.350456  0.252646  1
  Ir  Ir27  1  0.350456  0.648469  0.747354  1
  Ir  Ir28  1  0.500000  0.000000  0.121878  1
  Ir  Ir29  1  0.500000  0.000000  0.616300  1
  Ir  Ir30  1  0.000000  0.500000  0.878122  1
  Ir  Ir31  1  0.000000  0.500000  0.383700  1
