# generated using pymatgen
data_Er2Pa(Co3B2)3
_symmetry_space_group_name_H-M   'P 1'
_cell_length_a   5.80515513
_cell_length_b   5.80515440
_cell_length_c   5.80515474
_cell_angle_alpha   94.86253204
_cell_angle_beta   94.86253429
_cell_angle_gamma   94.86254677
_symmetry_Int_Tables_number   1
_chemical_formula_structural   Er2Pa(Co3B2)3
_chemical_formula_sum   'Er2 Pa1 Co9 B6'
_cell_volume   193.39221557
_cell_formula_units_Z   1
loop_
 _symmetry_equiv_pos_site_id
 _symmetry_equiv_pos_as_xyz
  1  'x, y, z'
loop_
 _atom_site_type_symbol
 _atom_site_label
 _atom_site_symmetry_multiplicity
 _atom_site_fract_x
 _atom_site_fract_y
 _atom_site_fract_z
 _atom_site_occupancy
  Er  Er0  1  0.665109  0.665109  0.665109  1
  Er  Er1  1  0.334891  0.334891  0.334891  1
  Pa  Pa2  1  0.000000  0.000000  0.000000  1
  Co  Co3  1  0.000000  0.000000  0.500000  1
  Co  Co4  1  0.500000  0.000000  0.000000  1
  Co  Co5  1  0.000000  0.500000  0.000000  1
  Co  Co6  1  0.675267  0.172341  0.675267  1
  Co  Co7  1  0.675267  0.675267  0.172341  1
  Co  Co8  1  0.172341  0.675267  0.675267  1
  Co  Co9  1  0.324733  0.827659  0.324733  1
  Co  Co10  1  0.324733  0.324733  0.827659  1
  Co  Co11  1  0.827659  0.324733  0.324733  1
  B  B12  1  0.657175  0.342825  0.000000  1
  B  B13  1  0.000000  0.657175  0.342825  1
  B  B14  1  0.342825  0.000000  0.657175  1
  B  B15  1  0.000000  0.342825  0.657175  1
  B  B16  1  0.657175  0.000000  0.342825  1
  B  B17  1  0.342825  0.657175  0.000000  1
