# generated using pymatgen
data_CrIn(TcO4)6
_symmetry_space_group_name_H-M   'P 1'
_cell_length_a   10.49704281
_cell_length_b   10.49704253
_cell_length_c   10.49704200
_cell_angle_alpha   49.07360191
_cell_angle_beta   49.07360328
_cell_angle_gamma   49.07360710
_symmetry_Int_Tables_number   1
_chemical_formula_structural   CrIn(TcO4)6
_chemical_formula_sum   'Cr1 In1 Tc6 O24'
_cell_volume   606.36017185
_cell_formula_units_Z   1
loop_
 _symmetry_equiv_pos_site_id
 _symmetry_equiv_pos_as_xyz
  1  'x, y, z'
loop_
 _atom_site_type_symbol
 _atom_site_label
 _atom_site_symmetry_multiplicity
 _atom_site_fract_x
 _atom_site_fract_y
 _atom_site_fract_z
 _atom_site_occupancy
  Cr  Cr0  1  0.000000  0.000000  0.000000  1
  In  In1  1  0.500000  0.500000  0.500000  1
  Tc  Tc2  1  0.598634  0.911043  0.244132  1
  Tc  Tc3  1  0.244132  0.598634  0.911043  1
  Tc  Tc4  1  0.911043  0.244132  0.598634  1
  Tc  Tc5  1  0.755868  0.401366  0.088957  1
  Tc  Tc6  1  0.088957  0.755868  0.401366  1
  Tc  Tc7  1  0.401366  0.088957  0.755868  1
  O  O8  1  0.815451  0.894029  0.169155  1
  O  O9  1  0.169155  0.815451  0.894029  1
  O  O10  1  0.894029  0.169155  0.815451  1
  O  O11  1  0.685334  0.372780  0.309781  1
  O  O12  1  0.309781  0.685334  0.372780  1
  O  O13  1  0.372780  0.309781  0.685334  1
  O  O14  1  0.184549  0.105971  0.830845  1
  O  O15  1  0.830845  0.184549  0.105971  1
  O  O16  1  0.105971  0.830845  0.184549  1
  O  O17  1  0.314666  0.627220  0.690219  1
  O  O18  1  0.690219  0.314666  0.627220  1
  O  O19  1  0.627220  0.690219  0.314666  1
  O  O20  1  0.442898  0.979699  0.422582  1
  O  O21  1  0.422582  0.442898  0.979699  1
  O  O22  1  0.979699  0.422582  0.442898  1
  O  O23  1  0.929396  0.476850  0.933772  1
  O  O24  1  0.933772  0.929396  0.476850  1
  O  O25  1  0.476850  0.933772  0.929396  1
  O  O26  1  0.557102  0.020301  0.577418  1
  O  O27  1  0.577418  0.557102  0.020301  1
  O  O28  1  0.020301  0.577418  0.557102  1
  O  O29  1  0.070604  0.523150  0.066228  1
  O  O30  1  0.066228  0.070604  0.523150  1
  O  O31  1  0.523150  0.066228  0.070604  1
