# generated using pymatgen
data_Ac3Zn22
_symmetry_space_group_name_H-M   'P 1'
_cell_length_a   12.68629355
_cell_length_b   9.13597010
_cell_length_c   9.13597000
_cell_angle_alpha   90.00000000
_cell_angle_beta   111.10464647
_cell_angle_gamma   111.10464834
_symmetry_Int_Tables_number   1
_chemical_formula_structural   Ac3Zn22
_chemical_formula_sum   'Ac6 Zn44'
_cell_volume   911.30547152
_cell_formula_units_Z   2
loop_
 _symmetry_equiv_pos_site_id
 _symmetry_equiv_pos_as_xyz
  1  'x, y, z'
loop_
 _atom_site_type_symbol
 _atom_site_label
 _atom_site_symmetry_multiplicity
 _atom_site_fract_x
 _atom_site_fract_y
 _atom_site_fract_z
 _atom_site_occupancy
  Ac  Ac0  1  0.508755  0.254378  0.004377  1
  Ac  Ac1  1  0.991245  0.495623  0.245622  1
  Ac  Ac2  1  0.250000  0.125000  0.375001  1
  Ac  Ac3  1  0.750000  0.875000  0.625000  1
  Ac  Ac4  1  0.008755  0.504377  0.754378  1
  Ac  Ac5  1  0.491245  0.745622  0.995623  1
  Zn  Zn6  1  0.000000  0.000000  0.000000  1
  Zn  Zn7  1  0.230050  0.115025  0.010116  1
  Zn  Zn8  1  0.123289  0.317336  0.078327  1
  Zn  Zn9  1  0.123289  0.805955  0.078327  1
  Zn  Zn10  1  0.246892  0.623445  0.102377  1
  Zn  Zn11  1  0.746892  0.144515  0.123445  1
  Zn  Zn12  1  0.746892  0.602377  0.123445  1
  Zn  Zn13  1  0.376711  0.421673  0.182665  1
  Zn  Zn14  1  0.376711  0.955037  0.182665  1
  Zn  Zn15  1  0.969792  0.131585  0.234897  1
  Zn  Zn16  1  0.969792  0.838207  0.234897  1
  Zn  Zn17  1  0.769950  0.884975  0.280066  1
  Zn  Zn18  1  0.623289  0.044963  0.305955  1
  Zn  Zn19  1  0.623289  0.578328  0.305955  1
  Zn  Zn20  1  0.469792  0.734896  0.338208  1
  Zn  Zn21  1  0.753108  0.376555  0.355485  1
  Zn  Zn22  1  0.530208  0.265104  0.368416  1
  Zn  Zn23  1  0.269949  0.489883  0.384976  1
  Zn  Zn24  1  0.269949  0.780066  0.384976  1
  Zn  Zn25  1  0.876711  0.194046  0.455037  1
  Zn  Zn26  1  0.876711  0.682664  0.455037  1
  Zn  Zn27  1  0.000000  0.000000  0.500000  1
  Zn  Zn28  1  0.500000  0.000000  0.500001  1
  Zn  Zn29  1  0.500000  0.500001  0.500001  1
  Zn  Zn30  1  0.123289  0.317336  0.544963  1
  Zn  Zn31  1  0.123289  0.805955  0.544963  1
  Zn  Zn32  1  0.730051  0.219934  0.615025  1
  Zn  Zn33  1  0.730051  0.510117  0.615025  1
  Zn  Zn34  1  0.469792  0.734896  0.631584  1
  Zn  Zn35  1  0.246892  0.623445  0.644515  1
  Zn  Zn36  1  0.530208  0.265104  0.661792  1
  Zn  Zn37  1  0.376711  0.421673  0.694045  1
  Zn  Zn38  1  0.376711  0.955037  0.694045  1
  Zn  Zn39  1  0.230050  0.115025  0.719934  1
  Zn  Zn40  1  0.030208  0.161793  0.765104  1
  Zn  Zn41  1  0.030208  0.868415  0.765104  1
  Zn  Zn42  1  0.623289  0.044963  0.817335  1
  Zn  Zn43  1  0.623289  0.578328  0.817335  1
  Zn  Zn44  1  0.253108  0.397623  0.876555  1
  Zn  Zn45  1  0.253108  0.855485  0.876555  1
  Zn  Zn46  1  0.753108  0.376555  0.897623  1
  Zn  Zn47  1  0.876711  0.194046  0.921673  1
  Zn  Zn48  1  0.876711  0.682664  0.921673  1
  Zn  Zn49  1  0.769950  0.884975  0.989884  1
