# generated using pymatgen
data_Hf6BeSnBi
_symmetry_space_group_name_H-M   'P 1'
_cell_length_a   3.76839100
_cell_length_b   7.64149493
_cell_length_c   7.64149700
_cell_angle_alpha   119.99999598
_cell_angle_beta   90.00000000
_cell_angle_gamma   90.00000000
_symmetry_Int_Tables_number   1
_chemical_formula_structural   Hf6BeSnBi
_chemical_formula_sum   'Hf6 Be1 Sn1 Bi1'
_cell_volume   190.56510716
_cell_formula_units_Z   1
loop_
 _symmetry_equiv_pos_site_id
 _symmetry_equiv_pos_as_xyz
  1  'x, y, z'
loop_
 _atom_site_type_symbol
 _atom_site_label
 _atom_site_symmetry_multiplicity
 _atom_site_fract_x
 _atom_site_fract_y
 _atom_site_fract_z
 _atom_site_occupancy
  Hf  Hf0  1  0.500000  0.771565  0.768260  1
  Hf  Hf1  1  0.500000  0.996695  0.228435  1
  Hf  Hf2  1  0.500000  0.231740  0.003305  1
  Hf  Hf3  1  0.000000  0.389818  0.384329  1
  Hf  Hf4  1  0.000000  0.994511  0.610182  1
  Hf  Hf5  1  0.000000  0.615671  0.005489  1
  Be  Be6  1  0.000000  0.000000  0.000000  1
  Sn  Sn7  1  0.500000  0.666667  0.333333  1
  Bi  Bi8  1  0.500000  0.333333  0.666667  1
