# generated using pymatgen
data_YHo5Co16(P6Os)2
_symmetry_space_group_name_H-M   'P 1'
_cell_length_a   3.71945800
_cell_length_b   10.50896500
_cell_length_c   12.24625200
_cell_angle_alpha   90.00000000
_cell_angle_beta   90.00000000
_cell_angle_gamma   90.00000000
_symmetry_Int_Tables_number   1
_chemical_formula_structural   YHo5Co16(P6Os)2
_chemical_formula_sum   'Y1 Ho5 Co16 P12 Os2'
_cell_volume   478.67726025
_cell_formula_units_Z   1
loop_
 _symmetry_equiv_pos_site_id
 _symmetry_equiv_pos_as_xyz
  1  'x, y, z'
loop_
 _atom_site_type_symbol
 _atom_site_label
 _atom_site_symmetry_multiplicity
 _atom_site_fract_x
 _atom_site_fract_y
 _atom_site_fract_z
 _atom_site_occupancy
  Y  Y0  1  0.500000  0.000000  0.475599  1
  Ho  Ho1  1  0.000000  0.500000  0.524538  1
  Ho  Ho2  1  0.500000  0.817156  0.207038  1
  Ho  Ho3  1  0.500000  0.182844  0.207038  1
  Ho  Ho4  1  0.000000  0.682780  0.792807  1
  Ho  Ho5  1  0.000000  0.317220  0.792807  1
  Co  Co6  1  0.500000  0.500000  0.703568  1
  Co  Co7  1  0.000000  0.000000  0.295898  1
  Co  Co8  1  0.000000  0.500000  0.986693  1
  Co  Co9  1  0.500000  0.000000  0.013221  1
  Co  Co10  1  0.500000  0.332720  0.989961  1
  Co  Co11  1  0.500000  0.667280  0.989961  1
  Co  Co12  1  0.000000  0.167402  0.010046  1
  Co  Co13  1  0.000000  0.832598  0.010046  1
  Co  Co14  1  0.500000  0.298125  0.430872  1
  Co  Co15  1  0.500000  0.701875  0.430872  1
  Co  Co16  1  0.000000  0.202833  0.569194  1
  Co  Co17  1  0.000000  0.797167  0.569194  1
  Co  Co18  1  0.500000  0.879068  0.708800  1
  Co  Co19  1  0.500000  0.120932  0.708800  1
  Co  Co20  1  0.000000  0.620731  0.291371  1
  Co  Co21  1  0.000000  0.379269  0.291371  1
  P  P22  1  0.500000  0.500000  0.880586  1
  P  P23  1  0.000000  0.000000  0.119231  1
  P  P24  1  0.500000  0.500000  0.351289  1
  P  P25  1  0.000000  0.000000  0.649439  1
  P  P26  1  0.500000  0.312068  0.616109  1
  P  P27  1  0.500000  0.687932  0.616109  1
  P  P28  1  0.000000  0.188585  0.383555  1
  P  P29  1  0.000000  0.811415  0.383555  1
  P  P30  1  0.500000  0.846380  0.892935  1
  P  P31  1  0.500000  0.153620  0.892935  1
  P  P32  1  0.000000  0.653445  0.107110  1
  P  P33  1  0.000000  0.346555  0.107110  1
  Os  Os34  1  0.500000  0.500000  0.159294  1
  Os  Os35  1  0.000000  0.000000  0.841051  1
