# generated using pymatgen
data_Ta16GaNi7C3N
_symmetry_space_group_name_H-M   'P 1'
_cell_length_a   8.26957896
_cell_length_b   8.25240795
_cell_length_c   8.25240780
_cell_angle_alpha   60.13031801
_cell_angle_beta   60.21081771
_cell_angle_gamma   60.21081830
_symmetry_Int_Tables_number   1
_chemical_formula_structural   Ta16GaNi7C3N
_chemical_formula_sum   'Ta16 Ga1 Ni7 C3 N1'
_cell_volume   399.88484243
_cell_formula_units_Z   1
loop_
 _symmetry_equiv_pos_site_id
 _symmetry_equiv_pos_as_xyz
  1  'x, y, z'
loop_
 _atom_site_type_symbol
 _atom_site_label
 _atom_site_symmetry_multiplicity
 _atom_site_fract_x
 _atom_site_fract_y
 _atom_site_fract_z
 _atom_site_occupancy
  Ta  Ta0  1  0.126251  0.624721  0.624721  1
  Ta  Ta1  1  0.617780  0.119289  0.631443  1
  Ta  Ta2  1  0.617780  0.631443  0.119289  1
  Ta  Ta3  1  0.618019  0.631422  0.631422  1
  Ta  Ta4  1  0.814457  0.814126  0.185402  1
  Ta  Ta5  1  0.181050  0.182282  0.818355  1
  Ta  Ta6  1  0.814457  0.185402  0.814126  1
  Ta  Ta7  1  0.181050  0.818355  0.182282  1
  Ta  Ta8  1  0.181370  0.817443  0.817443  1
  Ta  Ta9  1  0.814972  0.184987  0.184987  1
  Ta  Ta10  1  0.431724  0.432751  0.068174  1
  Ta  Ta11  1  0.069081  0.058815  0.435656  1
  Ta  Ta12  1  0.431724  0.068174  0.432751  1
  Ta  Ta13  1  0.069081  0.435656  0.058815  1
  Ta  Ta14  1  0.069092  0.436695  0.436695  1
  Ta  Ta15  1  0.431612  0.068197  0.068197  1
  Ga  Ga16  1  0.764073  0.412023  0.412023  1
  Ni  Ni17  1  0.421939  0.740926  0.418047  1
  Ni  Ni18  1  0.421939  0.418047  0.740926  1
  Ni  Ni19  1  0.422567  0.418785  0.418785  1
  Ni  Ni20  1  0.507223  0.831172  0.831172  1
  Ni  Ni21  1  0.831103  0.508170  0.830702  1
  Ni  Ni22  1  0.831103  0.830702  0.508170  1
  Ni  Ni23  1  0.830695  0.830502  0.830502  1
  C  C24  1  0.626126  0.124678  0.124678  1
  C  C25  1  0.124374  0.623808  0.125885  1
  C  C26  1  0.124374  0.125885  0.623808  1
  N  N27  1  0.124979  0.125541  0.125541  1
