# generated using pymatgen
data_Hf3Ir5
_symmetry_space_group_name_H-M   'P 1'
_cell_length_a   5.62994114
_cell_length_b   4.24127517
_cell_length_c   7.04393365
_cell_angle_alpha   127.06140087
_cell_angle_beta   95.03544350
_cell_angle_gamma   90.01411689
_symmetry_Int_Tables_number   1
_chemical_formula_structural   Hf3Ir5
_chemical_formula_sum   'Hf3 Ir5'
_cell_volume   133.40157875
_cell_formula_units_Z   1
loop_
 _symmetry_equiv_pos_site_id
 _symmetry_equiv_pos_as_xyz
  1  'x, y, z'
loop_
 _atom_site_type_symbol
 _atom_site_label
 _atom_site_symmetry_multiplicity
 _atom_site_fract_x
 _atom_site_fract_y
 _atom_site_fract_z
 _atom_site_occupancy
  Hf  Hf0  1  0.408910  0.451034  0.769910  1
  Hf  Hf1  1  0.697148  0.663478  0.482774  1
  Hf  Hf2  1  0.984258  0.877283  0.196139  1
  Ir  Ir3  1  0.473939  0.940499  0.259835  1
  Ir  Ir4  1  0.696074  0.163579  0.982779  1
  Ir  Ir5  1  0.919107  0.386830  0.706256  1
  Ir  Ir6  1  0.195863  0.164593  0.983357  1
  Ir  Ir7  1  0.197353  0.664420  0.483501  1
