# generated using pymatgen
data_Ca10CuIr3
_symmetry_space_group_name_H-M   'P 1'
_cell_length_a   8.73631474
_cell_length_b   8.69721294
_cell_length_c   7.68321718
_cell_angle_alpha   82.75091722
_cell_angle_beta   83.10296162
_cell_angle_gamma   44.17977291
_symmetry_Int_Tables_number   1
_chemical_formula_structural   Ca10CuIr3
_chemical_formula_sum   'Ca10 Cu1 Ir3'
_cell_volume   403.22356512
_cell_formula_units_Z   1
loop_
 _symmetry_equiv_pos_site_id
 _symmetry_equiv_pos_as_xyz
  1  'x, y, z'
loop_
 _atom_site_type_symbol
 _atom_site_label
 _atom_site_symmetry_multiplicity
 _atom_site_fract_x
 _atom_site_fract_y
 _atom_site_fract_z
 _atom_site_occupancy
  Ca  Ca0  1  0.038202  0.789801  0.911827  1
  Ca  Ca1  1  0.199327  0.978361  0.584333  1
  Ca  Ca2  1  0.984163  0.201618  0.083449  1
  Ca  Ca3  1  0.806328  0.022483  0.427234  1
  Ca  Ca4  1  0.359115  0.199416  0.813676  1
  Ca  Ca5  1  0.796453  0.637241  0.676798  1
  Ca  Ca6  1  0.634544  0.789778  0.177446  1
  Ca  Ca7  1  0.187849  0.371614  0.331851  1
  Ca  Ca8  1  0.575747  0.431271  0.738482  1
  Ca  Ca9  1  0.420544  0.583784  0.256777  1
  Cu  Cu10  1  0.598316  0.179838  0.080563  1
  Ir  Ir11  1  0.179214  0.596959  0.584395  1
  Ir  Ir12  1  0.397438  0.821550  0.918649  1
  Ir  Ir13  1  0.822759  0.396287  0.414520  1
