# generated using pymatgen
data_Sc24Co5Tc3
_symmetry_space_group_name_H-M   'P 1'
_cell_length_a   5.84469883
_cell_length_b   8.57594600
_cell_length_c   13.14987891
_cell_angle_alpha   90.00000000
_cell_angle_beta   89.81977516
_cell_angle_gamma   90.00000000
_symmetry_Int_Tables_number   1
_chemical_formula_structural   Sc24Co5Tc3
_chemical_formula_sum   'Sc24 Co5 Tc3'
_cell_volume   659.11892275
_cell_formula_units_Z   1
loop_
 _symmetry_equiv_pos_site_id
 _symmetry_equiv_pos_as_xyz
  1  'x, y, z'
loop_
 _atom_site_type_symbol
 _atom_site_label
 _atom_site_symmetry_multiplicity
 _atom_site_fract_x
 _atom_site_fract_y
 _atom_site_fract_z
 _atom_site_occupancy
  Sc  Sc0  1  0.531387  0.750000  0.351299  1
  Sc  Sc1  1  0.030767  0.250000  0.147037  1
  Sc  Sc2  1  0.470914  0.250000  0.649463  1
  Sc  Sc3  1  0.952704  0.750000  0.853992  1
  Sc  Sc4  1  0.782417  0.750000  0.106625  1
  Sc  Sc5  1  0.285755  0.250000  0.387326  1
  Sc  Sc6  1  0.210775  0.250000  0.886009  1
  Sc  Sc7  1  0.710607  0.750000  0.614055  1
  Sc  Sc8  1  0.406365  0.932899  0.789367  1
  Sc  Sc9  1  0.909732  0.063296  0.714219  1
  Sc  Sc10  1  0.590850  0.435482  0.215066  1
  Sc  Sc11  1  0.088440  0.565265  0.283389  1
  Sc  Sc12  1  0.590850  0.064518  0.215066  1
  Sc  Sc13  1  0.088440  0.934735  0.283389  1
  Sc  Sc14  1  0.406365  0.567101  0.789367  1
  Sc  Sc15  1  0.909732  0.436704  0.714219  1
  Sc  Sc16  1  0.248087  0.938919  0.538077  1
  Sc  Sc17  1  0.752722  0.062179  0.962568  1
  Sc  Sc18  1  0.756256  0.440607  0.462776  1
  Sc  Sc19  1  0.261574  0.562265  0.036171  1
  Sc  Sc20  1  0.756256  0.059393  0.462776  1
  Sc  Sc21  1  0.261574  0.937735  0.036171  1
  Sc  Sc22  1  0.248087  0.561081  0.538077  1
  Sc  Sc23  1  0.752722  0.437821  0.962568  1
  Co  Co24  1  0.556608  0.750000  0.939114  1
  Co  Co25  1  0.372931  0.750000  0.179062  1
  Co  Co26  1  0.869773  0.250000  0.319341  1
  Co  Co27  1  0.632644  0.250000  0.821249  1
  Co  Co28  1  0.127746  0.750000  0.682244  1
  Tc  Tc29  1  0.934372  0.750000  0.440327  1
  Tc  Tc30  1  0.437076  0.250000  0.058590  1
  Tc  Tc31  1  0.065469  0.250000  0.560999  1
