# generated using pymatgen
data_Tm7Co17P12
_symmetry_space_group_name_H-M   'P 1'
_cell_length_a   3.69117900
_cell_length_b   10.53825700
_cell_length_c   12.24609400
_cell_angle_alpha   90.00000000
_cell_angle_beta   90.00000000
_cell_angle_gamma   90.00000000
_symmetry_Int_Tables_number   1
_chemical_formula_structural   Tm7Co17P12
_chemical_formula_sum   'Tm7 Co17 P12'
_cell_volume   476.35582555
_cell_formula_units_Z   1
loop_
 _symmetry_equiv_pos_site_id
 _symmetry_equiv_pos_as_xyz
  1  'x, y, z'
loop_
 _atom_site_type_symbol
 _atom_site_label
 _atom_site_symmetry_multiplicity
 _atom_site_fract_x
 _atom_site_fract_y
 _atom_site_fract_z
 _atom_site_occupancy
  Tm  Tm0  1  0.000000  0.500000  0.531641  1
  Tm  Tm1  1  0.500000  0.000000  0.477095  1
  Tm  Tm2  1  0.500000  0.823260  0.208123  1
  Tm  Tm3  1  0.500000  0.176740  0.208123  1
  Tm  Tm4  1  0.000000  0.682785  0.795249  1
  Tm  Tm5  1  0.000000  0.317215  0.795249  1
  Tm  Tm6  1  0.500000  0.500000  0.155581  1
  Co  Co7  1  0.000000  0.000000  0.833969  1
  Co  Co8  1  0.500000  0.500000  0.703011  1
  Co  Co9  1  0.000000  0.000000  0.295729  1
  Co  Co10  1  0.000000  0.500000  0.981752  1
  Co  Co11  1  0.500000  0.000000  0.013717  1
  Co  Co12  1  0.500000  0.324306  0.986330  1
  Co  Co13  1  0.500000  0.675694  0.986330  1
  Co  Co14  1  0.000000  0.159600  0.999135  1
  Co  Co15  1  0.000000  0.840400  0.999135  1
  Co  Co16  1  0.500000  0.293101  0.436513  1
  Co  Co17  1  0.500000  0.706899  0.436513  1
  Co  Co18  1  0.000000  0.200834  0.570816  1
  Co  Co19  1  0.000000  0.799166  0.570816  1
  Co  Co20  1  0.500000  0.880127  0.706577  1
  Co  Co21  1  0.500000  0.119873  0.706577  1
  Co  Co22  1  0.000000  0.623962  0.302342  1
  Co  Co23  1  0.000000  0.376038  0.302342  1
  P  P24  1  0.500000  0.500000  0.881230  1
  P  P25  1  0.000000  0.000000  0.116712  1
  P  P26  1  0.500000  0.500000  0.366347  1
  P  P27  1  0.000000  0.000000  0.652184  1
  P  P28  1  0.500000  0.309656  0.619195  1
  P  P29  1  0.500000  0.690344  0.619195  1
  P  P30  1  0.000000  0.186552  0.386752  1
  P  P31  1  0.000000  0.813448  0.386752  1
  P  P32  1  0.500000  0.853258  0.886256  1
  P  P33  1  0.500000  0.146742  0.886256  1
  P  P34  1  0.000000  0.669011  0.098229  1
  P  P35  1  0.000000  0.330989  0.098229  1
