# generated using pymatgen
data_Dy3Y3(Si3Pt2)4
_symmetry_space_group_name_H-M   'P 1'
_cell_length_a   4.24465800
_cell_length_b   8.55698370
_cell_length_c   12.92227900
_cell_angle_alpha   80.23719283
_cell_angle_beta   90.00000000
_cell_angle_gamma   90.00000000
_symmetry_Int_Tables_number   1
_chemical_formula_structural   Dy3Y3(Si3Pt2)4
_chemical_formula_sum   'Dy3 Y3 Si12 Pt8'
_cell_volume   462.55902866
_cell_formula_units_Z   1
loop_
 _symmetry_equiv_pos_site_id
 _symmetry_equiv_pos_as_xyz
  1  'x, y, z'
loop_
 _atom_site_type_symbol
 _atom_site_label
 _atom_site_symmetry_multiplicity
 _atom_site_fract_x
 _atom_site_fract_y
 _atom_site_fract_z
 _atom_site_occupancy
  Dy  Dy0  1  0.250000  0.766194  0.439571  1
  Dy  Dy1  1  0.250000  0.583453  0.186203  1
  Dy  Dy2  1  0.750000  0.233816  0.560427  1
  Y  Y3  1  0.750000  0.416380  0.813763  1
  Y  Y4  1  0.750000  0.926410  0.815898  1
  Y  Y5  1  0.250000  0.073653  0.184156  1
  Si  Si6  1  0.750000  0.588461  0.571825  1
  Si  Si7  1  0.750000  0.127014  0.004509  1
  Si  Si8  1  0.750000  0.872852  0.574018  1
  Si  Si9  1  0.250000  0.696402  0.713549  1
  Si  Si10  1  0.750000  0.303639  0.286405  1
  Si  Si11  1  0.750000  0.805783  0.276861  1
  Si  Si12  1  0.250000  0.872980  0.995416  1
  Si  Si13  1  0.250000  0.194214  0.723112  1
  Si  Si14  1  0.250000  0.378458  0.001413  1
  Si  Si15  1  0.250000  0.127194  0.425976  1
  Si  Si16  1  0.750000  0.621558  0.998636  1
  Si  Si17  1  0.250000  0.411551  0.428172  1
  Pt  Pt18  1  0.750000  0.352108  0.098935  1
  Pt  Pt19  1  0.250000  0.970964  0.624213  1
  Pt  Pt20  1  0.750000  0.849360  0.088655  1
  Pt  Pt21  1  0.750000  0.029023  0.375799  1
  Pt  Pt22  1  0.250000  0.647987  0.901145  1
  Pt  Pt23  1  0.250000  0.150487  0.911417  1
  Pt  Pt24  1  0.750000  0.533143  0.375928  1
  Pt  Pt25  1  0.250000  0.466915  0.623998  1
