# generated using pymatgen
data_Pr15NdCd4CoPd3
_symmetry_space_group_name_H-M   'P 1'
_cell_length_a   10.06116146
_cell_length_b   10.06116137
_cell_length_c   10.06116187
_cell_angle_alpha   59.78373284
_cell_angle_beta   59.78373628
_cell_angle_gamma   59.78374212
_symmetry_Int_Tables_number   1
_chemical_formula_structural   Pr15NdCd4CoPd3
_chemical_formula_sum   'Pr15 Nd1 Cd4 Co1 Pd3'
_cell_volume   716.62474391
_cell_formula_units_Z   1
loop_
 _symmetry_equiv_pos_site_id
 _symmetry_equiv_pos_as_xyz
  1  'x, y, z'
loop_
 _atom_site_type_symbol
 _atom_site_label
 _atom_site_symmetry_multiplicity
 _atom_site_fract_x
 _atom_site_fract_y
 _atom_site_fract_z
 _atom_site_occupancy
  Pr  Pr0  1  0.344903  0.344903  0.951876  1
  Pr  Pr1  1  0.344903  0.951876  0.344903  1
  Pr  Pr2  1  0.951876  0.344903  0.344903  1
  Pr  Pr3  1  0.820737  0.189975  0.189975  1
  Pr  Pr4  1  0.190135  0.807495  0.807495  1
  Pr  Pr5  1  0.189975  0.820737  0.189975  1
  Pr  Pr6  1  0.807495  0.190135  0.807495  1
  Pr  Pr7  1  0.189975  0.189975  0.820737  1
  Pr  Pr8  1  0.807495  0.807495  0.190135  1
  Pr  Pr9  1  0.938241  0.562521  0.562521  1
  Pr  Pr10  1  0.561436  0.935258  0.935258  1
  Pr  Pr11  1  0.562521  0.938241  0.562521  1
  Pr  Pr12  1  0.935258  0.561436  0.935258  1
  Pr  Pr13  1  0.562521  0.562521  0.938241  1
  Pr  Pr14  1  0.935258  0.935258  0.561436  1
  Nd  Nd15  1  0.352024  0.352024  0.352024  1
  Cd  Cd16  1  0.579626  0.579626  0.579626  1
  Cd  Cd17  1  0.580848  0.580848  0.259169  1
  Cd  Cd18  1  0.580848  0.259169  0.580848  1
  Cd  Cd19  1  0.259169  0.580848  0.580848  1
  Co  Co20  1  0.143356  0.143356  0.143356  1
  Pd  Pd21  1  0.145491  0.145491  0.570415  1
  Pd  Pd22  1  0.145491  0.570415  0.145491  1
  Pd  Pd23  1  0.570415  0.145491  0.145491  1
