# generated using pymatgen
data_La9Dy11Sn16
_symmetry_space_group_name_H-M   'P 1'
_cell_length_a   8.24246880
_cell_length_b   8.37820981
_cell_length_c   15.82288100
_cell_angle_alpha   90.00000000
_cell_angle_beta   90.00000000
_cell_angle_gamma   89.90724103
_symmetry_Int_Tables_number   1
_chemical_formula_structural   La9Dy11Sn16
_chemical_formula_sum   'La9 Dy11 Sn16'
_cell_volume   1092.68136539
_cell_formula_units_Z   1
loop_
 _symmetry_equiv_pos_site_id
 _symmetry_equiv_pos_as_xyz
  1  'x, y, z'
loop_
 _atom_site_type_symbol
 _atom_site_label
 _atom_site_symmetry_multiplicity
 _atom_site_fract_x
 _atom_site_fract_y
 _atom_site_fract_z
 _atom_site_occupancy
  La  La0  1  0.509039  0.322232  0.903316  1
  La  La1  1  0.009185  0.178621  0.597042  1
  La  La2  1  0.492151  0.677685  0.404323  1
  La  La3  1  0.991629  0.820068  0.095684  1
  La  La4  1  0.492151  0.677685  0.095677  1
  La  La5  1  0.991629  0.820068  0.404316  1
  La  La6  1  0.509039  0.322232  0.596684  1
  La  La7  1  0.009185  0.178621  0.902958  1
  La  La8  1  0.311215  0.000603  0.250000  1
  Dy  Dy9  1  0.352597  0.836830  0.874718  1
  Dy  Dy10  1  0.853055  0.663455  0.623543  1
  Dy  Dy11  1  0.646843  0.164677  0.376962  1
  Dy  Dy12  1  0.146206  0.335142  0.122211  1
  Dy  Dy13  1  0.646843  0.164677  0.123038  1
  Dy  Dy14  1  0.146206  0.335142  0.377789  1
  Dy  Dy15  1  0.352597  0.836830  0.625282  1
  Dy  Dy16  1  0.853055  0.663455  0.876457  1
  Dy  Dy17  1  0.187735  0.502466  0.750000  1
  Dy  Dy18  1  0.687326  0.997214  0.750000  1
  Dy  Dy19  1  0.812319  0.497888  0.250000  1
  Sn  Sn20  1  0.310890  0.042353  0.038469  1
  Sn  Sn21  1  0.809876  0.458385  0.457747  1
  Sn  Sn22  1  0.689816  0.958872  0.542856  1
  Sn  Sn23  1  0.190799  0.542551  0.957234  1
  Sn  Sn24  1  0.689816  0.958872  0.957144  1
  Sn  Sn25  1  0.190799  0.542551  0.542766  1
  Sn  Sn26  1  0.310890  0.042353  0.461531  1
  Sn  Sn27  1  0.809876  0.458385  0.042253  1
  Sn  Sn28  1  0.550926  0.625413  0.750000  1
  Sn  Sn29  1  0.049526  0.873586  0.750000  1
  Sn  Sn30  1  0.450233  0.378520  0.250000  1
  Sn  Sn31  1  0.942230  0.130111  0.250000  1
  Sn  Sn32  1  0.316778  0.142709  0.750000  1
  Sn  Sn33  1  0.816652  0.359289  0.750000  1
  Sn  Sn34  1  0.688936  0.858045  0.250000  1
  Sn  Sn35  1  0.181952  0.632416  0.250000  1
