# generated using pymatgen
data_Zr4Mn4SiAs3
_symmetry_space_group_name_H-M   'P 1'
_cell_length_a   3.73911800
_cell_length_b   6.65733845
_cell_length_c   7.78343830
_cell_angle_alpha   90.27565177
_cell_angle_beta   90.00000000
_cell_angle_gamma   90.00000000
_symmetry_Int_Tables_number   1
_chemical_formula_structural   Zr4Mn4SiAs3
_chemical_formula_sum   'Zr4 Mn4 Si1 As3'
_cell_volume   193.74757183
_cell_formula_units_Z   1
loop_
 _symmetry_equiv_pos_site_id
 _symmetry_equiv_pos_as_xyz
  1  'x, y, z'
loop_
 _atom_site_type_symbol
 _atom_site_label
 _atom_site_symmetry_multiplicity
 _atom_site_fract_x
 _atom_site_fract_y
 _atom_site_fract_z
 _atom_site_occupancy
  Zr  Zr0  1  0.250000  0.528379  0.675449  1
  Zr  Zr1  1  0.250000  0.036751  0.820392  1
  Zr  Zr2  1  0.750000  0.965701  0.177856  1
  Zr  Zr3  1  0.750000  0.465193  0.325972  1
  Mn  Mn4  1  0.750000  0.362992  0.934619  1
  Mn  Mn5  1  0.250000  0.136499  0.443170  1
  Mn  Mn6  1  0.750000  0.871167  0.562486  1
  Mn  Mn7  1  0.250000  0.634242  0.061325  1
  Si  Si8  1  0.750000  0.234124  0.623774  1
  As  As9  1  0.250000  0.263532  0.127954  1
  As  As10  1  0.250000  0.765059  0.374997  1
  As  As11  1  0.750000  0.736363  0.872005  1
