# generated using pymatgen
data_Li2Ca6Ag14N
_symmetry_space_group_name_H-M   'P 1'
_cell_length_a   8.59700396
_cell_length_b   8.49114656
_cell_length_c   8.53974298
_cell_angle_alpha   109.32265801
_cell_angle_beta   109.82405069
_cell_angle_gamma   109.28815396
_symmetry_Int_Tables_number   1
_chemical_formula_structural   Li2Ca6Ag14N
_chemical_formula_sum   'Li2 Ca6 Ag14 N1'
_cell_volume   479.74863990
_cell_formula_units_Z   1
loop_
 _symmetry_equiv_pos_site_id
 _symmetry_equiv_pos_as_xyz
  1  'x, y, z'
loop_
 _atom_site_type_symbol
 _atom_site_label
 _atom_site_symmetry_multiplicity
 _atom_site_fract_x
 _atom_site_fract_y
 _atom_site_fract_z
 _atom_site_occupancy
  Li  Li0  1  0.691239  0.345326  0.344854  1
  Li  Li1  1  0.346385  0.000472  0.655146  1
  Ca  Ca2  1  0.002168  0.254785  0.255125  1
  Ca  Ca3  1  0.252004  0.998517  0.252010  1
  Ca  Ca4  1  0.747043  0.999660  0.744875  1
  Ca  Ca5  1  0.743440  0.743317  0.000000  1
  Ca  Ca6  1  0.252535  0.256435  0.000000  1
  Ca  Ca7  1  0.999994  0.746507  0.747990  1
  Ag  Ag8  1  0.501816  0.497390  0.497618  1
  Ag  Ag9  1  0.499207  0.004435  0.000000  1
  Ag  Ag10  1  0.998961  0.499639  0.000000  1
  Ag  Ag11  1  0.004198  0.999772  0.502382  1
  Ag  Ag12  1  0.349275  0.698110  0.349639  1
  Ag  Ag13  1  0.349019  0.343004  0.694316  1
  Ag  Ag14  1  0.348209  0.653101  0.000000  1
  Ag  Ag15  1  0.999635  0.348472  0.650361  1
  Ag  Ag16  1  0.003470  0.654086  0.352011  1
  Ag  Ag17  1  0.654702  0.648687  0.305684  1
  Ag  Ag18  1  0.652101  0.004978  0.349387  1
  Ag  Ag19  1  0.649873  0.345458  0.000000  1
  Ag  Ag20  1  0.651459  0.302076  0.647989  1
  Ag  Ag21  1  0.302714  0.655591  0.650613  1
  N  N22  1  0.000554  0.000182  0.000000  1
