# generated using pymatgen
data_Er3Lu2InPb2
_symmetry_space_group_name_H-M   'P 1'
_cell_length_a   6.55268403
_cell_length_b   8.90500512
_cell_length_c   8.92119696
_cell_angle_alpha   119.94542592
_cell_angle_beta   89.99732311
_cell_angle_gamma   90.00624158
_symmetry_Int_Tables_number   1
_chemical_formula_structural   Er3Lu2InPb2
_chemical_formula_sum   'Er6 Lu4 In2 Pb4'
_cell_volume   451.07184872
_cell_formula_units_Z   2
loop_
 _symmetry_equiv_pos_site_id
 _symmetry_equiv_pos_as_xyz
  1  'x, y, z'
loop_
 _atom_site_type_symbol
 _atom_site_label
 _atom_site_symmetry_multiplicity
 _atom_site_fract_x
 _atom_site_fract_y
 _atom_site_fract_z
 _atom_site_occupancy
  Er  Er0  1  0.750055  0.239907  0.005283  1
  Er  Er1  1  0.750138  0.760295  0.765609  1
  Er  Er2  1  0.750121  0.999876  0.235405  1
  Er  Er3  1  0.250165  0.764284  0.999424  1
  Er  Er4  1  0.250083  0.235724  0.234962  1
  Er  Er5  1  0.250085  0.000004  0.763897  1
  Lu  Lu6  1  0.504210  0.337129  0.666999  1
  Lu  Lu7  1  0.504261  0.662901  0.329657  1
  Lu  Lu8  1  0.995711  0.662904  0.329763  1
  Lu  Lu9  1  0.995726  0.337159  0.666936  1
  In  In10  1  0.750075  0.602494  0.001111  1
  In  In11  1  0.749947  0.397556  0.398699  1
  Pb  Pb12  1  0.749719  0.000025  0.606220  1
  Pb  Pb13  1  0.249816  0.397572  0.997859  1
  Pb  Pb14  1  0.250119  0.602145  0.600128  1
  Pb  Pb15  1  0.249767  0.000025  0.398049  1
