# generated using pymatgen
data_Zr6Zn20GePd3
_symmetry_space_group_name_H-M   'P 1'
_cell_length_a   8.81658243
_cell_length_b   8.81658221
_cell_length_c   8.84066100
_cell_angle_alpha   59.90962668
_cell_angle_beta   59.90962751
_cell_angle_gamma   60.18076801
_symmetry_Int_Tables_number   1
_chemical_formula_structural   Zr6Zn20GePd3
_chemical_formula_sum   'Zr6 Zn20 Ge1 Pd3'
_cell_volume   485.91896633
_cell_formula_units_Z   1
loop_
 _symmetry_equiv_pos_site_id
 _symmetry_equiv_pos_as_xyz
  1  'x, y, z'
loop_
 _atom_site_type_symbol
 _atom_site_label
 _atom_site_symmetry_multiplicity
 _atom_site_fract_x
 _atom_site_fract_y
 _atom_site_fract_z
 _atom_site_occupancy
  Zr  Zr0  1  0.711051  0.288949  0.288949  1
  Zr  Zr1  1  0.288949  0.711051  0.711051  1
  Zr  Zr2  1  0.288949  0.711051  0.288949  1
  Zr  Zr3  1  0.711051  0.288949  0.711051  1
  Zr  Zr4  1  0.283811  0.283811  0.716189  1
  Zr  Zr5  1  0.716189  0.716189  0.283811  1
  Zn  Zn6  1  0.120153  0.120153  0.127782  1
  Zn  Zn7  1  0.879847  0.879847  0.872218  1
  Zn  Zn8  1  0.120153  0.120153  0.631913  1
  Zn  Zn9  1  0.127782  0.631913  0.120153  1
  Zn  Zn10  1  0.879847  0.879847  0.368087  1
  Zn  Zn11  1  0.872218  0.368087  0.879847  1
  Zn  Zn12  1  0.631913  0.127782  0.120153  1
  Zn  Zn13  1  0.368087  0.872218  0.879847  1
  Zn  Zn14  1  0.500000  0.000000  0.000000  1
  Zn  Zn15  1  0.000000  0.500000  0.500000  1
  Zn  Zn16  1  0.000000  0.500000  0.000000  1
  Zn  Zn17  1  0.500000  0.000000  0.500000  1
  Zn  Zn18  1  0.336660  0.336660  0.338381  1
  Zn  Zn19  1  0.663340  0.663340  0.661619  1
  Zn  Zn20  1  0.336660  0.336660  0.988302  1
  Zn  Zn21  1  0.338381  0.988302  0.336660  1
  Zn  Zn22  1  0.663340  0.663340  0.011698  1
  Zn  Zn23  1  0.661619  0.011698  0.663340  1
  Zn  Zn24  1  0.988302  0.338381  0.336660  1
  Zn  Zn25  1  0.011698  0.661619  0.663340  1
  Ge  Ge26  1  0.500000  0.500000  0.500000  1
  Pd  Pd27  1  0.000000  0.000000  0.500000  1
  Pd  Pd28  1  0.500000  0.500000  0.000000  1
  Pd  Pd29  1  0.000000  0.000000  0.000000  1
