# generated using pymatgen
data_Cs3KInGa3I16
_symmetry_space_group_name_H-M   'P 1'
_cell_length_a   8.41691250
_cell_length_b   9.19440338
_cell_length_c   17.02588328
_cell_angle_alpha   86.60870292
_cell_angle_beta   90.57507651
_cell_angle_gamma   90.41152430
_symmetry_Int_Tables_number   1
_chemical_formula_structural   Cs3KInGa3I16
_chemical_formula_sum   'Cs3 K1 In1 Ga3 I16'
_cell_volume   1315.20511266
_cell_formula_units_Z   1
loop_
 _symmetry_equiv_pos_site_id
 _symmetry_equiv_pos_as_xyz
  1  'x, y, z'
loop_
 _atom_site_type_symbol
 _atom_site_label
 _atom_site_symmetry_multiplicity
 _atom_site_fract_x
 _atom_site_fract_y
 _atom_site_fract_z
 _atom_site_occupancy
  Cs  Cs0  1  0.510269  0.255198  0.641377  1
  Cs  Cs1  1  0.010222  0.744369  0.863459  1
  Cs  Cs2  1  0.493386  0.746737  0.357725  1
  K  K3  1  0.000199  0.251758  0.131884  1
  In  In4  1  0.345521  0.247649  0.359229  1
  Ga  Ga5  1  0.865409  0.752383  0.140089  1
  Ga  Ga6  1  0.644302  0.750408  0.639040  1
  Ga  Ga7  1  0.140827  0.247665  0.863847  1
  I  I8  1  0.868588  0.147286  0.912160  1
  I  I9  1  0.373935  0.850885  0.587451  1
  I  I10  1  0.133171  0.859391  0.088889  1
  I  I11  1  0.637900  0.146650  0.411885  1
  I  I12  1  0.381396  0.404752  0.216501  1
  I  I13  1  0.902201  0.595560  0.270699  1
  I  I14  1  0.600099  0.602550  0.772081  1
  I  I15  1  0.100162  0.399894  0.731998  1
  I  I16  1  0.674431  0.967356  0.160594  1
  I  I17  1  0.134658  0.024629  0.332954  1
  I  I18  1  0.341860  0.041604  0.841702  1
  I  I19  1  0.844820  0.959741  0.661634  1
  I  I20  1  0.228421  0.431285  0.467215  1
  I  I21  1  0.747394  0.579309  0.038863  1
  I  I22  1  0.764689  0.581695  0.538459  1
  I  I23  1  0.256141  0.411246  0.970267  1
