# generated using pymatgen
data_UAgI8
_symmetry_space_group_name_H-M   'P 1'
_cell_length_a   8.94516576
_cell_length_b   8.94516443
_cell_length_c   7.27084614
_cell_angle_alpha   82.50688407
_cell_angle_beta   82.50688222
_cell_angle_gamma   92.45495074
_symmetry_Int_Tables_number   1
_chemical_formula_structural   UAgI8
_chemical_formula_sum   'U1 Ag1 I8'
_cell_volume   570.82941514
_cell_formula_units_Z   1
loop_
 _symmetry_equiv_pos_site_id
 _symmetry_equiv_pos_as_xyz
  1  'x, y, z'
loop_
 _atom_site_type_symbol
 _atom_site_label
 _atom_site_symmetry_multiplicity
 _atom_site_fract_x
 _atom_site_fract_y
 _atom_site_fract_z
 _atom_site_occupancy
  U  U0  1  0.910154  0.089846  0.750000  1
  Ag  Ag1  1  0.993778  0.006222  0.250000  1
  I  I2  1  0.949683  0.801330  0.984901  1
  I  I3  1  0.198670  0.050317  0.515099  1
  I  I4  1  0.077172  0.269653  0.979792  1
  I  I5  1  0.730347  0.922828  0.520208  1
  I  I6  1  0.428657  0.787542  0.157513  1
  I  I7  1  0.212458  0.571343  0.342487  1
  I  I8  1  0.624580  0.125499  0.982564  1
  I  I9  1  0.874501  0.375420  0.517436  1
