# generated using pymatgen
data_Nb3CrGa2N
_symmetry_space_group_name_H-M   'P 1'
_cell_length_a   8.26782210
_cell_length_b   8.26782178
_cell_length_c   8.26782300
_cell_angle_alpha   59.99999914
_cell_angle_beta   60.00000040
_cell_angle_gamma   59.99999670
_symmetry_Int_Tables_number   1
_chemical_formula_structural   Nb3CrGa2N
_chemical_formula_sum   'Nb12 Cr4 Ga8 N4'
_cell_volume   399.63028274
_cell_formula_units_Z   4
loop_
 _symmetry_equiv_pos_site_id
 _symmetry_equiv_pos_as_xyz
  1  'x, y, z'
loop_
 _atom_site_type_symbol
 _atom_site_label
 _atom_site_symmetry_multiplicity
 _atom_site_fract_x
 _atom_site_fract_y
 _atom_site_fract_z
 _atom_site_occupancy
  Nb  Nb0  1  0.804074  0.804074  0.195926  1
  Nb  Nb1  1  0.195926  0.195926  0.804074  1
  Nb  Nb2  1  0.804074  0.195926  0.804074  1
  Nb  Nb3  1  0.195926  0.804074  0.195926  1
  Nb  Nb4  1  0.195926  0.804074  0.804074  1
  Nb  Nb5  1  0.804074  0.195926  0.195926  1
  Nb  Nb6  1  0.445926  0.445926  0.054074  1
  Nb  Nb7  1  0.054074  0.054074  0.445926  1
  Nb  Nb8  1  0.445926  0.054074  0.445926  1
  Nb  Nb9  1  0.054074  0.445926  0.054074  1
  Nb  Nb10  1  0.054074  0.445926  0.445926  1
  Nb  Nb11  1  0.445926  0.054074  0.054074  1
  Cr  Cr12  1  0.125000  0.625000  0.625000  1
  Cr  Cr13  1  0.625000  0.125000  0.625000  1
  Cr  Cr14  1  0.625000  0.625000  0.125000  1
  Cr  Cr15  1  0.625000  0.625000  0.625000  1
  Ga  Ga16  1  0.759269  0.413578  0.413578  1
  Ga  Ga17  1  0.413578  0.759269  0.413578  1
  Ga  Ga18  1  0.413578  0.413578  0.759269  1
  Ga  Ga19  1  0.413578  0.413578  0.413578  1
  Ga  Ga20  1  0.490731  0.836422  0.836422  1
  Ga  Ga21  1  0.836422  0.490731  0.836422  1
  Ga  Ga22  1  0.836422  0.836422  0.490731  1
  Ga  Ga23  1  0.836422  0.836422  0.836422  1
  N  N24  1  0.625000  0.125000  0.125000  1
  N  N25  1  0.125000  0.625000  0.125000  1
  N  N26  1  0.125000  0.125000  0.625000  1
  N  N27  1  0.125000  0.125000  0.125000  1
