# generated using pymatgen
data_DyHo3(Er3Pb4)2
_symmetry_space_group_name_H-M   'P 1'
_cell_length_a   8.16835700
_cell_length_b   8.24156002
_cell_length_c   15.56346304
_cell_angle_alpha   90.00793820
_cell_angle_beta   90.00000000
_cell_angle_gamma   90.00000000
_symmetry_Int_Tables_number   1
_chemical_formula_structural   DyHo3(Er3Pb4)2
_chemical_formula_sum   'Dy2 Ho6 Er12 Pb16'
_cell_volume   1047.73239132
_cell_formula_units_Z   2
loop_
 _symmetry_equiv_pos_site_id
 _symmetry_equiv_pos_as_xyz
  1  'x, y, z'
loop_
 _atom_site_type_symbol
 _atom_site_label
 _atom_site_symmetry_multiplicity
 _atom_site_fract_x
 _atom_site_fract_y
 _atom_site_fract_z
 _atom_site_occupancy
  Dy  Dy0  1  0.536465  0.323186  0.600050  1
  Dy  Dy1  1  0.036465  0.176814  0.899950  1
  Ho  Ho2  1  0.536482  0.323199  0.899917  1
  Ho  Ho3  1  0.036482  0.176801  0.600083  1
  Ho  Ho4  1  0.463509  0.676804  0.399921  1
  Ho  Ho5  1  0.963509  0.823196  0.100079  1
  Ho  Ho6  1  0.463510  0.676809  0.100073  1
  Ho  Ho7  1  0.963510  0.823191  0.399927  1
  Er  Er8  1  0.376474  0.841156  0.879156  1
  Er  Er9  1  0.876474  0.658844  0.620844  1
  Er  Er10  1  0.623596  0.158788  0.379169  1
  Er  Er11  1  0.123596  0.341212  0.120831  1
  Er  Er12  1  0.623570  0.158801  0.120818  1
  Er  Er13  1  0.123570  0.341199  0.379182  1
  Er  Er14  1  0.376447  0.841161  0.620853  1
  Er  Er15  1  0.876447  0.658839  0.879147  1
  Er  Er16  1  0.208297  0.504419  0.750005  1
  Er  Er17  1  0.708297  0.995581  0.749995  1
  Er  Er18  1  0.791674  0.495635  0.250005  1
  Er  Er19  1  0.291674  0.004365  0.249995  1
  Pb  Pb20  1  0.281488  0.033074  0.042874  1
  Pb  Pb21  1  0.781488  0.466926  0.457126  1
  Pb  Pb22  1  0.718588  0.966859  0.542839  1
  Pb  Pb23  1  0.218588  0.533141  0.957161  1
  Pb  Pb24  1  0.718493  0.966847  0.957178  1
  Pb  Pb25  1  0.218493  0.533153  0.542822  1
  Pb  Pb26  1  0.281455  0.033107  0.457157  1
  Pb  Pb27  1  0.781455  0.466893  0.042843  1
  Pb  Pb28  1  0.571080  0.627105  0.750004  1
  Pb  Pb29  1  0.071080  0.872895  0.749996  1
  Pb  Pb30  1  0.428914  0.372913  0.250001  1
  Pb  Pb31  1  0.928914  0.127087  0.249999  1
  Pb  Pb32  1  0.347414  0.153460  0.750033  1
  Pb  Pb33  1  0.847414  0.346540  0.749967  1
  Pb  Pb34  1  0.652545  0.846475  0.250000  1
  Pb  Pb35  1  0.152545  0.653525  0.250000  1
