# generated using pymatgen
data_V2SbOsO8
_symmetry_space_group_name_H-M   'P 1'
_cell_length_a   5.60692091
_cell_length_b   5.60711540
_cell_length_c   9.78271794
_cell_angle_alpha   80.23402767
_cell_angle_beta   78.79795180
_cell_angle_gamma   111.41649776
_symmetry_Int_Tables_number   1
_chemical_formula_structural   V2SbOsO8
_chemical_formula_sum   'V4 Sb2 Os2 O16'
_cell_volume   270.94417727
_cell_formula_units_Z   2
loop_
 _symmetry_equiv_pos_site_id
 _symmetry_equiv_pos_as_xyz
  1  'x, y, z'
loop_
 _atom_site_type_symbol
 _atom_site_label
 _atom_site_symmetry_multiplicity
 _atom_site_fract_x
 _atom_site_fract_y
 _atom_site_fract_z
 _atom_site_occupancy
  V  V0  1  0.500041  0.500033  0.000012  1
  V  V1  1  0.252672  0.252687  0.499992  1
  V  V2  1  0.747357  0.747321  0.499974  1
  V  V3  1  0.999964  0.999956  0.000030  1
  Sb  Sb4  1  0.124864  0.624876  0.750447  1
  Sb  Sb5  1  0.875143  0.375106  0.249546  1
  Os  Os6  1  0.625287  0.125405  0.749458  1
  Os  Os7  1  0.374698  0.874603  0.250548  1
  O  O8  1  0.406457  0.199274  0.894238  1
  O  O9  1  0.154033  0.948608  0.397300  1
  O  O10  1  0.893055  0.700685  0.906332  1
  O  O11  1  0.646152  0.451167  0.402581  1
  O  O12  1  0.845966  0.051403  0.602693  1
  O  O13  1  0.593554  0.800726  0.105764  1
  O  O14  1  0.353846  0.548832  0.597411  1
  O  O15  1  0.106938  0.299314  0.093669  1
  O  O16  1  0.824443  0.518342  0.653427  1
  O  O17  1  0.573568  0.266472  0.153261  1
  O  O18  1  0.328347  0.022294  0.653432  1
  O  O19  1  0.080112  0.773005  0.153273  1
  O  O20  1  0.919886  0.226973  0.846731  1
  O  O21  1  0.671634  0.977711  0.346571  1
  O  O22  1  0.426426  0.733534  0.846747  1
  O  O23  1  0.175556  0.481670  0.346564  1
