# generated using pymatgen
data_NdErAl20(RuRh)2
_symmetry_space_group_name_H-M   'P 1'
_cell_length_a   6.86489492
_cell_length_b   6.85911848
_cell_length_c   9.17636700
_cell_angle_alpha   90.00000000
_cell_angle_beta   90.00000000
_cell_angle_gamma   97.17101049
_symmetry_Int_Tables_number   1
_chemical_formula_structural   NdErAl20(RuRh)2
_chemical_formula_sum   'Nd1 Er1 Al20 Ru2 Rh2'
_cell_volume   428.70896071
_cell_formula_units_Z   1
loop_
 _symmetry_equiv_pos_site_id
 _symmetry_equiv_pos_as_xyz
  1  'x, y, z'
loop_
 _atom_site_type_symbol
 _atom_site_label
 _atom_site_symmetry_multiplicity
 _atom_site_fract_x
 _atom_site_fract_y
 _atom_site_fract_z
 _atom_site_occupancy
  Nd  Nd0  1  0.870952  0.124508  0.750000  1
  Er  Er1  1  0.132079  0.874158  0.250000  1
  Al  Al2  1  0.620407  0.375838  0.548227  1
  Al  Al3  1  0.378516  0.624634  0.449616  1
  Al  Al4  1  0.378516  0.624634  0.050384  1
  Al  Al5  1  0.620407  0.375838  0.951773  1
  Al  Al6  1  0.225438  0.223255  0.496773  1
  Al  Al7  1  0.774880  0.776201  0.499054  1
  Al  Al8  1  0.774880  0.776201  0.000946  1
  Al  Al9  1  0.225438  0.223255  0.003227  1
  Al  Al10  1  0.844232  0.154632  0.103022  1
  Al  Al11  1  0.157415  0.843490  0.899113  1
  Al  Al12  1  0.157415  0.843490  0.600887  1
  Al  Al13  1  0.844232  0.154632  0.396978  1
  Al  Al14  1  0.857021  0.591636  0.750000  1
  Al  Al15  1  0.144253  0.413477  0.250000  1
  Al  Al16  1  0.408870  0.140940  0.750000  1
  Al  Al17  1  0.586696  0.857947  0.250000  1
  Al  Al18  1  0.224661  0.481966  0.750000  1
  Al  Al19  1  0.776878  0.519649  0.250000  1
  Al  Al20  1  0.517156  0.777776  0.750000  1
  Al  Al21  1  0.481384  0.221313  0.250000  1
  Ru  Ru22  1  0.499226  0.999841  0.001542  1
  Ru  Ru23  1  0.499226  0.999841  0.498458  1
  Rh  Rh24  1  0.999911  0.500424  0.498989  1
  Rh  Rh25  1  0.999911  0.500424  0.001011  1
