# generated using pymatgen
data_Hf6Fe5Si12Rh
_symmetry_space_group_name_H-M   'P 1'
_cell_length_a   9.72997353
_cell_length_b   9.71612609
_cell_length_c   9.72255240
_cell_angle_alpha   148.92349729
_cell_angle_beta   133.08799143
_cell_angle_gamma   57.28409841
_symmetry_Int_Tables_number   1
_chemical_formula_structural   Hf6Fe5Si12Rh
_chemical_formula_sum   'Hf6 Fe5 Si12 Rh1'
_cell_volume   344.05743660
_cell_formula_units_Z   1
loop_
 _symmetry_equiv_pos_site_id
 _symmetry_equiv_pos_as_xyz
  1  'x, y, z'
loop_
 _atom_site_type_symbol
 _atom_site_label
 _atom_site_symmetry_multiplicity
 _atom_site_fract_x
 _atom_site_fract_y
 _atom_site_fract_z
 _atom_site_occupancy
  Hf  Hf0  1  0.855606  0.595880  0.261039  1
  Hf  Hf1  1  0.144394  0.404120  0.738961  1
  Hf  Hf2  1  0.665982  0.404188  0.259903  1
  Hf  Hf3  1  0.334018  0.595812  0.740097  1
  Hf  Hf4  1  0.139202  0.141777  0.998782  1
  Hf  Hf5  1  0.860798  0.858223  0.001218  1
  Fe  Fe6  1  0.746672  0.002544  0.746618  1
  Fe  Fe7  1  0.000000  0.000000  0.500000  1
  Fe  Fe8  1  0.500000  0.000000  0.000000  1
  Fe  Fe9  1  0.253328  0.997456  0.253382  1
  Fe  Fe10  1  0.000000  0.500000  0.000000  1
  Si  Si11  1  0.484828  0.125510  0.339838  1
  Si  Si12  1  0.515172  0.874490  0.660162  1
  Si  Si13  1  0.209578  0.858078  0.347628  1
  Si  Si14  1  0.790422  0.141922  0.652372  1
  Si  Si15  1  0.706975  0.720565  0.024442  1
  Si  Si16  1  0.293025  0.279435  0.975558  1
  Si  Si17  1  0.500039  0.742000  0.242725  1
  Si  Si18  1  0.499961  0.258000  0.757275  1
  Si  Si19  1  0.000156  0.254066  0.254303  1
  Si  Si20  1  0.207026  0.723355  0.505550  1
  Si  Si21  1  0.999844  0.745934  0.745697  1
  Si  Si22  1  0.792974  0.276645  0.494450  1
  Rh  Rh23  1  0.500000  0.500000  0.500000  1
