# generated using pymatgen
data_Cu2Ir3RhO12
_symmetry_space_group_name_H-M   'P 1'
_cell_length_a   4.54830319
_cell_length_b   4.53096998
_cell_length_c   9.42404995
_cell_angle_alpha   89.99449066
_cell_angle_beta   89.99835395
_cell_angle_gamma   90.33545533
_symmetry_Int_Tables_number   1
_chemical_formula_structural   Cu2Ir3RhO12
_chemical_formula_sum   'Cu2 Ir3 Rh1 O12'
_cell_volume   194.20961397
_cell_formula_units_Z   1
loop_
 _symmetry_equiv_pos_site_id
 _symmetry_equiv_pos_as_xyz
  1  'x, y, z'
loop_
 _atom_site_type_symbol
 _atom_site_label
 _atom_site_symmetry_multiplicity
 _atom_site_fract_x
 _atom_site_fract_y
 _atom_site_fract_z
 _atom_site_occupancy
  Cu  Cu0  1  0.499975  0.498983  0.500233  1
  Cu  Cu1  1  0.000125  0.001140  0.999331  1
  Ir  Ir2  1  0.999987  0.000018  0.667180  1
  Ir  Ir3  1  0.499994  0.499963  0.833864  1
  Ir  Ir4  1  0.999987  0.000004  0.330889  1
  Rh  Rh5  1  0.500009  0.499983  0.168590  1
  O  O6  1  0.695816  0.700293  0.670891  1
  O  O7  1  0.190815  0.804234  0.169531  1
  O  O8  1  0.300713  0.296232  0.331735  1
  O  O9  1  0.803746  0.200631  0.829392  1
  O  O10  1  0.196205  0.799341  0.829421  1
  O  O11  1  0.699215  0.703717  0.331761  1
  O  O12  1  0.809178  0.195740  0.169557  1
  O  O13  1  0.304120  0.299707  0.670921  1
  O  O14  1  0.188279  0.807339  0.500076  1
  O  O15  1  0.689717  0.694219  0.998272  1
  O  O16  1  0.811776  0.192597  0.500066  1
  O  O17  1  0.310343  0.305859  0.998291  1
