# generated using pymatgen
data_Y5Mn2O12
_symmetry_space_group_name_H-M   'P 1'
_cell_length_a   6.83795229
_cell_length_b   6.83795153
_cell_length_c   7.27308003
_cell_angle_alpha   74.58792998
_cell_angle_beta   74.58793405
_cell_angle_gamma   49.96958765
_symmetry_Int_Tables_number   1
_chemical_formula_structural   Y5Mn2O12
_chemical_formula_sum   'Y5 Mn2 O12'
_cell_volume   248.95020267
_cell_formula_units_Z   1
loop_
 _symmetry_equiv_pos_site_id
 _symmetry_equiv_pos_as_xyz
  1  'x, y, z'
loop_
 _atom_site_type_symbol
 _atom_site_label
 _atom_site_symmetry_multiplicity
 _atom_site_fract_x
 _atom_site_fract_y
 _atom_site_fract_z
 _atom_site_occupancy
  Y  Y0  1  0.305813  0.305813  0.356520  1
  Y  Y1  1  0.694187  0.694187  0.643480  1
  Y  Y2  1  0.692614  0.692614  0.164312  1
  Y  Y3  1  0.307386  0.307386  0.835688  1
  Y  Y4  1  0.000000  0.000000  0.500000  1
  Mn  Mn5  1  0.754391  0.245609  0.000000  1
  Mn  Mn6  1  0.245609  0.754391  0.000000  1
  O  O7  1  0.096378  0.597971  0.575606  1
  O  O8  1  0.999487  0.999487  0.178059  1
  O  O9  1  0.402029  0.903622  0.424394  1
  O  O10  1  0.500074  0.500074  0.179265  1
  O  O11  1  0.098654  0.579368  0.080403  1
  O  O12  1  0.903622  0.402029  0.424394  1
  O  O13  1  0.000513  0.000513  0.821941  1
  O  O14  1  0.597971  0.096377  0.575606  1
  O  O15  1  0.499926  0.499926  0.820735  1
  O  O16  1  0.579368  0.098654  0.080403  1
  O  O17  1  0.420632  0.901346  0.919597  1
  O  O18  1  0.901346  0.420632  0.919597  1
