# generated using pymatgen
data_Yb10Cu3Bi2Ru
_symmetry_space_group_name_H-M   'P 1'
_cell_length_a   9.23508285
_cell_length_b   9.23508295
_cell_length_c   9.20549297
_cell_angle_alpha   130.58510369
_cell_angle_beta   130.58510774
_cell_angle_gamma   72.72341006
_symmetry_Int_Tables_number   1
_chemical_formula_structural   Yb10Cu3Bi2Ru
_chemical_formula_sum   'Yb10 Cu3 Bi2 Ru1'
_cell_volume   441.82559986
_cell_formula_units_Z   1
loop_
 _symmetry_equiv_pos_site_id
 _symmetry_equiv_pos_as_xyz
  1  'x, y, z'
loop_
 _atom_site_type_symbol
 _atom_site_label
 _atom_site_symmetry_multiplicity
 _atom_site_fract_x
 _atom_site_fract_y
 _atom_site_fract_z
 _atom_site_occupancy
  Yb  Yb0  1  0.493472  0.504412  0.997885  1
  Yb  Yb1  1  0.004412  0.993472  0.997885  1
  Yb  Yb2  1  0.539851  0.039851  0.840715  1
  Yb  Yb3  1  0.187063  0.687063  0.134642  1
  Yb  Yb4  1  0.043274  0.209787  0.511682  1
  Yb  Yb5  1  0.709787  0.543274  0.511682  1
  Yb  Yb6  1  0.447579  0.947579  0.134642  1
  Yb  Yb7  1  0.800863  0.300863  0.840715  1
  Yb  Yb8  1  0.968408  0.801895  0.511682  1
  Yb  Yb9  1  0.301895  0.468408  0.511682  1
  Cu  Cu10  1  0.878183  0.378183  0.256366  1
  Cu  Cu11  1  0.615262  0.884962  0.500225  1
  Cu  Cu12  1  0.384962  0.115262  0.500225  1
  Bi  Bi13  1  0.254673  0.254673  0.009346  1
  Bi  Bi14  1  0.754673  0.754673  0.009346  1
  Ru  Ru15  1  0.115641  0.615641  0.731283  1
