# generated using pymatgen
data_Rb(FeI3)2
_symmetry_space_group_name_H-M   'P 1'
_cell_length_a   7.37298445
_cell_length_b   8.44059002
_cell_length_c   12.51666120
_cell_angle_alpha   51.87453472
_cell_angle_beta   58.88659923
_cell_angle_gamma   56.23499818
_symmetry_Int_Tables_number   1
_chemical_formula_structural   Rb(FeI3)2
_chemical_formula_sum   'Rb1 Fe2 I6'
_cell_volume   491.12867362
_cell_formula_units_Z   1
loop_
 _symmetry_equiv_pos_site_id
 _symmetry_equiv_pos_as_xyz
  1  'x, y, z'
loop_
 _atom_site_type_symbol
 _atom_site_label
 _atom_site_symmetry_multiplicity
 _atom_site_fract_x
 _atom_site_fract_y
 _atom_site_fract_z
 _atom_site_occupancy
  Rb  Rb0  1  0.501888  0.775884  0.146378  1
  Fe  Fe1  1  0.174103  0.647434  0.890368  1
  Fe  Fe2  1  0.358548  0.793870  0.591560  1
  I  I3  1  0.941384  0.986987  0.707211  1
  I  I4  1  0.527100  0.080137  0.381896  1
  I  I5  1  0.039087  0.339214  0.010172  1
  I  I6  1  0.607753  0.548395  0.770044  1
  I  I7  1  0.081629  0.747181  0.075168  1
  I  I8  1  0.351992  0.559500  0.531209  1
