# generated using pymatgen
data_Eu10N9
_symmetry_space_group_name_H-M   'P 1'
_cell_length_a   6.25794914
_cell_length_b   7.22613131
_cell_length_c   8.06010113
_cell_angle_alpha   77.03584811
_cell_angle_beta   75.13759604
_cell_angle_gamma   73.04853253
_symmetry_Int_Tables_number   1
_chemical_formula_structural   Eu10N9
_chemical_formula_sum   'Eu10 N9'
_cell_volume   332.54559835
_cell_formula_units_Z   1
loop_
 _symmetry_equiv_pos_site_id
 _symmetry_equiv_pos_as_xyz
  1  'x, y, z'
loop_
 _atom_site_type_symbol
 _atom_site_label
 _atom_site_symmetry_multiplicity
 _atom_site_fract_x
 _atom_site_fract_y
 _atom_site_fract_z
 _atom_site_occupancy
  Eu  Eu0  1  0.500000  0.000000  0.000000  1
  Eu  Eu1  1  0.897074  0.606014  0.184980  1
  Eu  Eu2  1  0.098684  0.902521  0.797333  1
  Eu  Eu3  1  0.901316  0.097479  0.202667  1
  Eu  Eu4  1  0.102926  0.393986  0.815020  1
  Eu  Eu5  1  0.316868  0.707843  0.395765  1
  Eu  Eu6  1  0.311258  0.188494  0.392508  1
  Eu  Eu7  1  0.683132  0.292157  0.604235  1
  Eu  Eu8  1  0.500000  0.500000  0.000000  1
  Eu  Eu9  1  0.688742  0.811506  0.607492  1
  N  N10  1  0.803177  0.697319  0.901681  1
  N  N11  1  0.802028  0.202835  0.895521  1
  N  N12  1  0.197972  0.797165  0.104479  1
  N  N13  1  0.000000  0.000000  0.500000  1
  N  N14  1  0.406182  0.100607  0.695304  1
  N  N15  1  0.196823  0.302681  0.098319  1
  N  N16  1  0.597277  0.401695  0.304407  1
  N  N17  1  0.402723  0.598305  0.695593  1
  N  N18  1  0.593818  0.899393  0.304696  1
