# generated using pymatgen
data_HoCd3(Ir2O7)2
_symmetry_space_group_name_H-M   'P 1'
_cell_length_a   7.21937785
_cell_length_b   7.28844732
_cell_length_c   7.21937700
_cell_angle_alpha   60.31298064
_cell_angle_beta   59.99999016
_cell_angle_gamma   60.31298910
_symmetry_Int_Tables_number   1
_chemical_formula_structural   HoCd3(Ir2O7)2
_chemical_formula_sum   'Ho1 Cd3 Ir4 O14'
_cell_volume   269.87205122
_cell_formula_units_Z   1
loop_
 _symmetry_equiv_pos_site_id
 _symmetry_equiv_pos_as_xyz
  1  'x, y, z'
loop_
 _atom_site_type_symbol
 _atom_site_label
 _atom_site_symmetry_multiplicity
 _atom_site_fract_x
 _atom_site_fract_y
 _atom_site_fract_z
 _atom_site_occupancy
  Ho  Ho0  1  0.125000  0.625000  0.125000  1
  Cd  Cd1  1  0.625000  0.125000  0.125000  1
  Cd  Cd2  1  0.125000  0.125000  0.625000  1
  Cd  Cd3  1  0.125000  0.125000  0.125000  1
  Ir  Ir4  1  0.125000  0.625000  0.625000  1
  Ir  Ir5  1  0.625000  0.125000  0.625000  1
  Ir  Ir6  1  0.625000  0.625000  0.125000  1
  Ir  Ir7  1  0.625000  0.625000  0.625000  1
  O  O8  1  0.714677  0.695505  0.294909  1
  O  O9  1  0.300141  0.303949  0.697955  1
  O  O10  1  0.697955  0.303949  0.697955  1
  O  O11  1  0.294909  0.695505  0.294909  1
  O  O12  1  0.294909  0.695505  0.714677  1
  O  O13  1  0.697955  0.303949  0.300141  1
  O  O14  1  0.535323  0.554495  0.955091  1
  O  O15  1  0.949859  0.946051  0.552045  1
  O  O16  1  0.552045  0.946051  0.552045  1
  O  O17  1  0.955091  0.554495  0.955091  1
  O  O18  1  0.955091  0.554495  0.535323  1
  O  O19  1  0.552045  0.946051  0.949859  1
  O  O20  1  0.250249  0.249252  0.250249  1
  O  O21  1  0.999751  0.000748  0.999751  1
