# generated using pymatgen
data_Ce2UCu2Se7
_symmetry_space_group_name_H-M   'P 1'
_cell_length_a   10.26907783
_cell_length_b   10.22872726
_cell_length_c   6.00180388
_cell_angle_alpha   90.22417025
_cell_angle_beta   89.78254098
_cell_angle_gamma   119.81265758
_symmetry_Int_Tables_number   1
_chemical_formula_structural   Ce2UCu2Se7
_chemical_formula_sum   'Ce4 U2 Cu4 Se14'
_cell_volume   546.98816266
_cell_formula_units_Z   2
loop_
 _symmetry_equiv_pos_site_id
 _symmetry_equiv_pos_as_xyz
  1  'x, y, z'
loop_
 _atom_site_type_symbol
 _atom_site_label
 _atom_site_symmetry_multiplicity
 _atom_site_fract_x
 _atom_site_fract_y
 _atom_site_fract_z
 _atom_site_occupancy
  Ce  Ce0  1  0.848431  0.621877  0.527426  1
  Ce  Ce1  1  0.622160  0.773810  0.030908  1
  Ce  Ce2  1  0.773782  0.151814  0.527599  1
  Ce  Ce3  1  0.378112  0.225636  0.529472  1
  U  U4  1  0.227422  0.850639  0.029180  1
  U  U5  1  0.150365  0.377738  0.028438  1
  Cu  Cu6  1  0.665845  0.330361  0.156728  1
  Cu  Cu7  1  0.331013  0.665872  0.656550  1
  Cu  Cu8  1  0.001454  0.001562  0.503009  1
  Cu  Cu9  1  0.002700  0.002357  0.001517  1
  Se  Se10  1  0.666866  0.333671  0.755182  1
  Se  Se11  1  0.566169  0.486739  0.277815  1
  Se  Se12  1  0.154418  0.890777  0.513049  1
  Se  Se13  1  0.511088  0.073781  0.275214  1
  Se  Se14  1  0.428968  0.510747  0.782510  1
  Se  Se15  1  0.481286  0.920542  0.779827  1
  Se  Se16  1  0.850661  0.112324  0.013221  1
  Se  Se17  1  0.079881  0.565452  0.785643  1
  Se  Se18  1  0.739459  0.846365  0.517581  1
  Se  Se19  1  0.327064  0.663931  0.253140  1
  Se  Se20  1  0.921877  0.433513  0.275452  1
  Se  Se21  1  0.262854  0.154768  0.017374  1
  Se  Se22  1  0.108716  0.264713  0.512266  1
  Se  Se23  1  0.899408  0.741012  0.017309  1
