# generated using pymatgen
data_Lu4Al18Ir5Au
_symmetry_space_group_name_H-M   'P 1'
_cell_length_a   7.55998031
_cell_length_b   7.55998042
_cell_length_c   9.40498300
_cell_angle_alpha   90.00046172
_cell_angle_beta   90.00046348
_cell_angle_gamma   119.64170229
_symmetry_Int_Tables_number   1
_chemical_formula_structural   Lu4Al18Ir5Au
_chemical_formula_sum   'Lu4 Al18 Ir5 Au1'
_cell_volume   467.18262523
_cell_formula_units_Z   1
loop_
 _symmetry_equiv_pos_site_id
 _symmetry_equiv_pos_as_xyz
  1  'x, y, z'
loop_
 _atom_site_type_symbol
 _atom_site_label
 _atom_site_symmetry_multiplicity
 _atom_site_fract_x
 _atom_site_fract_y
 _atom_site_fract_z
 _atom_site_occupancy
  Lu  Lu0  1  0.995987  0.672336  0.251800  1
  Lu  Lu1  1  0.004013  0.327664  0.748200  1
  Lu  Lu2  1  0.672336  0.995987  0.251800  1
  Lu  Lu3  1  0.327664  0.004013  0.748200  1
  Al  Al4  1  0.133890  0.133890  0.255602  1
  Al  Al5  1  0.866110  0.866110  0.744398  1
  Al  Al6  1  0.000481  0.343585  0.080112  1
  Al  Al7  1  0.999519  0.656415  0.919888  1
  Al  Al8  1  0.000678  0.664795  0.575030  1
  Al  Al9  1  0.335205  0.999322  0.424970  1
  Al  Al10  1  0.999322  0.335205  0.424970  1
  Al  Al11  1  0.664795  0.000678  0.575030  1
  Al  Al12  1  0.656415  0.999519  0.919888  1
  Al  Al13  1  0.343585  0.000481  0.080112  1
  Al  Al14  1  0.332725  0.332725  0.554993  1
  Al  Al15  1  0.667275  0.667275  0.445007  1
  Al  Al16  1  0.658959  0.658959  0.061294  1
  Al  Al17  1  0.341041  0.341041  0.938706  1
  Al  Al18  1  0.338855  0.550440  0.251197  1
  Al  Al19  1  0.661145  0.449560  0.748803  1
  Al  Al20  1  0.550440  0.338855  0.251197  1
  Al  Al21  1  0.449560  0.661145  0.748803  1
  Ir  Ir22  1  0.671971  0.328029  0.000000  1
  Ir  Ir23  1  0.328029  0.671971  0.000000  1
  Ir  Ir24  1  0.327800  0.672200  0.500000  1
  Ir  Ir25  1  0.672200  0.327800  0.500000  1
  Ir  Ir26  1  0.000000  0.000000  0.500000  1
  Au  Au27  1  0.000000  0.000000  0.000000  1
