# generated using pymatgen
data_Ag2PtBr6
_symmetry_space_group_name_H-M   'P 1'
_cell_length_a   7.07556600
_cell_length_b   7.07556661
_cell_length_c   7.33134777
_cell_angle_alpha   118.85244498
_cell_angle_beta   90.00000000
_cell_angle_gamma   119.99999717
_symmetry_Int_Tables_number   1
_chemical_formula_structural   Ag2PtBr6
_chemical_formula_sum   'Ag2 Pt1 Br6'
_cell_volume   263.94312727
_cell_formula_units_Z   1
loop_
 _symmetry_equiv_pos_site_id
 _symmetry_equiv_pos_as_xyz
  1  'x, y, z'
loop_
 _atom_site_type_symbol
 _atom_site_label
 _atom_site_symmetry_multiplicity
 _atom_site_fract_x
 _atom_site_fract_y
 _atom_site_fract_z
 _atom_site_occupancy
  Ag  Ag0  1  0.675190  0.350380  0.025569  1
  Ag  Ag1  1  0.324810  0.649621  0.974431  1
  Pt  Pt2  1  0.000000  0.000000  0.000000  1
  Br  Br3  1  0.091671  0.454281  0.238366  1
  Br  Br4  1  0.362610  0.146696  0.238366  1
  Br  Br5  1  0.784086  0.875757  0.238366  1
  Br  Br6  1  0.215915  0.124243  0.761634  1
  Br  Br7  1  0.637390  0.853304  0.761634  1
  Br  Br8  1  0.908330  0.545719  0.761634  1
