# generated using pymatgen
data_La4Nd12Cd4Ir3Au
_symmetry_space_group_name_H-M   'P 1'
_cell_length_a   10.04560565
_cell_length_b   10.04560656
_cell_length_c   10.04560643
_cell_angle_alpha   60.22917037
_cell_angle_beta   60.22916430
_cell_angle_gamma   60.22917316
_symmetry_Int_Tables_number   1
_chemical_formula_structural   La4Nd12Cd4Ir3Au
_chemical_formula_sum   'La4 Nd12 Cd4 Ir3 Au1'
_cell_volume   720.54460150
_cell_formula_units_Z   1
loop_
 _symmetry_equiv_pos_site_id
 _symmetry_equiv_pos_as_xyz
  1  'x, y, z'
loop_
 _atom_site_type_symbol
 _atom_site_label
 _atom_site_symmetry_multiplicity
 _atom_site_fract_x
 _atom_site_fract_y
 _atom_site_fract_z
 _atom_site_occupancy
  La  La0  1  0.345676  0.345676  0.345676  1
  La  La1  1  0.356379  0.356379  0.946124  1
  La  La2  1  0.356379  0.946124  0.356379  1
  La  La3  1  0.946124  0.356379  0.356379  1
  Nd  Nd4  1  0.800954  0.190372  0.190372  1
  Nd  Nd5  1  0.188315  0.810942  0.810942  1
  Nd  Nd6  1  0.190372  0.800954  0.190372  1
  Nd  Nd7  1  0.810942  0.188315  0.810942  1
  Nd  Nd8  1  0.190372  0.190372  0.800954  1
  Nd  Nd9  1  0.810942  0.810942  0.188315  1
  Nd  Nd10  1  0.939035  0.564258  0.564258  1
  Nd  Nd11  1  0.564436  0.938227  0.938227  1
  Nd  Nd12  1  0.564258  0.939035  0.564258  1
  Nd  Nd13  1  0.938227  0.564436  0.938227  1
  Nd  Nd14  1  0.564258  0.564258  0.939035  1
  Nd  Nd15  1  0.938227  0.938227  0.564436  1
  Cd  Cd16  1  0.581212  0.581212  0.581212  1
  Cd  Cd17  1  0.579813  0.579813  0.258669  1
  Cd  Cd18  1  0.579813  0.258669  0.579813  1
  Cd  Cd19  1  0.258669  0.579813  0.579813  1
  Ir  Ir20  1  0.140471  0.140471  0.572209  1
  Ir  Ir21  1  0.140471  0.572209  0.140471  1
  Ir  Ir22  1  0.572209  0.140471  0.140471  1
  Au  Au23  1  0.142446  0.142446  0.142446  1
