# generated using pymatgen
data_PrHoPa2(Al8Pt3)3
_symmetry_space_group_name_H-M   'P 1'
_cell_length_a   7.58726008
_cell_length_b   7.59408019
_cell_length_c   13.15806626
_cell_angle_alpha   84.50656581
_cell_angle_beta   78.93582129
_cell_angle_gamma   59.90581175
_symmetry_Int_Tables_number   1
_chemical_formula_structural   PrHoPa2(Al8Pt3)3
_chemical_formula_sum   'Pr1 Ho1 Pa2 Al24 Pt9'
_cell_volume   643.75636790
_cell_formula_units_Z   1
loop_
 _symmetry_equiv_pos_site_id
 _symmetry_equiv_pos_as_xyz
  1  'x, y, z'
loop_
 _atom_site_type_symbol
 _atom_site_label
 _atom_site_symmetry_multiplicity
 _atom_site_fract_x
 _atom_site_fract_y
 _atom_site_fract_z
 _atom_site_occupancy
  Pr  Pr0  1  0.732957  0.498317  0.810271  1
  Ho  Ho1  1  0.265822  0.501451  0.192601  1
  Pa  Pa2  1  0.395961  0.167925  0.803682  1
  Pa  Pa3  1  0.604110  0.832066  0.196406  1
  Al  Al4  1  0.683096  0.836224  0.947774  1
  Al  Al5  1  0.316091  0.166456  0.055939  1
  Al  Al6  1  0.145914  0.832646  0.560209  1
  Al  Al7  1  0.854747  0.166900  0.438270  1
  Al  Al8  1  0.480944  0.167817  0.557127  1
  Al  Al9  1  0.519225  0.832411  0.441714  1
  Al  Al10  1  0.214060  0.168629  0.331083  1
  Al  Al11  1  0.786929  0.832373  0.666159  1
  Al  Al12  1  0.437325  0.509736  0.667149  1
  Al  Al13  1  0.562386  0.490221  0.330164  1
  Al  Al14  1  0.109429  0.158572  0.665217  1
  Al  Al15  1  0.892832  0.840233  0.331924  1
  Al  Al16  1  0.349789  0.499489  0.945924  1
  Al  Al17  1  0.645299  0.501102  0.059140  1
  Al  Al18  1  0.017026  0.165673  0.955198  1
  Al  Al19  1  0.983787  0.831984  0.048773  1
  Al  Al20  1  0.186142  0.500377  0.440556  1
  Al  Al21  1  0.814787  0.499584  0.557619  1
  Al  Al22  1  0.736405  0.161747  0.183016  1
  Al  Al23  1  0.260508  0.841361  0.816943  1
  Al  Al24  1  0.065808  0.630514  0.815691  1
  Al  Al25  1  0.938043  0.368971  0.184163  1
  Al  Al26  1  0.854537  0.036634  0.816677  1
  Al  Al27  1  0.145018  0.959655  0.183259  1
  Pt  Pt28  1  0.122344  0.490937  0.638458  1
  Pt  Pt29  1  0.879420  0.509475  0.359777  1
  Pt  Pt30  1  0.656525  0.172679  0.000771  1
  Pt  Pt31  1  0.342099  0.827937  0.000724  1
  Pt  Pt32  1  0.537578  0.165908  0.360004  1
  Pt  Pt33  1  0.461628  0.835228  0.638377  1
  Pt  Pt34  1  0.778440  0.173845  0.637332  1
  Pt  Pt35  1  0.222637  0.824605  0.360965  1
  Pt  Pt36  1  0.000351  0.500320  0.000942  1
