# generated using pymatgen
data_ZrP3WO12
_symmetry_space_group_name_H-M   'P 1'
_cell_length_a   8.88201919
_cell_length_b   8.89854501
_cell_length_c   9.08415171
_cell_angle_alpha   89.86205796
_cell_angle_beta   119.11421270
_cell_angle_gamma   120.00484924
_symmetry_Int_Tables_number   1
_chemical_formula_structural   ZrP3WO12
_chemical_formula_sum   'Zr2 P6 W2 O24'
_cell_volume   514.93033205
_cell_formula_units_Z   2
loop_
 _symmetry_equiv_pos_site_id
 _symmetry_equiv_pos_as_xyz
  1  'x, y, z'
loop_
 _atom_site_type_symbol
 _atom_site_label
 _atom_site_symmetry_multiplicity
 _atom_site_fract_x
 _atom_site_fract_y
 _atom_site_fract_z
 _atom_site_occupancy
  Zr  Zr0  1  0.217580  0.859074  0.075074  1
  Zr  Zr1  1  0.785163  0.640416  0.425988  1
  P  P2  1  0.998563  0.968675  0.249268  1
  P  P3  1  0.280302  0.530058  0.249564  1
  P  P4  1  0.291587  0.751102  0.748902  1
  P  P5  1  0.718152  0.250054  0.251354  1
  P  P6  1  0.711503  0.462620  0.751282  1
  P  P7  1  0.998109  0.037331  0.749959  1
  W  W8  1  0.211540  0.356601  0.569718  1
  W  W9  1  0.786433  0.143352  0.929568  1
  O  O10  1  0.286960  0.702891  0.231199  1
  O  O11  1  0.867652  0.000893  0.076676  1
  O  O12  1  0.857910  0.867241  0.589544  1
  O  O13  1  0.843869  0.802348  0.269288  1
  O  O14  1  0.145227  0.940588  0.231520  1
  O  O15  1  0.470749  0.546598  0.274435  1
  O  O16  1  0.101501  0.728646  0.583571  1
  O  O17  1  0.902385  0.630259  0.914261  1
  O  O18  1  0.287546  0.775716  0.913264  1
  O  O19  1  0.494723  0.918017  0.774855  1
  O  O20  1  0.718256  0.483394  0.587267  1
  O  O21  1  0.719368  0.421672  0.265494  1
  O  O22  1  0.298479  0.581853  0.723529  1
  O  O23  1  0.275216  0.497625  0.417001  1
  O  O24  1  0.526530  0.084253  0.233970  1
  O  O25  1  0.714498  0.209888  0.083200  1
  O  O26  1  0.081727  0.365553  0.081321  1
  O  O27  1  0.915749  0.283576  0.421681  1
  O  O28  1  0.509069  0.430160  0.721646  1
  O  O29  1  0.858994  0.076688  0.774643  1
  O  O30  1  0.138568  0.208126  0.713478  1
  O  O31  1  0.135052  0.138619  0.413314  1
  O  O32  1  0.143182  0.017803  0.917726  1
  O  O33  1  0.707858  0.288307  0.786438  1
