# generated using pymatgen
data_Ho5Er3Si8Pd5Pt3
_symmetry_space_group_name_H-M   'P 1'
_cell_length_a   4.28158800
_cell_length_b   7.48968312
_cell_length_c   13.94446600
_cell_angle_alpha   90.01023695
_cell_angle_beta   90.00000000
_cell_angle_gamma   90.00000000
_symmetry_Int_Tables_number   1
_chemical_formula_structural   Ho5Er3Si8Pd5Pt3
_chemical_formula_sum   'Ho5 Er3 Si8 Pd5 Pt3'
_cell_volume   447.16746604
_cell_formula_units_Z   1
loop_
 _symmetry_equiv_pos_site_id
 _symmetry_equiv_pos_as_xyz
  1  'x, y, z'
loop_
 _atom_site_type_symbol
 _atom_site_label
 _atom_site_symmetry_multiplicity
 _atom_site_fract_x
 _atom_site_fract_y
 _atom_site_fract_z
 _atom_site_occupancy
  Ho  Ho0  1  0.000000  0.299591  0.000054  1
  Ho  Ho1  1  0.500000  0.701712  0.500266  1
  Ho  Ho2  1  0.000000  0.291968  0.499974  1
  Ho  Ho3  1  0.500000  0.708270  0.999772  1
  Ho  Ho4  1  0.000000  0.205158  0.250327  1
  Er  Er5  1  0.500000  0.793308  0.250238  1
  Er  Er6  1  0.000000  0.204984  0.749725  1
  Er  Er7  1  0.500000  0.794844  0.750367  1
  Si  Si8  1  0.000000  0.908345  0.592667  1
  Si  Si9  1  0.500000  0.091431  0.908606  1
  Si  Si10  1  0.000000  0.908040  0.407060  1
  Si  Si11  1  0.500000  0.093714  0.093472  1
  Si  Si12  1  0.000000  0.593268  0.143967  1
  Si  Si13  1  0.500000  0.405725  0.356826  1
  Si  Si14  1  0.000000  0.594593  0.856656  1
  Si  Si15  1  0.500000  0.405226  0.643045  1
  Pd  Pd16  1  0.000000  0.923648  0.107176  1
  Pd  Pd17  1  0.500000  0.421792  0.157848  1
  Pd  Pd18  1  0.000000  0.579903  0.341544  1
  Pd  Pd19  1  0.500000  0.420764  0.842134  1
  Pd  Pd20  1  0.000000  0.579080  0.658429  1
  Pt  Pt21  1  0.500000  0.074807  0.609412  1
  Pt  Pt22  1  0.000000  0.925332  0.890063  1
  Pt  Pt23  1  0.500000  0.074496  0.390372  1
