# generated using pymatgen
data_Nd3Sc(Cu4P3)2
_symmetry_space_group_name_H-M   'P 1'
_cell_length_a   3.89763400
_cell_length_b   11.27167800
_cell_length_c   12.96869700
_cell_angle_alpha   90.00000000
_cell_angle_beta   90.00000000
_cell_angle_gamma   90.00000000
_symmetry_Int_Tables_number   1
_chemical_formula_structural   Nd3Sc(Cu4P3)2
_chemical_formula_sum   'Nd6 Sc2 Cu16 P12'
_cell_volume   569.75214953
_cell_formula_units_Z   2
loop_
 _symmetry_equiv_pos_site_id
 _symmetry_equiv_pos_as_xyz
  1  'x, y, z'
loop_
 _atom_site_type_symbol
 _atom_site_label
 _atom_site_symmetry_multiplicity
 _atom_site_fract_x
 _atom_site_fract_y
 _atom_site_fract_z
 _atom_site_occupancy
  Nd  Nd0  1  0.000000  0.500000  0.526168  1
  Nd  Nd1  1  0.500000  0.000000  0.473832  1
  Nd  Nd2  1  0.500000  0.821372  0.206644  1
  Nd  Nd3  1  0.500000  0.178628  0.206644  1
  Nd  Nd4  1  0.000000  0.678628  0.793356  1
  Nd  Nd5  1  0.000000  0.321372  0.793356  1
  Sc  Sc6  1  0.500000  0.500000  0.154790  1
  Sc  Sc7  1  0.000000  0.000000  0.845210  1
  Cu  Cu8  1  0.500000  0.500000  0.702991  1
  Cu  Cu9  1  0.000000  0.000000  0.297009  1
  Cu  Cu10  1  0.000000  0.500000  0.984322  1
  Cu  Cu11  1  0.500000  0.000000  0.015678  1
  Cu  Cu12  1  0.500000  0.331451  0.991353  1
  Cu  Cu13  1  0.500000  0.668549  0.991353  1
  Cu  Cu14  1  0.000000  0.168549  0.008647  1
  Cu  Cu15  1  0.000000  0.831451  0.008647  1
  Cu  Cu16  1  0.500000  0.292680  0.430847  1
  Cu  Cu17  1  0.500000  0.707320  0.430847  1
  Cu  Cu18  1  0.000000  0.207320  0.569153  1
  Cu  Cu19  1  0.000000  0.792680  0.569153  1
  Cu  Cu20  1  0.500000  0.879032  0.701133  1
  Cu  Cu21  1  0.500000  0.120968  0.701133  1
  Cu  Cu22  1  0.000000  0.620968  0.298867  1
  Cu  Cu23  1  0.000000  0.379032  0.298867  1
  P  P24  1  0.500000  0.500000  0.880241  1
  P  P25  1  0.000000  0.000000  0.119759  1
  P  P26  1  0.500000  0.500000  0.351861  1
  P  P27  1  0.000000  0.000000  0.648139  1
  P  P28  1  0.500000  0.317836  0.616718  1
  P  P29  1  0.500000  0.682164  0.616718  1
  P  P30  1  0.000000  0.182164  0.383282  1
  P  P31  1  0.000000  0.817836  0.383282  1
  P  P32  1  0.500000  0.842500  0.888463  1
  P  P33  1  0.500000  0.157500  0.888463  1
  P  P34  1  0.000000  0.657500  0.111537  1
  P  P35  1  0.000000  0.342500  0.111537  1
