# generated using pymatgen
data_TbNd4USe10
_symmetry_space_group_name_H-M   'P 1'
_cell_length_a   7.89205200
_cell_length_b   8.36958700
_cell_length_c   12.52690300
_cell_angle_alpha   90.00000000
_cell_angle_beta   90.00000000
_cell_angle_gamma   90.00000000
_symmetry_Int_Tables_number   1
_chemical_formula_structural   TbNd4USe10
_chemical_formula_sum   'Tb2 Nd8 U2 Se20'
_cell_volume   827.44222745
_cell_formula_units_Z   2
loop_
 _symmetry_equiv_pos_site_id
 _symmetry_equiv_pos_as_xyz
  1  'x, y, z'
loop_
 _atom_site_type_symbol
 _atom_site_label
 _atom_site_symmetry_multiplicity
 _atom_site_fract_x
 _atom_site_fract_y
 _atom_site_fract_z
 _atom_site_occupancy
  Tb  Tb0  1  0.074409  0.750000  0.494357  1
  Tb  Tb1  1  0.425591  0.750000  0.994357  1
  Nd  Nd2  1  0.527497  0.500854  0.322005  1
  Nd  Nd3  1  0.972503  0.999146  0.822005  1
  Nd  Nd4  1  0.477720  0.996348  0.678149  1
  Nd  Nd5  1  0.022280  0.503652  0.178149  1
  Nd  Nd6  1  0.477720  0.503652  0.678149  1
  Nd  Nd7  1  0.022280  0.996348  0.178149  1
  Nd  Nd8  1  0.527497  0.999146  0.322005  1
  Nd  Nd9  1  0.972503  0.500854  0.822005  1
  U  U10  1  0.940865  0.250000  0.506087  1
  U  U11  1  0.559135  0.250000  0.006087  1
  Se  Se12  1  0.834279  0.965639  0.596493  1
  Se  Se13  1  0.665721  0.534361  0.096493  1
  Se  Se14  1  0.164403  0.453643  0.403914  1
  Se  Se15  1  0.335597  0.046357  0.903914  1
  Se  Se16  1  0.164403  0.046357  0.403914  1
  Se  Se17  1  0.335597  0.453643  0.903914  1
  Se  Se18  1  0.834279  0.534361  0.596493  1
  Se  Se19  1  0.665721  0.965639  0.096493  1
  Se  Se20  1  0.829106  0.750000  0.314276  1
  Se  Se21  1  0.670894  0.750000  0.814276  1
  Se  Se22  1  0.169068  0.250000  0.683272  1
  Se  Se23  1  0.330932  0.250000  0.183272  1
  Se  Se24  1  0.455640  0.750000  0.497850  1
  Se  Se25  1  0.044360  0.750000  0.997850  1
  Se  Se26  1  0.549826  0.250000  0.499192  1
  Se  Se27  1  0.950174  0.250000  0.999192  1
  Se  Se28  1  0.193119  0.750000  0.714021  1
  Se  Se29  1  0.306881  0.750000  0.214021  1
  Se  Se30  1  0.808981  0.250000  0.289825  1
  Se  Se31  1  0.691019  0.250000  0.789825  1
