# generated using pymatgen
data_Tb4Cd2Cu2NiPt
_symmetry_space_group_name_H-M   'P 1'
_cell_length_a   7.59597041
_cell_length_b   7.59771437
_cell_length_c   3.71123700
_cell_angle_alpha   90.00000000
_cell_angle_beta   90.00000000
_cell_angle_gamma   89.47421061
_symmetry_Int_Tables_number   1
_chemical_formula_structural   Tb4Cd2Cu2NiPt
_chemical_formula_sum   'Tb4 Cd2 Cu2 Ni1 Pt1'
_cell_volume   214.17394155
_cell_formula_units_Z   1
loop_
 _symmetry_equiv_pos_site_id
 _symmetry_equiv_pos_as_xyz
  1  'x, y, z'
loop_
 _atom_site_type_symbol
 _atom_site_label
 _atom_site_symmetry_multiplicity
 _atom_site_fract_x
 _atom_site_fract_y
 _atom_site_fract_z
 _atom_site_occupancy
  Tb  Tb0  1  0.674076  0.159525  0.500000  1
  Tb  Tb1  1  0.333207  0.818508  0.500000  1
  Tb  Tb2  1  0.177156  0.334020  0.500000  1
  Tb  Tb3  1  0.822835  0.687826  0.500000  1
  Cd  Cd4  1  0.001019  0.007147  0.000000  1
  Cd  Cd5  1  0.509368  0.496373  0.000000  1
  Cu  Cu6  1  0.871184  0.375802  0.000000  1
  Cu  Cu7  1  0.379938  0.117160  0.000000  1
  Ni  Ni8  1  0.615392  0.882348  0.000000  1
  Pt  Pt9  1  0.115823  0.621288  0.000000  1
