# generated using pymatgen
data_RbSClO3
_symmetry_space_group_name_H-M   'P 1'
_cell_length_a   6.44221400
_cell_length_b   8.42061200
_cell_length_c   9.35507100
_cell_angle_alpha   90.00000000
_cell_angle_beta   90.00000000
_cell_angle_gamma   90.00000000
_symmetry_Int_Tables_number   1
_chemical_formula_structural   RbSClO3
_chemical_formula_sum   'Rb4 S4 Cl4 O12'
_cell_volume   507.48813370
_cell_formula_units_Z   4
loop_
 _symmetry_equiv_pos_site_id
 _symmetry_equiv_pos_as_xyz
  1  'x, y, z'
loop_
 _atom_site_type_symbol
 _atom_site_label
 _atom_site_symmetry_multiplicity
 _atom_site_fract_x
 _atom_site_fract_y
 _atom_site_fract_z
 _atom_site_occupancy
  Rb  Rb0  1  0.250000  0.370779  0.681075  1
  Rb  Rb1  1  0.250000  0.129221  0.181075  1
  Rb  Rb2  1  0.750000  0.629221  0.318925  1
  Rb  Rb3  1  0.750000  0.870779  0.818925  1
  S  S4  1  0.250000  0.794320  0.543496  1
  S  S5  1  0.250000  0.705680  0.043496  1
  S  S6  1  0.750000  0.205680  0.456504  1
  S  S7  1  0.750000  0.294320  0.956504  1
  Cl  Cl8  1  0.250000  0.956710  0.723407  1
  Cl  Cl9  1  0.250000  0.543290  0.223407  1
  Cl  Cl10  1  0.750000  0.043290  0.276593  1
  Cl  Cl11  1  0.750000  0.456710  0.776593  1
  O  O12  1  0.059415  0.704448  0.567874  1
  O  O13  1  0.440585  0.795552  0.067874  1
  O  O14  1  0.559415  0.295552  0.432126  1
  O  O15  1  0.940585  0.204448  0.932126  1
  O  O16  1  0.940585  0.295552  0.432126  1
  O  O17  1  0.559415  0.204448  0.932126  1
  O  O18  1  0.440585  0.704448  0.567874  1
  O  O19  1  0.059415  0.795552  0.067874  1
  O  O20  1  0.250000  0.900180  0.421761  1
  O  O21  1  0.250000  0.599820  0.921761  1
  O  O22  1  0.750000  0.099820  0.578239  1
  O  O23  1  0.750000  0.400180  0.078239  1
