# generated using pymatgen
data_SmTm9GaBi5
_symmetry_space_group_name_H-M   'P 1'
_cell_length_a   8.09446700
_cell_length_b   9.36391900
_cell_length_c   11.85437200
_cell_angle_alpha   90.00000000
_cell_angle_beta   90.00000000
_cell_angle_gamma   90.00000000
_symmetry_Int_Tables_number   1
_chemical_formula_structural   SmTm9GaBi5
_chemical_formula_sum   'Sm2 Tm18 Ga2 Bi10'
_cell_volume   898.51318985
_cell_formula_units_Z   2
loop_
 _symmetry_equiv_pos_site_id
 _symmetry_equiv_pos_as_xyz
  1  'x, y, z'
loop_
 _atom_site_type_symbol
 _atom_site_label
 _atom_site_symmetry_multiplicity
 _atom_site_fract_x
 _atom_site_fract_y
 _atom_site_fract_z
 _atom_site_occupancy
  Sm  Sm0  1  0.686699  0.750000  0.780502  1
  Sm  Sm1  1  0.186699  0.750000  0.719498  1
  Tm  Tm2  1  0.346830  0.750000  0.219031  1
  Tm  Tm3  1  0.846830  0.750000  0.280969  1
  Tm  Tm4  1  0.647953  0.250000  0.794116  1
  Tm  Tm5  1  0.147953  0.250000  0.705884  1
  Tm  Tm6  1  0.690667  0.548307  0.060053  1
  Tm  Tm7  1  0.190667  0.951693  0.439947  1
  Tm  Tm8  1  0.315919  0.071188  0.944235  1
  Tm  Tm9  1  0.815919  0.428812  0.555765  1
  Tm  Tm10  1  0.315919  0.428812  0.944235  1
  Tm  Tm11  1  0.815919  0.071188  0.555765  1
  Tm  Tm12  1  0.690667  0.951693  0.060053  1
  Tm  Tm13  1  0.190667  0.548307  0.439947  1
  Tm  Tm14  1  0.463496  0.250000  0.488755  1
  Tm  Tm15  1  0.963496  0.250000  0.011245  1
  Tm  Tm16  1  0.519113  0.750000  0.508494  1
  Tm  Tm17  1  0.019113  0.750000  0.991506  1
  Tm  Tm18  1  0.322569  0.250000  0.212882  1
  Tm  Tm19  1  0.822569  0.250000  0.287118  1
  Ga  Ga20  1  0.590916  0.250000  0.040472  1
  Ga  Ga21  1  0.090916  0.250000  0.459528  1
  Bi  Bi22  1  0.404380  0.750000  0.963006  1
  Bi  Bi23  1  0.904380  0.750000  0.536994  1
  Bi  Bi24  1  0.562696  0.998719  0.323417  1
  Bi  Bi25  1  0.062696  0.501281  0.176583  1
  Bi  Bi26  1  0.439742  0.492794  0.674188  1
  Bi  Bi27  1  0.939742  0.007206  0.825812  1
  Bi  Bi28  1  0.439742  0.007206  0.674188  1
  Bi  Bi29  1  0.939742  0.492794  0.825812  1
  Bi  Bi30  1  0.562696  0.501281  0.323417  1
  Bi  Bi31  1  0.062696  0.998719  0.176583  1
