# generated using pymatgen
data_La3Tb(NdPt)3
_symmetry_space_group_name_H-M   'P 1'
_cell_length_a   6.51698300
_cell_length_b   10.23390961
_cell_length_c   10.23391040
_cell_angle_alpha   120.01787801
_cell_angle_beta   90.00000000
_cell_angle_gamma   90.00000000
_symmetry_Int_Tables_number   1
_chemical_formula_structural   La3Tb(NdPt)3
_chemical_formula_sum   'La6 Tb2 Nd6 Pt6'
_cell_volume   590.99273229
_cell_formula_units_Z   2
loop_
 _symmetry_equiv_pos_site_id
 _symmetry_equiv_pos_as_xyz
  1  'x, y, z'
loop_
 _atom_site_type_symbol
 _atom_site_label
 _atom_site_symmetry_multiplicity
 _atom_site_fract_x
 _atom_site_fract_y
 _atom_site_fract_z
 _atom_site_occupancy
  La  La0  1  0.245391  0.129388  0.870612  1
  La  La1  1  0.245537  0.741009  0.870480  1
  La  La2  1  0.245537  0.129520  0.258991  1
  La  La3  1  0.745391  0.870612  0.129388  1
  La  La4  1  0.745537  0.258991  0.129520  1
  La  La5  1  0.745537  0.870480  0.741009  1
  Tb  Tb6  1  0.463772  0.333295  0.666705  1
  Tb  Tb7  1  0.963772  0.666705  0.333295  1
  Nd  Nd8  1  0.442197  0.538261  0.461739  1
  Nd  Nd9  1  0.442350  0.923600  0.461748  1
  Nd  Nd10  1  0.442350  0.538252  0.076400  1
  Nd  Nd11  1  0.942197  0.461739  0.538261  1
  Nd  Nd12  1  0.942350  0.076400  0.538252  1
  Nd  Nd13  1  0.942350  0.461748  0.923600  1
  Pt  Pt14  1  0.188546  0.809962  0.190038  1
  Pt  Pt15  1  0.188659  0.380158  0.189986  1
  Pt  Pt16  1  0.188659  0.810014  0.619842  1
  Pt  Pt17  1  0.688546  0.190038  0.809962  1
  Pt  Pt18  1  0.688659  0.619842  0.810014  1
  Pt  Pt19  1  0.688659  0.189986  0.380158  1
