# generated using pymatgen
data_RbTa2P5O18
_symmetry_space_group_name_H-M   'P 1'
_cell_length_a   5.21568600
_cell_length_b   11.08139115
_cell_length_c   14.62809170
_cell_angle_alpha   82.94516527
_cell_angle_beta   87.14543443
_cell_angle_gamma   85.12354571
_symmetry_Int_Tables_number   1
_chemical_formula_structural   RbTa2P5O18
_chemical_formula_sum   'Rb2 Ta4 P10 O36'
_cell_volume   835.36001588
_cell_formula_units_Z   2
loop_
 _symmetry_equiv_pos_site_id
 _symmetry_equiv_pos_as_xyz
  1  'x, y, z'
loop_
 _atom_site_type_symbol
 _atom_site_label
 _atom_site_symmetry_multiplicity
 _atom_site_fract_x
 _atom_site_fract_y
 _atom_site_fract_z
 _atom_site_occupancy
  Rb  Rb0  1  0.701771  0.898314  0.625930  1
  Rb  Rb1  1  0.298229  0.101686  0.374070  1
  Ta  Ta2  1  0.705035  0.710227  0.991328  1
  Ta  Ta3  1  0.749685  0.440460  0.646571  1
  Ta  Ta4  1  0.250315  0.559540  0.353429  1
  Ta  Ta5  1  0.294965  0.289773  0.008672  1
  P  P6  1  0.223368  0.628949  0.578670  1
  P  P7  1  0.803457  0.150360  0.138977  1
  P  P8  1  0.213209  0.554232  0.112210  1
  P  P9  1  0.776632  0.371051  0.421330  1
  P  P10  1  0.706986  0.771019  0.332195  1
  P  P11  1  0.293014  0.228981  0.667805  1
  P  P12  1  0.604169  0.913619  0.154093  1
  P  P13  1  0.786791  0.445768  0.887790  1
  P  P14  1  0.196543  0.849640  0.861023  1
  P  P15  1  0.395831  0.086381  0.845907  1
  O  O16  1  0.190952  0.425210  0.084797  1
  O  O17  1  0.674765  0.864007  0.397094  1
  O  O18  1  0.816458  0.155639  0.238654  1
  O  O19  1  0.961475  0.806144  0.923117  1
  O  O20  1  0.809048  0.574790  0.915203  1
  O  O21  1  0.442279  0.555735  0.638097  1
  O  O22  1  0.965475  0.580992  0.623198  1
  O  O23  1  0.229424  0.763107  0.569951  1
  O  O24  1  0.973439  0.637157  0.080878  1
  O  O25  1  0.644334  0.036692  0.808522  1
  O  O26  1  0.562469  0.224352  0.093294  1
  O  O27  1  0.770576  0.236893  0.430049  1
  O  O28  1  0.355666  0.963308  0.191478  1
  O  O29  1  0.542927  0.395858  0.937479  1
  O  O30  1  0.221021  0.170106  0.773073  1
  O  O31  1  0.257415  0.573933  0.483411  1
  O  O32  1  0.038525  0.193856  0.076883  1
  O  O33  1  0.938526  0.673731  0.346581  1
  O  O34  1  0.532589  0.300815  0.677955  1
  O  O35  1  0.034525  0.419008  0.376802  1
  O  O36  1  0.207437  0.985068  0.890023  1
  O  O37  1  0.061474  0.326269  0.653419  1
  O  O38  1  0.778979  0.829894  0.226927  1
  O  O39  1  0.792563  0.014932  0.109977  1
  O  O40  1  0.457073  0.604142  0.062521  1
  O  O41  1  0.742585  0.426067  0.516589  1
  O  O42  1  0.764704  0.452770  0.783852  1
  O  O43  1  0.602412  0.835810  0.072285  1
  O  O44  1  0.235296  0.547230  0.216148  1
  O  O45  1  0.026561  0.362843  0.919122  1
  O  O46  1  0.325235  0.135993  0.602906  1
  O  O47  1  0.183542  0.844361  0.761346  1
  O  O48  1  0.397588  0.164190  0.927715  1
  O  O49  1  0.437531  0.775648  0.906706  1
  O  O50  1  0.467411  0.699185  0.322045  1
  O  O51  1  0.557721  0.444265  0.361903  1
