# generated using pymatgen
data_Pr3Pa3Al20(SiOs2)4
_symmetry_space_group_name_H-M   'P 1'
_cell_length_a   8.82407124
_cell_length_b   8.81248290
_cell_length_c   9.54049000
_cell_angle_alpha   90.00000000
_cell_angle_beta   90.00000000
_cell_angle_gamma   120.13034955
_symmetry_Int_Tables_number   1
_chemical_formula_structural   Pr3Pa3Al20(SiOs2)4
_chemical_formula_sum   'Pr3 Pa3 Al20 Si4 Os8'
_cell_volume   641.64773403
_cell_formula_units_Z   1
loop_
 _symmetry_equiv_pos_site_id
 _symmetry_equiv_pos_as_xyz
  1  'x, y, z'
loop_
 _atom_site_type_symbol
 _atom_site_label
 _atom_site_symmetry_multiplicity
 _atom_site_fract_x
 _atom_site_fract_y
 _atom_site_fract_z
 _atom_site_occupancy
  Pr  Pr0  1  0.191832  0.383409  0.250000  1
  Pr  Pr1  1  0.807861  0.617477  0.750000  1
  Pr  Pr2  1  0.616007  0.807600  0.250000  1
  Pa  Pa3  1  0.393271  0.196767  0.750000  1
  Pa  Pa4  1  0.195209  0.803958  0.250000  1
  Pa  Pa5  1  0.802611  0.194840  0.750000  1
  Al  Al6  1  0.162351  0.325618  0.578885  1
  Al  Al7  1  0.836360  0.672673  0.422587  1
  Al  Al8  1  0.672333  0.837058  0.576664  1
  Al  Al9  1  0.836360  0.672673  0.077413  1
  Al  Al10  1  0.325970  0.161919  0.423166  1
  Al  Al11  1  0.162351  0.325618  0.921115  1
  Al  Al12  1  0.163824  0.837581  0.576570  1
  Al  Al13  1  0.325970  0.161919  0.076834  1
  Al  Al14  1  0.835084  0.163038  0.424791  1
  Al  Al15  1  0.672333  0.837058  0.923336  1
  Al  Al16  1  0.835084  0.163038  0.075209  1
  Al  Al17  1  0.163824  0.837581  0.923430  1
  Al  Al18  1  0.564616  0.128457  0.250000  1
  Al  Al19  1  0.433958  0.869437  0.750000  1
  Al  Al20  1  0.870205  0.434694  0.250000  1
  Al  Al21  1  0.128317  0.564131  0.750000  1
  Al  Al22  1  0.563901  0.435849  0.250000  1
  Al  Al23  1  0.434564  0.564512  0.750000  1
  Al  Al24  1  0.002168  0.995793  0.250000  1
  Al  Al25  1  0.005144  0.008817  0.750000  1
  Si  Si26  1  0.334089  0.665488  0.029951  1
  Si  Si27  1  0.668746  0.336120  0.968910  1
  Si  Si28  1  0.668746  0.336120  0.531090  1
  Si  Si29  1  0.334089  0.665488  0.470049  1
  Os  Os30  1  0.498791  0.003098  0.996080  1
  Os  Os31  1  0.999815  0.500098  0.999318  1
  Os  Os32  1  0.498791  0.003098  0.503920  1
  Os  Os33  1  0.498482  0.494677  0.995267  1
  Os  Os34  1  0.999815  0.500098  0.500682  1
  Os  Os35  1  0.498482  0.494677  0.504733  1
  Os  Os36  1  0.999321  0.999764  0.999668  1
  Os  Os37  1  0.999321  0.999764  0.500332  1
