# generated using pymatgen
data_LuMn2SiC
_symmetry_space_group_name_H-M   'P 1'
_cell_length_a   5.57292556
_cell_length_b   5.57292611
_cell_length_c   6.94619300
_cell_angle_alpha   90.00000000
_cell_angle_beta   90.00000000
_cell_angle_gamma   141.99598642
_symmetry_Int_Tables_number   1
_chemical_formula_structural   LuMn2SiC
_chemical_formula_sum   'Lu2 Mn4 Si2 C2'
_cell_volume   132.82942348
_cell_formula_units_Z   2
loop_
 _symmetry_equiv_pos_site_id
 _symmetry_equiv_pos_as_xyz
  1  'x, y, z'
loop_
 _atom_site_type_symbol
 _atom_site_label
 _atom_site_symmetry_multiplicity
 _atom_site_fract_x
 _atom_site_fract_y
 _atom_site_fract_z
 _atom_site_occupancy
  Lu  Lu0  1  0.542712  0.457288  0.250000  1
  Lu  Lu1  1  0.457288  0.542712  0.750000  1
  Mn  Mn2  1  0.831874  0.168126  0.060747  1
  Mn  Mn3  1  0.168126  0.831874  0.939253  1
  Mn  Mn4  1  0.168126  0.831874  0.560747  1
  Mn  Mn5  1  0.831874  0.168126  0.439253  1
  Si  Si6  1  0.263429  0.736571  0.250000  1
  Si  Si7  1  0.736571  0.263429  0.750000  1
  C  C8  1  0.000000  0.000000  0.000000  1
  C  C9  1  0.000000  0.000000  0.500000  1
