# generated using pymatgen
data_Li4Ac3YbSi8
_symmetry_space_group_name_H-M   'P 1'
_cell_length_a   3.95564700
_cell_length_b   7.99703795
_cell_length_c   10.95986747
_cell_angle_alpha   90.09483538
_cell_angle_beta   90.00000000
_cell_angle_gamma   90.00000000
_symmetry_Int_Tables_number   1
_chemical_formula_structural   Li4Ac3YbSi8
_chemical_formula_sum   'Li4 Ac3 Yb1 Si8'
_cell_volume   346.69804524
_cell_formula_units_Z   1
loop_
 _symmetry_equiv_pos_site_id
 _symmetry_equiv_pos_as_xyz
  1  'x, y, z'
loop_
 _atom_site_type_symbol
 _atom_site_label
 _atom_site_symmetry_multiplicity
 _atom_site_fract_x
 _atom_site_fract_y
 _atom_site_fract_z
 _atom_site_occupancy
  Li  Li0  1  0.250000  0.998942  0.390351  1
  Li  Li1  1  0.250000  0.499600  0.114517  1
  Li  Li2  1  0.750000  0.000986  0.606354  1
  Li  Li3  1  0.750000  0.502693  0.889584  1
  Ac  Ac4  1  0.250000  0.138675  0.866980  1
  Ac  Ac5  1  0.250000  0.632333  0.630230  1
  Ac  Ac6  1  0.750000  0.865728  0.134508  1
  Yb  Yb7  1  0.750000  0.366015  0.369619  1
  Si  Si8  1  0.250000  0.225307  0.567131  1
  Si  Si9  1  0.250000  0.720519  0.924729  1
  Si  Si10  1  0.750000  0.771877  0.424036  1
  Si  Si11  1  0.750000  0.283734  0.080754  1
  Si  Si12  1  0.250000  0.662423  0.324731  1
  Si  Si13  1  0.250000  0.175437  0.180815  1
  Si  Si14  1  0.750000  0.326047  0.672412  1
  Si  Si15  1  0.750000  0.829683  0.823250  1
