# generated using pymatgen
data_La2NiH8Ir
_symmetry_space_group_name_H-M   'P 1'
_cell_length_a   4.02046636
_cell_length_b   4.97487100
_cell_length_c   6.39068659
_cell_angle_alpha   90.00000000
_cell_angle_beta   107.21822774
_cell_angle_gamma   90.00000000
_symmetry_Int_Tables_number   1
_chemical_formula_structural   La2NiH8Ir
_chemical_formula_sum   'La2 Ni1 H8 Ir1'
_cell_volume   122.09360683
_cell_formula_units_Z   1
loop_
 _symmetry_equiv_pos_site_id
 _symmetry_equiv_pos_as_xyz
  1  'x, y, z'
loop_
 _atom_site_type_symbol
 _atom_site_label
 _atom_site_symmetry_multiplicity
 _atom_site_fract_x
 _atom_site_fract_y
 _atom_site_fract_z
 _atom_site_occupancy
  La  La0  1  0.142667  0.249999  0.271349  1
  La  La1  1  0.874488  0.749999  0.745236  1
  Ni  Ni2  1  0.325499  0.249999  0.788043  1
  H  H3  1  0.495903  0.003483  0.989200  1
  H  H4  1  0.495903  0.496517  0.989200  1
  H  H5  1  0.071050  0.749999  0.181450  1
  H  H6  1  0.694510  0.506206  0.383955  1
  H  H7  1  0.694510  0.993795  0.383955  1
  H  H8  1  0.320193  0.999880  0.620692  1
  H  H9  1  0.320193  0.500120  0.620692  1
  H  H10  1  0.953440  0.249999  0.838911  1
  Ir  Ir11  1  0.611641  0.749999  0.187321  1
