# generated using pymatgen
data_Tb5Y15Co3Bi8Ru
_symmetry_space_group_name_H-M   'P 1'
_cell_length_a   8.04739516
_cell_length_b   8.91080184
_cell_length_c   12.45571359
_cell_angle_alpha   89.95212573
_cell_angle_beta   90.20446362
_cell_angle_gamma   89.98601416
_symmetry_Int_Tables_number   1
_chemical_formula_structural   Tb5Y15Co3Bi8Ru
_chemical_formula_sum   'Tb5 Y15 Co3 Bi8 Ru1'
_cell_volume   893.17754684
_cell_formula_units_Z   1
loop_
 _symmetry_equiv_pos_site_id
 _symmetry_equiv_pos_as_xyz
  1  'x, y, z'
loop_
 _atom_site_type_symbol
 _atom_site_label
 _atom_site_symmetry_multiplicity
 _atom_site_fract_x
 _atom_site_fract_y
 _atom_site_fract_z
 _atom_site_occupancy
  Tb  Tb0  1  0.323235  0.532569  0.436711  1
  Tb  Tb1  1  0.823352  0.035102  0.062746  1
  Tb  Tb2  1  0.677856  0.460029  0.564315  1
  Tb  Tb3  1  0.822953  0.465219  0.062752  1
  Tb  Tb4  1  0.176113  0.533329  0.937279  1
  Y  Y5  1  0.847407  0.749824  0.800028  1
  Y  Y6  1  0.151851  0.250045  0.198596  1
  Y  Y7  1  0.348128  0.249971  0.699432  1
  Y  Y8  1  0.653059  0.749857  0.296247  1
  Y  Y9  1  0.377461  0.750024  0.694211  1
  Y  Y10  1  0.619699  0.249793  0.308926  1
  Y  Y11  1  0.880197  0.250063  0.809671  1
  Y  Y12  1  0.119574  0.750049  0.189238  1
  Y  Y13  1  0.952138  0.749488  0.503312  1
  Y  Y14  1  0.047153  0.250636  0.497143  1
  Y  Y15  1  0.454574  0.250287  0.997660  1
  Y  Y16  1  0.546177  0.749774  0.002389  1
  Y  Y17  1  0.677766  0.041314  0.564619  1
  Y  Y18  1  0.323115  0.966417  0.436157  1
  Y  Y19  1  0.176358  0.966265  0.936682  1
  Co  Co20  1  0.435999  0.251135  0.490660  1
  Co  Co21  1  0.059161  0.250710  0.991872  1
  Co  Co22  1  0.939130  0.749757  0.007763  1
  Bi  Bi23  1  0.571756  0.491870  0.826655  1
  Bi  Bi24  1  0.427674  0.507650  0.173585  1
  Bi  Bi25  1  0.071899  0.507438  0.674499  1
  Bi  Bi26  1  0.427727  0.992276  0.173545  1
  Bi  Bi27  1  0.929191  0.492170  0.325723  1
  Bi  Bi28  1  0.571231  0.008021  0.826802  1
  Bi  Bi29  1  0.929727  0.007780  0.326206  1
  Bi  Bi30  1  0.071354  0.992475  0.674222  1
  Ru  Ru31  1  0.566984  0.748661  0.510357  1
