# generated using pymatgen
data_Nd8In4Pd7Au
_symmetry_space_group_name_H-M   'P 1'
_cell_length_a   7.93944028
_cell_length_b   7.93944005
_cell_length_c   7.76219090
_cell_angle_alpha   90.00926017
_cell_angle_beta   90.00925955
_cell_angle_gamma   89.80253715
_symmetry_Int_Tables_number   1
_chemical_formula_structural   Nd8In4Pd7Au
_chemical_formula_sum   'Nd8 In4 Pd7 Au1'
_cell_volume   489.28453517
_cell_formula_units_Z   1
loop_
 _symmetry_equiv_pos_site_id
 _symmetry_equiv_pos_as_xyz
  1  'x, y, z'
loop_
 _atom_site_type_symbol
 _atom_site_label
 _atom_site_symmetry_multiplicity
 _atom_site_fract_x
 _atom_site_fract_y
 _atom_site_fract_z
 _atom_site_occupancy
  Nd  Nd0  1  0.821834  0.172697  0.502884  1
  Nd  Nd1  1  0.172697  0.821834  0.502884  1
  Nd  Nd2  1  0.329651  0.329651  0.997032  1
  Nd  Nd3  1  0.675003  0.675003  0.999356  1
  Nd  Nd4  1  0.676173  0.676173  0.500404  1
  Nd  Nd5  1  0.327957  0.327957  0.502533  1
  Nd  Nd6  1  0.173846  0.820097  0.997361  1
  Nd  Nd7  1  0.820097  0.173846  0.997361  1
  In  In8  1  0.504002  0.997593  0.250118  1
  In  In9  1  0.999891  0.497175  0.750436  1
  In  In10  1  0.497175  0.999891  0.750436  1
  In  In11  1  0.997593  0.504002  0.250118  1
  Pd  Pd12  1  0.626552  0.375250  0.251613  1
  Pd  Pd13  1  0.375250  0.626552  0.251613  1
  Pd  Pd14  1  0.126945  0.126945  0.752051  1
  Pd  Pd15  1  0.874975  0.874975  0.751436  1
  Pd  Pd16  1  0.376725  0.627305  0.747999  1
  Pd  Pd17  1  0.627305  0.376725  0.747999  1
  Pd  Pd18  1  0.872718  0.872718  0.248539  1
  Au  Au19  1  0.123608  0.123608  0.247824  1
