# generated using pymatgen
data_Ho3In3Cu2Pd
_symmetry_space_group_name_H-M   'P 1'
_cell_length_a   7.55021300
_cell_length_b   7.55021352
_cell_length_c   3.89008400
_cell_angle_alpha   90.00000000
_cell_angle_beta   90.00000000
_cell_angle_gamma   120.00001085
_symmetry_Int_Tables_number   1
_chemical_formula_structural   Ho3In3Cu2Pd
_chemical_formula_sum   'Ho3 In3 Cu2 Pd1'
_cell_volume   192.04720948
_cell_formula_units_Z   1
loop_
 _symmetry_equiv_pos_site_id
 _symmetry_equiv_pos_as_xyz
  1  'x, y, z'
loop_
 _atom_site_type_symbol
 _atom_site_label
 _atom_site_symmetry_multiplicity
 _atom_site_fract_x
 _atom_site_fract_y
 _atom_site_fract_z
 _atom_site_occupancy
  Ho  Ho0  1  0.002557  0.591509  0.500000  1
  Ho  Ho1  1  0.408491  0.411048  0.500000  1
  Ho  Ho2  1  0.588952  0.997443  0.500000  1
  In  In3  1  0.749242  0.745620  0.000000  1
  In  In4  1  0.996378  0.250758  0.000000  1
  In  In5  1  0.254380  0.003622  0.000000  1
  Cu  Cu6  1  0.000000  0.000000  0.500000  1
  Cu  Cu7  1  0.666667  0.333333  0.000000  1
  Pd  Pd8  1  0.333333  0.666667  0.000000  1
