# generated using pymatgen
data_NaEr(CuSb)2
_symmetry_space_group_name_H-M   'P 1'
_cell_length_a   4.40838500
_cell_length_b   4.40838440
_cell_length_c   8.20419700
_cell_angle_alpha   90.00000000
_cell_angle_beta   90.00000000
_cell_angle_gamma   119.99999697
_symmetry_Int_Tables_number   1
_chemical_formula_structural   NaEr(CuSb)2
_chemical_formula_sum   'Na1 Er1 Cu2 Sb2'
_cell_volume   138.07838486
_cell_formula_units_Z   1
loop_
 _symmetry_equiv_pos_site_id
 _symmetry_equiv_pos_as_xyz
  1  'x, y, z'
loop_
 _atom_site_type_symbol
 _atom_site_label
 _atom_site_symmetry_multiplicity
 _atom_site_fract_x
 _atom_site_fract_y
 _atom_site_fract_z
 _atom_site_occupancy
  Na  Na0  1  0.000000  0.000000  0.500000  1
  Er  Er1  1  0.000000  0.000000  0.000000  1
  Cu  Cu2  1  0.666666  0.333334  0.209843  1
  Cu  Cu3  1  0.333334  0.666667  0.790158  1
  Sb  Sb4  1  0.333334  0.666667  0.237492  1
  Sb  Sb5  1  0.666666  0.333334  0.762508  1
