# generated using pymatgen
data_Dy4Ho8GaCo5
_symmetry_space_group_name_H-M   'P 1'
_cell_length_a   8.21157088
_cell_length_b   8.21157024
_cell_length_c   8.21157069
_cell_angle_alpha   107.03679971
_cell_angle_beta   110.51079569
_cell_angle_gamma   110.89339842
_symmetry_Int_Tables_number   1
_chemical_formula_structural   Dy4Ho8GaCo5
_chemical_formula_sum   'Dy4 Ho8 Ga1 Co5'
_cell_volume   425.66351525
_cell_formula_units_Z   1
loop_
 _symmetry_equiv_pos_site_id
 _symmetry_equiv_pos_as_xyz
  1  'x, y, z'
loop_
 _atom_site_type_symbol
 _atom_site_label
 _atom_site_symmetry_multiplicity
 _atom_site_fract_x
 _atom_site_fract_y
 _atom_site_fract_z
 _atom_site_occupancy
  Dy  Dy0  1  0.191118  0.211701  0.402819  1
  Dy  Dy1  1  0.808882  0.788299  0.597181  1
  Dy  Dy2  1  0.191118  0.788299  0.979416  1
  Dy  Dy3  1  0.808882  0.211701  0.020584  1
  Ho  Ho4  1  0.478971  0.292216  0.186755  1
  Ho  Ho5  1  0.105460  0.292216  0.813245  1
  Ho  Ho6  1  0.894540  0.707784  0.186755  1
  Ho  Ho7  1  0.521029  0.707784  0.813245  1
  Ho  Ho8  1  0.302976  0.618513  0.315536  1
  Ho  Ho9  1  0.302976  0.987440  0.684464  1
  Ho  Ho10  1  0.697024  0.381487  0.684464  1
  Ho  Ho11  1  0.697024  0.012560  0.315536  1
  Ga  Ga12  1  0.000000  0.500000  0.500000  1
  Co  Co13  1  0.500000  0.613585  0.113585  1
  Co  Co14  1  0.500000  0.386415  0.886415  1
  Co  Co15  1  0.377957  0.000000  0.377957  1
  Co  Co16  1  0.622043  0.000000  0.622043  1
  Co  Co17  1  0.000000  0.000000  0.000000  1
