# generated using pymatgen
data_Pr5Nd5Sn2(Bi2Br)2
_symmetry_space_group_name_H-M   'P 1'
_cell_length_a   9.68943800
_cell_length_b   9.62464898
_cell_length_c   6.75647800
_cell_angle_alpha   90.00000000
_cell_angle_beta   90.00000000
_cell_angle_gamma   120.22292268
_symmetry_Int_Tables_number   1
_chemical_formula_structural   Pr5Nd5Sn2(Bi2Br)2
_chemical_formula_sum   'Pr5 Nd5 Sn2 Bi4 Br2'
_cell_volume   544.44565189
_cell_formula_units_Z   1
loop_
 _symmetry_equiv_pos_site_id
 _symmetry_equiv_pos_as_xyz
  1  'x, y, z'
loop_
 _atom_site_type_symbol
 _atom_site_label
 _atom_site_symmetry_multiplicity
 _atom_site_fract_x
 _atom_site_fract_y
 _atom_site_fract_z
 _atom_site_occupancy
  Pr  Pr0  1  0.725196  0.000000  0.250000  1
  Pr  Pr1  1  0.995253  0.267060  0.750000  1
  Pr  Pr2  1  0.004634  0.733187  0.250000  1
  Pr  Pr3  1  0.728192  0.732940  0.750000  1
  Pr  Pr4  1  0.271449  0.266813  0.250000  1
  Nd  Nd5  1  0.275353  0.000000  0.750000  1
  Nd  Nd6  1  0.335579  0.671478  0.500105  1
  Nd  Nd7  1  0.664102  0.328522  0.500105  1
  Nd  Nd8  1  0.664102  0.328522  0.999895  1
  Nd  Nd9  1  0.335579  0.671478  0.999895  1
  Sn  Sn10  1  0.612672  0.000000  0.750000  1
  Sn  Sn11  1  0.386271  0.000000  0.250000  1
  Bi  Bi12  1  0.999682  0.615835  0.750000  1
  Bi  Bi13  1  0.000950  0.385180  0.250000  1
  Bi  Bi14  1  0.383847  0.384165  0.750000  1
  Bi  Bi15  1  0.615770  0.614820  0.250000  1
  Br  Br16  1  0.000684  0.000000  0.500586  1
  Br  Br17  1  0.000684  0.000000  0.999414  1
