# generated using pymatgen
data_Lu8B24Ir2OsW
_symmetry_space_group_name_H-M   'P 1'
_cell_length_a   3.59550300
_cell_length_b   9.06693435
_cell_length_c   11.43813634
_cell_angle_alpha   90.24883917
_cell_angle_beta   90.00000000
_cell_angle_gamma   90.00000000
_symmetry_Int_Tables_number   1
_chemical_formula_structural   Lu8B24Ir2OsW
_chemical_formula_sum   'Lu8 B24 Ir2 Os1 W1'
_cell_volume   372.88189708
_cell_formula_units_Z   1
loop_
 _symmetry_equiv_pos_site_id
 _symmetry_equiv_pos_as_xyz
  1  'x, y, z'
loop_
 _atom_site_type_symbol
 _atom_site_label
 _atom_site_symmetry_multiplicity
 _atom_site_fract_x
 _atom_site_fract_y
 _atom_site_fract_z
 _atom_site_occupancy
  Lu  Lu0  1  0.000000  0.315510  0.409093  1
  Lu  Lu1  1  0.000000  0.682131  0.586963  1
  Lu  Lu2  1  0.000000  0.823810  0.084293  1
  Lu  Lu3  1  0.000000  0.177343  0.917837  1
  Lu  Lu4  1  0.000000  0.945572  0.374334  1
  Lu  Lu5  1  0.000000  0.054485  0.628028  1
  Lu  Lu6  1  0.000000  0.444124  0.124892  1
  Lu  Lu7  1  0.000000  0.558488  0.873658  1
  B  B8  1  0.500000  0.552906  0.434903  1
  B  B9  1  0.500000  0.445818  0.565198  1
  B  B10  1  0.500000  0.050880  0.063697  1
  B  B11  1  0.500000  0.946009  0.932492  1
  B  B12  1  0.500000  0.749874  0.422160  1
  B  B13  1  0.500000  0.249382  0.578715  1
  B  B14  1  0.500000  0.251425  0.077518  1
  B  B15  1  0.500000  0.751507  0.919691  1
  B  B16  1  0.500000  0.791829  0.266082  1
  B  B17  1  0.500000  0.208122  0.735843  1
  B  B18  1  0.500000  0.295855  0.236373  1
  B  B19  1  0.500000  0.707083  0.764460  1
  B  B20  1  0.500000  0.631938  0.183469  1
  B  B21  1  0.500000  0.369291  0.817043  1
  B  B22  1  0.500000  0.131263  0.317780  1
  B  B23  1  0.500000  0.868302  0.684022  1
  B  B24  1  0.500000  0.977887  0.213867  1
  B  B25  1  0.500000  0.017995  0.786693  1
  B  B26  1  0.500000  0.481339  0.287602  1
  B  B27  1  0.500000  0.519000  0.712491  1
  B  B28  1  0.500000  0.606562  0.028784  1
  B  B29  1  0.500000  0.396540  0.969562  1
  B  B30  1  0.500000  0.105619  0.472902  1
  B  B31  1  0.500000  0.893437  0.529735  1
  Ir  Ir32  1  0.000000  0.637343  0.322457  1
  Ir  Ir33  1  0.000000  0.362838  0.678636  1
  Os  Os34  1  0.000000  0.860863  0.819310  1
  W  W35  1  0.000000  0.137629  0.179419  1
