# generated using pymatgen
data_TbDy(Bi3O7)2
_symmetry_space_group_name_H-M   'P 1'
_cell_length_a   6.66112742
_cell_length_b   6.86488383
_cell_length_c   7.85841038
_cell_angle_alpha   106.63649092
_cell_angle_beta   89.39140146
_cell_angle_gamma   99.28130852
_symmetry_Int_Tables_number   1
_chemical_formula_structural   TbDy(Bi3O7)2
_chemical_formula_sum   'Tb1 Dy1 Bi6 O14'
_cell_volume   339.55838318
_cell_formula_units_Z   1
loop_
 _symmetry_equiv_pos_site_id
 _symmetry_equiv_pos_as_xyz
  1  'x, y, z'
loop_
 _atom_site_type_symbol
 _atom_site_label
 _atom_site_symmetry_multiplicity
 _atom_site_fract_x
 _atom_site_fract_y
 _atom_site_fract_z
 _atom_site_occupancy
  Tb  Tb0  1  0.460215  0.002617  0.248574  1
  Dy  Dy1  1  0.539569  0.997083  0.751357  1
  Bi  Bi2  1  0.999968  0.999949  0.500239  1
  Bi  Bi3  1  0.000077  0.999998  0.999713  1
  Bi  Bi4  1  0.260626  0.515893  0.877966  1
  Bi  Bi5  1  0.739443  0.483862  0.121876  1
  Bi  Bi6  1  0.722255  0.464022  0.608383  1
  Bi  Bi7  1  0.277717  0.536165  0.391898  1
  O  O8  1  0.464321  0.656769  0.183291  1
  O  O9  1  0.535675  0.341857  0.816396  1
  O  O10  1  0.303422  0.943154  0.952753  1
  O  O11  1  0.696820  0.056999  0.046040  1
  O  O12  1  0.296987  0.918695  0.512470  1
  O  O13  1  0.703201  0.081418  0.488568  1
  O  O14  1  0.530977  0.350948  0.352459  1
  O  O15  1  0.469443  0.650304  0.648015  1
  O  O16  1  0.915253  0.676097  0.961841  1
  O  O17  1  0.084825  0.323964  0.038199  1
  O  O18  1  0.097988  0.325100  0.622117  1
  O  O19  1  0.902123  0.674994  0.377856  1
  O  O20  1  0.877912  0.933197  0.732924  1
  O  O21  1  0.121183  0.066915  0.267064  1
