# generated using pymatgen
data_NdSc3(Co4P3)2
_symmetry_space_group_name_H-M   'P 1'
_cell_length_a   12.20140600
_cell_length_b   12.20140415
_cell_length_c   3.68708900
_cell_angle_alpha   90.00000000
_cell_angle_beta   90.00000000
_cell_angle_gamma   119.99999959
_symmetry_Int_Tables_number   1
_chemical_formula_structural   NdSc3(Co4P3)2
_chemical_formula_sum   'Nd2 Sc6 Co16 P12'
_cell_volume   475.37238065
_cell_formula_units_Z   2
loop_
 _symmetry_equiv_pos_site_id
 _symmetry_equiv_pos_as_xyz
  1  'x, y, z'
loop_
 _atom_site_type_symbol
 _atom_site_label
 _atom_site_symmetry_multiplicity
 _atom_site_fract_x
 _atom_site_fract_y
 _atom_site_fract_z
 _atom_site_occupancy
  Nd  Nd0  1  0.333333  0.666667  0.000000  1
  Nd  Nd1  1  0.666667  0.333333  0.000000  1
  Sc  Sc2  1  0.816038  0.000000  0.500000  1
  Sc  Sc3  1  0.000000  0.816038  0.500000  1
  Sc  Sc4  1  0.183962  0.183962  0.500000  1
  Sc  Sc5  1  0.441900  0.000000  0.000000  1
  Sc  Sc6  1  0.000000  0.441900  0.000000  1
  Sc  Sc7  1  0.558100  0.558100  0.000000  1
  Co  Co8  1  0.272661  0.000000  0.500000  1
  Co  Co9  1  0.000000  0.272661  0.500000  1
  Co  Co10  1  0.727339  0.727339  0.500000  1
  Co  Co11  1  0.633091  0.808960  0.000000  1
  Co  Co12  1  0.191040  0.824131  0.000000  1
  Co  Co13  1  0.175869  0.366909  0.000000  1
  Co  Co14  1  0.366909  0.175869  0.000000  1
  Co  Co15  1  0.808960  0.633091  0.000000  1
  Co  Co16  1  0.824131  0.191040  0.000000  1
  Co  Co17  1  0.525585  0.878492  0.500000  1
  Co  Co18  1  0.121508  0.647093  0.500000  1
  Co  Co19  1  0.352907  0.474415  0.500000  1
  Co  Co20  1  0.474415  0.352907  0.500000  1
  Co  Co21  1  0.878492  0.525585  0.500000  1
  Co  Co22  1  0.647093  0.121508  0.500000  1
  Co  Co23  1  0.000000  0.000000  0.000000  1
  P  P24  1  0.173486  0.000000  0.000000  1
  P  P25  1  0.000000  0.173486  0.000000  1
  P  P26  1  0.826514  0.826514  0.000000  1
  P  P27  1  0.528145  0.695611  0.500000  1
  P  P28  1  0.304389  0.832534  0.500000  1
  P  P29  1  0.167466  0.471855  0.500000  1
  P  P30  1  0.471855  0.167466  0.500000  1
  P  P31  1  0.695611  0.528145  0.500000  1
  P  P32  1  0.832534  0.304389  0.500000  1
  P  P33  1  0.650206  0.000000  0.000000  1
  P  P34  1  0.000000  0.650206  0.000000  1
  P  P35  1  0.349794  0.349794  0.000000  1
