# generated using pymatgen
data_Tb2TaNb3(B2Ru5)2
_symmetry_space_group_name_H-M   'P 1'
_cell_length_a   9.58697122
_cell_length_b   9.58910210
_cell_length_c   3.08905800
_cell_angle_alpha   90.00000000
_cell_angle_beta   90.00000000
_cell_angle_gamma   90.76891318
_symmetry_Int_Tables_number   1
_chemical_formula_structural   Tb2TaNb3(B2Ru5)2
_chemical_formula_sum   'Tb2 Ta1 Nb3 B4 Ru10'
_cell_volume   283.95290756
_cell_formula_units_Z   1
loop_
 _symmetry_equiv_pos_site_id
 _symmetry_equiv_pos_as_xyz
  1  'x, y, z'
loop_
 _atom_site_type_symbol
 _atom_site_label
 _atom_site_symmetry_multiplicity
 _atom_site_fract_x
 _atom_site_fract_y
 _atom_site_fract_z
 _atom_site_occupancy
  Tb  Tb0  1  0.823810  0.676420  0.000000  1
  Tb  Tb1  1  0.176190  0.323580  0.000000  1
  Ta  Ta2  1  0.000000  0.000000  0.000000  1
  Nb  Nb3  1  0.324697  0.825142  0.000000  1
  Nb  Nb4  1  0.675303  0.174858  0.000000  1
  Nb  Nb5  1  0.500000  0.500000  0.000000  1
  B  B6  1  0.620190  0.879847  0.000000  1
  B  B7  1  0.379810  0.120153  0.000000  1
  B  B8  1  0.121511  0.621540  0.000000  1
  B  B9  1  0.878489  0.378460  0.000000  1
  Ru  Ru10  1  0.559237  0.723375  0.500000  1
  Ru  Ru11  1  0.440763  0.276625  0.500000  1
  Ru  Ru12  1  0.081694  0.785513  0.500000  1
  Ru  Ru13  1  0.918306  0.214487  0.500000  1
  Ru  Ru14  1  0.285091  0.582146  0.500000  1
  Ru  Ru15  1  0.714909  0.417854  0.500000  1
  Ru  Ru16  1  0.222867  0.059349  0.500000  1
  Ru  Ru17  1  0.777133  0.940651  0.500000  1
  Ru  Ru18  1  0.500000  0.000000  0.500000  1
  Ru  Ru19  1  0.000000  0.500000  0.500000  1
