# generated using pymatgen
data_Ce7Mg(Si4W3)4
_symmetry_space_group_name_H-M   'P 1'
_cell_length_a   6.88952342
_cell_length_b   6.95611476
_cell_length_c   12.96255932
_cell_angle_alpha   90.23871868
_cell_angle_beta   89.95134493
_cell_angle_gamma   90.20752720
_symmetry_Int_Tables_number   1
_chemical_formula_structural   Ce7Mg(Si4W3)4
_chemical_formula_sum   'Ce7 Mg1 Si16 W12'
_cell_volume   621.21210008
_cell_formula_units_Z   1
loop_
 _symmetry_equiv_pos_site_id
 _symmetry_equiv_pos_as_xyz
  1  'x, y, z'
loop_
 _atom_site_type_symbol
 _atom_site_label
 _atom_site_symmetry_multiplicity
 _atom_site_fract_x
 _atom_site_fract_y
 _atom_site_fract_z
 _atom_site_occupancy
  Ce  Ce0  1  0.495160  0.661985  0.592175  1
  Ce  Ce1  1  0.995858  0.838787  0.909139  1
  Ce  Ce2  1  0.506560  0.338641  0.092403  1
  Ce  Ce3  1  0.003615  0.164214  0.409390  1
  Ce  Ce4  1  0.506326  0.339565  0.410918  1
  Ce  Ce5  1  0.006775  0.160591  0.091379  1
  Ce  Ce6  1  0.493097  0.662280  0.905298  1
  Mg  Mg7  1  0.979911  0.831694  0.592924  1
  Si  Si8  1  0.656857  0.954324  0.453733  1
  Si  Si9  1  0.158619  0.546681  0.047154  1
  Si  Si10  1  0.346176  0.048859  0.951071  1
  Si  Si11  1  0.846681  0.461962  0.548965  1
  Si  Si12  1  0.333219  0.038756  0.548860  1
  Si  Si13  1  0.842018  0.454225  0.953341  1
  Si  Si14  1  0.657304  0.952548  0.046863  1
  Si  Si15  1  0.156703  0.549809  0.454643  1
  Si  Si16  1  0.464150  0.361186  0.750641  1
  Si  Si17  1  0.966392  0.126888  0.746375  1
  Si  Si18  1  0.538506  0.636234  0.251644  1
  Si  Si19  1  0.037682  0.867305  0.250617  1
  Si  Si20  1  0.696653  0.866423  0.746662  1
  Si  Si21  1  0.186729  0.636861  0.744850  1
  Si  Si22  1  0.307679  0.133708  0.250847  1
  Si  Si23  1  0.808172  0.370172  0.250891  1
  W  W24  1  0.669895  0.160867  0.624352  1
  W  W25  1  0.166151  0.339519  0.871958  1
  W  W26  1  0.331776  0.840358  0.126653  1
  W  W27  1  0.832930  0.662937  0.375018  1
  W  W28  1  0.329035  0.839965  0.373946  1
  W  W29  1  0.831835  0.662122  0.127119  1
  W  W30  1  0.677486  0.159336  0.871501  1
  W  W31  1  0.168048  0.335528  0.627136  1
  W  W32  1  0.833565  0.494316  0.750627  1
  W  W33  1  0.331376  0.998226  0.749230  1
  W  W34  1  0.169493  0.503341  0.250639  1
  W  W35  1  0.667572  0.999792  0.251040  1
