# generated using pymatgen
data_YEr11Os3Pd
_symmetry_space_group_name_H-M   'P 1'
_cell_length_a   6.36787191
_cell_length_b   7.30980370
_cell_length_c   8.98118600
_cell_angle_alpha   90.00000000
_cell_angle_beta   90.00000000
_cell_angle_gamma   90.22201824
_symmetry_Int_Tables_number   1
_chemical_formula_structural   YEr11Os3Pd
_chemical_formula_sum   'Y1 Er11 Os3 Pd1'
_cell_volume   418.05215254
_cell_formula_units_Z   1
loop_
 _symmetry_equiv_pos_site_id
 _symmetry_equiv_pos_as_xyz
  1  'x, y, z'
loop_
 _atom_site_type_symbol
 _atom_site_label
 _atom_site_symmetry_multiplicity
 _atom_site_fract_x
 _atom_site_fract_y
 _atom_site_fract_z
 _atom_site_occupancy
  Y  Y0  1  0.873879  0.531913  0.250000  1
  Er  Er1  1  0.338900  0.670006  0.057538  1
  Er  Er2  1  0.171805  0.183833  0.442163  1
  Er  Er3  1  0.670682  0.322757  0.562772  1
  Er  Er4  1  0.823075  0.823501  0.931992  1
  Er  Er5  1  0.670682  0.322757  0.937228  1
  Er  Er6  1  0.823075  0.823501  0.568008  1
  Er  Er7  1  0.338900  0.670006  0.442462  1
  Er  Er8  1  0.171805  0.183833  0.057837  1
  Er  Er9  1  0.620701  0.039292  0.250000  1
  Er  Er10  1  0.122353  0.463262  0.750000  1
  Er  Er11  1  0.370009  0.962408  0.750000  1
  Os  Os12  1  0.460556  0.383267  0.250000  1
  Os  Os13  1  0.963659  0.114842  0.750000  1
  Os  Os14  1  0.532759  0.614614  0.750000  1
  Pd  Pd15  1  0.047158  0.890207  0.250000  1
