# generated using pymatgen
data_Ho8Ti7Ge16Mo5
_symmetry_space_group_name_H-M   'P 1'
_cell_length_a   6.91556190
_cell_length_b   7.09122945
_cell_length_c   13.38463809
_cell_angle_alpha   90.04842922
_cell_angle_beta   89.95021366
_cell_angle_gamma   89.97435442
_symmetry_Int_Tables_number   1
_chemical_formula_structural   Ho8Ti7Ge16Mo5
_chemical_formula_sum   'Ho8 Ti7 Ge16 Mo5'
_cell_volume   656.37991069
_cell_formula_units_Z   1
loop_
 _symmetry_equiv_pos_site_id
 _symmetry_equiv_pos_as_xyz
  1  'x, y, z'
loop_
 _atom_site_type_symbol
 _atom_site_label
 _atom_site_symmetry_multiplicity
 _atom_site_fract_x
 _atom_site_fract_y
 _atom_site_fract_z
 _atom_site_occupancy
  Ho  Ho0  1  0.499377  0.327353  0.096183  1
  Ho  Ho1  1  0.998360  0.173116  0.403917  1
  Ho  Ho2  1  0.501271  0.674525  0.595606  1
  Ho  Ho3  1  0.000876  0.827696  0.904208  1
  Ho  Ho4  1  0.500044  0.672060  0.903022  1
  Ho  Ho5  1  0.003459  0.829804  0.595408  1
  Ho  Ho6  1  0.498357  0.326053  0.406081  1
  Ho  Ho7  1  0.999144  0.173294  0.096715  1
  Ti  Ti8  1  0.837717  0.330260  0.627054  1
  Ti  Ti9  1  0.332130  0.169219  0.872015  1
  Ti  Ti10  1  0.166009  0.668647  0.127171  1
  Ti  Ti11  1  0.665644  0.832041  0.373157  1
  Ti  Ti12  1  0.165569  0.669058  0.373912  1
  Ti  Ti13  1  0.666246  0.831431  0.127354  1
  Ti  Ti14  1  0.833498  0.329777  0.871381  1
  Ge  Ge15  1  0.667689  0.041413  0.544436  1
  Ge  Ge16  1  0.169326  0.457143  0.955966  1
  Ge  Ge17  1  0.330325  0.957876  0.043841  1
  Ge  Ge18  1  0.829799  0.541329  0.456327  1
  Ge  Ge19  1  0.328297  0.956753  0.456836  1
  Ge  Ge20  1  0.831283  0.542091  0.044389  1
  Ge  Ge21  1  0.668013  0.041678  0.955850  1
  Ge  Ge22  1  0.171496  0.458373  0.543712  1
  Ge  Ge23  1  0.531664  0.371504  0.748938  1
  Ge  Ge24  1  0.033332  0.126517  0.750518  1
  Ge  Ge25  1  0.467159  0.628323  0.250503  1
  Ge  Ge26  1  0.967712  0.872134  0.250278  1
  Ge  Ge27  1  0.803283  0.634814  0.748960  1
  Ge  Ge28  1  0.304635  0.865785  0.750352  1
  Ge  Ge29  1  0.198380  0.365270  0.250566  1
  Ge  Ge30  1  0.696928  0.135003  0.250233  1
  Mo  Mo31  1  0.332156  0.167652  0.626725  1
  Mo  Mo32  1  0.662810  0.012507  0.749064  1
  Mo  Mo33  1  0.161255  0.487184  0.748765  1
  Mo  Mo34  1  0.337726  0.990680  0.250305  1
  Mo  Mo35  1  0.839031  0.511636  0.250253  1
