# generated using pymatgen
data_Hf3Al2GaIr2Pt
_symmetry_space_group_name_H-M   'P 1'
_cell_length_a   7.18343130
_cell_length_b   7.18343011
_cell_length_c   6.95761900
_cell_angle_alpha   90.00000000
_cell_angle_beta   90.00000000
_cell_angle_gamma   119.54230358
_symmetry_Int_Tables_number   1
_chemical_formula_structural   Hf3Al2GaIr2Pt
_chemical_formula_sum   'Hf6 Al4 Ga2 Ir4 Pt2'
_cell_volume   312.34866783
_cell_formula_units_Z   2
loop_
 _symmetry_equiv_pos_site_id
 _symmetry_equiv_pos_as_xyz
  1  'x, y, z'
loop_
 _atom_site_type_symbol
 _atom_site_label
 _atom_site_symmetry_multiplicity
 _atom_site_fract_x
 _atom_site_fract_y
 _atom_site_fract_z
 _atom_site_occupancy
  Hf  Hf0  1  0.408455  0.403535  0.250000  1
  Hf  Hf1  1  0.596112  0.993711  0.750000  1
  Hf  Hf2  1  0.403535  0.408455  0.750000  1
  Hf  Hf3  1  0.004206  0.600642  0.750000  1
  Hf  Hf4  1  0.993711  0.596112  0.250000  1
  Hf  Hf5  1  0.600642  0.004206  0.250000  1
  Al  Al6  1  0.265589  0.002844  0.999924  1
  Al  Al7  1  0.265589  0.002844  0.500076  1
  Al  Al8  1  0.002844  0.265589  0.499924  1
  Al  Al9  1  0.002844  0.265589  0.000076  1
  Ga  Ga10  1  0.731406  0.731406  0.000000  1
  Ga  Ga11  1  0.731406  0.731406  0.500000  1
  Ir  Ir12  1  0.665516  0.327606  0.507641  1
  Ir  Ir13  1  0.665516  0.327606  0.992359  1
  Ir  Ir14  1  0.327606  0.665516  0.007641  1
  Ir  Ir15  1  0.327606  0.665516  0.492359  1
  Pt  Pt16  1  0.003787  0.003631  0.750000  1
  Pt  Pt17  1  0.003631  0.003787  0.250000  1
