# generated using pymatgen
data_Al4OsRuPt2
_symmetry_space_group_name_H-M   'P 1'
_cell_length_a   5.95366400
_cell_length_b   5.96349300
_cell_length_c   6.27361600
_cell_angle_alpha   89.99962566
_cell_angle_beta   90.00013179
_cell_angle_gamma   90.00053848
_symmetry_Int_Tables_number   1
_chemical_formula_structural   Al4OsRuPt2
_chemical_formula_sum   'Al8 Os2 Ru2 Pt4'
_cell_volume   222.74243735
_cell_formula_units_Z   2
loop_
 _symmetry_equiv_pos_site_id
 _symmetry_equiv_pos_as_xyz
  1  'x, y, z'
loop_
 _atom_site_type_symbol
 _atom_site_label
 _atom_site_symmetry_multiplicity
 _atom_site_fract_x
 _atom_site_fract_y
 _atom_site_fract_z
 _atom_site_occupancy
  Al  Al0  1  0.000001  0.000001  0.250696  1
  Al  Al1  1  0.000001  0.500000  0.250696  1
  Al  Al2  1  0.500002  0.999999  0.250827  1
  Al  Al3  1  0.500002  0.499999  0.250827  1
  Al  Al4  1  0.500000  0.000001  0.749173  1
  Al  Al5  1  0.500000  0.499999  0.749173  1
  Al  Al6  1  0.999999  0.999999  0.749304  1
  Al  Al7  1  0.999999  0.500000  0.749304  1
  Os  Os8  1  0.749971  0.250000  0.000000  1
  Os  Os9  1  0.250029  0.750000  0.000000  1
  Ru  Ru10  1  0.249959  0.750000  0.499999  1
  Ru  Ru11  1  0.750039  0.250000  0.500001  1
  Pt  Pt12  1  0.250068  0.250001  0.000002  1
  Pt  Pt13  1  0.750068  0.750000  0.499996  1
  Pt  Pt14  1  0.249930  0.250000  0.500003  1
  Pt  Pt15  1  0.749932  0.749999  0.999998  1
