# generated using pymatgen
data_NdDy(SiTc2)4
_symmetry_space_group_name_H-M   'P 1'
_cell_length_a   4.16400400
_cell_length_b   7.22053079
_cell_length_c   15.38714774
_cell_angle_alpha   90.29052921
_cell_angle_beta   90.00000000
_cell_angle_gamma   90.00000000
_symmetry_Int_Tables_number   1
_chemical_formula_structural   NdDy(SiTc2)4
_chemical_formula_sum   'Nd2 Dy2 Si8 Tc16'
_cell_volume   462.62894647
_cell_formula_units_Z   2
loop_
 _symmetry_equiv_pos_site_id
 _symmetry_equiv_pos_as_xyz
  1  'x, y, z'
loop_
 _atom_site_type_symbol
 _atom_site_label
 _atom_site_symmetry_multiplicity
 _atom_site_fract_x
 _atom_site_fract_y
 _atom_site_fract_z
 _atom_site_occupancy
  Nd  Nd0  1  0.500000  0.081044  0.381226  1
  Nd  Nd1  1  0.500000  0.918956  0.618774  1
  Dy  Dy2  1  0.000000  0.581022  0.116197  1
  Dy  Dy3  1  0.000000  0.418978  0.883803  1
  Si  Si4  1  0.000000  0.825975  0.474671  1
  Si  Si5  1  0.000000  0.174025  0.525329  1
  Si  Si6  1  0.500000  0.331509  0.023487  1
  Si  Si7  1  0.500000  0.668491  0.976513  1
  Si  Si8  1  0.000000  0.296115  0.270665  1
  Si  Si9  1  0.000000  0.703885  0.729335  1
  Si  Si10  1  0.500000  0.791300  0.224151  1
  Si  Si11  1  0.500000  0.208700  0.775849  1
  Tc  Tc12  1  0.000000  0.142243  0.051367  1
  Tc  Tc13  1  0.000000  0.857757  0.948633  1
  Tc  Tc14  1  0.500000  0.638130  0.447517  1
  Tc  Tc15  1  0.500000  0.361870  0.552483  1
  Tc  Tc16  1  0.000000  0.729403  0.318593  1
  Tc  Tc17  1  0.000000  0.270597  0.681407  1
  Tc  Tc18  1  0.500000  0.233679  0.177436  1
  Tc  Tc19  1  0.500000  0.766321  0.822564  1
  Tc  Tc20  1  0.000000  0.434502  0.418648  1
  Tc  Tc21  1  0.000000  0.565498  0.581352  1
  Tc  Tc22  1  0.500000  0.934476  0.080599  1
  Tc  Tc23  1  0.500000  0.065524  0.919401  1
  Tc  Tc24  1  0.000000  0.988181  0.203715  1
  Tc  Tc25  1  0.000000  0.011819  0.796285  1
  Tc  Tc26  1  0.500000  0.490993  0.292501  1
  Tc  Tc27  1  0.500000  0.509007  0.707499  1
