# generated using pymatgen
data_Y11Te4
_symmetry_space_group_name_H-M   'P 1'
_cell_length_a   15.82882876
_cell_length_b   15.82882885
_cell_length_c   21.80228300
_cell_angle_alpha   77.30945023
_cell_angle_beta   77.30945015
_cell_angle_gamma   14.68248235
_symmetry_Int_Tables_number   1
_chemical_formula_structural   Y11Te4
_chemical_formula_sum   'Y33 Te12'
_cell_volume   1350.17069931
_cell_formula_units_Z   3
loop_
 _symmetry_equiv_pos_site_id
 _symmetry_equiv_pos_as_xyz
  1  'x, y, z'
loop_
 _atom_site_type_symbol
 _atom_site_label
 _atom_site_symmetry_multiplicity
 _atom_site_fract_x
 _atom_site_fract_y
 _atom_site_fract_z
 _atom_site_occupancy
  Y  Y0  1  0.746386  0.746386  0.073694  1
  Y  Y1  1  0.032038  0.032038  0.165925  1
  Y  Y2  1  0.967962  0.967962  0.834075  1
  Y  Y3  1  0.166595  0.166595  0.437515  1
  Y  Y4  1  0.576525  0.576525  0.036234  1
  Y  Y5  1  0.714179  0.714179  0.540904  1
  Y  Y6  1  0.394947  0.394947  0.773610  1
  Y  Y7  1  0.756125  0.756125  0.346550  1
  Y  Y8  1  0.562696  0.562696  0.411939  1
  Y  Y9  1  0.537308  0.537308  0.691996  1
  Y  Y10  1  0.423475  0.423475  0.963766  1
  Y  Y11  1  0.868638  0.868638  0.092819  1
  Y  Y12  1  0.132984  0.132984  0.631091  1
  Y  Y13  1  0.605053  0.605053  0.226390  1
  Y  Y14  1  0.131362  0.131362  0.907181  1
  Y  Y15  1  0.833405  0.833405  0.562485  1
  Y  Y16  1  0.437304  0.437304  0.588061  1
  Y  Y17  1  0.253614  0.253614  0.926306  1
  Y  Y18  1  0.968281  0.968281  0.445724  1
  Y  Y19  1  0.205195  0.205195  0.226762  1
  Y  Y20  1  0.285821  0.285821  0.459096  1
  Y  Y21  1  0.867016  0.867016  0.368909  1
  Y  Y22  1  0.000000  0.000000  0.000000  1
  Y  Y23  1  0.794805  0.794805  0.773238  1
  Y  Y24  1  0.462692  0.462692  0.308004  1
  Y  Y25  1  0.658711  0.658711  0.749174  1
  Y  Y26  1  0.341289  0.341289  0.250826  1
  Y  Y27  1  0.545785  0.545785  0.880113  1
  Y  Y28  1  0.151727  0.151727  0.098344  1
  Y  Y29  1  0.848273  0.848273  0.901656  1
  Y  Y30  1  0.454215  0.454215  0.119887  1
  Y  Y31  1  0.031719  0.031719  0.554276  1
  Y  Y32  1  0.243875  0.243875  0.653450  1
  Te  Te33  1  0.782812  0.782812  0.196760  1
  Te  Te34  1  0.960975  0.960975  0.687577  1
  Te  Te35  1  0.609338  0.609338  0.532552  1
  Te  Te36  1  0.217188  0.217188  0.803240  1
  Te  Te37  1  0.080829  0.080829  0.772236  1
  Te  Te38  1  0.390662  0.390662  0.467448  1
  Te  Te39  1  0.039025  0.039025  0.312423  1
  Te  Te40  1  0.658376  0.658376  0.330523  1
  Te  Te41  1  0.919171  0.919171  0.227764  1
  Te  Te42  1  0.679966  0.679966  0.983729  1
  Te  Te43  1  0.320034  0.320034  0.016271  1
  Te  Te44  1  0.341624  0.341624  0.669477  1
