# generated using pymatgen
data_Ba12Pr3Y(Fe4O15)2
_symmetry_space_group_name_H-M   'P 1'
_cell_length_a   6.11225562
_cell_length_b   8.24625684
_cell_length_c   18.92972012
_cell_angle_alpha   89.16236818
_cell_angle_beta   90.16707923
_cell_angle_gamma   89.99201215
_symmetry_Int_Tables_number   1
_chemical_formula_structural   Ba12Pr3Y(Fe4O15)2
_chemical_formula_sum   'Ba12 Pr3 Y1 Fe8 O30'
_cell_volume   954.01299943
_cell_formula_units_Z   1
loop_
 _symmetry_equiv_pos_site_id
 _symmetry_equiv_pos_as_xyz
  1  'x, y, z'
loop_
 _atom_site_type_symbol
 _atom_site_label
 _atom_site_symmetry_multiplicity
 _atom_site_fract_x
 _atom_site_fract_y
 _atom_site_fract_z
 _atom_site_occupancy
  Ba  Ba0  1  0.283239  0.998236  0.248343  1
  Ba  Ba1  1  0.720337  0.998295  0.753691  1
  Ba  Ba2  1  0.346755  0.499553  0.249841  1
  Ba  Ba3  1  0.660364  0.503788  0.752275  1
  Ba  Ba4  1  0.751833  0.972112  0.088041  1
  Ba  Ba5  1  0.756810  0.030720  0.406649  1
  Ba  Ba6  1  0.245438  0.025403  0.909160  1
  Ba  Ba7  1  0.243361  0.967801  0.593908  1
  Ba  Ba8  1  0.244824  0.504469  0.577994  1
  Ba  Ba9  1  0.241194  0.498892  0.920090  1
  Ba  Ba10  1  0.756688  0.494091  0.422205  1
  Ba  Ba11  1  0.751413  0.506953  0.075122  1
  Pr  Pr12  1  0.253113  0.755126  0.408442  1
  Pr  Pr13  1  0.249900  0.247426  0.090371  1
  Pr  Pr14  1  0.747572  0.243748  0.592936  1
  Y  Y15  1  0.744773  0.753346  0.909518  1
  Fe  Fe16  1  0.251487  0.755713  0.057172  1
  Fe  Fe17  1  0.255561  0.244520  0.439622  1
  Fe  Fe18  1  0.740045  0.246586  0.937530  1
  Fe  Fe19  1  0.745595  0.754424  0.561507  1
  Fe  Fe20  1  0.786895  0.769956  0.263190  1
  Fe  Fe21  1  0.787145  0.230068  0.234419  1
  Fe  Fe22  1  0.215053  0.229853  0.736405  1
  Fe  Fe23  1  0.218866  0.770109  0.767359  1
  O  O24  1  0.794167  0.000365  0.249794  1
  O  O25  1  0.204828  0.999521  0.751878  1
  O  O26  1  0.774455  0.949420  0.614602  1
  O  O27  1  0.762623  0.039654  0.891588  1
  O  O28  1  0.227082  0.048554  0.387017  1
  O  O29  1  0.224613  0.952149  0.108920  1
  O  O30  1  0.230152  0.535902  0.088454  1
  O  O31  1  0.230315  0.465800  0.408999  1
  O  O32  1  0.758548  0.472702  0.910288  1
  O  O33  1  0.770108  0.533430  0.592823  1
  O  O34  1  0.075129  0.727563  0.295444  1
  O  O35  1  0.075754  0.272372  0.203167  1
  O  O36  1  0.924248  0.271730  0.706599  1
  O  O37  1  0.940147  0.726646  0.807424  1
  O  O38  1  0.584910  0.742718  0.340586  1
  O  O39  1  0.584040  0.257557  0.157501  1
  O  O40  1  0.413421  0.254713  0.658540  1
  O  O41  1  0.438304  0.745589  0.839833  1
  O  O42  1  0.477301  0.763247  0.510148  1
  O  O43  1  0.478499  0.235711  0.991172  1
  O  O44  1  0.524296  0.235962  0.490850  1
  O  O45  1  0.517365  0.765625  0.003846  1
  O  O46  1  0.018855  0.770810  0.988401  1
  O  O47  1  0.029817  0.227225  0.509547  1
  O  O48  1  0.971024  0.231384  0.006087  1
  O  O49  1  0.970625  0.771629  0.491505  1
  O  O50  1  0.324507  0.688977  0.682982  1
  O  O51  1  0.341199  0.308695  0.818755  1
  O  O52  1  0.669588  0.309465  0.317928  1
  O  O53  1  0.665821  0.693698  0.179530  1
