# generated using pymatgen
data_Hf8ScRe3PW
_symmetry_space_group_name_H-M   'P 1'
_cell_length_a   8.63621843
_cell_length_b   8.61821164
_cell_length_c   8.54104900
_cell_angle_alpha   90.00000000
_cell_angle_beta   90.00000000
_cell_angle_gamma   119.93105396
_symmetry_Int_Tables_number   1
_chemical_formula_structural   Hf8ScRe3PW
_chemical_formula_sum   'Hf16 Sc2 Re6 P2 W2'
_cell_volume   550.91414540
_cell_formula_units_Z   2
loop_
 _symmetry_equiv_pos_site_id
 _symmetry_equiv_pos_as_xyz
  1  'x, y, z'
loop_
 _atom_site_type_symbol
 _atom_site_label
 _atom_site_symmetry_multiplicity
 _atom_site_fract_x
 _atom_site_fract_y
 _atom_site_fract_z
 _atom_site_occupancy
  Hf  Hf0  1  0.197208  0.804780  0.451382  1
  Hf  Hf1  1  0.197208  0.392428  0.451382  1
  Hf  Hf2  1  0.607718  0.803859  0.450119  1
  Hf  Hf3  1  0.803453  0.197049  0.548789  1
  Hf  Hf4  1  0.803453  0.606404  0.548789  1
  Hf  Hf5  1  0.390475  0.195237  0.550150  1
  Hf  Hf6  1  0.803453  0.197049  0.951211  1
  Hf  Hf7  1  0.803453  0.606404  0.951211  1
  Hf  Hf8  1  0.390475  0.195237  0.949850  1
  Hf  Hf9  1  0.197208  0.804780  0.048618  1
  Hf  Hf10  1  0.197208  0.392428  0.048618  1
  Hf  Hf11  1  0.607718  0.803859  0.049881  1
  Hf  Hf12  1  0.927514  0.463757  0.250000  1
  Hf  Hf13  1  0.460149  0.540878  0.750000  1
  Hf  Hf14  1  0.460149  0.919271  0.750000  1
  Hf  Hf15  1  0.079747  0.539873  0.750000  1
  Sc  Sc16  1  0.542207  0.458637  0.250000  1
  Sc  Sc17  1  0.542207  0.083570  0.250000  1
  Re  Re18  1  0.889589  0.110902  0.250000  1
  Re  Re19  1  0.889589  0.778686  0.250000  1
  Re  Re20  1  0.220813  0.110405  0.250000  1
  Re  Re21  1  0.108435  0.888387  0.750000  1
  Re  Re22  1  0.108435  0.220048  0.750000  1
  Re  Re23  1  0.778651  0.889327  0.750000  1
  P  P24  1  0.330242  0.665121  0.250000  1
  P  P25  1  0.664323  0.332161  0.750000  1
  W  W26  1  0.999462  0.999731  0.498236  1
  W  W27  1  0.999462  0.999731  0.001764  1
