# generated using pymatgen
data_W(S4F3)2
_symmetry_space_group_name_H-M   'P 1'
_cell_length_a   8.11734295
_cell_length_b   8.13288048
_cell_length_c   12.96790136
_cell_angle_alpha   96.93158827
_cell_angle_beta   99.90646357
_cell_angle_gamma   90.09976201
_symmetry_Int_Tables_number   1
_chemical_formula_structural   W(S4F3)2
_chemical_formula_sum   'W2 S16 F12'
_cell_volume   836.95652549
_cell_formula_units_Z   2
loop_
 _symmetry_equiv_pos_site_id
 _symmetry_equiv_pos_as_xyz
  1  'x, y, z'
loop_
 _atom_site_type_symbol
 _atom_site_label
 _atom_site_symmetry_multiplicity
 _atom_site_fract_x
 _atom_site_fract_y
 _atom_site_fract_z
 _atom_site_occupancy
  W  W0  1  0.712561  0.222292  0.895161  1
  W  W1  1  0.287439  0.777708  0.104839  1
  S  S2  1  0.443376  0.753040  0.660467  1
  S  S3  1  0.556624  0.246960  0.339533  1
  S  S4  1  0.276412  0.905485  0.582015  1
  S  S5  1  0.723588  0.094515  0.417985  1
  S  S6  1  0.095647  0.972916  0.672113  1
  S  S7  1  0.904353  0.027084  0.327887  1
  S  S8  1  0.886842  0.821456  0.620688  1
  S  S9  1  0.113158  0.178544  0.379312  1
  S  S10  1  0.893914  0.633109  0.714740  1
  S  S11  1  0.106086  0.366891  0.285260  1
  S  S12  1  0.989686  0.425043  0.641887  1
  S  S13  1  0.010314  0.574957  0.358113  1
  S  S14  1  0.240360  0.414491  0.703961  1
  S  S15  1  0.759640  0.585509  0.296039  1
  S  S16  1  0.620911  0.490947  0.395218  1
  S  S17  1  0.379089  0.509053  0.604782  1
  F  F18  1  0.748619  0.248516  0.043275  1
  F  F19  1  0.251381  0.751484  0.956725  1
  F  F20  1  0.674634  0.196145  0.746752  1
  F  F21  1  0.325366  0.803855  0.253248  1
  F  F22  1  0.489750  0.154944  0.892273  1
  F  F23  1  0.510250  0.845056  0.107727  1
  F  F24  1  0.646913  0.444121  0.895267  1
  F  F25  1  0.353087  0.555879  0.104733  1
  F  F26  1  0.935463  0.289253  0.897868  1
  F  F27  1  0.064537  0.710747  0.102132  1
  F  F28  1  0.779379  0.000728  0.893905  1
  F  F29  1  0.220621  0.999272  0.106095  1
