# generated using pymatgen
data_Tb8YRh6
_symmetry_space_group_name_H-M   'P 1'
_cell_length_a   7.40838368
_cell_length_b   7.40888710
_cell_length_c   7.40968614
_cell_angle_alpha   71.50486975
_cell_angle_beta   71.56377665
_cell_angle_gamma   71.55405462
_symmetry_Int_Tables_number   1
_chemical_formula_structural   Tb8YRh6
_chemical_formula_sum   'Tb8 Y1 Rh6'
_cell_volume   355.18982361
_cell_formula_units_Z   1
loop_
 _symmetry_equiv_pos_site_id
 _symmetry_equiv_pos_as_xyz
  1  'x, y, z'
loop_
 _atom_site_type_symbol
 _atom_site_label
 _atom_site_symmetry_multiplicity
 _atom_site_fract_x
 _atom_site_fract_y
 _atom_site_fract_z
 _atom_site_occupancy
  Tb  Tb0  1  0.999588  0.000877  0.999376  1
  Tb  Tb1  1  0.795919  0.796788  0.796460  1
  Tb  Tb2  1  0.203988  0.204241  0.202558  1
  Tb  Tb3  1  0.160366  0.393254  0.666411  1
  Tb  Tb4  1  0.666381  0.160240  0.392488  1
  Tb  Tb5  1  0.393343  0.666466  0.161656  1
  Tb  Tb6  1  0.839455  0.606767  0.333930  1
  Tb  Tb7  1  0.333522  0.839265  0.605923  1
  Y  Y8  1  0.606692  0.335088  0.838843  1
  Rh  Rh9  1  0.958128  0.164169  0.589662  1
  Rh  Rh10  1  0.589889  0.955009  0.165923  1
  Rh  Rh11  1  0.164609  0.592697  0.956929  1
  Rh  Rh12  1  0.043689  0.834053  0.409153  1
  Rh  Rh13  1  0.407749  0.041408  0.835525  1
  Rh  Rh14  1  0.836686  0.409678  0.045160  1
