# generated using pymatgen
data_Ta6Nb4Si5Ge
_symmetry_space_group_name_H-M   'P 1'
_cell_length_a   7.57999688
_cell_length_b   7.57105295
_cell_length_c   7.57075063
_cell_angle_alpha   128.19314079
_cell_angle_beta   128.22443431
_cell_angle_gamma   76.27302506
_symmetry_Int_Tables_number   1
_chemical_formula_structural   Ta6Nb4Si5Ge
_chemical_formula_sum   'Ta6 Nb4 Si5 Ge1'
_cell_volume   260.72190301
_cell_formula_units_Z   1
loop_
 _symmetry_equiv_pos_site_id
 _symmetry_equiv_pos_as_xyz
  1  'x, y, z'
loop_
 _atom_site_type_symbol
 _atom_site_label
 _atom_site_symmetry_multiplicity
 _atom_site_fract_x
 _atom_site_fract_y
 _atom_site_fract_z
 _atom_site_occupancy
  Ta  Ta0  1  0.688643  0.518221  0.505696  1
  Ta  Ta1  1  0.981753  0.810949  0.494392  1
  Ta  Ta2  1  0.315633  0.486713  0.504818  1
  Ta  Ta3  1  0.810865  0.316693  0.828943  1
  Ta  Ta4  1  0.501278  0.500942  0.000317  1
  Ta  Ta5  1  0.999518  0.999804  0.999713  1
  Nb  Nb6  1  0.014793  0.184178  0.495777  1
  Nb  Nb7  1  0.518957  0.013720  0.830737  1
  Nb  Nb8  1  0.183740  0.688384  0.169490  1
  Nb  Nb9  1  0.485593  0.981032  0.170010  1
  Si  Si10  1  0.129594  0.629938  0.759518  1
  Si  Si11  1  0.630237  0.870039  0.500300  1
  Si  Si12  1  0.370038  0.129754  0.500124  1
  Si  Si13  1  0.869771  0.369894  0.240037  1
  Si  Si14  1  0.749746  0.749641  0.999833  1
  Ge  Ge15  1  0.249840  0.250099  0.000295  1
