# generated using pymatgen
data_Ti10CoGeSb4
_symmetry_space_group_name_H-M   'P 1'
_cell_length_a   5.14647634
_cell_length_b   7.80678537
_cell_length_c   7.80678536
_cell_angle_alpha   83.76270530
_cell_angle_beta   70.75454253
_cell_angle_gamma   70.75455617
_symmetry_Int_Tables_number   1
_chemical_formula_structural   Ti10CoGeSb4
_chemical_formula_sum   'Ti10 Co1 Ge1 Sb4'
_cell_volume   279.57892753
_cell_formula_units_Z   1
loop_
 _symmetry_equiv_pos_site_id
 _symmetry_equiv_pos_as_xyz
  1  'x, y, z'
loop_
 _atom_site_type_symbol
 _atom_site_label
 _atom_site_symmetry_multiplicity
 _atom_site_fract_x
 _atom_site_fract_y
 _atom_site_fract_z
 _atom_site_occupancy
  Ti  Ti0  1  0.250000  0.500000  0.500000  1
  Ti  Ti1  1  0.750000  0.500000  0.500000  1
  Ti  Ti2  1  0.067854  0.137357  0.718180  1
  Ti  Ti3  1  0.923391  0.862643  0.281820  1
  Ti  Ti4  1  0.786034  0.281820  0.137357  1
  Ti  Ti5  1  0.432146  0.281820  0.862643  1
  Ti  Ti6  1  0.205212  0.718180  0.862643  1
  Ti  Ti7  1  0.576609  0.718180  0.137357  1
  Ti  Ti8  1  0.713966  0.862643  0.718180  1
  Ti  Ti9  1  0.294788  0.137357  0.281820  1
  Co  Co10  1  0.750000  0.000000  0.000000  1
  Ge  Ge11  1  0.250000  0.000000  0.000000  1
  Sb  Sb12  1  0.164354  0.500000  0.171293  1
  Sb  Sb13  1  0.835646  0.500000  0.828707  1
  Sb  Sb14  1  0.335646  0.828707  0.500000  1
  Sb  Sb15  1  0.664354  0.171293  0.500000  1
