# generated using pymatgen
data_Sc22FeRu4Rh3
_symmetry_space_group_name_H-M   'P 1'
_cell_length_a   9.45822133
_cell_length_b   9.44740326
_cell_length_c   9.43579071
_cell_angle_alpha   60.11646830
_cell_angle_beta   60.00264094
_cell_angle_gamma   60.11438218
_symmetry_Int_Tables_number   1
_chemical_formula_structural   Sc22FeRu4Rh3
_chemical_formula_sum   'Sc22 Fe1 Ru4 Rh3'
_cell_volume   597.24073111
_cell_formula_units_Z   1
loop_
 _symmetry_equiv_pos_site_id
 _symmetry_equiv_pos_as_xyz
  1  'x, y, z'
loop_
 _atom_site_type_symbol
 _atom_site_label
 _atom_site_symmetry_multiplicity
 _atom_site_fract_x
 _atom_site_fract_y
 _atom_site_fract_z
 _atom_site_occupancy
  Sc  Sc0  1  0.802931  0.802931  0.197069  1
  Sc  Sc1  1  0.196937  0.803063  0.197815  1
  Sc  Sc2  1  0.803666  0.196334  0.197419  1
  Sc  Sc3  1  0.197069  0.197069  0.802931  1
  Sc  Sc4  1  0.803063  0.196937  0.802185  1
  Sc  Sc5  1  0.196334  0.803666  0.802581  1
  Sc  Sc6  1  0.613601  0.616182  0.156939  1
  Sc  Sc7  1  0.615551  0.156759  0.615023  1
  Sc  Sc8  1  0.156759  0.615551  0.612668  1
  Sc  Sc9  1  0.616182  0.613601  0.613279  1
  Sc  Sc10  1  0.386399  0.383818  0.843061  1
  Sc  Sc11  1  0.384449  0.843241  0.384977  1
  Sc  Sc12  1  0.843241  0.384449  0.387332  1
  Sc  Sc13  1  0.383818  0.386399  0.386721  1
  Sc  Sc14  1  0.845027  0.841872  0.471599  1
  Sc  Sc15  1  0.844113  0.472212  0.840381  1
  Sc  Sc16  1  0.472212  0.844113  0.843293  1
  Sc  Sc17  1  0.841872  0.845027  0.841500  1
  Sc  Sc18  1  0.154973  0.158128  0.528401  1
  Sc  Sc19  1  0.155887  0.527788  0.159619  1
  Sc  Sc20  1  0.527788  0.155887  0.156707  1
  Sc  Sc21  1  0.158128  0.154973  0.158500  1
  Fe  Fe22  1  0.500000  0.500000  0.500000  1
  Ru  Ru23  1  0.000000  0.000000  0.000000  1
  Ru  Ru24  1  0.000000  0.000000  0.500000  1
  Ru  Ru25  1  0.000000  0.500000  0.500000  1
  Ru  Ru26  1  0.500000  0.000000  0.000000  1
  Rh  Rh27  1  0.500000  0.000000  0.500000  1
  Rh  Rh28  1  0.500000  0.500000  0.000000  1
  Rh  Rh29  1  0.000000  0.500000  0.000000  1
