# generated using pymatgen
data_Lu9Si4B16Ru
_symmetry_space_group_name_H-M   'P 1'
_cell_length_a   7.04677900
_cell_length_b   7.04677900
_cell_length_c   7.64475200
_cell_angle_alpha   90.00000000
_cell_angle_beta   90.00000000
_cell_angle_gamma   90.00000000
_symmetry_Int_Tables_number   1
_chemical_formula_structural   Lu9Si4B16Ru
_chemical_formula_sum   'Lu9 Si4 B16 Ru1'
_cell_volume   379.61617077
_cell_formula_units_Z   1
loop_
 _symmetry_equiv_pos_site_id
 _symmetry_equiv_pos_as_xyz
  1  'x, y, z'
loop_
 _atom_site_type_symbol
 _atom_site_label
 _atom_site_symmetry_multiplicity
 _atom_site_fract_x
 _atom_site_fract_y
 _atom_site_fract_z
 _atom_site_occupancy
  Lu  Lu0  1  0.680764  0.179025  0.230997  1
  Lu  Lu1  1  0.319236  0.820975  0.769003  1
  Lu  Lu2  1  0.319236  0.820975  0.230997  1
  Lu  Lu3  1  0.820975  0.680764  0.230997  1
  Lu  Lu4  1  0.820975  0.680764  0.769003  1
  Lu  Lu5  1  0.680764  0.179025  0.769003  1
  Lu  Lu6  1  0.179025  0.319236  0.769003  1
  Lu  Lu7  1  0.179025  0.319236  0.230997  1
  Lu  Lu8  1  0.500000  0.500000  0.500000  1
  Si  Si9  1  0.111070  0.631828  0.500000  1
  Si  Si10  1  0.888930  0.368172  0.500000  1
  Si  Si11  1  0.368172  0.111070  0.500000  1
  Si  Si12  1  0.631828  0.888930  0.500000  1
  B  B13  1  0.173703  0.039097  0.000000  1
  B  B14  1  0.826297  0.960903  0.000000  1
  B  B15  1  0.960903  0.173703  0.000000  1
  B  B16  1  0.327320  0.540654  0.000000  1
  B  B17  1  0.039097  0.826297  0.000000  1
  B  B18  1  0.672680  0.459346  0.000000  1
  B  B19  1  0.540654  0.672680  0.000000  1
  B  B20  1  0.459346  0.327320  0.000000  1
  B  B21  1  0.089298  0.589002  0.000000  1
  B  B22  1  0.910702  0.410998  0.000000  1
  B  B23  1  0.410998  0.089298  0.000000  1
  B  B24  1  0.589002  0.910702  0.000000  1
  B  B25  1  0.000000  0.000000  0.174160  1
  B  B26  1  0.000000  0.000000  0.825840  1
  B  B27  1  0.500000  0.500000  0.829929  1
  B  B28  1  0.500000  0.500000  0.170071  1
  Ru  Ru29  1  0.000000  0.000000  0.500000  1
