# generated using pymatgen
data_Dy2Tm2Co17(TcP4)3
_symmetry_space_group_name_H-M   'P 1'
_cell_length_a   3.68469000
_cell_length_b   10.31717615
_cell_length_c   11.76378088
_cell_angle_alpha   89.95954092
_cell_angle_beta   90.00000000
_cell_angle_gamma   90.00000000
_symmetry_Int_Tables_number   1
_chemical_formula_structural   Dy2Tm2Co17(TcP4)3
_chemical_formula_sum   'Dy2 Tm2 Co17 Tc3 P12'
_cell_volume   447.20702738
_cell_formula_units_Z   1
loop_
 _symmetry_equiv_pos_site_id
 _symmetry_equiv_pos_as_xyz
  1  'x, y, z'
loop_
 _atom_site_type_symbol
 _atom_site_label
 _atom_site_symmetry_multiplicity
 _atom_site_fract_x
 _atom_site_fract_y
 _atom_site_fract_z
 _atom_site_occupancy
  Dy  Dy0  1  0.250000  0.581809  0.702568  1
  Dy  Dy1  1  0.250000  0.915346  0.204990  1
  Tm  Tm2  1  0.750000  0.414837  0.296112  1
  Tm  Tm3  1  0.750000  0.083809  0.795174  1
  Co  Co4  1  0.750000  0.215815  0.509519  1
  Co  Co5  1  0.250000  0.405617  0.487244  1
  Co  Co6  1  0.250000  0.093191  0.987732  1
  Co  Co7  1  0.750000  0.591984  0.510094  1
  Co  Co8  1  0.750000  0.907632  0.010833  1
  Co  Co9  1  0.250000  0.220685  0.177313  1
  Co  Co10  1  0.250000  0.277375  0.676203  1
  Co  Co11  1  0.750000  0.778722  0.822610  1
  Co  Co12  1  0.750000  0.721272  0.323283  1
  Co  Co13  1  0.250000  0.887000  0.701674  1
  Co  Co14  1  0.250000  0.612820  0.202819  1
  Co  Co15  1  0.750000  0.116907  0.301330  1
  Co  Co16  1  0.750000  0.384901  0.797595  1
  Co  Co17  1  0.250000  0.463958  0.932191  1
  Co  Co18  1  0.250000  0.036392  0.432554  1
  Co  Co19  1  0.750000  0.535473  0.069238  1
  Co  Co20  1  0.750000  0.967442  0.569047  1
  Tc  Tc21  1  0.250000  0.711233  0.989182  1
  Tc  Tc22  1  0.250000  0.789243  0.489448  1
  Tc  Tc23  1  0.750000  0.288612  0.010505  1
  P  P24  1  0.250000  0.419365  0.114595  1
  P  P25  1  0.250000  0.081962  0.612653  1
  P  P26  1  0.750000  0.579062  0.886452  1
  P  P27  1  0.750000  0.921264  0.387419  1
  P  P28  1  0.250000  0.268715  0.864542  1
  P  P29  1  0.250000  0.231434  0.368824  1
  P  P30  1  0.750000  0.730284  0.134432  1
  P  P31  1  0.750000  0.770636  0.633048  1
  P  P32  1  0.250000  0.595037  0.391152  1
  P  P33  1  0.250000  0.904605  0.890184  1
  P  P34  1  0.750000  0.398295  0.606701  1
  P  P35  1  0.750000  0.097266  0.110739  1
