# generated using pymatgen
data_Dy(Zn2Pt)2
_symmetry_space_group_name_H-M   'P 1'
_cell_length_a   7.48715200
_cell_length_b   7.48715200
_cell_length_c   4.29932400
_cell_angle_alpha   90.00000000
_cell_angle_beta   90.00000000
_cell_angle_gamma   90.00000000
_symmetry_Int_Tables_number   1
_chemical_formula_structural   Dy(Zn2Pt)2
_chemical_formula_sum   'Dy2 Zn8 Pt4'
_cell_volume   241.00911897
_cell_formula_units_Z   2
loop_
 _symmetry_equiv_pos_site_id
 _symmetry_equiv_pos_as_xyz
  1  'x, y, z'
loop_
 _atom_site_type_symbol
 _atom_site_label
 _atom_site_symmetry_multiplicity
 _atom_site_fract_x
 _atom_site_fract_y
 _atom_site_fract_z
 _atom_site_occupancy
  Dy  Dy0  1  0.500000  0.500000  0.500000  1
  Dy  Dy1  1  0.000000  0.000000  0.000000  1
  Zn  Zn2  1  0.353814  0.100754  0.500000  1
  Zn  Zn3  1  0.646186  0.899246  0.500000  1
  Zn  Zn4  1  0.853814  0.399246  0.000000  1
  Zn  Zn5  1  0.146186  0.600754  0.000000  1
  Zn  Zn6  1  0.100754  0.353814  0.500000  1
  Zn  Zn7  1  0.899246  0.646186  0.500000  1
  Zn  Zn8  1  0.399246  0.853814  0.000000  1
  Zn  Zn9  1  0.600754  0.146186  0.000000  1
  Pt  Pt10  1  0.785420  0.214580  0.500000  1
  Pt  Pt11  1  0.214580  0.785420  0.500000  1
  Pt  Pt12  1  0.285420  0.285420  0.000000  1
  Pt  Pt13  1  0.714580  0.714580  0.000000  1
