# generated using pymatgen
data_Tb3ErAl18(Pd2Ru)2
_symmetry_space_group_name_H-M   'P 1'
_cell_length_a   7.60031797
_cell_length_b   7.60430640
_cell_length_c   9.51332400
_cell_angle_alpha   90.00000000
_cell_angle_beta   90.00000000
_cell_angle_gamma   119.39877146
_symmetry_Int_Tables_number   1
_chemical_formula_structural   Tb3ErAl18(Pd2Ru)2
_chemical_formula_sum   'Tb3 Er1 Al18 Pd4 Ru2'
_cell_volume   479.02001054
_cell_formula_units_Z   1
loop_
 _symmetry_equiv_pos_site_id
 _symmetry_equiv_pos_as_xyz
  1  'x, y, z'
loop_
 _atom_site_type_symbol
 _atom_site_label
 _atom_site_symmetry_multiplicity
 _atom_site_fract_x
 _atom_site_fract_y
 _atom_site_fract_z
 _atom_site_occupancy
  Tb  Tb0  1  0.994502  0.669810  0.250000  1
  Tb  Tb1  1  0.006003  0.330197  0.750000  1
  Tb  Tb2  1  0.669631  0.994089  0.250000  1
  Er  Er3  1  0.329473  0.005973  0.750000  1
  Al  Al4  1  0.124535  0.124224  0.250000  1
  Al  Al5  1  0.875962  0.875703  0.750000  1
  Al  Al6  1  0.000949  0.329857  0.075478  1
  Al  Al7  1  0.999856  0.670590  0.923656  1
  Al  Al8  1  0.999856  0.670590  0.576344  1
  Al  Al9  1  0.329964  0.000804  0.425262  1
  Al  Al10  1  0.000949  0.329857  0.424522  1
  Al  Al11  1  0.669240  0.999238  0.576333  1
  Al  Al12  1  0.669240  0.999238  0.923667  1
  Al  Al13  1  0.329964  0.000804  0.074738  1
  Al  Al14  1  0.328745  0.328218  0.554544  1
  Al  Al15  1  0.671533  0.671512  0.446811  1
  Al  Al16  1  0.671533  0.671512  0.053189  1
  Al  Al17  1  0.328745  0.328218  0.945456  1
  Al  Al18  1  0.342547  0.546908  0.250000  1
  Al  Al19  1  0.656770  0.451933  0.750000  1
  Al  Al20  1  0.546876  0.342131  0.250000  1
  Al  Al21  1  0.452575  0.658134  0.750000  1
  Pd  Pd22  1  0.672202  0.327912  0.999811  1
  Pd  Pd23  1  0.327805  0.672052  0.999836  1
  Pd  Pd24  1  0.327805  0.672052  0.500164  1
  Pd  Pd25  1  0.672202  0.327912  0.500189  1
  Ru  Ru26  1  0.000269  0.000267  0.999378  1
  Ru  Ru27  1  0.000269  0.000267  0.500622  1
