# generated using pymatgen
data_YLu3(InRh2)4
_symmetry_space_group_name_H-M   'P 1'
_cell_length_a   6.32797800
_cell_length_b   6.32787500
_cell_length_c   7.14441900
_cell_angle_alpha   90.00135690
_cell_angle_beta   89.99990193
_cell_angle_gamma   90.00199196
_symmetry_Int_Tables_number   1
_chemical_formula_structural   YLu3(InRh2)4
_chemical_formula_sum   'Y1 Lu3 In4 Rh8'
_cell_volume   286.08149653
_cell_formula_units_Z   1
loop_
 _symmetry_equiv_pos_site_id
 _symmetry_equiv_pos_as_xyz
  1  'x, y, z'
loop_
 _atom_site_type_symbol
 _atom_site_label
 _atom_site_symmetry_multiplicity
 _atom_site_fract_x
 _atom_site_fract_y
 _atom_site_fract_z
 _atom_site_occupancy
  Y  Y0  1  0.249969  0.750005  0.500011  1
  Lu  Lu1  1  0.749956  0.250000  0.999999  1
  Lu  Lu2  1  0.250039  0.749993  0.999994  1
  Lu  Lu3  1  0.750020  0.250000  0.500000  1
  In  In4  1  0.249998  0.249999  0.999998  1
  In  In5  1  0.750006  0.749999  0.999999  1
  In  In6  1  0.250004  0.250002  0.500001  1
  In  In7  1  0.749997  0.749999  0.499999  1
  Rh  Rh8  1  0.998091  0.001897  0.247350  1
  Rh  Rh9  1  0.998089  0.498104  0.247353  1
  Rh  Rh10  1  0.501911  0.001883  0.247397  1
  Rh  Rh11  1  0.501908  0.498116  0.247397  1
  Rh  Rh12  1  0.501926  0.001909  0.752606  1
  Rh  Rh13  1  0.501926  0.498099  0.752602  1
  Rh  Rh14  1  0.998072  0.001906  0.752644  1
  Rh  Rh15  1  0.998090  0.498090  0.752651  1
