# generated using pymatgen
data_Sm3Er5Re3B24Ru
_symmetry_space_group_name_H-M   'P 1'
_cell_length_a   3.68420000
_cell_length_b   9.17270519
_cell_length_c   11.58606127
_cell_angle_alpha   90.08485803
_cell_angle_beta   90.00000000
_cell_angle_gamma   90.00000000
_symmetry_Int_Tables_number   1
_chemical_formula_structural   Sm3Er5Re3B24Ru
_chemical_formula_sum   'Sm3 Er5 Re3 B24 Ru1'
_cell_volume   391.53985722
_cell_formula_units_Z   1
loop_
 _symmetry_equiv_pos_site_id
 _symmetry_equiv_pos_as_xyz
  1  'x, y, z'
loop_
 _atom_site_type_symbol
 _atom_site_label
 _atom_site_symmetry_multiplicity
 _atom_site_fract_x
 _atom_site_fract_y
 _atom_site_fract_z
 _atom_site_occupancy
  Sm  Sm0  1  0.000000  0.321478  0.414445  1
  Sm  Sm1  1  0.000000  0.677604  0.587507  1
  Sm  Sm2  1  0.000000  0.824100  0.084172  1
  Er  Er3  1  0.000000  0.176880  0.913884  1
  Er  Er4  1  0.000000  0.942009  0.369025  1
  Er  Er5  1  0.000000  0.056714  0.629975  1
  Er  Er6  1  0.000000  0.442533  0.130004  1
  Er  Er7  1  0.000000  0.556855  0.871054  1
  Re  Re8  1  0.000000  0.360741  0.680496  1
  Re  Re9  1  0.000000  0.138940  0.179367  1
  Re  Re10  1  0.000000  0.862416  0.820336  1
  B  B11  1  0.500000  0.554706  0.431319  1
  B  B12  1  0.500000  0.445685  0.568836  1
  B  B13  1  0.500000  0.054851  0.066423  1
  B  B14  1  0.500000  0.947997  0.931754  1
  B  B15  1  0.500000  0.749296  0.416747  1
  B  B16  1  0.500000  0.249625  0.583532  1
  B  B17  1  0.500000  0.250053  0.080781  1
  B  B18  1  0.500000  0.751188  0.917267  1
  B  B19  1  0.500000  0.790479  0.265456  1
  B  B20  1  0.500000  0.207548  0.735737  1
  B  B21  1  0.500000  0.291297  0.233715  1
  B  B22  1  0.500000  0.708634  0.766391  1
  B  B23  1  0.500000  0.630029  0.185723  1
  B  B24  1  0.500000  0.369178  0.815536  1
  B  B25  1  0.500000  0.129896  0.314135  1
  B  B26  1  0.500000  0.870580  0.686140  1
  B  B27  1  0.500000  0.983451  0.211891  1
  B  B28  1  0.500000  0.018811  0.787772  1
  B  B29  1  0.500000  0.484008  0.287093  1
  B  B30  1  0.500000  0.516993  0.713712  1
  B  B31  1  0.500000  0.598930  0.027880  1
  B  B32  1  0.500000  0.399259  0.972573  1
  B  B33  1  0.500000  0.097324  0.472500  1
  B  B34  1  0.500000  0.900968  0.527085  1
  Ru  Ru35  1  0.000000  0.638946  0.319736  1
