# generated using pymatgen
data_YHo3Mn2Pt2F28
_symmetry_space_group_name_H-M   'P 1'
_cell_length_a   5.48382287
_cell_length_b   8.78870045
_cell_length_c   11.84184629
_cell_angle_alpha   62.47092904
_cell_angle_beta   90.16416185
_cell_angle_gamma   90.19056762
_symmetry_Int_Tables_number   1
_chemical_formula_structural   YHo3Mn2Pt2F28
_chemical_formula_sum   'Y1 Ho3 Mn2 Pt2 F28'
_cell_volume   506.10281768
_cell_formula_units_Z   1
loop_
 _symmetry_equiv_pos_site_id
 _symmetry_equiv_pos_as_xyz
  1  'x, y, z'
loop_
 _atom_site_type_symbol
 _atom_site_label
 _atom_site_symmetry_multiplicity
 _atom_site_fract_x
 _atom_site_fract_y
 _atom_site_fract_z
 _atom_site_occupancy
  Y  Y0  1  0.236556  0.809578  0.768384  1
  Ho  Ho1  1  0.259489  0.816496  0.260012  1
  Ho  Ho2  1  0.740210  0.184439  0.740039  1
  Ho  Ho3  1  0.763427  0.190424  0.231698  1
  Mn  Mn4  1  0.757177  0.725800  0.043898  1
  Mn  Mn5  1  0.242910  0.273424  0.957253  1
  Pt  Pt6  1  0.260820  0.273331  0.456237  1
  Pt  Pt7  1  0.739580  0.726955  0.542648  1
  F  F8  1  0.928253  0.701840  0.411220  1
  F  F9  1  0.070918  0.298343  0.587400  1
  F  F10  1  0.441560  0.292763  0.074869  1
  F  F11  1  0.559981  0.706620  0.925802  1
  F  F12  1  0.486938  0.733499  0.133152  1
  F  F13  1  0.512944  0.266737  0.867415  1
  F  F14  1  0.961720  0.280161  0.361790  1
  F  F15  1  0.039600  0.718930  0.636546  1
  F  F16  1  0.954181  0.744102  0.164941  1
  F  F17  1  0.045364  0.255521  0.836038  1
  F  F18  1  0.444659  0.256039  0.319591  1
  F  F19  1  0.558281  0.743457  0.680139  1
  F  F20  1  0.766028  0.489609  0.136920  1
  F  F21  1  0.233100  0.509161  0.864017  1
  F  F22  1  0.279651  0.524843  0.355372  1
  F  F23  1  0.720362  0.475534  0.644004  1
  F  F24  1  0.964335  0.283520  0.042643  1
  F  F25  1  0.035836  0.715283  0.959199  1
  F  F26  1  0.431836  0.725242  0.456778  1
  F  F27  1  0.567452  0.275331  0.542863  1
  F  F28  1  0.745591  0.978418  0.448627  1
  F  F29  1  0.254886  0.022028  0.550040  1
  F  F30  1  0.240022  0.038223  0.048202  1
  F  F31  1  0.760440  0.961013  0.952359  1
  F  F32  1  0.588999  0.970937  0.230171  1
  F  F33  1  0.410188  0.031567  0.770237  1
  F  F34  1  0.086726  0.030350  0.269564  1
  F  F35  1  0.909980  0.970478  0.729935  1
