# generated using pymatgen
data_Sm2Ga9FePd2
_symmetry_space_group_name_H-M   'P 1'
_cell_length_a   7.62816826
_cell_length_b   7.62816793
_cell_length_c   9.57974300
_cell_angle_alpha   90.00000000
_cell_angle_beta   90.00000000
_cell_angle_gamma   119.93698188
_symmetry_Int_Tables_number   1
_chemical_formula_structural   Sm2Ga9FePd2
_chemical_formula_sum   'Sm4 Ga18 Fe2 Pd4'
_cell_volume   483.05928189
_cell_formula_units_Z   2
loop_
 _symmetry_equiv_pos_site_id
 _symmetry_equiv_pos_as_xyz
  1  'x, y, z'
loop_
 _atom_site_type_symbol
 _atom_site_label
 _atom_site_symmetry_multiplicity
 _atom_site_fract_x
 _atom_site_fract_y
 _atom_site_fract_z
 _atom_site_occupancy
  Sm  Sm0  1  0.996666  0.659402  0.250000  1
  Sm  Sm1  1  0.003334  0.340598  0.750000  1
  Sm  Sm2  1  0.659402  0.996666  0.250000  1
  Sm  Sm3  1  0.340598  0.003334  0.750000  1
  Ga  Ga4  1  0.106392  0.106392  0.250000  1
  Ga  Ga5  1  0.893608  0.893608  0.750000  1
  Ga  Ga6  1  0.000841  0.320692  0.077484  1
  Ga  Ga7  1  0.999159  0.679308  0.922516  1
  Ga  Ga8  1  0.999159  0.679308  0.577484  1
  Ga  Ga9  1  0.320692  0.000841  0.422516  1
  Ga  Ga10  1  0.000841  0.320692  0.422516  1
  Ga  Ga11  1  0.679308  0.999159  0.577484  1
  Ga  Ga12  1  0.679308  0.999159  0.922516  1
  Ga  Ga13  1  0.320692  0.000841  0.077484  1
  Ga  Ga14  1  0.319468  0.319468  0.561963  1
  Ga  Ga15  1  0.680532  0.680533  0.438037  1
  Ga  Ga16  1  0.680532  0.680533  0.061963  1
  Ga  Ga17  1  0.319468  0.319468  0.938037  1
  Ga  Ga18  1  0.341413  0.539314  0.250000  1
  Ga  Ga19  1  0.658587  0.460686  0.750000  1
  Ga  Ga20  1  0.539314  0.341413  0.250000  1
  Ga  Ga21  1  0.460686  0.658587  0.750000  1
  Fe  Fe22  1  0.000000  0.000000  0.000000  1
  Fe  Fe23  1  0.000000  0.000000  0.500000  1
  Pd  Pd24  1  0.670873  0.329127  0.000000  1
  Pd  Pd25  1  0.329127  0.670873  0.000000  1
  Pd  Pd26  1  0.329127  0.670873  0.500000  1
  Pd  Pd27  1  0.670873  0.329127  0.500000  1
