# generated using pymatgen
data_Sc7CoSn23Os5
_symmetry_space_group_name_H-M   'P 1'
_cell_length_a   9.69652504
_cell_length_b   9.74182777
_cell_length_c   9.88199001
_cell_angle_alpha   89.99999939
_cell_angle_beta   90.03357280
_cell_angle_gamma   120.15467443
_symmetry_Int_Tables_number   1
_chemical_formula_structural   Sc7CoSn23Os5
_chemical_formula_sum   'Sc7 Co1 Sn23 Os5'
_cell_volume   807.14676058
_cell_formula_units_Z   1
loop_
 _symmetry_equiv_pos_site_id
 _symmetry_equiv_pos_as_xyz
  1  'x, y, z'
loop_
 _atom_site_type_symbol
 _atom_site_label
 _atom_site_symmetry_multiplicity
 _atom_site_fract_x
 _atom_site_fract_y
 _atom_site_fract_z
 _atom_site_occupancy
  Sc  Sc0  1  0.490337  0.508944  0.302180  1
  Sc  Sc1  1  0.508399  0.487063  0.694240  1
  Sc  Sc2  1  0.490337  0.981394  0.302180  1
  Sc  Sc3  1  0.508399  0.021335  0.694240  1
  Sc  Sc4  1  0.017539  0.508770  0.303351  1
  Sc  Sc5  1  0.977597  0.488798  0.695416  1
  Sc  Sc6  1  0.019422  0.009711  0.011234  1
  Co  Co7  1  0.654057  0.827028  0.796131  1
  Sn  Sn8  1  0.118728  0.879478  0.283209  1
  Sn  Sn9  1  0.874152  0.111049  0.723597  1
  Sn  Sn10  1  0.118728  0.239251  0.283209  1
  Sn  Sn11  1  0.874152  0.763104  0.723597  1
  Sn  Sn12  1  0.752353  0.876176  0.276726  1
  Sn  Sn13  1  0.244415  0.122207  0.722989  1
  Sn  Sn14  1  0.776802  0.224190  0.469239  1
  Sn  Sn15  1  0.222875  0.773844  0.531367  1
  Sn  Sn16  1  0.776802  0.552612  0.469239  1
  Sn  Sn17  1  0.222875  0.449031  0.531367  1
  Sn  Sn18  1  0.447915  0.223958  0.466548  1
  Sn  Sn19  1  0.556175  0.778088  0.538638  1
  Sn  Sn20  1  0.353217  0.998588  0.999519  1
  Sn  Sn21  1  0.653896  0.996117  0.993178  1
  Sn  Sn22  1  0.000456  0.350001  0.000159  1
  Sn  Sn23  1  0.000456  0.650456  0.000159  1
  Sn  Sn24  1  0.653896  0.657779  0.993178  1
  Sn  Sn25  1  0.353217  0.354629  0.999519  1
  Sn  Sn26  1  0.334689  0.667345  0.145665  1
  Sn  Sn27  1  0.664543  0.332272  0.853858  1
  Sn  Sn28  1  0.336015  0.668008  0.825743  1
  Sn  Sn29  1  0.666278  0.333139  0.170039  1
  Sn  Sn30  1  0.997721  0.998861  0.502052  1
  Os  Os31  1  0.826174  0.169125  0.204345  1
  Os  Os32  1  0.170703  0.828683  0.793906  1
  Os  Os33  1  0.826174  0.657050  0.204345  1
  Os  Os34  1  0.170703  0.342019  0.793906  1
  Os  Os35  1  0.339802  0.169902  0.201735  1
