# generated using pymatgen
data_Ti24Si3S5
_symmetry_space_group_name_H-M   'P 1'
_cell_length_a   9.94104794
_cell_length_b   9.96995357
_cell_length_c   4.99782320
_cell_angle_alpha   90.07198532
_cell_angle_beta   90.28288567
_cell_angle_gamma   90.08277422
_symmetry_Int_Tables_number   1
_chemical_formula_structural   Ti24Si3S5
_chemical_formula_sum   'Ti24 Si3 S5'
_cell_volume   495.33623604
_cell_formula_units_Z   1
loop_
 _symmetry_equiv_pos_site_id
 _symmetry_equiv_pos_as_xyz
  1  'x, y, z'
loop_
 _atom_site_type_symbol
 _atom_site_label
 _atom_site_symmetry_multiplicity
 _atom_site_fract_x
 _atom_site_fract_y
 _atom_site_fract_z
 _atom_site_occupancy
  Ti  Ti0  1  0.214205  0.681666  0.990665  1
  Ti  Ti1  1  0.787262  0.320657  0.987249  1
  Ti  Ti2  1  0.179473  0.285913  0.488872  1
  Ti  Ti3  1  0.818907  0.715739  0.489753  1
  Ti  Ti4  1  0.281758  0.816689  0.507233  1
  Ti  Ti5  1  0.718424  0.178456  0.510925  1
  Ti  Ti6  1  0.316349  0.217994  0.008739  1
  Ti  Ti7  1  0.685884  0.784433  0.015065  1
  Ti  Ti8  1  0.644080  0.528861  0.719414  1
  Ti  Ti9  1  0.357555  0.471875  0.718592  1
  Ti  Ti10  1  0.022582  0.857840  0.219198  1
  Ti  Ti11  1  0.965869  0.139904  0.215518  1
  Ti  Ti12  1  0.862261  0.972073  0.782152  1
  Ti  Ti13  1  0.135713  0.027438  0.781154  1
  Ti  Ti14  1  0.473525  0.636727  0.280890  1
  Ti  Ti15  1  0.529739  0.363077  0.281976  1
  Ti  Ti16  1  0.106059  0.583704  0.463562  1
  Ti  Ti17  1  0.892759  0.416508  0.466514  1
  Ti  Ti18  1  0.082847  0.393086  0.964157  1
  Ti  Ti19  1  0.916585  0.606633  0.962880  1
  Ti  Ti20  1  0.394227  0.918558  0.036972  1
  Ti  Ti21  1  0.610017  0.081355  0.035550  1
  Ti  Ti22  1  0.417448  0.105523  0.537411  1
  Ti  Ti23  1  0.586555  0.894594  0.536860  1
  Si  Si24  1  0.202923  0.041024  0.286283  1
  Si  Si25  1  0.460434  0.706094  0.787102  1
  Si  Si26  1  0.542077  0.294007  0.787605  1
  S  S27  1  0.709587  0.540980  0.212455  1
  S  S28  1  0.291428  0.459096  0.212644  1
  S  S29  1  0.040591  0.791250  0.712074  1
  S  S30  1  0.959836  0.208610  0.711895  1
  S  S31  1  0.793042  0.959635  0.288639  1
