# generated using pymatgen
data_Mg2ZnRh4Pb
_symmetry_space_group_name_H-M   'P 1'
_cell_length_a   6.29576700
_cell_length_b   6.29583400
_cell_length_c   6.33179200
_cell_angle_alpha   90.00000000
_cell_angle_beta   90.00000000
_cell_angle_gamma   90.00000000
_symmetry_Int_Tables_number   1
_chemical_formula_structural   Mg2ZnRh4Pb
_chemical_formula_sum   'Mg4 Zn2 Rh8 Pb2'
_cell_volume   250.97389760
_cell_formula_units_Z   2
loop_
 _symmetry_equiv_pos_site_id
 _symmetry_equiv_pos_as_xyz
  1  'x, y, z'
loop_
 _atom_site_type_symbol
 _atom_site_label
 _atom_site_symmetry_multiplicity
 _atom_site_fract_x
 _atom_site_fract_y
 _atom_site_fract_z
 _atom_site_occupancy
  Mg  Mg0  1  0.249953  0.250000  0.000000  1
  Mg  Mg1  1  0.750047  0.750001  0.000000  1
  Mg  Mg2  1  0.749955  0.750001  0.499999  1
  Mg  Mg3  1  0.250045  0.250000  0.500002  1
  Zn  Zn4  1  0.749996  0.250000  0.000000  1
  Zn  Zn5  1  0.250004  0.750001  0.000000  1
  Rh  Rh6  1  0.500006  0.000000  0.238641  1
  Rh  Rh7  1  0.500006  0.500000  0.238641  1
  Rh  Rh8  1  0.000000  0.000000  0.238653  1
  Rh  Rh9  1  0.000000  0.499999  0.238653  1
  Rh  Rh10  1  0.000000  0.000000  0.761347  1
  Rh  Rh11  1  0.000000  0.500000  0.761347  1
  Rh  Rh12  1  0.499994  0.000000  0.761359  1
  Rh  Rh13  1  0.499994  0.499999  0.761359  1
  Pb  Pb14  1  0.749729  0.250000  0.500001  1
  Pb  Pb15  1  0.250271  0.750001  0.500001  1
