# generated using pymatgen
data_MgMn2GeRh4
_symmetry_space_group_name_H-M   'P 1'
_cell_length_a   7.48111895
_cell_length_b   7.48111914
_cell_length_c   7.48112065
_cell_angle_alpha   33.60897115
_cell_angle_beta   33.60896502
_cell_angle_gamma   33.60898014
_symmetry_Int_Tables_number   1
_chemical_formula_structural   MgMn2GeRh4
_chemical_formula_sum   'Mg1 Mn2 Ge1 Rh4'
_cell_volume   114.27451159
_cell_formula_units_Z   1
loop_
 _symmetry_equiv_pos_site_id
 _symmetry_equiv_pos_as_xyz
  1  'x, y, z'
loop_
 _atom_site_type_symbol
 _atom_site_label
 _atom_site_symmetry_multiplicity
 _atom_site_fract_x
 _atom_site_fract_y
 _atom_site_fract_z
 _atom_site_occupancy
  Mg  Mg0  1  0.000000  0.000000  0.000000  1
  Mn  Mn1  1  0.252550  0.252550  0.252550  1
  Mn  Mn2  1  0.747450  0.747450  0.747450  1
  Ge  Ge3  1  0.500000  0.500000  0.500000  1
  Rh  Rh4  1  0.378656  0.378656  0.378656  1
  Rh  Rh5  1  0.871977  0.871977  0.871977  1
  Rh  Rh6  1  0.621344  0.621344  0.621344  1
  Rh  Rh7  1  0.128023  0.128023  0.128023  1
