# generated using pymatgen
data_YbCd2Cu9
_symmetry_space_group_name_H-M   'P 1'
_cell_length_a   5.02456400
_cell_length_b   5.02488388
_cell_length_c   16.03188100
_cell_angle_alpha   90.00000000
_cell_angle_beta   90.00000000
_cell_angle_gamma   120.00297820
_symmetry_Int_Tables_number   1
_chemical_formula_structural   YbCd2Cu9
_chemical_formula_sum   'Yb2 Cd4 Cu18'
_cell_volume   350.53104760
_cell_formula_units_Z   2
loop_
 _symmetry_equiv_pos_site_id
 _symmetry_equiv_pos_as_xyz
  1  'x, y, z'
loop_
 _atom_site_type_symbol
 _atom_site_label
 _atom_site_symmetry_multiplicity
 _atom_site_fract_x
 _atom_site_fract_y
 _atom_site_fract_z
 _atom_site_occupancy
  Yb  Yb0  1  0.666667  0.333333  0.250000  1
  Yb  Yb1  1  0.333333  0.666667  0.750000  1
  Cd  Cd2  1  0.666668  0.333335  0.465996  1
  Cd  Cd3  1  0.333332  0.666665  0.965996  1
  Cd  Cd4  1  0.666668  0.333335  0.034004  1
  Cd  Cd5  1  0.333332  0.666665  0.534004  1
  Cu  Cu6  1  0.333316  0.666659  0.250000  1
  Cu  Cu7  1  0.666684  0.333341  0.750000  1
  Cu  Cu8  1  0.168120  0.831863  0.375632  1
  Cu  Cu9  1  0.168121  0.336262  0.375629  1
  Cu  Cu10  1  0.999992  0.999997  0.750000  1
  Cu  Cu11  1  0.000008  0.000003  0.250000  1
  Cu  Cu12  1  0.000000  0.000000  0.000000  1
  Cu  Cu13  1  0.000000  0.000000  0.500000  1
  Cu  Cu14  1  0.168121  0.336262  0.124371  1
  Cu  Cu15  1  0.831880  0.168137  0.624368  1
  Cu  Cu16  1  0.336277  0.168139  0.624383  1
  Cu  Cu17  1  0.663723  0.831861  0.124383  1
  Cu  Cu18  1  0.168120  0.831863  0.124368  1
  Cu  Cu19  1  0.831879  0.663738  0.875629  1
  Cu  Cu20  1  0.831880  0.168137  0.875632  1
  Cu  Cu21  1  0.831879  0.663738  0.624371  1
  Cu  Cu22  1  0.336277  0.168139  0.875617  1
  Cu  Cu23  1  0.663723  0.831861  0.375617  1
