# generated using pymatgen
data_Ta7(Be4Os3)2
_symmetry_space_group_name_H-M   'P 1'
_cell_length_a   9.94346900
_cell_length_b   9.94346723
_cell_length_c   3.12896900
_cell_angle_alpha   90.00000000
_cell_angle_beta   90.00000000
_cell_angle_gamma   120.00000256
_symmetry_Int_Tables_number   1
_chemical_formula_structural   Ta7(Be4Os3)2
_chemical_formula_sum   'Ta7 Be8 Os6'
_cell_volume   267.92155293
_cell_formula_units_Z   1
loop_
 _symmetry_equiv_pos_site_id
 _symmetry_equiv_pos_as_xyz
  1  'x, y, z'
loop_
 _atom_site_type_symbol
 _atom_site_label
 _atom_site_symmetry_multiplicity
 _atom_site_fract_x
 _atom_site_fract_y
 _atom_site_fract_z
 _atom_site_occupancy
  Ta  Ta0  1  0.000000  0.000000  0.000000  1
  Ta  Ta1  1  0.703605  0.616841  0.000000  1
  Ta  Ta2  1  0.383159  0.086762  0.000000  1
  Ta  Ta3  1  0.913238  0.296395  0.000000  1
  Ta  Ta4  1  0.296395  0.383159  0.000000  1
  Ta  Ta5  1  0.616841  0.913238  0.000000  1
  Ta  Ta6  1  0.086762  0.703605  0.000000  1
  Be  Be7  1  0.666667  0.333333  0.000000  1
  Be  Be8  1  0.333333  0.666667  0.000000  1
  Be  Be9  1  0.161376  0.928278  0.500000  1
  Be  Be10  1  0.071722  0.233097  0.500000  1
  Be  Be11  1  0.766903  0.838624  0.500000  1
  Be  Be12  1  0.838624  0.071722  0.500000  1
  Be  Be13  1  0.928278  0.766903  0.500000  1
  Be  Be14  1  0.233097  0.161376  0.500000  1
  Os  Os15  1  0.355812  0.846418  0.500000  1
  Os  Os16  1  0.153582  0.509394  0.500000  1
  Os  Os17  1  0.490606  0.644188  0.500000  1
  Os  Os18  1  0.644188  0.153582  0.500000  1
  Os  Os19  1  0.846418  0.490606  0.500000  1
  Os  Os20  1  0.509394  0.355812  0.500000  1
