# generated using pymatgen
data_Tm8In2CoRu
_symmetry_space_group_name_H-M   'P 1'
_cell_length_a   9.46041614
_cell_length_b   9.46041541
_cell_length_c   9.51318600
_cell_angle_alpha   59.81530067
_cell_angle_beta   59.81530325
_cell_angle_gamma   59.73391056
_symmetry_Int_Tables_number   1
_chemical_formula_structural   Tm8In2CoRu
_chemical_formula_sum   'Tm16 In4 Co2 Ru2'
_cell_volume   599.15235565
_cell_formula_units_Z   2
loop_
 _symmetry_equiv_pos_site_id
 _symmetry_equiv_pos_as_xyz
  1  'x, y, z'
loop_
 _atom_site_type_symbol
 _atom_site_label
 _atom_site_symmetry_multiplicity
 _atom_site_fract_x
 _atom_site_fract_y
 _atom_site_fract_z
 _atom_site_occupancy
  Tm  Tm0  1  0.056512  0.056512  0.443488  1
  Tm  Tm1  1  0.442713  0.059722  0.438541  1
  Tm  Tm2  1  0.059722  0.442713  0.059025  1
  Tm  Tm3  1  0.043274  0.647418  0.654654  1
  Tm  Tm4  1  0.439051  0.439051  0.060949  1
  Tm  Tm5  1  0.647418  0.043274  0.654654  1
  Tm  Tm6  1  0.193847  0.810834  0.186969  1
  Tm  Tm7  1  0.190582  0.190582  0.809418  1
  Tm  Tm8  1  0.809188  0.809188  0.190812  1
  Tm  Tm9  1  0.442713  0.059722  0.059025  1
  Tm  Tm10  1  0.810834  0.193847  0.186969  1
  Tm  Tm11  1  0.059722  0.442713  0.438541  1
  Tm  Tm12  1  0.810834  0.193847  0.808350  1
  Tm  Tm13  1  0.193847  0.810834  0.808350  1
  Tm  Tm14  1  0.651051  0.651051  0.041144  1
  Tm  Tm15  1  0.651051  0.651051  0.656754  1
  In  In16  1  0.417257  0.417257  0.416994  1
  In  In17  1  0.749068  0.417327  0.416802  1
  In  In18  1  0.417327  0.749068  0.416802  1
  In  In19  1  0.417257  0.417257  0.748490  1
  Co  Co20  1  0.419449  0.858756  0.860898  1
  Co  Co21  1  0.858756  0.419449  0.860898  1
  Ru  Ru22  1  0.859264  0.859264  0.419989  1
  Ru  Ru23  1  0.859264  0.859264  0.861483  1
