# generated using pymatgen
data_CaHoTaIr3
_symmetry_space_group_name_H-M   'P 1'
_cell_length_a   5.24702854
_cell_length_b   5.66319906
_cell_length_c   5.66320000
_cell_angle_alpha   60.00000618
_cell_angle_beta   57.33966452
_cell_angle_gamma   57.33965549
_symmetry_Int_Tables_number   1
_chemical_formula_structural   CaHoTaIr3
_chemical_formula_sum   'Ca1 Ho1 Ta1 Ir3'
_cell_volume   113.98152721
_cell_formula_units_Z   1
loop_
 _symmetry_equiv_pos_site_id
 _symmetry_equiv_pos_as_xyz
  1  'x, y, z'
loop_
 _atom_site_type_symbol
 _atom_site_label
 _atom_site_symmetry_multiplicity
 _atom_site_fract_x
 _atom_site_fract_y
 _atom_site_fract_z
 _atom_site_occupancy
  Ca  Ca0  1  0.501571  0.499476  0.499476  1
  Ho  Ho1  1  0.747074  0.750975  0.750975  1
  Ta  Ta2  1  0.626528  0.124491  0.124491  1
  Ir  Ir3  1  0.124942  0.125357  0.125357  1
  Ir  Ir4  1  0.124942  0.624344  0.125357  1
  Ir  Ir5  1  0.124942  0.125357  0.624344  1
