# generated using pymatgen
data_Tb3LuAl18Ir5Au
_symmetry_space_group_name_H-M   'P 1'
_cell_length_a   7.59009829
_cell_length_b   7.59220967
_cell_length_c   9.47425006
_cell_angle_alpha   89.93794248
_cell_angle_beta   89.99450759
_cell_angle_gamma   119.52608007
_symmetry_Int_Tables_number   1
_chemical_formula_structural   Tb3LuAl18Ir5Au
_chemical_formula_sum   'Tb3 Lu1 Al18 Ir5 Au1'
_cell_volume   475.05614507
_cell_formula_units_Z   1
loop_
 _symmetry_equiv_pos_site_id
 _symmetry_equiv_pos_as_xyz
  1  'x, y, z'
loop_
 _atom_site_type_symbol
 _atom_site_label
 _atom_site_symmetry_multiplicity
 _atom_site_fract_x
 _atom_site_fract_y
 _atom_site_fract_z
 _atom_site_occupancy
  Tb  Tb0  1  0.996083  0.673819  0.251076  1
  Tb  Tb1  1  0.004176  0.326223  0.749012  1
  Tb  Tb2  1  0.673354  0.995928  0.251001  1
  Lu  Lu3  1  0.326317  0.003973  0.748213  1
  Al  Al4  1  0.136234  0.135874  0.256400  1
  Al  Al5  1  0.865182  0.864399  0.743987  1
  Al  Al6  1  0.002247  0.344490  0.078467  1
  Al  Al7  1  0.999092  0.657088  0.920178  1
  Al  Al8  1  0.000832  0.665520  0.574887  1
  Al  Al9  1  0.335683  0.000512  0.427867  1
  Al  Al10  1  0.000488  0.335634  0.426594  1
  Al  Al11  1  0.663188  0.999527  0.574854  1
  Al  Al12  1  0.654218  0.998002  0.919920  1
  Al  Al13  1  0.344097  0.002182  0.077154  1
  Al  Al14  1  0.333679  0.332671  0.553447  1
  Al  Al15  1  0.666426  0.666348  0.448468  1
  Al  Al16  1  0.657317  0.657317  0.058229  1
  Al  Al17  1  0.342372  0.341246  0.939848  1
  Al  Al18  1  0.339258  0.549901  0.251239  1
  Al  Al19  1  0.659671  0.448593  0.748779  1
  Al  Al20  1  0.549758  0.338887  0.251206  1
  Al  Al21  1  0.449858  0.661723  0.748852  1
  Ir  Ir22  1  0.671571  0.328039  0.999502  1
  Ir  Ir23  1  0.328229  0.671987  0.999471  1
  Ir  Ir24  1  0.328168  0.671875  0.500439  1
  Ir  Ir25  1  0.671570  0.328023  0.500571  1
  Ir  Ir26  1  0.000646  0.000185  0.500631  1
  Au  Au27  1  0.000285  0.000035  0.999708  1
