# generated using pymatgen
data_Er4As6Ir2Ru5
_symmetry_space_group_name_H-M   'P 1'
_cell_length_a   7.22368481
_cell_length_b   7.22368377
_cell_length_c   7.22390653
_cell_angle_alpha   109.40773802
_cell_angle_beta   109.40773227
_cell_angle_gamma   109.59702460
_symmetry_Int_Tables_number   1
_chemical_formula_structural   Er4As6Ir2Ru5
_chemical_formula_sum   'Er4 As6 Ir2 Ru5'
_cell_volume   290.18356364
_cell_formula_units_Z   1
loop_
 _symmetry_equiv_pos_site_id
 _symmetry_equiv_pos_as_xyz
  1  'x, y, z'
loop_
 _atom_site_type_symbol
 _atom_site_label
 _atom_site_symmetry_multiplicity
 _atom_site_fract_x
 _atom_site_fract_y
 _atom_site_fract_z
 _atom_site_occupancy
  Er  Er0  1  0.000397  0.000397  0.500314  1
  Er  Er1  1  0.499636  0.999636  0.999271  1
  Er  Er2  1  0.999636  0.499636  0.999271  1
  Er  Er3  1  0.499917  0.499917  0.500314  1
  As  As4  1  0.317871  0.003550  0.321421  1
  As  As5  1  0.003550  0.317871  0.321421  1
  As  As6  1  0.002967  0.682082  0.685049  1
  As  As7  1  0.313409  0.313409  0.994624  1
  As  As8  1  0.681215  0.681215  0.994624  1
  As  As9  1  0.682082  0.002967  0.685049  1
  Ir  Ir10  1  0.749937  0.499310  0.249247  1
  Ir  Ir11  1  0.499310  0.749937  0.249247  1
  Ru  Ru12  1  0.499748  0.250590  0.750338  1
  Ru  Ru13  1  0.749609  0.249609  0.499219  1
  Ru  Ru14  1  0.249609  0.749609  0.499219  1
  Ru  Ru15  1  0.250590  0.499748  0.750338  1
  Ru  Ru16  1  0.000516  0.000516  0.001033  1
