# generated using pymatgen
data_TbPa3(AsS)4
_symmetry_space_group_name_H-M   'P 1'
_cell_length_a   3.90823900
_cell_length_b   3.90892951
_cell_length_c   16.55263600
_cell_angle_alpha   90.02915410
_cell_angle_beta   90.00000000
_cell_angle_gamma   90.00000000
_symmetry_Int_Tables_number   1
_chemical_formula_structural   TbPa3(AsS)4
_chemical_formula_sum   'Tb1 Pa3 As4 S4'
_cell_volume   252.87509633
_cell_formula_units_Z   1
loop_
 _symmetry_equiv_pos_site_id
 _symmetry_equiv_pos_as_xyz
  1  'x, y, z'
loop_
 _atom_site_type_symbol
 _atom_site_label
 _atom_site_symmetry_multiplicity
 _atom_site_fract_x
 _atom_site_fract_y
 _atom_site_fract_z
 _atom_site_occupancy
  Tb  Tb0  1  0.750000  0.748098  0.640292  1
  Pa  Pa1  1  0.250000  0.248228  0.858000  1
  Pa  Pa2  1  0.250000  0.252042  0.356900  1
  Pa  Pa3  1  0.750000  0.751468  0.143595  1
  As  As4  1  0.750000  0.250202  0.496716  1
  As  As5  1  0.750000  0.250039  0.000649  1
  As  As6  1  0.250000  0.750695  0.496708  1
  As  As7  1  0.250000  0.749552  0.000647  1
  S  S8  1  0.250000  0.247934  0.686489  1
  S  S9  1  0.250000  0.251648  0.181266  1
  S  S10  1  0.750000  0.752065  0.318422  1
  S  S11  1  0.750000  0.748029  0.820319  1
