# generated using pymatgen
data_Nb12AlGa2Au5N4
_symmetry_space_group_name_H-M   'P 1'
_cell_length_a   7.13187468
_cell_length_b   7.13111321
_cell_length_c   7.13177615
_cell_angle_alpha   89.97837272
_cell_angle_beta   89.88626339
_cell_angle_gamma   89.87880159
_symmetry_Int_Tables_number   1
_chemical_formula_structural   Nb12AlGa2Au5N4
_chemical_formula_sum   'Nb12 Al1 Ga2 Au5 N4'
_cell_volume   362.70778749
_cell_formula_units_Z   1
loop_
 _symmetry_equiv_pos_site_id
 _symmetry_equiv_pos_as_xyz
  1  'x, y, z'
loop_
 _atom_site_type_symbol
 _atom_site_label
 _atom_site_symmetry_multiplicity
 _atom_site_fract_x
 _atom_site_fract_y
 _atom_site_fract_z
 _atom_site_occupancy
  Nb  Nb0  1  0.785742  0.956017  0.376261  1
  Nb  Nb1  1  0.713285  0.044532  0.879619  1
  Nb  Nb2  1  0.213127  0.457202  0.126459  1
  Nb  Nb3  1  0.291472  0.541715  0.625905  1
  Nb  Nb4  1  0.955265  0.378656  0.786428  1
  Nb  Nb5  1  0.043649  0.876795  0.713615  1
  Nb  Nb6  1  0.458582  0.126430  0.209400  1
  Nb  Nb7  1  0.542849  0.626260  0.287589  1
  Nb  Nb8  1  0.373707  0.786814  0.956713  1
  Nb  Nb9  1  0.874478  0.708861  0.041774  1
  Nb  Nb10  1  0.123917  0.214272  0.456816  1
  Nb  Nb11  1  0.620931  0.287049  0.544341  1
  Al  Al12  1  0.071954  0.069172  0.073098  1
  Ga  Ga13  1  0.427381  0.929321  0.567802  1
  Ga  Ga14  1  0.932198  0.572014  0.428733  1
  Au  Au15  1  0.178302  0.823096  0.318420  1
  Au  Au16  1  0.309725  0.170805  0.819592  1
  Au  Au17  1  0.830592  0.314685  0.186906  1
  Au  Au18  1  0.683245  0.688380  0.671714  1
  Au  Au19  1  0.568529  0.430860  0.931618  1
  N  N20  1  0.873828  0.125510  0.625067  1
  N  N21  1  0.622917  0.874064  0.121511  1
  N  N22  1  0.125601  0.620778  0.875981  1
  N  N23  1  0.378724  0.376713  0.374641  1
