# generated using pymatgen
data_Tm2MgB2Rh5
_symmetry_space_group_name_H-M   'P 1'
_cell_length_a   9.58661400
_cell_length_b   9.58661400
_cell_length_c   3.17007800
_cell_angle_alpha   90.00000000
_cell_angle_beta   90.00000000
_cell_angle_gamma   90.00000000
_symmetry_Int_Tables_number   1
_chemical_formula_structural   Tm2MgB2Rh5
_chemical_formula_sum   'Tm4 Mg2 B4 Rh10'
_cell_volume   291.34021096
_cell_formula_units_Z   2
loop_
 _symmetry_equiv_pos_site_id
 _symmetry_equiv_pos_as_xyz
  1  'x, y, z'
loop_
 _atom_site_type_symbol
 _atom_site_label
 _atom_site_symmetry_multiplicity
 _atom_site_fract_x
 _atom_site_fract_y
 _atom_site_fract_z
 _atom_site_occupancy
  Tm  Tm0  1  0.675600  0.175600  0.000000  1
  Tm  Tm1  1  0.324400  0.824400  0.000000  1
  Tm  Tm2  1  0.175600  0.324400  0.000000  1
  Tm  Tm3  1  0.824400  0.675600  0.000000  1
  Mg  Mg4  1  0.000000  0.000000  0.000000  1
  Mg  Mg5  1  0.500000  0.500000  0.000000  1
  B  B6  1  0.123054  0.623054  0.000000  1
  B  B7  1  0.876946  0.376946  0.000000  1
  B  B8  1  0.623054  0.876946  0.000000  1
  B  B9  1  0.376946  0.123054  0.000000  1
  Rh  Rh10  1  0.500000  0.000000  0.500000  1
  Rh  Rh11  1  0.000000  0.500000  0.500000  1
  Rh  Rh12  1  0.223295  0.070562  0.500000  1
  Rh  Rh13  1  0.776705  0.929438  0.500000  1
  Rh  Rh14  1  0.070562  0.776705  0.500000  1
  Rh  Rh15  1  0.723295  0.429438  0.500000  1
  Rh  Rh16  1  0.929438  0.223295  0.500000  1
  Rh  Rh17  1  0.276705  0.570562  0.500000  1
  Rh  Rh18  1  0.570562  0.723295  0.500000  1
  Rh  Rh19  1  0.429438  0.276705  0.500000  1
