# generated using pymatgen
data_Y6InGaCo
_symmetry_space_group_name_H-M   'P 1'
_cell_length_a   8.56735766
_cell_length_b   8.56734969
_cell_length_c   8.56735922
_cell_angle_alpha   112.81554950
_cell_angle_beta   111.25341413
_cell_angle_gamma   104.46220266
_symmetry_Int_Tables_number   1
_chemical_formula_structural   Y6InGaCo
_chemical_formula_sum   'Y12 In2 Ga2 Co2'
_cell_volume   481.24029639
_cell_formula_units_Z   2
loop_
 _symmetry_equiv_pos_site_id
 _symmetry_equiv_pos_as_xyz
  1  'x, y, z'
loop_
 _atom_site_type_symbol
 _atom_site_label
 _atom_site_symmetry_multiplicity
 _atom_site_fract_x
 _atom_site_fract_y
 _atom_site_fract_z
 _atom_site_occupancy
  Y  Y0  1  0.441794  0.243100  0.198694  1
  Y  Y1  1  0.558206  0.756900  0.801306  1
  Y  Y2  1  0.044406  0.243100  0.801306  1
  Y  Y3  1  0.955594  0.756900  0.198694  1
  Y  Y4  1  0.185283  0.289282  0.474565  1
  Y  Y5  1  0.814717  0.710718  0.525435  1
  Y  Y6  1  0.185283  0.710718  0.896002  1
  Y  Y7  1  0.814717  0.289282  0.103998  1
  Y  Y8  1  0.303382  0.614715  0.311335  1
  Y  Y9  1  0.696618  0.385285  0.688665  1
  Y  Y10  1  0.303380  0.992046  0.688666  1
  Y  Y11  1  0.696620  0.007954  0.311334  1
  In  In12  1  0.500000  0.500000  0.000000  1
  In  In13  1  0.000000  0.000000  0.000000  1
  Ga  Ga14  1  0.352762  0.000000  0.352762  1
  Ga  Ga15  1  0.647238  0.000000  0.647238  1
  Co  Co16  1  0.105905  0.605905  0.500000  1
  Co  Co17  1  0.894095  0.394095  0.500000  1
