# generated using pymatgen
data_Ho3Al3ZnNiGe
_symmetry_space_group_name_H-M   'P 1'
_cell_length_a   6.92779800
_cell_length_b   6.92779881
_cell_length_c   4.15809900
_cell_angle_alpha   90.00000000
_cell_angle_beta   90.00000000
_cell_angle_gamma   119.99999611
_symmetry_Int_Tables_number   1
_chemical_formula_structural   Ho3Al3ZnNiGe
_chemical_formula_sum   'Ho3 Al3 Zn1 Ni1 Ge1'
_cell_volume   172.82873735
_cell_formula_units_Z   1
loop_
 _symmetry_equiv_pos_site_id
 _symmetry_equiv_pos_as_xyz
  1  'x, y, z'
loop_
 _atom_site_type_symbol
 _atom_site_label
 _atom_site_symmetry_multiplicity
 _atom_site_fract_x
 _atom_site_fract_y
 _atom_site_fract_z
 _atom_site_occupancy
  Ho  Ho0  1  0.406874  0.000074  0.000000  1
  Ho  Ho1  1  0.999926  0.406798  0.000000  1
  Ho  Ho2  1  0.593201  0.593127  0.000000  1
  Al  Al3  1  0.772348  0.005689  0.500001  1
  Al  Al4  1  0.233342  0.227653  0.500001  1
  Al  Al5  1  0.994311  0.766659  0.500001  1
  Zn  Zn6  1  0.666666  0.333333  0.500001  1
  Ni  Ni7  1  0.000000  0.000000  0.000000  1
  Ge  Ge8  1  0.333333  0.666666  0.500001  1
