# generated using pymatgen
data_TbNd2Th(Sn5Rh3)2
_symmetry_space_group_name_H-M   'P 1'
_cell_length_a   13.61354790
_cell_length_b   13.61354715
_cell_length_c   7.31767068
_cell_angle_alpha   90.08061791
_cell_angle_beta   89.91938121
_cell_angle_gamma   160.99293203
_symmetry_Int_Tables_number   1
_chemical_formula_structural   TbNd2Th(Sn5Rh3)2
_chemical_formula_sum   'Tb1 Nd2 Th1 Sn10 Rh6'
_cell_volume   441.68486736
_cell_formula_units_Z   1
loop_
 _symmetry_equiv_pos_site_id
 _symmetry_equiv_pos_as_xyz
  1  'x, y, z'
loop_
 _atom_site_type_symbol
 _atom_site_label
 _atom_site_symmetry_multiplicity
 _atom_site_fract_x
 _atom_site_fract_y
 _atom_site_fract_z
 _atom_site_occupancy
  Tb  Tb0  1  0.525348  0.474652  0.237348  1
  Nd  Nd1  1  0.172215  0.827785  0.754326  1
  Nd  Nd2  1  0.827522  0.172478  0.254929  1
  Th  Th3  1  0.475505  0.524495  0.734426  1
  Sn  Sn4  1  0.878446  0.121554  0.730401  1
  Sn  Sn5  1  0.119945  0.880055  0.234017  1
  Sn  Sn6  1  0.704222  0.295778  0.051480  1
  Sn  Sn7  1  0.295041  0.704959  0.550915  1
  Sn  Sn8  1  0.596686  0.403314  0.611571  1
  Sn  Sn9  1  0.404077  0.595923  0.115882  1
  Sn  Sn10  1  0.952847  0.047153  0.390161  1
  Sn  Sn11  1  0.049403  0.950597  0.903332  1
  Sn  Sn12  1  0.289425  0.710575  0.976196  1
  Sn  Sn13  1  0.709840  0.290160  0.476141  1
  Rh  Rh14  1  0.049606  0.950394  0.519648  1
  Rh  Rh15  1  0.949434  0.050566  0.011424  1
  Rh  Rh16  1  0.776965  0.223035  0.765234  1
  Rh  Rh17  1  0.222305  0.777695  0.265265  1
  Rh  Rh18  1  0.395738  0.604262  0.488633  1
  Rh  Rh19  1  0.605430  0.394570  0.984669  1
