# generated using pymatgen
data_EuSb2F12
_symmetry_space_group_name_H-M   'P 1'
_cell_length_a   9.98635454
_cell_length_b   9.98635435
_cell_length_c   9.98635500
_cell_angle_alpha   131.61759967
_cell_angle_beta   131.61759870
_cell_angle_gamma   70.83366373
_symmetry_Int_Tables_number   1
_chemical_formula_structural   EuSb2F12
_chemical_formula_sum   'Eu2 Sb4 F24'
_cell_volume   545.15965286
_cell_formula_units_Z   2
loop_
 _symmetry_equiv_pos_site_id
 _symmetry_equiv_pos_as_xyz
  1  'x, y, z'
loop_
 _atom_site_type_symbol
 _atom_site_label
 _atom_site_symmetry_multiplicity
 _atom_site_fract_x
 _atom_site_fract_y
 _atom_site_fract_z
 _atom_site_occupancy
  Eu  Eu0  1  0.750000  0.250000  0.500000  1
  Eu  Eu1  1  0.000000  0.000000  0.000000  1
  Sb  Sb2  1  0.775723  0.775723  0.000000  1
  Sb  Sb3  1  0.224277  0.224277  0.000000  1
  Sb  Sb4  1  0.974277  0.474277  0.500000  1
  Sb  Sb5  1  0.525723  0.025723  0.500000  1
  F  F6  1  0.862917  0.752171  0.217824  1
  F  F7  1  0.534347  0.645094  0.782176  1
  F  F8  1  0.395094  0.784347  0.282176  1
  F  F9  1  0.354906  0.137083  0.889254  1
  F  F10  1  0.247829  0.465653  0.110746  1
  F  F11  1  0.215653  0.497829  0.610746  1
  F  F12  1  0.663512  0.266693  0.695605  1
  F  F13  1  0.733307  0.428912  0.396818  1
  F  F14  1  0.032094  0.336488  0.603182  1
  F  F15  1  0.086488  0.282094  0.103182  1
  F  F16  1  0.178912  0.983307  0.896818  1
  F  F17  1  0.571088  0.967906  0.304395  1
  F  F18  1  0.717906  0.821088  0.804395  1
  F  F19  1  0.016693  0.913512  0.195605  1
  F  F20  1  0.305714  0.105893  0.345970  1
  F  F21  1  0.894107  0.240077  0.199821  1
  F  F22  1  0.040256  0.694286  0.800179  1
  F  F23  1  0.444286  0.290256  0.300179  1
  F  F24  1  0.990077  0.144107  0.699821  1
  F  F25  1  0.759923  0.959744  0.654030  1
  F  F26  1  0.709744  0.009923  0.154030  1
  F  F27  1  0.855893  0.555714  0.845970  1
  F  F28  1  0.502171  0.112917  0.717824  1
  F  F29  1  0.887083  0.604906  0.389254  1
