# generated using pymatgen
data_Ta7Nb3(B2P)2
_symmetry_space_group_name_H-M   'P 1'
_cell_length_a   7.25391189
_cell_length_b   7.25391123
_cell_length_c   7.26082139
_cell_angle_alpha   129.37011215
_cell_angle_beta   129.37010618
_cell_angle_gamma   74.37883977
_symmetry_Int_Tables_number   1
_chemical_formula_structural   Ta7Nb3(B2P)2
_chemical_formula_sum   'Ta7 Nb3 B4 P2'
_cell_volume   222.59505442
_cell_formula_units_Z   1
loop_
 _symmetry_equiv_pos_site_id
 _symmetry_equiv_pos_as_xyz
  1  'x, y, z'
loop_
 _atom_site_type_symbol
 _atom_site_label
 _atom_site_symmetry_multiplicity
 _atom_site_fract_x
 _atom_site_fract_y
 _atom_site_fract_z
 _atom_site_occupancy
  Ta  Ta0  1  0.000700  0.000068  0.000402  1
  Ta  Ta1  1  0.500068  0.500700  0.000402  1
  Ta  Ta2  1  0.307734  0.473508  0.500252  1
  Ta  Ta3  1  0.027093  0.192167  0.499649  1
  Ta  Ta4  1  0.525977  0.025977  0.833877  1
  Ta  Ta5  1  0.692167  0.527093  0.499649  1
  Ta  Ta6  1  0.973508  0.807734  0.500252  1
  Nb  Nb7  1  0.808990  0.308990  0.835651  1
  Nb  Nb8  1  0.191101  0.691101  0.164950  1
  Nb  Nb9  1  0.473444  0.973444  0.164836  1
  B  B10  1  0.114908  0.614908  0.729815  1
  B  B11  1  0.883709  0.383709  0.268160  1
  B  B12  1  0.617037  0.883266  0.501126  1
  B  B13  1  0.383266  0.117037  0.501126  1
  P  P14  1  0.250540  0.249759  0.999925  1
  P  P15  1  0.749759  0.750540  0.999925  1
