# generated using pymatgen
data_Lu6Al24Os5Rh3
_symmetry_space_group_name_H-M   'P 1'
_cell_length_a   8.77093900
_cell_length_b   8.74243240
_cell_length_c   9.54766571
_cell_angle_alpha   90.16229518
_cell_angle_beta   90.00000000
_cell_angle_gamma   120.10792619
_symmetry_Int_Tables_number   1
_chemical_formula_structural   Lu6Al24Os5Rh3
_chemical_formula_sum   'Lu6 Al24 Os5 Rh3'
_cell_volume   633.33070343
_cell_formula_units_Z   1
loop_
 _symmetry_equiv_pos_site_id
 _symmetry_equiv_pos_as_xyz
  1  'x, y, z'
loop_
 _atom_site_type_symbol
 _atom_site_label
 _atom_site_symmetry_multiplicity
 _atom_site_fract_x
 _atom_site_fract_y
 _atom_site_fract_z
 _atom_site_occupancy
  Lu  Lu0  1  0.196426  0.392853  0.250599  1
  Lu  Lu1  1  0.803574  0.607147  0.749401  1
  Lu  Lu2  1  0.608436  0.801537  0.251267  1
  Lu  Lu3  1  0.391564  0.198463  0.748733  1
  Lu  Lu4  1  0.193101  0.801537  0.251267  1
  Lu  Lu5  1  0.806899  0.198463  0.748733  1
  Al  Al6  1  0.332795  0.665591  0.023684  1
  Al  Al7  1  0.667205  0.334409  0.976316  1
  Al  Al8  1  0.666828  0.333656  0.522567  1
  Al  Al9  1  0.333172  0.666344  0.477433  1
  Al  Al10  1  0.163608  0.327215  0.577936  1
  Al  Al11  1  0.836392  0.672785  0.422064  1
  Al  Al12  1  0.673470  0.837329  0.578392  1
  Al  Al13  1  0.836388  0.672775  0.077988  1
  Al  Al14  1  0.326530  0.162671  0.421608  1
  Al  Al15  1  0.163612  0.327225  0.922012  1
  Al  Al16  1  0.163858  0.837329  0.578392  1
  Al  Al17  1  0.325741  0.163854  0.078746  1
  Al  Al18  1  0.836142  0.162671  0.421608  1
  Al  Al19  1  0.674259  0.836146  0.921254  1
  Al  Al20  1  0.838113  0.163854  0.078746  1
  Al  Al21  1  0.161887  0.836146  0.921254  1
  Al  Al22  1  0.560994  0.121988  0.249927  1
  Al  Al23  1  0.439006  0.878012  0.750073  1
  Al  Al24  1  0.876890  0.438071  0.249504  1
  Al  Al25  1  0.123110  0.561929  0.750496  1
  Al  Al26  1  0.561182  0.438071  0.249504  1
  Al  Al27  1  0.438818  0.561929  0.750496  1
  Al  Al28  1  0.999511  0.999022  0.250082  1
  Al  Al29  1  0.000489  0.000978  0.749918  1
  Os  Os30  1  0.000000  0.500000  0.000000  1
  Os  Os31  1  0.500000  0.000000  0.500000  1
  Os  Os32  1  0.500000  0.500000  0.000000  1
  Os  Os33  1  0.000000  0.500000  0.500000  1
  Os  Os34  1  0.500000  0.500000  0.500000  1
  Rh  Rh35  1  0.500000  0.000000  0.000000  1
  Rh  Rh36  1  0.000000  0.000000  0.000000  1
  Rh  Rh37  1  0.000000  0.000000  0.500000  1
