# generated using pymatgen
data_Ho3TmLu12(CdNi)4
_symmetry_space_group_name_H-M   'P 1'
_cell_length_a   9.39907695
_cell_length_b   9.40150763
_cell_length_c   9.39898400
_cell_angle_alpha   60.00887913
_cell_angle_beta   60.00032713
_cell_angle_gamma   60.01012158
_symmetry_Int_Tables_number   1
_chemical_formula_structural   Ho3TmLu12(CdNi)4
_chemical_formula_sum   'Ho3 Tm1 Lu12 Cd4 Ni4'
_cell_volume   587.37038142
_cell_formula_units_Z   1
loop_
 _symmetry_equiv_pos_site_id
 _symmetry_equiv_pos_as_xyz
  1  'x, y, z'
loop_
 _atom_site_type_symbol
 _atom_site_label
 _atom_site_symmetry_multiplicity
 _atom_site_fract_x
 _atom_site_fract_y
 _atom_site_fract_z
 _atom_site_occupancy
  Ho  Ho0  1  0.347622  0.349164  0.348522  1
  Ho  Ho1  1  0.347622  0.349164  0.954691  1
  Ho  Ho2  1  0.348681  0.953988  0.348665  1
  Tm  Tm3  1  0.935936  0.935603  0.564231  1
  Lu  Lu4  1  0.954670  0.348686  0.348322  1
  Lu  Lu5  1  0.812347  0.188344  0.187534  1
  Lu  Lu6  1  0.188081  0.812452  0.812584  1
  Lu  Lu7  1  0.188081  0.812452  0.186884  1
  Lu  Lu8  1  0.812347  0.188344  0.811775  1
  Lu  Lu9  1  0.187853  0.187031  0.812559  1
  Lu  Lu10  1  0.812297  0.812263  0.187719  1
  Lu  Lu11  1  0.935853  0.563528  0.564090  1
  Lu  Lu12  1  0.564308  0.935553  0.935989  1
  Lu  Lu13  1  0.564308  0.935553  0.564150  1
  Lu  Lu14  1  0.935853  0.563528  0.936530  1
  Lu  Lu15  1  0.564939  0.564305  0.935378  1
  Cd  Cd16  1  0.581890  0.581694  0.581759  1
  Cd  Cd17  1  0.581890  0.581694  0.254658  1
  Cd  Cd18  1  0.581581  0.255092  0.581664  1
  Cd  Cd19  1  0.255458  0.581136  0.581703  1
  Ni  Ni20  1  0.140863  0.140872  0.143079  1
  Ni  Ni21  1  0.140863  0.140872  0.575187  1
  Ni  Ni22  1  0.139537  0.576682  0.141891  1
  Ni  Ni23  1  0.577126  0.142003  0.140437  1
