# generated using pymatgen
data_Tc3Se4Cl
_symmetry_space_group_name_H-M   'P 1'
_cell_length_a   11.78855800
_cell_length_b   6.67732596
_cell_length_c   11.33979917
_cell_angle_alpha   67.90248959
_cell_angle_beta   90.00000000
_cell_angle_gamma   90.00000000
_symmetry_Int_Tables_number   1
_chemical_formula_structural   Tc3Se4Cl
_chemical_formula_sum   'Tc12 Se16 Cl4'
_cell_volume   827.05640881
_cell_formula_units_Z   4
loop_
 _symmetry_equiv_pos_site_id
 _symmetry_equiv_pos_as_xyz
  1  'x, y, z'
loop_
 _atom_site_type_symbol
 _atom_site_label
 _atom_site_symmetry_multiplicity
 _atom_site_fract_x
 _atom_site_fract_y
 _atom_site_fract_z
 _atom_site_occupancy
  Tc  Tc0  1  0.981716  0.297604  0.939630  1
  Tc  Tc1  1  0.018284  0.702396  0.060370  1
  Tc  Tc2  1  0.358409  0.028334  0.567814  1
  Tc  Tc3  1  0.072754  0.023955  0.848234  1
  Tc  Tc4  1  0.572754  0.976045  0.651766  1
  Tc  Tc5  1  0.141591  0.028334  0.067814  1
  Tc  Tc6  1  0.641591  0.971666  0.432186  1
  Tc  Tc7  1  0.427246  0.023955  0.348234  1
  Tc  Tc8  1  0.927246  0.976045  0.151766  1
  Tc  Tc9  1  0.858409  0.971666  0.932186  1
  Tc  Tc10  1  0.518284  0.297604  0.439630  1
  Tc  Tc11  1  0.481716  0.702396  0.560370  1
  Se  Se12  1  0.817220  0.664165  0.139687  1
  Se  Se13  1  0.416868  0.718830  0.767661  1
  Se  Se14  1  0.551905  0.721996  0.336875  1
  Se  Se15  1  0.083132  0.718830  0.267661  1
  Se  Se16  1  0.317220  0.335835  0.360313  1
  Se  Se17  1  0.916868  0.281170  0.732339  1
  Se  Se18  1  0.718969  0.237218  0.518959  1
  Se  Se19  1  0.682780  0.664165  0.639687  1
  Se  Se20  1  0.781031  0.237218  0.018959  1
  Se  Se21  1  0.281031  0.762782  0.481041  1
  Se  Se22  1  0.583132  0.281170  0.232339  1
  Se  Se23  1  0.948095  0.721996  0.836875  1
  Se  Se24  1  0.182780  0.335835  0.860313  1
  Se  Se25  1  0.051905  0.278004  0.163125  1
  Se  Se26  1  0.448095  0.278004  0.663125  1
  Se  Se27  1  0.218969  0.762782  0.981041  1
  Cl  Cl28  1  0.839909  0.926275  0.362757  1
  Cl  Cl29  1  0.160091  0.073725  0.637243  1
  Cl  Cl30  1  0.339909  0.073725  0.137243  1
  Cl  Cl31  1  0.660091  0.926275  0.862757  1
