# generated using pymatgen
data_Ho2Mn4FeCo5P6
_symmetry_space_group_name_H-M   'P 1'
_cell_length_a   3.61517600
_cell_length_b   10.32907800
_cell_length_c   12.05713000
_cell_angle_alpha   90.00000000
_cell_angle_beta   90.00000000
_cell_angle_gamma   90.00000000
_symmetry_Int_Tables_number   1
_chemical_formula_structural   Ho2Mn4FeCo5P6
_chemical_formula_sum   'Ho4 Mn8 Fe2 Co10 P12'
_cell_volume   450.23053483
_cell_formula_units_Z   2
loop_
 _symmetry_equiv_pos_site_id
 _symmetry_equiv_pos_as_xyz
  1  'x, y, z'
loop_
 _atom_site_type_symbol
 _atom_site_label
 _atom_site_symmetry_multiplicity
 _atom_site_fract_x
 _atom_site_fract_y
 _atom_site_fract_z
 _atom_site_occupancy
  Ho  Ho0  1  0.250000  0.581289  0.709826  1
  Ho  Ho1  1  0.250000  0.918711  0.209826  1
  Ho  Ho2  1  0.750000  0.419297  0.289713  1
  Ho  Ho3  1  0.750000  0.080703  0.789713  1
  Mn  Mn4  1  0.250000  0.712521  0.993028  1
  Mn  Mn5  1  0.250000  0.787479  0.493028  1
  Mn  Mn6  1  0.750000  0.286784  0.007850  1
  Mn  Mn7  1  0.750000  0.213216  0.507850  1
  Mn  Mn8  1  0.250000  0.407244  0.491011  1
  Mn  Mn9  1  0.250000  0.092756  0.991011  1
  Mn  Mn10  1  0.750000  0.592925  0.509262  1
  Mn  Mn11  1  0.750000  0.907075  0.009262  1
  Fe  Fe12  1  0.750000  0.535941  0.065657  1
  Fe  Fe13  1  0.750000  0.964059  0.565657  1
  Co  Co14  1  0.250000  0.223363  0.175266  1
  Co  Co15  1  0.250000  0.276637  0.675266  1
  Co  Co16  1  0.750000  0.776634  0.824931  1
  Co  Co17  1  0.750000  0.723366  0.324931  1
  Co  Co18  1  0.250000  0.879576  0.697854  1
  Co  Co19  1  0.250000  0.620424  0.197854  1
  Co  Co20  1  0.750000  0.119602  0.303047  1
  Co  Co21  1  0.750000  0.380398  0.803047  1
  Co  Co22  1  0.250000  0.464050  0.931959  1
  Co  Co23  1  0.250000  0.035950  0.431959  1
  P  P24  1  0.250000  0.422833  0.110808  1
  P  P25  1  0.250000  0.077167  0.610808  1
  P  P26  1  0.750000  0.578626  0.889278  1
  P  P27  1  0.750000  0.921374  0.389278  1
  P  P28  1  0.250000  0.267585  0.865938  1
  P  P29  1  0.250000  0.232415  0.365938  1
  P  P30  1  0.750000  0.731221  0.134095  1
  P  P31  1  0.750000  0.768779  0.634095  1
  P  P32  1  0.250000  0.600816  0.383974  1
  P  P33  1  0.250000  0.899184  0.883974  1
  P  P34  1  0.750000  0.399636  0.616502  1
  P  P35  1  0.750000  0.100364  0.116502  1
