# generated using pymatgen
data_Y5TmCo2(P3Ir4)4
_symmetry_space_group_name_H-M   'P 1'
_cell_length_a   3.93384600
_cell_length_b   11.10524525
_cell_length_c   12.79439529
_cell_angle_alpha   90.02453985
_cell_angle_beta   90.00000000
_cell_angle_gamma   90.00000000
_symmetry_Int_Tables_number   1
_chemical_formula_structural   Y5TmCo2(P3Ir4)4
_chemical_formula_sum   'Y5 Tm1 Co2 P12 Ir16'
_cell_volume   558.94005489
_cell_formula_units_Z   1
loop_
 _symmetry_equiv_pos_site_id
 _symmetry_equiv_pos_as_xyz
  1  'x, y, z'
loop_
 _atom_site_type_symbol
 _atom_site_label
 _atom_site_symmetry_multiplicity
 _atom_site_fract_x
 _atom_site_fract_y
 _atom_site_fract_z
 _atom_site_occupancy
  Y  Y0  1  0.000000  0.499983  0.522195  1
  Y  Y1  1  0.500000  0.999807  0.477526  1
  Y  Y2  1  0.500000  0.184178  0.200449  1
  Y  Y3  1  0.000000  0.684204  0.799582  1
  Y  Y4  1  0.000000  0.315926  0.799736  1
  Tm  Tm5  1  0.500000  0.815760  0.200611  1
  Co  Co6  1  0.000000  0.500279  0.977714  1
  Co  Co7  1  0.500000  0.999408  0.023452  1
  P  P8  1  0.500000  0.500175  0.880486  1
  P  P9  1  0.000000  0.999323  0.119927  1
  P  P10  1  0.500000  0.499532  0.357878  1
  P  P11  1  0.000000  0.999909  0.642155  1
  P  P12  1  0.500000  0.315398  0.619318  1
  P  P13  1  0.500000  0.684528  0.618970  1
  P  P14  1  0.000000  0.184172  0.380644  1
  P  P15  1  0.000000  0.815339  0.379920  1
  P  P16  1  0.500000  0.852574  0.896753  1
  P  P17  1  0.500000  0.147536  0.896983  1
  P  P18  1  0.000000  0.649406  0.103208  1
  P  P19  1  0.000000  0.352455  0.103391  1
  Ir  Ir20  1  0.500000  0.500148  0.178096  1
  Ir  Ir21  1  0.000000  0.999662  0.822115  1
  Ir  Ir22  1  0.500000  0.500091  0.702514  1
  Ir  Ir23  1  0.000000  0.999129  0.297056  1
  Ir  Ir24  1  0.500000  0.339028  0.997841  1
  Ir  Ir25  1  0.500000  0.661263  0.998440  1
  Ir  Ir26  1  0.000000  0.160502  0.002338  1
  Ir  Ir27  1  0.000000  0.838944  0.002942  1
  Ir  Ir28  1  0.500000  0.292530  0.429354  1
  Ir  Ir29  1  0.500000  0.707192  0.428569  1
  Ir  Ir30  1  0.000000  0.206830  0.570636  1
  Ir  Ir31  1  0.000000  0.792798  0.570331  1
  Ir  Ir32  1  0.500000  0.870305  0.714548  1
  Ir  Ir33  1  0.500000  0.129564  0.714879  1
  Ir  Ir34  1  0.000000  0.631400  0.283893  1
  Ir  Ir35  1  0.000000  0.370721  0.285551  1
