# generated using pymatgen
data_Cr2Sb12OsPd
_symmetry_space_group_name_H-M   'P 1'
_cell_length_a   8.14687605
_cell_length_b   8.14440675
_cell_length_c   8.16029000
_cell_angle_alpha   109.45836271
_cell_angle_beta   109.45442764
_cell_angle_gamma   109.36066965
_symmetry_Int_Tables_number   1
_chemical_formula_structural   Cr2Sb12OsPd
_chemical_formula_sum   'Cr2 Sb12 Os1 Pd1'
_cell_volume   417.52563431
_cell_formula_units_Z   1
loop_
 _symmetry_equiv_pos_site_id
 _symmetry_equiv_pos_as_xyz
  1  'x, y, z'
loop_
 _atom_site_type_symbol
 _atom_site_label
 _atom_site_symmetry_multiplicity
 _atom_site_fract_x
 _atom_site_fract_y
 _atom_site_fract_z
 _atom_site_occupancy
  Cr  Cr0  1  0.000000  0.000000  0.500000  1
  Cr  Cr1  1  0.500000  0.500000  0.500000  1
  Sb  Sb2  1  0.846104  0.656326  0.501960  1
  Sb  Sb3  1  0.851210  0.344059  0.187015  1
  Sb  Sb4  1  0.148790  0.655941  0.812985  1
  Sb  Sb5  1  0.335068  0.491832  0.151016  1
  Sb  Sb6  1  0.153896  0.343674  0.498040  1
  Sb  Sb7  1  0.654289  0.806867  0.153439  1
  Sb  Sb8  1  0.184215  0.843135  0.334399  1
  Sb  Sb9  1  0.664932  0.508168  0.848984  1
  Sb  Sb10  1  0.815785  0.156865  0.665601  1
  Sb  Sb11  1  0.345711  0.193133  0.846561  1
  Sb  Sb12  1  0.501378  0.847471  0.654259  1
  Sb  Sb13  1  0.498622  0.152529  0.345741  1
  Os  Os14  1  0.000000  0.500000  0.000000  1
  Pd  Pd15  1  0.500000  0.000000  0.000000  1
