# generated using pymatgen
data_La7Pr(WC2)4
_symmetry_space_group_name_H-M   'P 1'
_cell_length_a   5.83723257
_cell_length_b   5.83723180
_cell_length_c   10.72894561
_cell_angle_alpha   90.18068618
_cell_angle_beta   90.18068505
_cell_angle_gamma   89.83453073
_symmetry_Int_Tables_number   1
_chemical_formula_structural   La7Pr(WC2)4
_chemical_formula_sum   'La7 Pr1 W4 C8'
_cell_volume   365.56521331
_cell_formula_units_Z   1
loop_
 _symmetry_equiv_pos_site_id
 _symmetry_equiv_pos_as_xyz
  1  'x, y, z'
loop_
 _atom_site_type_symbol
 _atom_site_label
 _atom_site_symmetry_multiplicity
 _atom_site_fract_x
 _atom_site_fract_y
 _atom_site_fract_z
 _atom_site_occupancy
  La  La0  1  0.806854  0.806854  0.656016  1
  La  La1  1  0.193618  0.193618  0.657004  1
  La  La2  1  0.804692  0.804692  0.342958  1
  La  La3  1  0.307354  0.693298  0.155909  1
  La  La4  1  0.693298  0.307354  0.155909  1
  La  La5  1  0.692913  0.306914  0.843756  1
  La  La6  1  0.306914  0.692913  0.843756  1
  Pr  Pr7  1  0.195126  0.195126  0.345236  1
  W  W8  1  0.176545  0.176545  0.000764  1
  W  W9  1  0.321993  0.676226  0.499476  1
  W  W10  1  0.676226  0.321993  0.499476  1
  W  W11  1  0.823913  0.823913  0.000178  1
  C  C12  1  0.500191  0.999952  0.999859  1
  C  C13  1  0.498875  0.999854  0.499472  1
  C  C14  1  0.999854  0.498875  0.499472  1
  C  C15  1  0.999952  0.500191  0.999859  1
  C  C16  1  0.999864  0.999864  0.861706  1
  C  C17  1  0.500125  0.500125  0.361154  1
  C  C18  1  0.500365  0.500365  0.638423  1
  C  C19  1  0.001326  0.001326  0.139619  1
