# generated using pymatgen
data_Ca6Zn16Ir7
_symmetry_space_group_name_H-M   'P 1'
_cell_length_a   8.96485387
_cell_length_b   8.96507698
_cell_length_c   8.96575401
_cell_angle_alpha   60.00061764
_cell_angle_beta   60.00192098
_cell_angle_gamma   60.00237796
_symmetry_Int_Tables_number   1
_chemical_formula_structural   Ca6Zn16Ir7
_chemical_formula_sum   'Ca6 Zn16 Ir7'
_cell_volume   509.54811114
_cell_formula_units_Z   1
loop_
 _symmetry_equiv_pos_site_id
 _symmetry_equiv_pos_as_xyz
  1  'x, y, z'
loop_
 _atom_site_type_symbol
 _atom_site_label
 _atom_site_symmetry_multiplicity
 _atom_site_fract_x
 _atom_site_fract_y
 _atom_site_fract_z
 _atom_site_occupancy
  Ca  Ca0  1  0.212800  0.787203  0.787160  1
  Ca  Ca1  1  0.787200  0.212797  0.212840  1
  Ca  Ca2  1  0.787200  0.212799  0.787161  1
  Ca  Ca3  1  0.787183  0.787187  0.212816  1
  Ca  Ca4  1  0.212800  0.787201  0.212839  1
  Ca  Ca5  1  0.212816  0.212814  0.787184  1
  Zn  Zn6  1  0.829335  0.829333  0.829326  1
  Zn  Zn7  1  0.829337  0.829331  0.512005  1
  Zn  Zn8  1  0.512023  0.829331  0.829323  1
  Zn  Zn9  1  0.829336  0.512017  0.829322  1
  Zn  Zn10  1  0.170665  0.170667  0.170674  1
  Zn  Zn11  1  0.170663  0.170669  0.487995  1
  Zn  Zn12  1  0.170664  0.487983  0.170678  1
  Zn  Zn13  1  0.487977  0.170669  0.170677  1
  Zn  Zn14  1  0.620533  0.620527  0.620523  1
  Zn  Zn15  1  0.620534  0.620527  0.138416  1
  Zn  Zn16  1  0.138416  0.620533  0.620526  1
  Zn  Zn17  1  0.620538  0.138414  0.620524  1
  Zn  Zn18  1  0.379467  0.379473  0.379477  1
  Zn  Zn19  1  0.379466  0.379473  0.861584  1
  Zn  Zn20  1  0.379462  0.861586  0.379476  1
  Zn  Zn21  1  0.861583  0.379467  0.379474  1
  Ir  Ir22  1  0.500000  0.500000  0.500000  1
  Ir  Ir23  1  0.000000  0.500000  0.500000  1
  Ir  Ir24  1  0.500000  0.000000  0.000000  1
  Ir  Ir25  1  0.500000  0.000000  0.500000  1
  Ir  Ir26  1  0.500000  0.500000  0.000000  1
  Ir  Ir27  1  0.000000  0.500000  0.000000  1
  Ir  Ir28  1  0.000000  0.000000  0.500000  1
