# generated using pymatgen
data_Hf3FeRe2Ge3
_symmetry_space_group_name_H-M   'P 1'
_cell_length_a   6.99201674
_cell_length_b   6.89981829
_cell_length_c   3.48866200
_cell_angle_alpha   90.00000000
_cell_angle_beta   90.00000000
_cell_angle_gamma   119.56475406
_symmetry_Int_Tables_number   1
_chemical_formula_structural   Hf3FeRe2Ge3
_chemical_formula_sum   'Hf3 Fe1 Re2 Ge3'
_cell_volume   146.39212679
_cell_formula_units_Z   1
loop_
 _symmetry_equiv_pos_site_id
 _symmetry_equiv_pos_as_xyz
  1  'x, y, z'
loop_
 _atom_site_type_symbol
 _atom_site_label
 _atom_site_symmetry_multiplicity
 _atom_site_fract_x
 _atom_site_fract_y
 _atom_site_fract_z
 _atom_site_occupancy
  Hf  Hf0  1  0.586203  0.987825  0.500000  1
  Hf  Hf1  1  0.413797  0.401623  0.500000  1
  Hf  Hf2  1  0.000000  0.601880  0.500000  1
  Fe  Fe3  1  0.000000  0.258132  0.000000  1
  Re  Re4  1  0.252256  0.998567  0.000000  1
  Re  Re5  1  0.747744  0.746310  0.000000  1
  Ge  Ge6  1  0.000000  0.025489  0.500000  1
  Ge  Ge7  1  0.323840  0.652008  0.000000  1
  Ge  Ge8  1  0.676160  0.328166  0.000000  1
