# generated using pymatgen
data_Tm5(OsO6)2
_symmetry_space_group_name_H-M   'P 1'
_cell_length_a   6.79239076
_cell_length_b   6.79239072
_cell_length_c   7.38905943
_cell_angle_alpha   74.02537702
_cell_angle_beta   74.02537875
_cell_angle_gamma   48.74419239
_symmetry_Int_Tables_number   1
_chemical_formula_structural   Tm5(OsO6)2
_chemical_formula_sum   'Tm5 Os2 O12'
_cell_volume   244.30630926
_cell_formula_units_Z   1
loop_
 _symmetry_equiv_pos_site_id
 _symmetry_equiv_pos_as_xyz
  1  'x, y, z'
loop_
 _atom_site_type_symbol
 _atom_site_label
 _atom_site_symmetry_multiplicity
 _atom_site_fract_x
 _atom_site_fract_y
 _atom_site_fract_z
 _atom_site_occupancy
  Tm  Tm0  1  0.800193  0.800193  0.359141  1
  Tm  Tm1  1  0.199807  0.199807  0.640859  1
  Tm  Tm2  1  0.187912  0.187912  0.173382  1
  Tm  Tm3  1  0.812088  0.812088  0.826618  1
  Tm  Tm4  1  0.500000  0.500000  0.500000  1
  Os  Os5  1  0.280094  0.719906  0.000000  1
  Os  Os6  1  0.719906  0.280094  0.000000  1
  O  O7  1  0.413277  0.922948  0.911988  1
  O  O8  1  0.077052  0.586723  0.088012  1
  O  O9  1  0.586723  0.077052  0.088012  1
  O  O10  1  0.922948  0.413277  0.911988  1
  O  O11  1  0.599005  0.096070  0.571710  1
  O  O12  1  0.903930  0.400995  0.428290  1
  O  O13  1  0.400995  0.903930  0.428290  1
  O  O14  1  0.000621  0.000621  0.821571  1
  O  O15  1  0.999379  0.999379  0.178429  1
  O  O16  1  0.497965  0.497965  0.794081  1
  O  O17  1  0.502035  0.502035  0.205919  1
  O  O18  1  0.096070  0.599005  0.571710  1
