# generated using pymatgen
data_YNi3P3Ru2
_symmetry_space_group_name_H-M   'P 1'
_cell_length_a   3.78176500
_cell_length_b   10.68584800
_cell_length_c   11.88888300
_cell_angle_alpha   90.00000000
_cell_angle_beta   90.00000000
_cell_angle_gamma   90.00000000
_symmetry_Int_Tables_number   1
_chemical_formula_structural   YNi3P3Ru2
_chemical_formula_sum   'Y4 Ni12 P12 Ru8'
_cell_volume   480.44600179
_cell_formula_units_Z   4
loop_
 _symmetry_equiv_pos_site_id
 _symmetry_equiv_pos_as_xyz
  1  'x, y, z'
loop_
 _atom_site_type_symbol
 _atom_site_label
 _atom_site_symmetry_multiplicity
 _atom_site_fract_x
 _atom_site_fract_y
 _atom_site_fract_z
 _atom_site_occupancy
  Y  Y0  1  0.250000  0.590176  0.707904  1
  Y  Y1  1  0.250000  0.909824  0.207904  1
  Y  Y2  1  0.750000  0.409824  0.292096  1
  Y  Y3  1  0.750000  0.090176  0.792096  1
  Ni  Ni4  1  0.250000  0.225832  0.183414  1
  Ni  Ni5  1  0.250000  0.274168  0.683414  1
  Ni  Ni6  1  0.750000  0.774168  0.816586  1
  Ni  Ni7  1  0.750000  0.725832  0.316586  1
  Ni  Ni8  1  0.250000  0.887906  0.702634  1
  Ni  Ni9  1  0.250000  0.612094  0.202634  1
  Ni  Ni10  1  0.750000  0.112094  0.297366  1
  Ni  Ni11  1  0.750000  0.387906  0.797366  1
  Ni  Ni12  1  0.250000  0.464649  0.930927  1
  Ni  Ni13  1  0.250000  0.035351  0.430927  1
  Ni  Ni14  1  0.750000  0.535351  0.069073  1
  Ni  Ni15  1  0.750000  0.964649  0.569073  1
  P  P16  1  0.250000  0.419255  0.112600  1
  P  P17  1  0.250000  0.080745  0.612600  1
  P  P18  1  0.750000  0.580745  0.887400  1
  P  P19  1  0.750000  0.919255  0.387400  1
  P  P20  1  0.250000  0.271945  0.873394  1
  P  P21  1  0.250000  0.228055  0.373394  1
  P  P22  1  0.750000  0.728055  0.126606  1
  P  P23  1  0.750000  0.771945  0.626606  1
  P  P24  1  0.250000  0.598074  0.389927  1
  P  P25  1  0.250000  0.901926  0.889927  1
  P  P26  1  0.750000  0.401926  0.610073  1
  P  P27  1  0.750000  0.098074  0.110073  1
  Ru  Ru28  1  0.250000  0.708258  0.984888  1
  Ru  Ru29  1  0.250000  0.791742  0.484888  1
  Ru  Ru30  1  0.750000  0.291742  0.015112  1
  Ru  Ru31  1  0.750000  0.208258  0.515112  1
  Ru  Ru32  1  0.250000  0.404068  0.489861  1
  Ru  Ru33  1  0.250000  0.095932  0.989861  1
  Ru  Ru34  1  0.750000  0.595932  0.510139  1
  Ru  Ru35  1  0.750000  0.904068  0.010139  1
