# generated using pymatgen
data_Nd5Sn2Te
_symmetry_space_group_name_H-M   'P 1'
_cell_length_a   9.36690400
_cell_length_b   9.36742250
_cell_length_c   6.61389800
_cell_angle_alpha   90.00000000
_cell_angle_beta   90.00000000
_cell_angle_gamma   120.00182716
_symmetry_Int_Tables_number   1
_chemical_formula_structural   Nd5Sn2Te
_chemical_formula_sum   'Nd10 Sn4 Te2'
_cell_volume   502.56970594
_cell_formula_units_Z   2
loop_
 _symmetry_equiv_pos_site_id
 _symmetry_equiv_pos_as_xyz
  1  'x, y, z'
loop_
 _atom_site_type_symbol
 _atom_site_label
 _atom_site_symmetry_multiplicity
 _atom_site_fract_x
 _atom_site_fract_y
 _atom_site_fract_z
 _atom_site_occupancy
  Nd  Nd0  1  0.331477  0.665739  0.000000  1
  Nd  Nd1  1  0.666301  0.333150  0.500000  1
  Nd  Nd2  1  0.666301  0.333150  0.000000  1
  Nd  Nd3  1  0.331477  0.665739  0.500000  1
  Nd  Nd4  1  0.242483  0.997499  0.250000  1
  Nd  Nd5  1  0.242483  0.244984  0.750000  1
  Nd  Nd6  1  0.003261  0.755617  0.750000  1
  Nd  Nd7  1  0.003261  0.247644  0.250000  1
  Nd  Nd8  1  0.754405  0.749840  0.250000  1
  Nd  Nd9  1  0.754405  0.004565  0.750000  1
  Sn  Sn10  1  0.999276  0.391206  0.750000  1
  Sn  Sn11  1  0.999276  0.608070  0.250000  1
  Sn  Sn12  1  0.388304  0.387754  0.250000  1
  Sn  Sn13  1  0.388304  0.000550  0.750000  1
  Te  Te14  1  0.614492  0.000464  0.250000  1
  Te  Te15  1  0.614492  0.614028  0.750000  1
