# generated using pymatgen
data_In2Sn(BiO4)3
_symmetry_space_group_name_H-M   'P 1'
_cell_length_a   4.99574310
_cell_length_b   4.99574310
_cell_length_c   10.16104600
_cell_angle_alpha   90.00000000
_cell_angle_beta   90.00000000
_cell_angle_gamma   90.14675634
_symmetry_Int_Tables_number   1
_chemical_formula_structural   In2Sn(BiO4)3
_chemical_formula_sum   'In2 Sn1 Bi3 O12'
_cell_volume   253.59295638
_cell_formula_units_Z   1
loop_
 _symmetry_equiv_pos_site_id
 _symmetry_equiv_pos_as_xyz
  1  'x, y, z'
loop_
 _atom_site_type_symbol
 _atom_site_label
 _atom_site_symmetry_multiplicity
 _atom_site_fract_x
 _atom_site_fract_y
 _atom_site_fract_z
 _atom_site_occupancy
  In  In0  1  0.000000  0.000000  0.996472  1
  In  In1  1  0.500000  0.500000  0.503787  1
  Sn  Sn2  1  0.500000  0.500000  0.832255  1
  Bi  Bi3  1  0.000000  0.000000  0.334115  1
  Bi  Bi4  1  0.500000  0.500000  0.160706  1
  Bi  Bi5  1  0.000000  0.000000  0.672983  1
  O  O6  1  0.690989  0.690989  0.673134  1
  O  O7  1  0.309011  0.309011  0.673134  1
  O  O8  1  0.691701  0.691701  0.331179  1
  O  O9  1  0.193407  0.806593  0.166440  1
  O  O10  1  0.806593  0.193407  0.166440  1
  O  O11  1  0.799320  0.200680  0.832727  1
  O  O12  1  0.310034  0.310034  0.993742  1
  O  O13  1  0.191920  0.808080  0.502620  1
  O  O14  1  0.808080  0.191920  0.502620  1
  O  O15  1  0.689966  0.689966  0.993742  1
  O  O16  1  0.308299  0.308299  0.331179  1
  O  O17  1  0.200680  0.799320  0.832727  1
