# generated using pymatgen
data_Pr6MgNi17As12
_symmetry_space_group_name_H-M   'P 1'
_cell_length_a   4.00789500
_cell_length_b   11.22632800
_cell_length_c   13.06776900
_cell_angle_alpha   90.00000000
_cell_angle_beta   90.00000000
_cell_angle_gamma   90.00000000
_symmetry_Int_Tables_number   1
_chemical_formula_structural   Pr6MgNi17As12
_chemical_formula_sum   'Pr6 Mg1 Ni17 As12'
_cell_volume   587.97046476
_cell_formula_units_Z   1
loop_
 _symmetry_equiv_pos_site_id
 _symmetry_equiv_pos_as_xyz
  1  'x, y, z'
loop_
 _atom_site_type_symbol
 _atom_site_label
 _atom_site_symmetry_multiplicity
 _atom_site_fract_x
 _atom_site_fract_y
 _atom_site_fract_z
 _atom_site_occupancy
  Pr  Pr0  1  0.000000  0.500000  0.525250  1
  Pr  Pr1  1  0.500000  0.000000  0.478874  1
  Pr  Pr2  1  0.500000  0.816604  0.208059  1
  Pr  Pr3  1  0.500000  0.183396  0.208059  1
  Pr  Pr4  1  0.000000  0.685608  0.797389  1
  Pr  Pr5  1  0.000000  0.314392  0.797389  1
  Mg  Mg6  1  0.500000  0.500000  0.144629  1
  Ni  Ni7  1  0.000000  0.000000  0.843382  1
  Ni  Ni8  1  0.500000  0.500000  0.701308  1
  Ni  Ni9  1  0.000000  0.000000  0.302035  1
  Ni  Ni10  1  0.000000  0.500000  0.984748  1
  Ni  Ni11  1  0.500000  0.000000  0.018329  1
  Ni  Ni12  1  0.500000  0.325563  0.993357  1
  Ni  Ni13  1  0.500000  0.674437  0.993357  1
  Ni  Ni14  1  0.000000  0.156778  0.999204  1
  Ni  Ni15  1  0.000000  0.843222  0.999204  1
  Ni  Ni16  1  0.500000  0.302378  0.426653  1
  Ni  Ni17  1  0.500000  0.697622  0.426653  1
  Ni  Ni18  1  0.000000  0.196594  0.576488  1
  Ni  Ni19  1  0.000000  0.803406  0.576488  1
  Ni  Ni20  1  0.500000  0.882961  0.708335  1
  Ni  Ni21  1  0.500000  0.117039  0.708335  1
  Ni  Ni22  1  0.000000  0.617134  0.292217  1
  Ni  Ni23  1  0.000000  0.382866  0.292217  1
  As  As24  1  0.500000  0.500000  0.881321  1
  As  As25  1  0.000000  0.000000  0.123086  1
  As  As26  1  0.500000  0.500000  0.348290  1
  As  As27  1  0.000000  0.000000  0.659672  1
  As  As28  1  0.500000  0.309901  0.613831  1
  As  As29  1  0.500000  0.690099  0.613831  1
  As  As30  1  0.000000  0.190186  0.390205  1
  As  As31  1  0.000000  0.809814  0.390205  1
  As  As32  1  0.500000  0.853796  0.891209  1
  As  As33  1  0.500000  0.146204  0.891209  1
  As  As34  1  0.000000  0.662979  0.097591  1
  As  As35  1  0.000000  0.337021  0.097591  1
