# generated using pymatgen
data_NaSm6AuBr12
_symmetry_space_group_name_H-M   'P 1'
_cell_length_a   9.49148022
_cell_length_b   9.48739630
_cell_length_c   9.49332195
_cell_angle_alpha   107.00304087
_cell_angle_beta   107.05800500
_cell_angle_gamma   106.98413869
_symmetry_Int_Tables_number   1
_chemical_formula_structural   NaSm6AuBr12
_chemical_formula_sum   'Na1 Sm6 Au1 Br12'
_cell_volume   711.64951972
_cell_formula_units_Z   1
loop_
 _symmetry_equiv_pos_site_id
 _symmetry_equiv_pos_as_xyz
  1  'x, y, z'
loop_
 _atom_site_type_symbol
 _atom_site_label
 _atom_site_symmetry_multiplicity
 _atom_site_fract_x
 _atom_site_fract_y
 _atom_site_fract_z
 _atom_site_occupancy
  Na  Na0  1  0.500000  0.500000  0.500000  1
  Sm  Sm1  1  0.113638  0.325985  0.031693  1
  Sm  Sm2  1  0.326130  0.031537  0.114247  1
  Sm  Sm3  1  0.031286  0.113645  0.325719  1
  Sm  Sm4  1  0.968715  0.886355  0.674282  1
  Sm  Sm5  1  0.673870  0.968464  0.885753  1
  Sm  Sm6  1  0.886362  0.674015  0.968307  1
  Au  Au7  1  0.000000  0.000000  0.000000  1
  Br  Br8  1  0.216506  0.682846  0.072652  1
  Br  Br9  1  0.450568  0.369555  0.152053  1
  Br  Br10  1  0.682969  0.072814  0.215977  1
  Br  Br11  1  0.927322  0.783503  0.316764  1
  Br  Br12  1  0.152188  0.451068  0.369793  1
  Br  Br13  1  0.369385  0.151977  0.450925  1
  Br  Br14  1  0.630615  0.848023  0.549076  1
  Br  Br15  1  0.847813  0.548932  0.630207  1
  Br  Br16  1  0.072679  0.216497  0.683237  1
  Br  Br17  1  0.317032  0.927187  0.784023  1
  Br  Br18  1  0.549432  0.630445  0.847948  1
  Br  Br19  1  0.783494  0.317154  0.927348  1
