# generated using pymatgen
data_Dy4TmLuGa10
_symmetry_space_group_name_H-M   'P 1'
_cell_length_a   6.04954000
_cell_length_b   9.55966600
_cell_length_c   11.54296700
_cell_angle_alpha   90.00000000
_cell_angle_beta   90.00000000
_cell_angle_gamma   90.00000000
_symmetry_Int_Tables_number   1
_chemical_formula_structural   Dy4TmLuGa10
_chemical_formula_sum   'Dy8 Tm2 Lu2 Ga20'
_cell_volume   667.54804089
_cell_formula_units_Z   2
loop_
 _symmetry_equiv_pos_site_id
 _symmetry_equiv_pos_as_xyz
  1  'x, y, z'
loop_
 _atom_site_type_symbol
 _atom_site_label
 _atom_site_symmetry_multiplicity
 _atom_site_fract_x
 _atom_site_fract_y
 _atom_site_fract_z
 _atom_site_occupancy
  Dy  Dy0  1  0.890750  0.506330  0.351092  1
  Dy  Dy1  1  0.609250  0.993670  0.851092  1
  Dy  Dy2  1  0.109558  0.006682  0.648800  1
  Dy  Dy3  1  0.390442  0.493318  0.148800  1
  Dy  Dy4  1  0.109558  0.493318  0.648800  1
  Dy  Dy5  1  0.390442  0.006682  0.148800  1
  Dy  Dy6  1  0.890750  0.993670  0.351092  1
  Dy  Dy7  1  0.609250  0.506330  0.851092  1
  Tm  Tm8  1  0.849823  0.750000  0.074133  1
  Tm  Tm9  1  0.650177  0.750000  0.574133  1
  Lu  Lu10  1  0.150476  0.250000  0.925679  1
  Lu  Lu11  1  0.349524  0.250000  0.425679  1
  Ga  Ga12  1  0.876322  0.053399  0.089566  1
  Ga  Ga13  1  0.623678  0.446601  0.589566  1
  Ga  Ga14  1  0.123662  0.552919  0.910459  1
  Ga  Ga15  1  0.376338  0.947081  0.410459  1
  Ga  Ga16  1  0.123662  0.947081  0.910459  1
  Ga  Ga17  1  0.376338  0.552919  0.410459  1
  Ga  Ga18  1  0.876322  0.446601  0.089566  1
  Ga  Ga19  1  0.623678  0.053399  0.589566  1
  Ga  Ga20  1  0.167400  0.750000  0.254180  1
  Ga  Ga21  1  0.332600  0.750000  0.754180  1
  Ga  Ga22  1  0.833277  0.250000  0.746012  1
  Ga  Ga23  1  0.666723  0.250000  0.246012  1
  Ga  Ga24  1  0.378118  0.750000  0.001481  1
  Ga  Ga25  1  0.121882  0.750000  0.501481  1
  Ga  Ga26  1  0.621085  0.250000  0.998515  1
  Ga  Ga27  1  0.878915  0.250000  0.498515  1
  Ga  Ga28  1  0.604178  0.750000  0.298913  1
  Ga  Ga29  1  0.895822  0.750000  0.798913  1
  Ga  Ga30  1  0.395694  0.250000  0.701252  1
  Ga  Ga31  1  0.104306  0.250000  0.201252  1
