# generated using pymatgen
data_Ho10Sn2BiPb3
_symmetry_space_group_name_H-M   'P 1'
_cell_length_a   9.01816000
_cell_length_b   9.01376991
_cell_length_c   6.51506900
_cell_angle_alpha   90.00000000
_cell_angle_beta   90.00000000
_cell_angle_gamma   120.01611256
_symmetry_Int_Tables_number   1
_chemical_formula_structural   Ho10Sn2BiPb3
_chemical_formula_sum   'Ho10 Sn2 Bi1 Pb3'
_cell_volume   458.56776202
_cell_formula_units_Z   1
loop_
 _symmetry_equiv_pos_site_id
 _symmetry_equiv_pos_as_xyz
  1  'x, y, z'
loop_
 _atom_site_type_symbol
 _atom_site_label
 _atom_site_symmetry_multiplicity
 _atom_site_fract_x
 _atom_site_fract_y
 _atom_site_fract_z
 _atom_site_occupancy
  Ho  Ho0  1  0.994020  0.757704  0.750000  1
  Ho  Ho1  1  0.000339  0.238619  0.250000  1
  Ho  Ho2  1  0.761720  0.761381  0.250000  1
  Ho  Ho3  1  0.765438  0.000000  0.750000  1
  Ho  Ho4  1  0.236316  0.242296  0.750000  1
  Ho  Ho5  1  0.237322  0.000000  0.250000  1
  Ho  Ho6  1  0.332726  0.662480  0.501234  1
  Ho  Ho7  1  0.670248  0.337520  0.998766  1
  Ho  Ho8  1  0.670248  0.337520  0.501234  1
  Ho  Ho9  1  0.332726  0.662480  0.998766  1
  Sn  Sn10  1  0.999661  0.395460  0.750000  1
  Sn  Sn11  1  0.604202  0.604540  0.750000  1
  Bi  Bi12  1  0.392607  0.000000  0.750000  1
  Pb  Pb13  1  0.395068  0.393394  0.250000  1
  Pb  Pb14  1  0.001674  0.606606  0.250000  1
  Pb  Pb15  1  0.605685  0.000000  0.250000  1
