# generated using pymatgen
data_TmU2Sn3Ir2Rh
_symmetry_space_group_name_H-M   'P 1'
_cell_length_a   7.46527000
_cell_length_b   7.46527020
_cell_length_c   3.98777000
_cell_angle_alpha   90.00000000
_cell_angle_beta   90.00000000
_cell_angle_gamma   121.25143447
_symmetry_Int_Tables_number   1
_chemical_formula_structural   TmU2Sn3Ir2Rh
_chemical_formula_sum   'Tm1 U2 Sn3 Ir2 Rh1'
_cell_volume   189.99225729
_cell_formula_units_Z   1
loop_
 _symmetry_equiv_pos_site_id
 _symmetry_equiv_pos_as_xyz
  1  'x, y, z'
loop_
 _atom_site_type_symbol
 _atom_site_label
 _atom_site_symmetry_multiplicity
 _atom_site_fract_x
 _atom_site_fract_y
 _atom_site_fract_z
 _atom_site_occupancy
  Tm  Tm0  1  0.410873  0.410873  0.500000  1
  U  U1  1  0.582697  0.001562  0.500000  1
  U  U2  1  0.001562  0.582697  0.500000  1
  Sn  Sn3  1  0.737217  0.737217  0.000000  1
  Sn  Sn4  1  0.253547  0.008135  0.000000  1
  Sn  Sn5  1  0.008135  0.253547  0.000000  1
  Ir  Ir6  1  0.681396  0.330749  0.000000  1
  Ir  Ir7  1  0.330749  0.681396  0.000000  1
  Rh  Rh8  1  0.993824  0.993824  0.500000  1
