# generated using pymatgen
data_Lu5Sn4
_symmetry_space_group_name_H-M   'P 1'
_cell_length_a   7.89264700
_cell_length_b   8.01022000
_cell_length_c   15.14354600
_cell_angle_alpha   90.00000000
_cell_angle_beta   90.00000000
_cell_angle_gamma   90.00000000
_symmetry_Int_Tables_number   1
_chemical_formula_structural   Lu5Sn4
_chemical_formula_sum   'Lu20 Sn16'
_cell_volume   957.40282486
_cell_formula_units_Z   4
loop_
 _symmetry_equiv_pos_site_id
 _symmetry_equiv_pos_as_xyz
  1  'x, y, z'
loop_
 _atom_site_type_symbol
 _atom_site_label
 _atom_site_symmetry_multiplicity
 _atom_site_fract_x
 _atom_site_fract_y
 _atom_site_fract_z
 _atom_site_occupancy
  Lu  Lu0  1  0.368394  0.836016  0.877656  1
  Lu  Lu1  1  0.868394  0.663984  0.622344  1
  Lu  Lu2  1  0.631606  0.163984  0.377656  1
  Lu  Lu3  1  0.131606  0.336016  0.122344  1
  Lu  Lu4  1  0.631606  0.163984  0.122344  1
  Lu  Lu5  1  0.131606  0.336016  0.377656  1
  Lu  Lu6  1  0.368394  0.836016  0.622344  1
  Lu  Lu7  1  0.868394  0.663984  0.877656  1
  Lu  Lu8  1  0.522531  0.320201  0.902857  1
  Lu  Lu9  1  0.022531  0.179799  0.597143  1
  Lu  Lu10  1  0.477469  0.679799  0.402857  1
  Lu  Lu11  1  0.977469  0.820201  0.097143  1
  Lu  Lu12  1  0.477469  0.679799  0.097143  1
  Lu  Lu13  1  0.977469  0.820201  0.402857  1
  Lu  Lu14  1  0.522531  0.320201  0.597143  1
  Lu  Lu15  1  0.022531  0.179799  0.902857  1
  Lu  Lu16  1  0.197749  0.503602  0.750000  1
  Lu  Lu17  1  0.697749  0.996398  0.750000  1
  Lu  Lu18  1  0.802251  0.496398  0.250000  1
  Lu  Lu19  1  0.302251  0.003602  0.250000  1
  Sn  Sn20  1  0.291683  0.035078  0.041433  1
  Sn  Sn21  1  0.791683  0.464922  0.458567  1
  Sn  Sn22  1  0.708317  0.964922  0.541433  1
  Sn  Sn23  1  0.208317  0.535078  0.958567  1
  Sn  Sn24  1  0.708317  0.964922  0.958567  1
  Sn  Sn25  1  0.208317  0.535078  0.541433  1
  Sn  Sn26  1  0.291683  0.035078  0.458567  1
  Sn  Sn27  1  0.791683  0.464922  0.041433  1
  Sn  Sn28  1  0.563907  0.620232  0.750000  1
  Sn  Sn29  1  0.063907  0.879768  0.750000  1
  Sn  Sn30  1  0.436093  0.379768  0.250000  1
  Sn  Sn31  1  0.936093  0.120232  0.250000  1
  Sn  Sn32  1  0.331799  0.148850  0.750000  1
  Sn  Sn33  1  0.831799  0.351150  0.750000  1
  Sn  Sn34  1  0.668201  0.851150  0.250000  1
  Sn  Sn35  1  0.168201  0.648850  0.250000  1
