# generated using pymatgen
data_SmDy5PtI10
_symmetry_space_group_name_H-M   'P 1'
_cell_length_a   7.74862908
_cell_length_b   9.76390645
_cell_length_c   9.82555774
_cell_angle_alpha   107.28835376
_cell_angle_beta   96.89921693
_cell_angle_gamma   104.83123892
_symmetry_Int_Tables_number   1
_chemical_formula_structural   SmDy5PtI10
_chemical_formula_sum   'Sm1 Dy5 Pt1 I10'
_cell_volume   670.45988457
_cell_formula_units_Z   1
loop_
 _symmetry_equiv_pos_site_id
 _symmetry_equiv_pos_as_xyz
  1  'x, y, z'
loop_
 _atom_site_type_symbol
 _atom_site_label
 _atom_site_symmetry_multiplicity
 _atom_site_fract_x
 _atom_site_fract_y
 _atom_site_fract_z
 _atom_site_occupancy
  Sm  Sm0  1  0.883311  0.958631  0.244426  1
  Dy  Dy1  1  0.114978  0.040503  0.759260  1
  Dy  Dy2  1  0.349001  0.126002  0.165052  1
  Dy  Dy3  1  0.651688  0.874504  0.834266  1
  Dy  Dy4  1  0.971814  0.286599  0.085741  1
  Dy  Dy5  1  0.028645  0.713209  0.912050  1
  Pt  Pt6  1  0.000552  0.999958  0.999163  1
  I  I7  1  0.354572  0.452397  0.272071  1
  I  I8  1  0.645008  0.547649  0.727952  1
  I  I9  1  0.915704  0.624086  0.176472  1
  I  I10  1  0.085301  0.372034  0.820704  1
  I  I11  1  0.450153  0.816521  0.089507  1
  I  I12  1  0.546466  0.182144  0.908301  1
  I  I13  1  0.264150  0.089095  0.464638  1
  I  I14  1  0.739782  0.912503  0.541239  1
  I  I15  1  0.778667  0.262596  0.346010  1
  I  I16  1  0.220205  0.741569  0.653149  1
