# generated using pymatgen
data_La2Y3Rh2
_symmetry_space_group_name_H-M   'P 1'
_cell_length_a   6.57028205
_cell_length_b   7.21773579
_cell_length_c   8.99415072
_cell_angle_alpha   96.49876389
_cell_angle_beta   111.42316383
_cell_angle_gamma   89.99999200
_symmetry_Int_Tables_number   1
_chemical_formula_structural   La2Y3Rh2
_chemical_formula_sum   'La4 Y6 Rh4'
_cell_volume   394.11062976
_cell_formula_units_Z   2
loop_
 _symmetry_equiv_pos_site_id
 _symmetry_equiv_pos_as_xyz
  1  'x, y, z'
loop_
 _atom_site_type_symbol
 _atom_site_label
 _atom_site_symmetry_multiplicity
 _atom_site_fract_x
 _atom_site_fract_y
 _atom_site_fract_z
 _atom_site_occupancy
  La  La0  1  0.981150  0.914959  0.193086  1
  La  La1  1  0.788063  0.585041  0.806914  1
  La  La2  1  0.018850  0.085041  0.806914  1
  La  La3  1  0.211937  0.414959  0.193086  1
  Y  Y4  1  0.643403  0.814957  0.432637  1
  Y  Y5  1  0.210766  0.685043  0.567363  1
  Y  Y6  1  0.356597  0.185043  0.567363  1
  Y  Y7  1  0.789234  0.314957  0.432637  1
  Y  Y8  1  0.427638  0.750000  0.000000  1
  Y  Y9  1  0.572362  0.250000  0.000000  1
  Rh  Rh10  1  0.819763  0.577418  0.224895  1
  Rh  Rh11  1  0.594869  0.922582  0.775105  1
  Rh  Rh12  1  0.180237  0.422582  0.775105  1
  Rh  Rh13  1  0.405131  0.077418  0.224895  1
