# generated using pymatgen
data_Tb2PrCu2Rh7
_symmetry_space_group_name_H-M   'P 1'
_cell_length_a   8.91119181
_cell_length_b   8.91119307
_cell_length_c   8.91119200
_cell_angle_alpha   35.17692600
_cell_angle_beta   35.17692570
_cell_angle_gamma   35.17692323
_symmetry_Int_Tables_number   1
_chemical_formula_structural   Tb2PrCu2Rh7
_chemical_formula_sum   'Tb2 Pr1 Cu2 Rh7'
_cell_volume   209.76498516
_cell_formula_units_Z   1
loop_
 _symmetry_equiv_pos_site_id
 _symmetry_equiv_pos_as_xyz
  1  'x, y, z'
loop_
 _atom_site_type_symbol
 _atom_site_label
 _atom_site_symmetry_multiplicity
 _atom_site_fract_x
 _atom_site_fract_y
 _atom_site_fract_z
 _atom_site_occupancy
  Tb  Tb0  1  0.859070  0.859070  0.859070  1
  Tb  Tb1  1  0.140930  0.140930  0.140930  1
  Pr  Pr2  1  0.000000  0.000000  0.000000  1
  Cu  Cu3  1  0.666245  0.666245  0.666245  1
  Cu  Cu4  1  0.333755  0.333755  0.333755  1
  Rh  Rh5  1  0.414779  0.414779  0.922074  1
  Rh  Rh6  1  0.922074  0.414779  0.414779  1
  Rh  Rh7  1  0.414779  0.922074  0.414779  1
  Rh  Rh8  1  0.500000  0.500000  0.500000  1
  Rh  Rh9  1  0.585221  0.077926  0.585221  1
  Rh  Rh10  1  0.077926  0.585221  0.585221  1
  Rh  Rh11  1  0.585221  0.585221  0.077926  1
