# generated using pymatgen
data_NdPa5F24
_symmetry_space_group_name_H-M   'P 1'
_cell_length_a   8.47216936
_cell_length_b   8.47217075
_cell_length_c   8.53263964
_cell_angle_alpha   62.99148310
_cell_angle_beta   62.99147796
_cell_angle_gamma   80.01341458
_symmetry_Int_Tables_number   1
_chemical_formula_structural   NdPa5F24
_chemical_formula_sum   'Nd1 Pa5 F24'
_cell_volume   485.73272334
_cell_formula_units_Z   1
loop_
 _symmetry_equiv_pos_site_id
 _symmetry_equiv_pos_as_xyz
  1  'x, y, z'
loop_
 _atom_site_type_symbol
 _atom_site_label
 _atom_site_symmetry_multiplicity
 _atom_site_fract_x
 _atom_site_fract_y
 _atom_site_fract_z
 _atom_site_occupancy
  Nd  Nd0  1  0.788111  0.211889  0.250000  1
  Pa  Pa1  1  0.225767  0.366206  0.329724  1
  Pa  Pa2  1  0.633794  0.774233  0.170276  1
  Pa  Pa3  1  0.778353  0.633295  0.669157  1
  Pa  Pa4  1  0.366705  0.221647  0.830843  1
  Pa  Pa5  1  0.213882  0.786118  0.750000  1
  F  F6  1  0.721160  0.019039  0.151619  1
  F  F7  1  0.980961  0.278840  0.348381  1
  F  F8  1  0.276772  0.972376  0.843675  1
  F  F9  1  0.027624  0.723228  0.656325  1
  F  F10  1  0.494299  0.259597  0.290801  1
  F  F11  1  0.740403  0.505701  0.209199  1
  F  F12  1  0.494271  0.997084  0.003476  1
  F  F13  1  0.002916  0.505729  0.496524  1
  F  F14  1  0.395948  0.604052  0.250000  1
  F  F15  1  0.598996  0.401004  0.750000  1
  F  F16  1  0.809984  0.406419  0.919981  1
  F  F17  1  0.593581  0.190016  0.580019  1
  F  F18  1  0.192307  0.601466  0.068313  1
  F  F19  1  0.398534  0.807693  0.431687  1
  F  F20  1  0.079634  0.170706  0.038688  1
  F  F21  1  0.829294  0.920366  0.461312  1
  F  F22  1  0.935085  0.824791  0.952951  1
  F  F23  1  0.175209  0.064915  0.547049  1
  F  F24  1  0.678173  0.742471  0.894113  1
  F  F25  1  0.257529  0.321827  0.605887  1
  F  F26  1  0.323808  0.266545  0.100522  1
  F  F27  1  0.733455  0.676192  0.399478  1
  F  F28  1  0.256472  0.503027  0.787705  1
  F  F29  1  0.496973  0.743528  0.712295  1
