# generated using pymatgen
data_Tm4MnFe15(P3W)4
_symmetry_space_group_name_H-M   'P 1'
_cell_length_a   3.66356800
_cell_length_b   10.36759703
_cell_length_c   12.09304262
_cell_angle_alpha   89.72500332
_cell_angle_beta   90.00000000
_cell_angle_gamma   90.00000000
_symmetry_Int_Tables_number   1
_chemical_formula_structural   Tm4MnFe15(P3W)4
_chemical_formula_sum   'Tm4 Mn1 Fe15 P12 W4'
_cell_volume   459.31745168
_cell_formula_units_Z   1
loop_
 _symmetry_equiv_pos_site_id
 _symmetry_equiv_pos_as_xyz
  1  'x, y, z'
loop_
 _atom_site_type_symbol
 _atom_site_label
 _atom_site_symmetry_multiplicity
 _atom_site_fract_x
 _atom_site_fract_y
 _atom_site_fract_z
 _atom_site_occupancy
  Tm  Tm0  1  0.250000  0.580693  0.710574  1
  Tm  Tm1  1  0.250000  0.915891  0.209879  1
  Tm  Tm2  1  0.750000  0.418932  0.288921  1
  Tm  Tm3  1  0.750000  0.084989  0.790106  1
  Mn  Mn4  1  0.250000  0.411444  0.492075  1
  Fe  Fe5  1  0.250000  0.089713  0.990187  1
  Fe  Fe6  1  0.750000  0.587381  0.509504  1
  Fe  Fe7  1  0.750000  0.910507  0.009556  1
  Fe  Fe8  1  0.250000  0.216500  0.175232  1
  Fe  Fe9  1  0.250000  0.281299  0.674713  1
  Fe  Fe10  1  0.750000  0.783352  0.823915  1
  Fe  Fe11  1  0.750000  0.720002  0.324625  1
  Fe  Fe12  1  0.250000  0.879666  0.699806  1
  Fe  Fe13  1  0.250000  0.619737  0.196593  1
  Fe  Fe14  1  0.750000  0.119423  0.300439  1
  Fe  Fe15  1  0.750000  0.380858  0.803777  1
  Fe  Fe16  1  0.250000  0.463826  0.935527  1
  Fe  Fe17  1  0.250000  0.036233  0.434844  1
  Fe  Fe18  1  0.750000  0.536432  0.064659  1
  Fe  Fe19  1  0.750000  0.962797  0.565746  1
  P  P20  1  0.250000  0.423541  0.114820  1
  P  P21  1  0.250000  0.077346  0.615329  1
  P  P22  1  0.750000  0.576334  0.885259  1
  P  P23  1  0.750000  0.923018  0.385140  1
  P  P24  1  0.250000  0.269242  0.861103  1
  P  P25  1  0.250000  0.232820  0.361714  1
  P  P26  1  0.750000  0.731269  0.138497  1
  P  P27  1  0.750000  0.765438  0.636685  1
  P  P28  1  0.250000  0.598939  0.379712  1
  P  P29  1  0.250000  0.906480  0.884202  1
  P  P30  1  0.750000  0.401712  0.621307  1
  P  P31  1  0.750000  0.093987  0.116096  1
  W  W32  1  0.250000  0.705395  0.988790  1
  W  W33  1  0.250000  0.795022  0.490343  1
  W  W34  1  0.750000  0.294971  0.011051  1
  W  W35  1  0.750000  0.204810  0.509272  1
