# generated using pymatgen
data_Th3Ga3Cu2Os
_symmetry_space_group_name_H-M   'P 1'
_cell_length_a   7.25216200
_cell_length_b   7.25216291
_cell_length_c   4.07427000
_cell_angle_alpha   90.00000000
_cell_angle_beta   90.00000000
_cell_angle_gamma   120.00000496
_symmetry_Int_Tables_number   1
_chemical_formula_structural   Th3Ga3Cu2Os
_chemical_formula_sum   'Th3 Ga3 Cu2 Os1'
_cell_volume   185.57328876
_cell_formula_units_Z   1
loop_
 _symmetry_equiv_pos_site_id
 _symmetry_equiv_pos_as_xyz
  1  'x, y, z'
loop_
 _atom_site_type_symbol
 _atom_site_label
 _atom_site_symmetry_multiplicity
 _atom_site_fract_x
 _atom_site_fract_y
 _atom_site_fract_z
 _atom_site_occupancy
  Th  Th0  1  0.006758  0.422976  0.500000  1
  Th  Th1  1  0.577024  0.583782  0.500000  1
  Th  Th2  1  0.416218  0.993242  0.500000  1
  Ga  Ga3  1  0.002309  0.763440  0.000000  1
  Ga  Ga4  1  0.236560  0.238869  0.000000  1
  Ga  Ga5  1  0.761131  0.997691  0.000000  1
  Cu  Cu6  1  0.666667  0.333333  0.000000  1
  Cu  Cu7  1  0.000000  0.000000  0.500000  1
  Os  Os8  1  0.333333  0.666667  0.000000  1
