# generated using pymatgen
data_Ho6MnZn22P
_symmetry_space_group_name_H-M   'P 1'
_cell_length_a   9.03815403
_cell_length_b   9.03815404
_cell_length_c   9.03815400
_cell_angle_alpha   60.00000014
_cell_angle_beta   60.00000010
_cell_angle_gamma   60.00000222
_symmetry_Int_Tables_number   1
_chemical_formula_structural   Ho6MnZn22P
_chemical_formula_sum   'Ho6 Mn1 Zn22 P1'
_cell_volume   522.06457429
_cell_formula_units_Z   1
loop_
 _symmetry_equiv_pos_site_id
 _symmetry_equiv_pos_as_xyz
  1  'x, y, z'
loop_
 _atom_site_type_symbol
 _atom_site_label
 _atom_site_symmetry_multiplicity
 _atom_site_fract_x
 _atom_site_fract_y
 _atom_site_fract_z
 _atom_site_occupancy
  Ho  Ho0  1  0.711434  0.288566  0.288566  1
  Ho  Ho1  1  0.711434  0.288566  0.711434  1
  Ho  Ho2  1  0.711434  0.711434  0.288566  1
  Ho  Ho3  1  0.288566  0.711434  0.711434  1
  Ho  Ho4  1  0.288566  0.711434  0.288566  1
  Ho  Ho5  1  0.288566  0.288566  0.711434  1
  Mn  Mn6  1  0.000000  0.000000  0.000000  1
  Zn  Zn7  1  0.635869  0.121377  0.121377  1
  Zn  Zn8  1  0.121377  0.635869  0.121377  1
  Zn  Zn9  1  0.121377  0.121377  0.635869  1
  Zn  Zn10  1  0.121377  0.121377  0.121377  1
  Zn  Zn11  1  0.364131  0.878623  0.878623  1
  Zn  Zn12  1  0.878623  0.364131  0.878623  1
  Zn  Zn13  1  0.878623  0.878623  0.364131  1
  Zn  Zn14  1  0.878623  0.878623  0.878623  1
  Zn  Zn15  1  0.500000  0.000000  0.000000  1
  Zn  Zn16  1  0.500000  0.000000  0.500000  1
  Zn  Zn17  1  0.500000  0.500000  0.000000  1
  Zn  Zn18  1  0.000000  0.500000  0.500000  1
  Zn  Zn19  1  0.000000  0.500000  0.000000  1
  Zn  Zn20  1  0.000000  0.000000  0.500000  1
  Zn  Zn21  1  0.012168  0.329277  0.329277  1
  Zn  Zn22  1  0.329277  0.012168  0.329277  1
  Zn  Zn23  1  0.329277  0.329277  0.012168  1
  Zn  Zn24  1  0.329277  0.329277  0.329277  1
  Zn  Zn25  1  0.987832  0.670723  0.670723  1
  Zn  Zn26  1  0.670723  0.987832  0.670723  1
  Zn  Zn27  1  0.670723  0.670723  0.987832  1
  Zn  Zn28  1  0.670723  0.670723  0.670723  1
  P  P29  1  0.500000  0.500000  0.500000  1
