# generated using pymatgen
data_NdTh3(SiPd14)2
_symmetry_space_group_name_H-M   'P 1'
_cell_length_a   9.03970000
_cell_length_b   9.03970000
_cell_length_c   7.08243000
_cell_angle_alpha   90.00000000
_cell_angle_beta   90.00000000
_cell_angle_gamma   90.00000000
_symmetry_Int_Tables_number   1
_chemical_formula_structural   NdTh3(SiPd14)2
_chemical_formula_sum   'Nd1 Th3 Si2 Pd28'
_cell_volume   578.74909703
_cell_formula_units_Z   1
loop_
 _symmetry_equiv_pos_site_id
 _symmetry_equiv_pos_as_xyz
  1  'x, y, z'
loop_
 _atom_site_type_symbol
 _atom_site_label
 _atom_site_symmetry_multiplicity
 _atom_site_fract_x
 _atom_site_fract_y
 _atom_site_fract_z
 _atom_site_occupancy
  Nd  Nd0  1  0.500000  0.000000  0.933137  1
  Th  Th1  1  0.000000  0.500000  0.067907  1
  Th  Th2  1  0.000000  0.000000  0.500286  1
  Th  Th3  1  0.500000  0.500000  0.500286  1
  Si  Si4  1  0.500000  0.000000  0.447582  1
  Si  Si5  1  0.000000  0.500000  0.553327  1
  Pd  Pd6  1  0.335152  0.835152  0.613565  1
  Pd  Pd7  1  0.335152  0.164848  0.613565  1
  Pd  Pd8  1  0.664848  0.835152  0.613565  1
  Pd  Pd9  1  0.664848  0.164848  0.613565  1
  Pd  Pd10  1  0.164285  0.664285  0.385105  1
  Pd  Pd11  1  0.164285  0.335715  0.385105  1
  Pd  Pd12  1  0.835715  0.664285  0.385105  1
  Pd  Pd13  1  0.835715  0.335715  0.385105  1
  Pd  Pd14  1  0.500000  0.769605  0.258038  1
  Pd  Pd15  1  0.500000  0.230395  0.258038  1
  Pd  Pd16  1  0.269605  0.000000  0.258038  1
  Pd  Pd17  1  0.730395  0.000000  0.258038  1
  Pd  Pd18  1  0.000000  0.729150  0.743568  1
  Pd  Pd19  1  0.000000  0.270850  0.743568  1
  Pd  Pd20  1  0.229150  0.500000  0.743568  1
  Pd  Pd21  1  0.770850  0.500000  0.743568  1
  Pd  Pd22  1  0.500000  0.349588  0.851733  1
  Pd  Pd23  1  0.500000  0.650412  0.851733  1
  Pd  Pd24  1  0.849588  0.000000  0.851733  1
  Pd  Pd25  1  0.150412  0.000000  0.851733  1
  Pd  Pd26  1  0.000000  0.150853  0.147502  1
  Pd  Pd27  1  0.000000  0.849147  0.147502  1
  Pd  Pd28  1  0.650853  0.500000  0.147502  1
  Pd  Pd29  1  0.349147  0.500000  0.147502  1
  Pd  Pd30  1  0.249232  0.749232  0.999857  1
  Pd  Pd31  1  0.249232  0.250768  0.999857  1
  Pd  Pd32  1  0.750768  0.749232  0.999857  1
  Pd  Pd33  1  0.750768  0.250768  0.999857  1
