# generated using pymatgen
data_Pr6NdAs12Pd17
_symmetry_space_group_name_H-M   'P 1'
_cell_length_a   12.79799940
_cell_length_b   12.79799951
_cell_length_c   14.00987732
_cell_angle_alpha   68.66346475
_cell_angle_beta   68.66346457
_cell_angle_gamma   18.91542336
_symmetry_Int_Tables_number   1
_chemical_formula_structural   Pr6NdAs12Pd17
_chemical_formula_sum   'Pr6 Nd1 As12 Pd17'
_cell_volume   691.41158435
_cell_formula_units_Z   1
loop_
 _symmetry_equiv_pos_site_id
 _symmetry_equiv_pos_as_xyz
  1  'x, y, z'
loop_
 _atom_site_type_symbol
 _atom_site_label
 _atom_site_symmetry_multiplicity
 _atom_site_fract_x
 _atom_site_fract_y
 _atom_site_fract_z
 _atom_site_occupancy
  Pr  Pr0  1  0.367313  0.367313  0.000293  1
  Pr  Pr1  1  0.632687  0.632687  0.999707  1
  Pr  Pr2  1  0.233215  0.233215  0.313030  1
  Pr  Pr3  1  0.766785  0.766785  0.686970  1
  Pr  Pr4  1  0.418697  0.418697  0.260317  1
  Pr  Pr5  1  0.581303  0.581303  0.739683  1
  Nd  Nd6  1  0.500000  0.500000  0.500000  1
  As  As7  1  0.061729  0.061729  0.924979  1
  As  As8  1  0.938271  0.938271  0.075021  1
  As  As9  1  0.884873  0.884873  0.828121  1
  As  As10  1  0.115127  0.115127  0.171879  1
  As  As11  1  0.189491  0.189491  0.619375  1
  As  As12  1  0.810509  0.810509  0.380625  1
  As  As13  1  0.366143  0.366143  0.579005  1
  As  As14  1  0.633857  0.633857  0.420995  1
  As  As15  1  0.011627  0.011627  0.668322  1
  As  As16  1  0.988373  0.988373  0.331678  1
  As  As17  1  0.233834  0.233834  0.883165  1
  As  As18  1  0.766166  0.766166  0.116835  1
  Pd  Pd19  1  0.838406  0.838406  0.193419  1
  Pd  Pd20  1  0.161594  0.161594  0.806581  1
  Pd  Pd21  1  0.024912  0.024912  0.127752  1
  Pd  Pd22  1  0.975088  0.975088  0.872248  1
  Pd  Pd23  1  0.887627  0.887627  0.459519  1
  Pd  Pd24  1  0.112373  0.112373  0.540481  1
  Pd  Pd25  1  0.500000  0.500000  0.000000  1
  Pd  Pd26  1  0.547946  0.547946  0.253937  1
  Pd  Pd27  1  0.452054  0.452054  0.746063  1
  Pd  Pd28  1  0.295458  0.295458  0.489905  1
  Pd  Pd29  1  0.704542  0.704542  0.510095  1
  Pd  Pd30  1  0.663494  0.663494  0.225216  1
  Pd  Pd31  1  0.336506  0.336506  0.774784  1
  Pd  Pd32  1  0.909945  0.909945  0.638005  1
  Pd  Pd33  1  0.090055  0.090055  0.361995  1
  Pd  Pd34  1  0.219967  0.219967  0.071486  1
  Pd  Pd35  1  0.780033  0.780033  0.928514  1
