# generated using pymatgen
data_LaCe(Y5Ru2)2
_symmetry_space_group_name_H-M   'P 1'
_cell_length_a   6.30411200
_cell_length_b   7.57543751
_cell_length_c   9.46239600
_cell_angle_alpha   90.00000000
_cell_angle_beta   90.00000000
_cell_angle_gamma   88.22852200
_symmetry_Int_Tables_number   1
_chemical_formula_structural   LaCe(Y5Ru2)2
_chemical_formula_sum   'La1 Ce1 Y10 Ru4'
_cell_volume   451.67405928
_cell_formula_units_Z   1
loop_
 _symmetry_equiv_pos_site_id
 _symmetry_equiv_pos_as_xyz
  1  'x, y, z'
loop_
 _atom_site_type_symbol
 _atom_site_label
 _atom_site_symmetry_multiplicity
 _atom_site_fract_x
 _atom_site_fract_y
 _atom_site_fract_z
 _atom_site_occupancy
  La  La0  1  0.852034  0.950490  0.750000  1
  Ce  Ce1  1  0.157981  0.061357  0.250000  1
  Y  Y2  1  0.668390  0.172850  0.065537  1
  Y  Y3  1  0.365613  0.535891  0.250000  1
  Y  Y4  1  0.831606  0.668683  0.069030  1
  Y  Y5  1  0.173712  0.331855  0.930150  1
  Y  Y6  1  0.331274  0.826738  0.934712  1
  Y  Y7  1  0.637712  0.461667  0.750000  1
  Y  Y8  1  0.331274  0.826738  0.565288  1
  Y  Y9  1  0.173712  0.331855  0.569850  1
  Y  Y10  1  0.831606  0.668683  0.430970  1
  Y  Y11  1  0.668390  0.172850  0.434463  1
  Ru  Ru12  1  0.970844  0.357801  0.250000  1
  Ru  Ru13  1  0.463618  0.121803  0.750000  1
  Ru  Ru14  1  0.502802  0.886865  0.250000  1
  Ru  Ru15  1  0.039431  0.623875  0.750000  1
