# generated using pymatgen
data_Pr3MgCdSb6
_symmetry_space_group_name_H-M   'P 1'
_cell_length_a   4.33007400
_cell_length_b   10.94378600
_cell_length_c   13.51301800
_cell_angle_alpha   90.00000000
_cell_angle_beta   90.00000000
_cell_angle_gamma   90.00000000
_symmetry_Int_Tables_number   1
_chemical_formula_structural   Pr3MgCdSb6
_chemical_formula_sum   'Pr6 Mg2 Cd2 Sb12'
_cell_volume   640.34683269
_cell_formula_units_Z   2
loop_
 _symmetry_equiv_pos_site_id
 _symmetry_equiv_pos_as_xyz
  1  'x, y, z'
loop_
 _atom_site_type_symbol
 _atom_site_label
 _atom_site_symmetry_multiplicity
 _atom_site_fract_x
 _atom_site_fract_y
 _atom_site_fract_z
 _atom_site_occupancy
  Pr  Pr0  1  0.750000  0.262961  0.750000  1
  Pr  Pr1  1  0.750000  0.276349  0.410183  1
  Pr  Pr2  1  0.250000  0.725234  0.910922  1
  Pr  Pr3  1  0.250000  0.725234  0.589078  1
  Pr  Pr4  1  0.250000  0.733717  0.250000  1
  Pr  Pr5  1  0.750000  0.276349  0.089817  1
  Mg  Mg6  1  0.250000  0.001162  0.093331  1
  Mg  Mg7  1  0.250000  0.001162  0.406669  1
  Cd  Cd8  1  0.750000  0.998392  0.590544  1
  Cd  Cd9  1  0.750000  0.998392  0.909456  1
  Sb  Sb10  1  0.750000  0.504362  0.250000  1
  Sb  Sb11  1  0.750000  0.492502  0.916151  1
  Sb  Sb12  1  0.750000  0.825624  0.750000  1
  Sb  Sb13  1  0.750000  0.825156  0.418708  1
  Sb  Sb14  1  0.250000  0.176440  0.921504  1
  Sb  Sb15  1  0.250000  0.176440  0.578496  1
  Sb  Sb16  1  0.250000  0.172579  0.250000  1
  Sb  Sb17  1  0.250000  0.507312  0.083129  1
  Sb  Sb18  1  0.250000  0.495665  0.750000  1
  Sb  Sb19  1  0.250000  0.507312  0.416871  1
  Sb  Sb20  1  0.750000  0.492502  0.583849  1
  Sb  Sb21  1  0.750000  0.825156  0.081292  1
