# generated using pymatgen
data_NdY(PaRh2)2
_symmetry_space_group_name_H-M   'P 1'
_cell_length_a   3.71512400
_cell_length_b   4.52181900
_cell_length_c   10.45686100
_cell_angle_alpha   90.00000000
_cell_angle_beta   90.00000000
_cell_angle_gamma   90.00000000
_symmetry_Int_Tables_number   1
_chemical_formula_structural   NdY(PaRh2)2
_chemical_formula_sum   'Nd1 Y1 Pa2 Rh4'
_cell_volume   175.66604489
_cell_formula_units_Z   1
loop_
 _symmetry_equiv_pos_site_id
 _symmetry_equiv_pos_as_xyz
  1  'x, y, z'
loop_
 _atom_site_type_symbol
 _atom_site_label
 _atom_site_symmetry_multiplicity
 _atom_site_fract_x
 _atom_site_fract_y
 _atom_site_fract_z
 _atom_site_occupancy
  Nd  Nd0  1  0.000000  0.250000  0.143377  1
  Y  Y1  1  0.500000  0.750000  0.363660  1
  Pa  Pa2  1  0.000000  0.750000  0.864697  1
  Pa  Pa3  1  0.500000  0.250000  0.633507  1
  Rh  Rh4  1  0.500000  0.750000  0.064488  1
  Rh  Rh5  1  0.000000  0.750000  0.611924  1
  Rh  Rh6  1  0.000000  0.250000  0.433887  1
  Rh  Rh7  1  0.500000  0.250000  0.884460  1
