# generated using pymatgen
data_La3PrNd4(TeO6)4
_symmetry_space_group_name_H-M   'P 1'
_cell_length_a   5.52734851
_cell_length_b   9.47154575
_cell_length_c   10.37947940
_cell_angle_alpha   90.05459826
_cell_angle_beta   90.02345956
_cell_angle_gamma   90.04338280
_symmetry_Int_Tables_number   1
_chemical_formula_structural   La3PrNd4(TeO6)4
_chemical_formula_sum   'La3 Pr1 Nd4 Te4 O24'
_cell_volume   543.39160324
_cell_formula_units_Z   1
loop_
 _symmetry_equiv_pos_site_id
 _symmetry_equiv_pos_as_xyz
  1  'x, y, z'
loop_
 _atom_site_type_symbol
 _atom_site_label
 _atom_site_symmetry_multiplicity
 _atom_site_fract_x
 _atom_site_fract_y
 _atom_site_fract_z
 _atom_site_occupancy
  La  La0  1  0.030200  0.282076  0.641613  1
  La  La1  1  0.470079  0.717973  0.141666  1
  La  La2  1  0.969984  0.782020  0.858412  1
  Pr  Pr3  1  0.531317  0.217697  0.359572  1
  Nd  Nd4  1  0.524222  0.103838  0.956641  1
  Nd  Nd5  1  0.024166  0.396167  0.043663  1
  Nd  Nd6  1  0.475742  0.603741  0.543383  1
  Nd  Nd7  1  0.975750  0.896219  0.456312  1
  Te  Te8  1  0.461182  0.994530  0.640662  1
  Te  Te9  1  0.961233  0.505086  0.358960  1
  Te  Te10  1  0.538675  0.494418  0.859151  1
  Te  Te11  1  0.038712  0.005979  0.141325  1
  O  O12  1  0.304723  0.139380  0.173393  1
  O  O13  1  0.803870  0.361106  0.827584  1
  O  O14  1  0.696306  0.638853  0.327674  1
  O  O15  1  0.196070  0.861267  0.672269  1
  O  O16  1  0.720916  0.110581  0.562111  1
  O  O17  1  0.222512  0.389512  0.436271  1
  O  O18  1  0.278369  0.610044  0.936770  1
  O  O19  1  0.778530  0.890058  0.063295  1
  O  O20  1  0.675673  0.635224  0.745090  1
  O  O21  1  0.175361  0.864828  0.254920  1
  O  O22  1  0.324299  0.135232  0.754865  1
  O  O23  1  0.823027  0.364344  0.245235  1
  O  O24  1  0.667322  0.948201  0.785003  1
  O  O25  1  0.167005  0.551944  0.214735  1
  O  O26  1  0.332651  0.447967  0.714725  1
  O  O27  1  0.831948  0.052233  0.285483  1
  O  O28  1  0.254828  0.082713  0.506429  1
  O  O29  1  0.753161  0.416820  0.492611  1
  O  O30  1  0.746032  0.582432  0.992978  1
  O  O31  1  0.245893  0.917825  0.007196  1
  O  O32  1  0.078643  0.651669  0.476044  1
  O  O33  1  0.578840  0.848023  0.523959  1
  O  O34  1  0.921595  0.151938  0.023984  1
  O  O35  1  0.421165  0.348059  0.976019  1
