# generated using pymatgen
data_La3Pr5(CdPt)2
_symmetry_space_group_name_H-M   'P 1'
_cell_length_a   10.12344255
_cell_length_b   10.15140857
_cell_length_c   10.15140842
_cell_angle_alpha   59.81781954
_cell_angle_beta   60.09108448
_cell_angle_gamma   60.09108805
_symmetry_Int_Tables_number   1
_chemical_formula_structural   La3Pr5(CdPt)2
_chemical_formula_sum   'La6 Pr10 Cd4 Pt4'
_cell_volume   737.66509373
_cell_formula_units_Z   2
loop_
 _symmetry_equiv_pos_site_id
 _symmetry_equiv_pos_as_xyz
  1  'x, y, z'
loop_
 _atom_site_type_symbol
 _atom_site_label
 _atom_site_symmetry_multiplicity
 _atom_site_fract_x
 _atom_site_fract_y
 _atom_site_fract_z
 _atom_site_occupancy
  La  La0  1  0.348756  0.349790  0.349790  1
  La  La1  1  0.349790  0.348756  0.951665  1
  La  La2  1  0.349790  0.951665  0.348756  1
  La  La3  1  0.951665  0.349790  0.349790  1
  La  La4  1  0.808212  0.191788  0.191788  1
  La  La5  1  0.191788  0.808212  0.808212  1
  Pr  Pr6  1  0.192673  0.807327  0.192673  1
  Pr  Pr7  1  0.807327  0.192673  0.807327  1
  Pr  Pr8  1  0.192673  0.192673  0.807327  1
  Pr  Pr9  1  0.807327  0.807327  0.192673  1
  Pr  Pr10  1  0.934687  0.565313  0.565313  1
  Pr  Pr11  1  0.565313  0.934687  0.934687  1
  Pr  Pr12  1  0.565122  0.934878  0.565122  1
  Pr  Pr13  1  0.934878  0.565122  0.934878  1
  Pr  Pr14  1  0.565122  0.565122  0.934878  1
  Pr  Pr15  1  0.934878  0.934878  0.565122  1
  Cd  Cd16  1  0.580712  0.580139  0.580139  1
  Cd  Cd17  1  0.580139  0.580712  0.259008  1
  Cd  Cd18  1  0.580139  0.259008  0.580712  1
  Cd  Cd19  1  0.259008  0.580139  0.580139  1
  Pt  Pt20  1  0.141674  0.143219  0.143219  1
  Pt  Pt21  1  0.143219  0.141674  0.571889  1
  Pt  Pt22  1  0.143219  0.571889  0.141674  1
  Pt  Pt23  1  0.571889  0.143219  0.143219  1
