# generated using pymatgen
data_MgNp2Si4(PPd10)2
_symmetry_space_group_name_H-M   'P 1'
_cell_length_a   8.71664179
_cell_length_b   8.68185642
_cell_length_c   8.68185598
_cell_angle_alpha   60.26524829
_cell_angle_beta   59.86737148
_cell_angle_gamma   59.86736991
_symmetry_Int_Tables_number   1
_chemical_formula_structural   MgNp2Si4(PPd10)2
_chemical_formula_sum   'Mg1 Np2 Si4 P2 Pd20'
_cell_volume   464.56377752
_cell_formula_units_Z   1
loop_
 _symmetry_equiv_pos_site_id
 _symmetry_equiv_pos_as_xyz
  1  'x, y, z'
loop_
 _atom_site_type_symbol
 _atom_site_label
 _atom_site_symmetry_multiplicity
 _atom_site_fract_x
 _atom_site_fract_y
 _atom_site_fract_z
 _atom_site_occupancy
  Mg  Mg0  1  0.000000  0.000000  0.000000  1
  Np  Np1  1  0.250000  0.250000  0.250000  1
  Np  Np2  1  0.750000  0.750000  0.750000  1
  Si  Si3  1  0.264110  0.735890  0.264110  1
  Si  Si4  1  0.735890  0.264110  0.735890  1
  Si  Si5  1  0.264110  0.264110  0.735890  1
  Si  Si6  1  0.735890  0.735890  0.264110  1
  P  P7  1  0.735770  0.264230  0.264230  1
  P  P8  1  0.264230  0.735770  0.735770  1
  Pd  Pd9  1  0.386623  0.383772  0.383772  1
  Pd  Pd10  1  0.613377  0.616228  0.616228  1
  Pd  Pd11  1  0.383772  0.386623  0.845833  1
  Pd  Pd12  1  0.383772  0.845833  0.386623  1
  Pd  Pd13  1  0.616228  0.613377  0.154167  1
  Pd  Pd14  1  0.616228  0.154167  0.613377  1
  Pd  Pd15  1  0.845833  0.383772  0.383772  1
  Pd  Pd16  1  0.154167  0.616228  0.616228  1
  Pd  Pd17  1  0.345802  0.000000  0.000000  1
  Pd  Pd18  1  0.654198  0.000000  0.000000  1
  Pd  Pd19  1  0.000000  0.345802  0.654198  1
  Pd  Pd20  1  0.000000  0.654198  0.345802  1
  Pd  Pd21  1  0.997335  0.343644  0.002665  1
  Pd  Pd22  1  0.656356  0.002665  0.343644  1
  Pd  Pd23  1  0.002665  0.656356  0.997335  1
  Pd  Pd24  1  0.343644  0.997335  0.656356  1
  Pd  Pd25  1  0.997335  0.002665  0.343644  1
  Pd  Pd26  1  0.002665  0.997335  0.656356  1
  Pd  Pd27  1  0.656356  0.343644  0.002665  1
  Pd  Pd28  1  0.343644  0.656356  0.997335  1
