# generated using pymatgen
data_SrTh(CuSi)2
_symmetry_space_group_name_H-M   'P 1'
_cell_length_a   4.23667200
_cell_length_b   4.23667323
_cell_length_c   8.33235700
_cell_angle_alpha   90.00000000
_cell_angle_beta   90.00000000
_cell_angle_gamma   119.99999039
_symmetry_Int_Tables_number   1
_chemical_formula_structural   SrTh(CuSi)2
_chemical_formula_sum   'Sr1 Th1 Cu2 Si2'
_cell_volume   129.52343513
_cell_formula_units_Z   1
loop_
 _symmetry_equiv_pos_site_id
 _symmetry_equiv_pos_as_xyz
  1  'x, y, z'
loop_
 _atom_site_type_symbol
 _atom_site_label
 _atom_site_symmetry_multiplicity
 _atom_site_fract_x
 _atom_site_fract_y
 _atom_site_fract_z
 _atom_site_occupancy
  Sr  Sr0  1  0.000000  0.000000  0.500000  1
  Th  Th1  1  0.000000  0.000000  0.000000  1
  Cu  Cu2  1  0.333333  0.666667  0.769796  1
  Cu  Cu3  1  0.666667  0.333333  0.230204  1
  Si  Si4  1  0.333333  0.666667  0.225304  1
  Si  Si5  1  0.666667  0.333333  0.774696  1
