# generated using pymatgen
data_Tb2Fe9Ni3P7
_symmetry_space_group_name_H-M   'P 1'
_cell_length_a   3.63926800
_cell_length_b   9.00105217
_cell_length_c   9.01641662
_cell_angle_alpha   119.71950528
_cell_angle_beta   90.00000000
_cell_angle_gamma   90.00000000
_symmetry_Int_Tables_number   1
_chemical_formula_structural   Tb2Fe9Ni3P7
_chemical_formula_sum   'Tb2 Fe9 Ni3 P7'
_cell_volume   256.50303388
_cell_formula_units_Z   1
loop_
 _symmetry_equiv_pos_site_id
 _symmetry_equiv_pos_as_xyz
  1  'x, y, z'
loop_
 _atom_site_type_symbol
 _atom_site_label
 _atom_site_symmetry_multiplicity
 _atom_site_fract_x
 _atom_site_fract_y
 _atom_site_fract_z
 _atom_site_occupancy
  Tb  Tb0  1  0.000000  0.664774  0.332190  1
  Tb  Tb1  1  0.500000  0.337307  0.668308  1
  Fe  Fe2  1  0.000000  0.571912  0.632450  1
  Fe  Fe3  1  0.000000  0.880093  0.724729  1
  Fe  Fe4  1  0.000000  0.270788  0.154464  1
  Fe  Fe5  1  0.000000  0.847041  0.119966  1
  Fe  Fe6  1  0.500000  0.432297  0.384959  1
  Fe  Fe7  1  0.500000  0.613418  0.048511  1
  Fe  Fe8  1  0.500000  0.125046  0.901699  1
  Fe  Fe9  1  0.500000  0.096679  0.214942  1
  Fe  Fe10  1  0.500000  0.780125  0.877786  1
  Ni  Ni11  1  0.000000  0.371555  0.940232  1
  Ni  Ni12  1  0.000000  0.061796  0.433434  1
  Ni  Ni13  1  0.500000  0.948500  0.563493  1
  P  P14  1  0.000000  0.111551  0.706608  1
  P  P15  1  0.000000  0.303709  0.410796  1
  P  P16  1  0.000000  0.597301  0.890899  1
  P  P17  1  0.500000  0.705206  0.600947  1
  P  P18  1  0.500000  0.401660  0.118093  1
  P  P19  1  0.500000  0.880876  0.278267  1
  P  P20  1  0.000000  0.998367  0.997225  1
