# generated using pymatgen
data_Tb7TmTh4(ZnAu5)4
_symmetry_space_group_name_H-M   'P 1'
_cell_length_a   8.48559747
_cell_length_b   8.48559665
_cell_length_c   13.63046492
_cell_angle_alpha   90.03797646
_cell_angle_beta   89.96202438
_cell_angle_gamma   127.41006729
_symmetry_Int_Tables_number   1
_chemical_formula_structural   Tb7TmTh4(ZnAu5)4
_chemical_formula_sum   'Tb7 Tm1 Th4 Zn4 Au20'
_cell_volume   779.58636907
_cell_formula_units_Z   1
loop_
 _symmetry_equiv_pos_site_id
 _symmetry_equiv_pos_as_xyz
  1  'x, y, z'
loop_
 _atom_site_type_symbol
 _atom_site_label
 _atom_site_symmetry_multiplicity
 _atom_site_fract_x
 _atom_site_fract_y
 _atom_site_fract_z
 _atom_site_occupancy
  Tb  Tb0  1  0.369517  0.630483  0.539671  1
  Tb  Tb1  1  0.630796  0.369204  0.039768  1
  Tb  Tb2  1  0.369145  0.630855  0.960405  1
  Tb  Tb3  1  0.881980  0.118020  0.952041  1
  Tb  Tb4  1  0.118032  0.881968  0.048006  1
  Tb  Tb5  1  0.881524  0.118476  0.547871  1
  Tb  Tb6  1  0.118178  0.881822  0.452007  1
  Tm  Tm7  1  0.630552  0.369448  0.460921  1
  Th  Th8  1  0.929851  0.070149  0.250306  1
  Th  Th9  1  0.069899  0.930101  0.749810  1
  Th  Th10  1  0.319823  0.680177  0.250269  1
  Th  Th11  1  0.680056  0.319944  0.749604  1
  Zn  Zn12  1  0.718597  0.281403  0.250545  1
  Zn  Zn13  1  0.280853  0.719147  0.749756  1
  Zn  Zn14  1  0.534494  0.465506  0.250373  1
  Zn  Zn15  1  0.465806  0.534194  0.749951  1
  Au  Au16  1  0.318285  0.064937  0.249891  1
  Au  Au17  1  0.064975  0.318071  0.749905  1
  Au  Au18  1  0.681929  0.935025  0.749905  1
  Au  Au19  1  0.935063  0.681715  0.249891  1
  Au  Au20  1  0.570979  0.007230  0.398499  1
  Au  Au21  1  0.003702  0.569839  0.601514  1
  Au  Au22  1  0.570313  0.004667  0.102046  1
  Au  Au23  1  0.004726  0.570428  0.897996  1
  Au  Au24  1  0.430161  0.996298  0.601514  1
  Au  Au25  1  0.992770  0.429021  0.398499  1
  Au  Au26  1  0.429572  0.995274  0.897996  1
  Au  Au27  1  0.995333  0.429687  0.102046  1
  Au  Au28  1  0.683805  0.738034  0.396713  1
  Au  Au29  1  0.739155  0.681924  0.602646  1
  Au  Au30  1  0.684334  0.740151  0.103639  1
  Au  Au31  1  0.739994  0.684088  0.896499  1
  Au  Au32  1  0.318076  0.260845  0.602646  1
  Au  Au33  1  0.261966  0.316195  0.396713  1
  Au  Au34  1  0.315912  0.260006  0.896499  1
  Au  Au35  1  0.259849  0.315666  0.103639  1
