# generated using pymatgen
data_NdDy2Tm5Cd2PdPt
_symmetry_space_group_name_H-M   'P 1'
_cell_length_a   9.62246277
_cell_length_b   9.64260145
_cell_length_c   9.64260100
_cell_angle_alpha   59.86187583
_cell_angle_beta   60.06905703
_cell_angle_gamma   60.06905866
_symmetry_Int_Tables_number   1
_chemical_formula_structural   NdDy2Tm5Cd2PdPt
_chemical_formula_sum   'Nd2 Dy4 Tm10 Cd4 Pd2 Pt2'
_cell_volume   632.63883339
_cell_formula_units_Z   2
loop_
 _symmetry_equiv_pos_site_id
 _symmetry_equiv_pos_as_xyz
  1  'x, y, z'
loop_
 _atom_site_type_symbol
 _atom_site_label
 _atom_site_symmetry_multiplicity
 _atom_site_fract_x
 _atom_site_fract_y
 _atom_site_fract_z
 _atom_site_occupancy
  Nd  Nd0  1  0.933393  0.566946  0.566276  1
  Nd  Nd1  1  0.566946  0.933393  0.933385  1
  Dy  Dy2  1  0.562656  0.938101  0.561154  1
  Dy  Dy3  1  0.938101  0.562655  0.938088  1
  Dy  Dy4  1  0.561278  0.561278  0.938722  1
  Dy  Dy5  1  0.937479  0.937479  0.562520  1
  Tm  Tm6  1  0.352598  0.352547  0.350379  1
  Tm  Tm7  1  0.352547  0.352598  0.944478  1
  Tm  Tm8  1  0.353408  0.943891  0.351518  1
  Tm  Tm9  1  0.943891  0.353408  0.351186  1
  Tm  Tm10  1  0.810684  0.188354  0.187955  1
  Tm  Tm11  1  0.188354  0.810684  0.813007  1
  Tm  Tm12  1  0.188394  0.810212  0.188347  1
  Tm  Tm13  1  0.810212  0.188394  0.813047  1
  Tm  Tm14  1  0.188317  0.188317  0.811683  1
  Tm  Tm15  1  0.811663  0.811663  0.188337  1
  Cd  Cd16  1  0.578306  0.582152  0.582195  1
  Cd  Cd17  1  0.582152  0.578306  0.257345  1
  Cd  Cd18  1  0.582076  0.257606  0.578274  1
  Cd  Cd19  1  0.257606  0.582076  0.582043  1
  Pd  Pd20  1  0.141714  0.144252  0.144483  1
  Pd  Pd21  1  0.144252  0.141714  0.569554  1
  Pt  Pt22  1  0.144122  0.569854  0.141502  1
  Pt  Pt23  1  0.569854  0.144122  0.144524  1
