# generated using pymatgen
data_Tm5Lu3Sc11Si16Rh
_symmetry_space_group_name_H-M   'P 1'
_cell_length_a   6.93820230
_cell_length_b   7.35934738
_cell_length_c   13.82231337
_cell_angle_alpha   89.98909864
_cell_angle_beta   89.97562743
_cell_angle_gamma   89.88776896
_symmetry_Int_Tables_number   1
_chemical_formula_structural   Tm5Lu3Sc11Si16Rh
_chemical_formula_sum   'Tm5 Lu3 Sc11 Si16 Rh1'
_cell_volume   705.77474945
_cell_formula_units_Z   1
loop_
 _symmetry_equiv_pos_site_id
 _symmetry_equiv_pos_as_xyz
  1  'x, y, z'
loop_
 _atom_site_type_symbol
 _atom_site_label
 _atom_site_symmetry_multiplicity
 _atom_site_fract_x
 _atom_site_fract_y
 _atom_site_fract_z
 _atom_site_occupancy
  Tm  Tm0  1  0.990619  0.814388  0.597456  1
  Tm  Tm1  1  0.510159  0.321739  0.093735  1
  Tm  Tm2  1  0.012273  0.179364  0.406752  1
  Tm  Tm3  1  0.510073  0.321911  0.405989  1
  Tm  Tm4  1  0.489306  0.674854  0.596756  1
  Lu  Lu5  1  0.012342  0.179687  0.093311  1
  Lu  Lu6  1  0.990547  0.813736  0.902320  1
  Lu  Lu7  1  0.489129  0.675032  0.903082  1
  Sc  Sc8  1  0.840675  0.495862  0.249845  1
  Sc  Sc9  1  0.342171  0.005306  0.249874  1
  Sc  Sc10  1  0.653059  0.996480  0.750196  1
  Sc  Sc11  1  0.321349  0.176643  0.628388  1
  Sc  Sc12  1  0.672601  0.825230  0.374300  1
  Sc  Sc13  1  0.173369  0.673591  0.376029  1
  Sc  Sc14  1  0.672590  0.825227  0.125409  1
  Sc  Sc15  1  0.831008  0.328554  0.629786  1
  Sc  Sc16  1  0.321255  0.176634  0.871892  1
  Sc  Sc17  1  0.831017  0.328508  0.870527  1
  Sc  Sc18  1  0.173219  0.673879  0.123730  1
  Si  Si19  1  0.023447  0.093011  0.750360  1
  Si  Si20  1  0.973424  0.890020  0.249808  1
  Si  Si21  1  0.469812  0.612400  0.249903  1
  Si  Si22  1  0.516802  0.397107  0.750237  1
  Si  Si23  1  0.282616  0.861105  0.750482  1
  Si  Si24  1  0.716922  0.132455  0.249733  1
  Si  Si25  1  0.214938  0.369130  0.249784  1
  Si  Si26  1  0.792070  0.630606  0.750442  1
  Si  Si27  1  0.161252  0.464263  0.542389  1
  Si  Si28  1  0.841882  0.534679  0.463744  1
  Si  Si29  1  0.343449  0.964956  0.463225  1
  Si  Si30  1  0.842093  0.534730  0.036174  1
  Si  Si31  1  0.659680  0.034641  0.540186  1
  Si  Si32  1  0.161659  0.464837  0.957430  1
  Si  Si33  1  0.660202  0.033853  0.959679  1
  Si  Si34  1  0.342828  0.964891  0.036687  1
  Rh  Rh35  1  0.160164  0.530689  0.750360  1
