# generated using pymatgen
data_Na(RuO4)2
_symmetry_space_group_name_H-M   'P 1'
_cell_length_a   6.22358700
_cell_length_b   6.22358636
_cell_length_c   6.36428000
_cell_angle_alpha   90.00000000
_cell_angle_beta   90.00000000
_cell_angle_gamma   119.99999806
_symmetry_Int_Tables_number   1
_chemical_formula_structural   Na(RuO4)2
_chemical_formula_sum   'Na1 Ru2 O8'
_cell_volume   213.48206950
_cell_formula_units_Z   1
loop_
 _symmetry_equiv_pos_site_id
 _symmetry_equiv_pos_as_xyz
  1  'x, y, z'
loop_
 _atom_site_type_symbol
 _atom_site_label
 _atom_site_symmetry_multiplicity
 _atom_site_fract_x
 _atom_site_fract_y
 _atom_site_fract_z
 _atom_site_occupancy
  Na  Na0  1  0.000000  0.000000  0.500000  1
  Ru  Ru1  1  0.333333  0.666667  0.801417  1
  Ru  Ru2  1  0.666667  0.333333  0.198583  1
  O  O3  1  0.221781  0.855202  0.711613  1
  O  O4  1  0.144798  0.366579  0.711613  1
  O  O5  1  0.333333  0.666667  0.072738  1
  O  O6  1  0.366579  0.221781  0.288387  1
  O  O7  1  0.633421  0.778219  0.711613  1
  O  O8  1  0.666667  0.333333  0.927262  1
  O  O9  1  0.855202  0.633421  0.288387  1
  O  O10  1  0.778219  0.144798  0.288387  1
