# generated using pymatgen
data_Ti7NbCr2(Si3C)2
_symmetry_space_group_name_H-M   'P 1'
_cell_length_a   7.37914952
_cell_length_b   7.39129886
_cell_length_c   5.06417851
_cell_angle_alpha   90.05105163
_cell_angle_beta   89.97443180
_cell_angle_gamma   120.05447788
_symmetry_Int_Tables_number   1
_chemical_formula_structural   Ti7NbCr2(Si3C)2
_chemical_formula_sum   'Ti7 Nb1 Cr2 Si6 C2'
_cell_volume   239.07153417
_cell_formula_units_Z   1
loop_
 _symmetry_equiv_pos_site_id
 _symmetry_equiv_pos_as_xyz
  1  'x, y, z'
loop_
 _atom_site_type_symbol
 _atom_site_label
 _atom_site_symmetry_multiplicity
 _atom_site_fract_x
 _atom_site_fract_y
 _atom_site_fract_z
 _atom_site_occupancy
  Ti  Ti0  1  0.665850  0.332768  0.999342  1
  Ti  Ti1  1  0.334150  0.666918  0.999342  1
  Ti  Ti2  1  0.765536  0.766477  0.752825  1
  Ti  Ti3  1  0.234464  0.000942  0.752825  1
  Ti  Ti4  1  0.000000  0.233425  0.752957  1
  Ti  Ti5  1  0.234532  0.235163  0.245248  1
  Ti  Ti6  1  0.765468  0.000631  0.245248  1
  Nb  Nb7  1  0.000000  0.762607  0.246327  1
  Cr  Cr8  1  0.333333  0.666160  0.500713  1
  Cr  Cr9  1  0.666667  0.332826  0.500713  1
  Si  Si10  1  0.409744  0.409782  0.728781  1
  Si  Si11  1  0.590256  0.000038  0.728781  1
  Si  Si12  1  0.000000  0.589211  0.731342  1
  Si  Si13  1  0.587514  0.589736  0.272236  1
  Si  Si14  1  0.412486  0.002222  0.272236  1
  Si  Si15  1  0.000000  0.405817  0.270597  1
  C  C16  1  0.000000  0.002033  0.998971  1
  C  C17  1  0.000000  0.003245  0.501514  1
