# generated using pymatgen
data_Ta2TiCr3Ge2P
_symmetry_space_group_name_H-M   'P 1'
_cell_length_a   6.70043692
_cell_length_b   6.69544896
_cell_length_c   3.25913700
_cell_angle_alpha   90.00000000
_cell_angle_beta   90.00000000
_cell_angle_gamma   119.97536860
_symmetry_Int_Tables_number   1
_chemical_formula_structural   Ta2TiCr3Ge2P
_chemical_formula_sum   'Ta2 Ti1 Cr3 Ge2 P1'
_cell_volume   126.65543023
_cell_formula_units_Z   1
loop_
 _symmetry_equiv_pos_site_id
 _symmetry_equiv_pos_as_xyz
  1  'x, y, z'
loop_
 _atom_site_type_symbol
 _atom_site_label
 _atom_site_symmetry_multiplicity
 _atom_site_fract_x
 _atom_site_fract_y
 _atom_site_fract_z
 _atom_site_occupancy
  Ta  Ta0  1  0.394449  0.392841  0.500000  1
  Ta  Ta1  1  0.605551  0.998393  0.500000  1
  Ti  Ti2  1  0.000000  0.608592  0.500000  1
  Cr  Cr3  1  0.000000  0.243473  0.000000  1
  Cr  Cr4  1  0.248962  0.002532  0.000000  1
  Cr  Cr5  1  0.751038  0.753569  0.000000  1
  Ge  Ge6  1  0.676266  0.340251  0.000000  1
  Ge  Ge7  1  0.323734  0.663987  0.000000  1
  P  P8  1  0.000000  0.996361  0.500000  1
