# generated using pymatgen
data_Rb4NpTeI12
_symmetry_space_group_name_H-M   'P 1'
_cell_length_a   8.29565600
_cell_length_b   8.29565600
_cell_length_c   12.50130500
_cell_angle_alpha   90.00000000
_cell_angle_beta   90.00000000
_cell_angle_gamma   90.00000000
_symmetry_Int_Tables_number   1
_chemical_formula_structural   Rb4NpTeI12
_chemical_formula_sum   'Rb4 Np1 Te1 I12'
_cell_volume   860.31366325
_cell_formula_units_Z   1
loop_
 _symmetry_equiv_pos_site_id
 _symmetry_equiv_pos_as_xyz
  1  'x, y, z'
loop_
 _atom_site_type_symbol
 _atom_site_label
 _atom_site_symmetry_multiplicity
 _atom_site_fract_x
 _atom_site_fract_y
 _atom_site_fract_z
 _atom_site_occupancy
  Rb  Rb0  1  0.000000  0.500000  0.250615  1
  Rb  Rb1  1  0.500000  0.000000  0.250615  1
  Rb  Rb2  1  0.000000  0.500000  0.749385  1
  Rb  Rb3  1  0.500000  0.000000  0.749385  1
  Np  Np4  1  0.000000  0.000000  0.000000  1
  Te  Te5  1  0.500000  0.500000  0.500000  1
  I  I6  1  0.000000  0.000000  0.241804  1
  I  I7  1  0.500000  0.500000  0.260654  1
  I  I8  1  0.000000  0.000000  0.758195  1
  I  I9  1  0.500000  0.500000  0.739346  1
  I  I10  1  0.201632  0.300162  0.000000  1
  I  I11  1  0.699838  0.201632  0.000000  1
  I  I12  1  0.300162  0.798368  0.000000  1
  I  I13  1  0.700689  0.201726  0.500000  1
  I  I14  1  0.299311  0.798274  0.500000  1
  I  I15  1  0.798368  0.699838  0.000000  1
  I  I16  1  0.798274  0.700689  0.500000  1
  I  I17  1  0.201726  0.299311  0.500000  1
