# generated using pymatgen
data_Pr8Y12Ga15Sn
_symmetry_space_group_name_H-M   'P 1'
_cell_length_a   7.76955806
_cell_length_b   8.06526118
_cell_length_c   15.34534900
_cell_angle_alpha   90.11526281
_cell_angle_beta   89.40847463
_cell_angle_gamma   90.04013923
_symmetry_Int_Tables_number   1
_chemical_formula_structural   Pr8Y12Ga15Sn
_chemical_formula_sum   'Pr8 Y12 Ga15 Sn1'
_cell_volume   961.54009410
_cell_formula_units_Z   1
loop_
 _symmetry_equiv_pos_site_id
 _symmetry_equiv_pos_as_xyz
  1  'x, y, z'
loop_
 _atom_site_type_symbol
 _atom_site_label
 _atom_site_symmetry_multiplicity
 _atom_site_fract_x
 _atom_site_fract_y
 _atom_site_fract_z
 _atom_site_occupancy
  Pr  Pr0  1  0.019088  0.174568  0.401939  1
  Pr  Pr1  1  0.521689  0.319935  0.404420  1
  Pr  Pr2  1  0.473976  0.678636  0.906144  1
  Pr  Pr3  1  0.486076  0.685636  0.597630  1
  Pr  Pr4  1  0.974802  0.823673  0.595783  1
  Pr  Pr5  1  0.974805  0.820274  0.906263  1
  Pr  Pr6  1  0.525639  0.320190  0.094463  1
  Pr  Pr7  1  0.025784  0.180888  0.094690  1
  Y  Y8  1  0.326841  0.164155  0.626357  1
  Y  Y9  1  0.677898  0.825923  0.376042  1
  Y  Y10  1  0.657306  0.987009  0.753375  1
  Y  Y11  1  0.175779  0.684882  0.373840  1
  Y  Y12  1  0.819812  0.324721  0.879009  1
  Y  Y13  1  0.816389  0.321773  0.622894  1
  Y  Y14  1  0.844578  0.487585  0.248724  1
  Y  Y15  1  0.346146  0.015653  0.248565  1
  Y  Y16  1  0.319221  0.176152  0.878709  1
  Y  Y17  1  0.179510  0.675952  0.121670  1
  Y  Y18  1  0.679657  0.824293  0.121327  1
  Y  Y19  1  0.154920  0.511258  0.752450  1
  Ga  Ga20  1  0.267597  0.875718  0.751857  1
  Ga  Ga21  1  0.474761  0.610911  0.249589  1
  Ga  Ga22  1  0.024666  0.110826  0.750963  1
  Ga  Ga23  1  0.524709  0.389082  0.751508  1
  Ga  Ga24  1  0.974020  0.891441  0.246817  1
  Ga  Ga25  1  0.731025  0.121594  0.248902  1
  Ga  Ga26  1  0.850809  0.528362  0.042537  1
  Ga  Ga27  1  0.351302  0.970056  0.042130  1
  Ga  Ga28  1  0.147744  0.470943  0.958082  1
  Ga  Ga29  1  0.651132  0.029849  0.540116  1
  Ga  Ga30  1  0.350413  0.970584  0.458382  1
  Ga  Ga31  1  0.843271  0.531798  0.456989  1
  Ga  Ga32  1  0.769728  0.620173  0.750472  1
  Ga  Ga33  1  0.230475  0.380905  0.250243  1
  Ga  Ga34  1  0.647591  0.029850  0.958134  1
  Sn  Sn35  1  0.160839  0.464749  0.538976  1
