# generated using pymatgen
data_Sr6TbLu(BO3)6
_symmetry_space_group_name_H-M   'P 1'
_cell_length_a   7.89957371
_cell_length_b   7.89957201
_cell_length_c   7.89957202
_cell_angle_alpha   105.00934684
_cell_angle_beta   105.00933999
_cell_angle_gamma   105.00934773
_symmetry_Int_Tables_number   1
_chemical_formula_structural   Sr6TbLu(BO3)6
_chemical_formula_sum   'Sr6 Tb1 Lu1 B6 O18'
_cell_volume   430.89658409
_cell_formula_units_Z   1
loop_
 _symmetry_equiv_pos_site_id
 _symmetry_equiv_pos_as_xyz
  1  'x, y, z'
loop_
 _atom_site_type_symbol
 _atom_site_label
 _atom_site_symmetry_multiplicity
 _atom_site_fract_x
 _atom_site_fract_y
 _atom_site_fract_z
 _atom_site_occupancy
  Sr  Sr0  1  0.359469  0.734964  0.857846  1
  Sr  Sr1  1  0.857846  0.359469  0.734964  1
  Sr  Sr2  1  0.734964  0.857846  0.359469  1
  Sr  Sr3  1  0.640531  0.265036  0.142154  1
  Sr  Sr4  1  0.142154  0.640531  0.265036  1
  Sr  Sr5  1  0.265036  0.142154  0.640531  1
  Tb  Tb6  1  0.000000  0.000000  0.000000  1
  Lu  Lu7  1  0.500000  0.500000  0.500000  1
  B  B8  1  0.707190  0.611781  0.957544  1
  B  B9  1  0.957544  0.707190  0.611781  1
  B  B10  1  0.611781  0.957544  0.707190  1
  B  B11  1  0.042456  0.292810  0.388219  1
  B  B12  1  0.388219  0.042456  0.292810  1
  B  B13  1  0.292810  0.388219  0.042456  1
  O  O14  1  0.045902  0.810582  0.523393  1
  O  O15  1  0.523393  0.045902  0.810582  1
  O  O16  1  0.442138  0.491909  0.211043  1
  O  O17  1  0.491909  0.211043  0.442138  1
  O  O18  1  0.211043  0.442138  0.491909  1
  O  O19  1  0.788957  0.557862  0.508091  1
  O  O20  1  0.557862  0.508091  0.788957  1
  O  O21  1  0.508091  0.788957  0.557862  1
  O  O22  1  0.254736  0.196347  0.968804  1
  O  O23  1  0.196347  0.968804  0.254736  1
  O  O24  1  0.968804  0.254736  0.196347  1
  O  O25  1  0.745264  0.803653  0.031196  1
  O  O26  1  0.803653  0.031196  0.745264  1
  O  O27  1  0.031196  0.745264  0.803653  1
  O  O28  1  0.189418  0.476607  0.954098  1
  O  O29  1  0.476607  0.954098  0.189418  1
  O  O30  1  0.954098  0.189418  0.476607  1
  O  O31  1  0.810582  0.523393  0.045902  1
