# generated using pymatgen
data_Tb3Nd7(Ni2Sn5)4
_symmetry_space_group_name_H-M   'P 1'
_cell_length_a   13.90353245
_cell_length_b   13.90353245
_cell_length_c   4.52143400
_cell_angle_alpha   90.00000000
_cell_angle_beta   90.00000000
_cell_angle_gamma   89.93192188
_symmetry_Int_Tables_number   1
_chemical_formula_structural   Tb3Nd7(Ni2Sn5)4
_chemical_formula_sum   'Tb3 Nd7 Ni8 Sn20'
_cell_volume   874.02971740
_cell_formula_units_Z   1
loop_
 _symmetry_equiv_pos_site_id
 _symmetry_equiv_pos_as_xyz
  1  'x, y, z'
loop_
 _atom_site_type_symbol
 _atom_site_label
 _atom_site_symmetry_multiplicity
 _atom_site_fract_x
 _atom_site_fract_y
 _atom_site_fract_z
 _atom_site_occupancy
  Tb  Tb0  1  0.180918  0.680941  0.500000  1
  Tb  Tb1  1  0.819059  0.319082  0.500000  1
  Tb  Tb2  1  0.681106  0.818894  0.500000  1
  Nd  Nd3  1  0.999618  0.999819  0.000000  1
  Nd  Nd4  1  0.500181  0.500382  0.000000  1
  Nd  Nd5  1  0.318062  0.181938  0.500000  1
  Nd  Nd6  1  0.892186  0.607814  0.500000  1
  Nd  Nd7  1  0.107127  0.392873  0.500000  1
  Nd  Nd8  1  0.392531  0.891661  0.500000  1
  Nd  Nd9  1  0.608339  0.107469  0.500000  1
  Ni  Ni10  1  0.255981  0.535316  0.000000  1
  Ni  Ni11  1  0.743898  0.465463  0.000000  1
  Ni  Ni12  1  0.756154  0.965378  0.000000  1
  Ni  Ni13  1  0.243183  0.033201  0.000000  1
  Ni  Ni14  1  0.466799  0.256817  0.000000  1
  Ni  Ni15  1  0.534622  0.743846  0.000000  1
  Ni  Ni16  1  0.034537  0.756102  0.000000  1
  Ni  Ni17  1  0.964684  0.244019  0.000000  1
  Sn  Sn18  1  0.350496  0.700509  0.000000  1
  Sn  Sn19  1  0.649879  0.299662  0.000000  1
  Sn  Sn20  1  0.850495  0.799500  0.000000  1
  Sn  Sn21  1  0.148014  0.200583  0.000000  1
  Sn  Sn22  1  0.299417  0.351986  0.000000  1
  Sn  Sn23  1  0.700500  0.649505  0.000000  1
  Sn  Sn24  1  0.200338  0.850121  0.000000  1
  Sn  Sn25  1  0.799491  0.149504  0.000000  1
  Sn  Sn26  1  0.333125  0.508096  0.500000  1
  Sn  Sn27  1  0.666722  0.491647  0.500000  1
  Sn  Sn28  1  0.833326  0.991504  0.500000  1
  Sn  Sn29  1  0.166024  0.006951  0.500000  1
  Sn  Sn30  1  0.493049  0.333976  0.500000  1
  Sn  Sn31  1  0.508496  0.666674  0.500000  1
  Sn  Sn32  1  0.008353  0.833278  0.500000  1
  Sn  Sn33  1  0.991904  0.166875  0.500000  1
  Sn  Sn34  1  0.072468  0.572618  0.000000  1
  Sn  Sn35  1  0.927382  0.427532  0.000000  1
  Sn  Sn36  1  0.572996  0.927004  0.000000  1
  Sn  Sn37  1  0.428539  0.071461  0.000000  1
