# generated using pymatgen
data_Ho4Cd3Co2
_symmetry_space_group_name_H-M   'P 1'
_cell_length_a   3.69563300
_cell_length_b   7.32410550
_cell_length_c   7.94533063
_cell_angle_alpha   71.17883890
_cell_angle_beta   90.00000000
_cell_angle_gamma   90.00000000
_symmetry_Int_Tables_number   1
_chemical_formula_structural   Ho4Cd3Co2
_chemical_formula_sum   'Ho4 Cd3 Co2'
_cell_volume   203.55879193
_cell_formula_units_Z   1
loop_
 _symmetry_equiv_pos_site_id
 _symmetry_equiv_pos_as_xyz
  1  'x, y, z'
loop_
 _atom_site_type_symbol
 _atom_site_label
 _atom_site_symmetry_multiplicity
 _atom_site_fract_x
 _atom_site_fract_y
 _atom_site_fract_z
 _atom_site_occupancy
  Ho  Ho0  1  0.500000  0.904797  0.223603  1
  Ho  Ho1  1  0.500000  0.095203  0.776397  1
  Ho  Ho2  1  0.500000  0.396053  0.314719  1
  Ho  Ho3  1  0.500000  0.603947  0.685281  1
  Cd  Cd4  1  0.000000  0.707093  0.000936  1
  Cd  Cd5  1  0.000000  0.292907  0.999064  1
  Cd  Cd6  1  0.000000  0.000000  0.500000  1
  Co  Co7  1  0.000000  0.649073  0.395799  1
  Co  Co8  1  0.000000  0.350927  0.604201  1
