# generated using pymatgen
data_Ba3PrDy2TmO9
_symmetry_space_group_name_H-M   'P 1'
_cell_length_a   9.30372880
_cell_length_b   9.30372807
_cell_length_c   9.30372827
_cell_angle_alpha   38.85562608
_cell_angle_beta   38.85563357
_cell_angle_gamma   38.85563286
_symmetry_Int_Tables_number   1
_chemical_formula_structural   Ba3PrDy2TmO9
_chemical_formula_sum   'Ba3 Pr1 Dy2 Tm1 O9'
_cell_volume   284.97020793
_cell_formula_units_Z   1
loop_
 _symmetry_equiv_pos_site_id
 _symmetry_equiv_pos_as_xyz
  1  'x, y, z'
loop_
 _atom_site_type_symbol
 _atom_site_label
 _atom_site_symmetry_multiplicity
 _atom_site_fract_x
 _atom_site_fract_y
 _atom_site_fract_z
 _atom_site_occupancy
  Ba  Ba0  1  0.001767  0.001767  0.001767  1
  Ba  Ba1  1  0.832088  0.832088  0.832088  1
  Ba  Ba2  1  0.403460  0.403460  0.403460  1
  Pr  Pr3  1  0.574368  0.574368  0.574368  1
  Dy  Dy4  1  0.135895  0.135895  0.135895  1
  Dy  Dy5  1  0.261961  0.261961  0.261961  1
  Tm  Tm6  1  0.701032  0.701032  0.701032  1
  O  O7  1  0.524942  0.439300  0.972405  1
  O  O8  1  0.439300  0.972405  0.524942  1
  O  O9  1  0.972405  0.524942  0.439300  1
  O  O10  1  0.435674  0.261064  0.895747  1
  O  O11  1  0.261064  0.895747  0.435674  1
  O  O12  1  0.895747  0.435674  0.261064  1
  O  O13  1  0.976230  0.415587  0.858980  1
  O  O14  1  0.858980  0.976230  0.415587  1
  O  O15  1  0.415587  0.858980  0.976230  1
