# generated using pymatgen
data_Ho3In3IrPd2
_symmetry_space_group_name_H-M   'P 1'
_cell_length_a   7.72335900
_cell_length_b   7.72335953
_cell_length_c   3.78570300
_cell_angle_alpha   90.00000000
_cell_angle_beta   90.00000000
_cell_angle_gamma   119.99999344
_symmetry_Int_Tables_number   1
_chemical_formula_structural   Ho3In3IrPd2
_chemical_formula_sum   'Ho3 In3 Ir1 Pd2'
_cell_volume   195.56434344
_cell_formula_units_Z   1
loop_
 _symmetry_equiv_pos_site_id
 _symmetry_equiv_pos_as_xyz
  1  'x, y, z'
loop_
 _atom_site_type_symbol
 _atom_site_label
 _atom_site_symmetry_multiplicity
 _atom_site_fract_x
 _atom_site_fract_y
 _atom_site_fract_z
 _atom_site_occupancy
  Ho  Ho0  1  0.582683  0.599170  0.000000  1
  Ho  Ho1  1  0.400830  0.983513  0.000000  1
  Ho  Ho2  1  0.016487  0.417317  0.000000  1
  In  In3  1  0.997252  0.736622  0.500000  1
  In  In4  1  0.263378  0.260630  0.500000  1
  In  In5  1  0.739370  0.002748  0.500000  1
  Ir  Ir6  1  0.333333  0.666667  0.500000  1
  Pd  Pd7  1  0.000000  0.000000  0.000000  1
  Pd  Pd8  1  0.666667  0.333333  0.500000  1
