# generated using pymatgen
data_Zr2Pa(ZnPt)3
_symmetry_space_group_name_H-M   'P 1'
_cell_length_a   7.24357200
_cell_length_b   7.27807054
_cell_length_c   3.64592200
_cell_angle_alpha   90.00000000
_cell_angle_beta   90.00000000
_cell_angle_gamma   119.84331427
_symmetry_Int_Tables_number   1
_chemical_formula_structural   Zr2Pa(ZnPt)3
_chemical_formula_sum   'Zr2 Pa1 Zn3 Pt3'
_cell_volume   166.72110417
_cell_formula_units_Z   1
loop_
 _symmetry_equiv_pos_site_id
 _symmetry_equiv_pos_as_xyz
  1  'x, y, z'
loop_
 _atom_site_type_symbol
 _atom_site_label
 _atom_site_symmetry_multiplicity
 _atom_site_fract_x
 _atom_site_fract_y
 _atom_site_fract_z
 _atom_site_occupancy
  Zr  Zr0  1  0.998023  0.397104  0.500000  1
  Zr  Zr1  1  0.600919  0.602895  0.500000  1
  Pa  Pa2  1  0.401872  0.000000  0.500000  1
  Zn  Zn3  1  0.749288  0.000000  0.000000  1
  Zn  Zn4  1  0.260150  0.272747  0.000000  1
  Zn  Zn5  1  0.987403  0.727253  0.000000  1
  Pt  Pt6  1  0.664238  0.328793  0.000000  1
  Pt  Pt7  1  0.335445  0.671206  0.000000  1
  Pt  Pt8  1  0.002659  0.000000  0.500000  1
