# generated using pymatgen
data_Ho3Tm5Sc11Si16Ag
_symmetry_space_group_name_H-M   'P 1'
_cell_length_a   6.99934856
_cell_length_b   7.36844894
_cell_length_c   13.96207279
_cell_angle_alpha   90.03950055
_cell_angle_beta   90.04255792
_cell_angle_gamma   89.91172595
_symmetry_Int_Tables_number   1
_chemical_formula_structural   Ho3Tm5Sc11Si16Ag
_chemical_formula_sum   'Ho3 Tm5 Sc11 Si16 Ag1'
_cell_volume   720.08349991
_cell_formula_units_Z   1
loop_
 _symmetry_equiv_pos_site_id
 _symmetry_equiv_pos_as_xyz
  1  'x, y, z'
loop_
 _atom_site_type_symbol
 _atom_site_label
 _atom_site_symmetry_multiplicity
 _atom_site_fract_x
 _atom_site_fract_y
 _atom_site_fract_z
 _atom_site_occupancy
  Ho  Ho0  1  0.011085  0.176423  0.096009  1
  Ho  Ho1  1  0.990371  0.814635  0.901856  1
  Ho  Ho2  1  0.485157  0.674155  0.902457  1
  Tm  Tm3  1  0.990219  0.814273  0.598304  1
  Tm  Tm4  1  0.510339  0.322664  0.096002  1
  Tm  Tm5  1  0.011171  0.176684  0.403861  1
  Tm  Tm6  1  0.510373  0.322600  0.404125  1
  Tm  Tm7  1  0.485102  0.674371  0.597683  1
  Sc  Sc8  1  0.838229  0.496408  0.250080  1
  Sc  Sc9  1  0.340608  0.003949  0.250062  1
  Sc  Sc10  1  0.657041  0.996966  0.749861  1
  Sc  Sc11  1  0.325605  0.182314  0.626922  1
  Sc  Sc12  1  0.671099  0.823778  0.374889  1
  Sc  Sc13  1  0.170349  0.678910  0.374058  1
  Sc  Sc14  1  0.671029  0.823717  0.125263  1
  Sc  Sc15  1  0.836158  0.326932  0.626761  1
  Sc  Sc16  1  0.325601  0.182310  0.872954  1
  Sc  Sc17  1  0.836212  0.326931  0.873105  1
  Sc  Sc18  1  0.170526  0.678652  0.126041  1
  Si  Si19  1  0.026919  0.095812  0.749802  1
  Si  Si20  1  0.969620  0.889999  0.250171  1
  Si  Si21  1  0.467903  0.614057  0.250056  1
  Si  Si22  1  0.535826  0.387208  0.749844  1
  Si  Si23  1  0.288040  0.879619  0.749654  1
  Si  Si24  1  0.713952  0.130342  0.250199  1
  Si  Si25  1  0.213420  0.370093  0.250190  1
  Si  Si26  1  0.776147  0.631311  0.749590  1
  Si  Si27  1  0.163089  0.460452  0.531719  1
  Si  Si28  1  0.841428  0.535199  0.462189  1
  Si  Si29  1  0.343323  0.965981  0.462733  1
  Si  Si30  1  0.841252  0.535124  0.037855  1
  Si  Si31  1  0.658909  0.033545  0.540211  1
  Si  Si32  1  0.162850  0.460176  0.968433  1
  Si  Si33  1  0.658503  0.034073  0.959874  1
  Si  Si34  1  0.343833  0.966098  0.037317  1
  Ag  Ag35  1  0.158712  0.514239  0.749867  1
