# generated using pymatgen
data_Er17Tm3(NiAu3)2
_symmetry_space_group_name_H-M   'P 1'
_cell_length_a   9.38510500
_cell_length_b   9.38510482
_cell_length_c   9.35507400
_cell_angle_alpha   90.00000000
_cell_angle_beta   90.00000000
_cell_angle_gamma   119.99999008
_symmetry_Int_Tables_number   1
_chemical_formula_structural   Er17Tm3(NiAu3)2
_chemical_formula_sum   'Er17 Tm3 Ni2 Au6'
_cell_volume   713.60217564
_cell_formula_units_Z   1
loop_
 _symmetry_equiv_pos_site_id
 _symmetry_equiv_pos_as_xyz
  1  'x, y, z'
loop_
 _atom_site_type_symbol
 _atom_site_label
 _atom_site_symmetry_multiplicity
 _atom_site_fract_x
 _atom_site_fract_y
 _atom_site_fract_z
 _atom_site_occupancy
  Er  Er0  1  0.000000  0.000000  0.499209  1
  Er  Er1  1  0.000000  0.000000  0.000791  1
  Er  Er2  1  0.543324  0.456676  0.250000  1
  Er  Er3  1  0.543324  0.086648  0.250000  1
  Er  Er4  1  0.913352  0.456676  0.250000  1
  Er  Er5  1  0.208414  0.791586  0.439018  1
  Er  Er6  1  0.208414  0.416828  0.439018  1
  Er  Er7  1  0.583172  0.791586  0.439018  1
  Er  Er8  1  0.791492  0.208508  0.560006  1
  Er  Er9  1  0.791492  0.582983  0.560006  1
  Er  Er10  1  0.417017  0.208508  0.560006  1
  Er  Er11  1  0.791492  0.208508  0.939994  1
  Er  Er12  1  0.791492  0.582983  0.939994  1
  Er  Er13  1  0.417017  0.208508  0.939994  1
  Er  Er14  1  0.208414  0.791586  0.060982  1
  Er  Er15  1  0.208414  0.416828  0.060982  1
  Er  Er16  1  0.583172  0.791586  0.060982  1
  Tm  Tm17  1  0.456834  0.543166  0.750000  1
  Tm  Tm18  1  0.456834  0.913668  0.750000  1
  Tm  Tm19  1  0.086332  0.543166  0.750000  1
  Ni  Ni20  1  0.333333  0.666667  0.250000  1
  Ni  Ni21  1  0.666667  0.333333  0.750000  1
  Au  Au22  1  0.879203  0.120797  0.250000  1
  Au  Au23  1  0.879203  0.758408  0.250000  1
  Au  Au24  1  0.241592  0.120797  0.250000  1
  Au  Au25  1  0.120145  0.879855  0.750000  1
  Au  Au26  1  0.120145  0.240290  0.750000  1
  Au  Au27  1  0.759710  0.879855  0.750000  1
