# generated using pymatgen
data_La10GeSb3C4
_symmetry_space_group_name_H-M   'P 1'
_cell_length_a   8.51803800
_cell_length_b   13.33057800
_cell_length_c   4.36562100
_cell_angle_alpha   90.00000000
_cell_angle_beta   90.00000000
_cell_angle_gamma   90.00130021
_symmetry_Int_Tables_number   1
_chemical_formula_structural   La10GeSb3C4
_chemical_formula_sum   'La10 Ge1 Sb3 C4'
_cell_volume   495.71787963
_cell_formula_units_Z   1
loop_
 _symmetry_equiv_pos_site_id
 _symmetry_equiv_pos_as_xyz
  1  'x, y, z'
loop_
 _atom_site_type_symbol
 _atom_site_label
 _atom_site_symmetry_multiplicity
 _atom_site_fract_x
 _atom_site_fract_y
 _atom_site_fract_z
 _atom_site_occupancy
  La  La0  1  0.504669  0.988478  0.000000  1
  La  La1  1  0.163749  0.205204  0.000000  1
  La  La2  1  0.660853  0.294061  0.000000  1
  La  La3  1  0.003995  0.503387  0.000000  1
  La  La4  1  0.347993  0.711977  0.000000  1
  La  La5  1  0.821495  0.794049  0.000000  1
  La  La6  1  0.835400  0.059305  0.499998  1
  La  La7  1  0.334775  0.439797  0.499998  1
  La  La8  1  0.668188  0.561659  0.499998  1
  La  La9  1  0.164554  0.940598  0.499998  1
  Ge  Ge10  1  0.553845  0.826216  0.499998  1
  Sb  Sb11  1  0.446805  0.169402  0.499998  1
  Sb  Sb12  1  0.945222  0.326106  0.499998  1
  Sb  Sb13  1  0.056577  0.680557  0.499998  1
  C  C14  1  0.038568  0.042991  0.000000  1
  C  C15  1  0.535760  0.454943  0.000000  1
  C  C16  1  0.462201  0.546075  0.000000  1
  C  C17  1  0.955357  0.955195  0.000000  1
