# generated using pymatgen
data_Dy3Sc2(Hg2Pd)2
_symmetry_space_group_name_H-M   'P 1'
_cell_length_a   3.57352600
_cell_length_b   7.89223100
_cell_length_c   17.73261000
_cell_angle_alpha   90.00000000
_cell_angle_beta   90.00000000
_cell_angle_gamma   90.00000000
_symmetry_Int_Tables_number   1
_chemical_formula_structural   Dy3Sc2(Hg2Pd)2
_chemical_formula_sum   'Dy6 Sc4 Hg8 Pd4'
_cell_volume   500.11444323
_cell_formula_units_Z   2
loop_
 _symmetry_equiv_pos_site_id
 _symmetry_equiv_pos_as_xyz
  1  'x, y, z'
loop_
 _atom_site_type_symbol
 _atom_site_label
 _atom_site_symmetry_multiplicity
 _atom_site_fract_x
 _atom_site_fract_y
 _atom_site_fract_z
 _atom_site_occupancy
  Dy  Dy0  1  0.000000  0.234668  0.212435  1
  Dy  Dy1  1  0.000000  0.765332  0.787565  1
  Dy  Dy2  1  0.000000  0.265332  0.712435  1
  Dy  Dy3  1  0.000000  0.734668  0.287565  1
  Dy  Dy4  1  0.000000  0.000000  0.000000  1
  Dy  Dy5  1  0.000000  0.500000  0.500000  1
  Sc  Sc6  1  0.000000  0.112959  0.416740  1
  Sc  Sc7  1  0.000000  0.887041  0.583260  1
  Sc  Sc8  1  0.000000  0.387041  0.916740  1
  Sc  Sc9  1  0.000000  0.612959  0.083260  1
  Hg  Hg10  1  0.500000  0.410276  0.352220  1
  Hg  Hg11  1  0.500000  0.589724  0.647780  1
  Hg  Hg12  1  0.500000  0.089724  0.852220  1
  Hg  Hg13  1  0.500000  0.910276  0.147780  1
  Hg  Hg14  1  0.500000  0.301277  0.058287  1
  Hg  Hg15  1  0.500000  0.698723  0.941713  1
  Hg  Hg16  1  0.500000  0.198723  0.558287  1
  Hg  Hg17  1  0.500000  0.801277  0.441713  1
  Pd  Pd18  1  0.500000  0.030107  0.307377  1
  Pd  Pd19  1  0.500000  0.969893  0.692623  1
  Pd  Pd20  1  0.500000  0.469893  0.807377  1
  Pd  Pd21  1  0.500000  0.530107  0.192623  1
