# generated using pymatgen
data_Ho20CoBi8Os3
_symmetry_space_group_name_H-M   'P 1'
_cell_length_a   7.95271908
_cell_length_b   8.99575100
_cell_length_c   12.39371407
_cell_angle_alpha   90.00000000
_cell_angle_beta   89.84698218
_cell_angle_gamma   90.00000000
_symmetry_Int_Tables_number   1
_chemical_formula_structural   Ho20CoBi8Os3
_chemical_formula_sum   'Ho20 Co1 Bi8 Os3'
_cell_volume   886.65157762
_cell_formula_units_Z   1
loop_
 _symmetry_equiv_pos_site_id
 _symmetry_equiv_pos_as_xyz
  1  'x, y, z'
loop_
 _atom_site_type_symbol
 _atom_site_label
 _atom_site_symmetry_multiplicity
 _atom_site_fract_x
 _atom_site_fract_y
 _atom_site_fract_z
 _atom_site_occupancy
  Ho  Ho0  1  0.344627  0.750000  0.701308  1
  Ho  Ho1  1  0.657964  0.250000  0.292806  1
  Ho  Ho2  1  0.842775  0.250000  0.791760  1
  Ho  Ho3  1  0.156178  0.750000  0.206297  1
  Ho  Ho4  1  0.879841  0.750000  0.806323  1
  Ho  Ho5  1  0.119680  0.250000  0.193381  1
  Ho  Ho6  1  0.379033  0.250000  0.692986  1
  Ho  Ho7  1  0.616275  0.750000  0.312462  1
  Ho  Ho8  1  0.675585  0.542143  0.563510  1
  Ho  Ho9  1  0.324998  0.460948  0.436978  1
  Ho  Ho10  1  0.175085  0.458155  0.936103  1
  Ho  Ho11  1  0.324998  0.039052  0.436978  1
  Ho  Ho12  1  0.824531  0.542904  0.064129  1
  Ho  Ho13  1  0.675585  0.957857  0.563510  1
  Ho  Ho14  1  0.824531  0.957096  0.064129  1
  Ho  Ho15  1  0.175085  0.041845  0.936103  1
  Ho  Ho16  1  0.055005  0.750000  0.497124  1
  Ho  Ho17  1  0.945099  0.250000  0.502997  1
  Ho  Ho18  1  0.557641  0.250000  0.003405  1
  Ho  Ho19  1  0.442706  0.750000  0.996068  1
  Co  Co20  1  0.429716  0.750000  0.491239  1
  Bi  Bi21  1  0.570160  0.508851  0.827111  1
  Bi  Bi22  1  0.429470  0.492229  0.173100  1
  Bi  Bi23  1  0.071495  0.492036  0.671869  1
  Bi  Bi24  1  0.429470  0.007771  0.173100  1
  Bi  Bi25  1  0.929199  0.508956  0.328507  1
  Bi  Bi26  1  0.570160  0.991149  0.827111  1
  Bi  Bi27  1  0.929199  0.991044  0.328507  1
  Bi  Bi28  1  0.071495  0.007964  0.671869  1
  Os  Os29  1  0.075023  0.750000  0.989374  1
  Os  Os30  1  0.924405  0.250000  0.010150  1
  Os  Os31  1  0.572988  0.250000  0.509708  1
