# generated using pymatgen
data_Ti2Al2Fe3Pt
_symmetry_space_group_name_H-M   'P 1'
_cell_length_a   4.19801600
_cell_length_b   5.96961610
_cell_length_c   12.48833618
_cell_angle_alpha   89.98008683
_cell_angle_beta   90.00156210
_cell_angle_gamma   89.99673070
_symmetry_Int_Tables_number   1
_chemical_formula_structural   Ti2Al2Fe3Pt
_chemical_formula_sum   'Ti6 Al6 Fe9 Pt3'
_cell_volume   312.96447759
_cell_formula_units_Z   3
loop_
 _symmetry_equiv_pos_site_id
 _symmetry_equiv_pos_as_xyz
  1  'x, y, z'
loop_
 _atom_site_type_symbol
 _atom_site_label
 _atom_site_symmetry_multiplicity
 _atom_site_fract_x
 _atom_site_fract_y
 _atom_site_fract_z
 _atom_site_occupancy
  Ti  Ti0  1  0.999991  0.505273  0.988172  1
  Ti  Ti1  1  0.500012  0.981462  0.183606  1
  Ti  Ti2  1  0.000005  0.507369  0.345246  1
  Ti  Ti3  1  0.500003  0.001460  0.501978  1
  Ti  Ti4  1  0.999993  0.499868  0.662995  1
  Ti  Ti5  1  0.499991  0.000419  0.816691  1
  Al  Al6  1  0.999993  0.996533  0.994183  1
  Al  Al7  1  0.500014  0.508942  0.176882  1
  Al  Al8  1  0.000007  0.994922  0.342680  1
  Al  Al9  1  0.500005  0.499649  0.502006  1
  Al  Al10  1  0.999987  0.000896  0.663227  1
  Al  Al11  1  0.499992  0.500219  0.820984  1
  Fe  Fe12  1  0.000018  0.750869  0.166322  1
  Fe  Fe13  1  0.500011  0.249414  0.335101  1
  Fe  Fe14  1  0.500005  0.750338  0.335818  1
  Fe  Fe15  1  0.000014  0.251841  0.500444  1
  Fe  Fe16  1  0.999996  0.748579  0.502003  1
  Fe  Fe17  1  0.499995  0.248884  0.664876  1
  Fe  Fe18  1  0.499997  0.752014  0.664741  1
  Fe  Fe19  1  0.999982  0.250769  0.833195  1
  Fe  Fe20  1  0.000003  0.749726  0.832302  1
  Pt  Pt21  1  0.500030  0.248046  0.998898  1
  Pt  Pt22  1  0.499969  0.751803  0.999450  1
  Pt  Pt23  1  0.999982  0.250700  0.168201  1
