# generated using pymatgen
data_Yb2Dy5Er(B6Ru)4
_symmetry_space_group_name_H-M   'P 1'
_cell_length_a   3.65410000
_cell_length_b   9.13753246
_cell_length_c   11.52791200
_cell_angle_alpha   89.82010217
_cell_angle_beta   90.00000000
_cell_angle_gamma   90.00000000
_symmetry_Int_Tables_number   1
_chemical_formula_structural   Yb2Dy5Er(B6Ru)4
_chemical_formula_sum   'Yb2 Dy5 Er1 B24 Ru4'
_cell_volume   384.90882878
_cell_formula_units_Z   1
loop_
 _symmetry_equiv_pos_site_id
 _symmetry_equiv_pos_as_xyz
  1  'x, y, z'
loop_
 _atom_site_type_symbol
 _atom_site_label
 _atom_site_symmetry_multiplicity
 _atom_site_fract_x
 _atom_site_fract_y
 _atom_site_fract_z
 _atom_site_occupancy
  Yb  Yb0  1  0.000000  0.325236  0.414901  1
  Yb  Yb1  1  0.000000  0.674743  0.585241  1
  Dy  Dy2  1  0.000000  0.822654  0.085975  1
  Dy  Dy3  1  0.000000  0.177369  0.913816  1
  Dy  Dy4  1  0.000000  0.941859  0.369600  1
  Dy  Dy5  1  0.000000  0.058173  0.630475  1
  Dy  Dy6  1  0.000000  0.442727  0.130962  1
  Er  Er7  1  0.000000  0.557316  0.868921  1
  B  B8  1  0.500000  0.554380  0.432380  1
  B  B9  1  0.500000  0.445652  0.567727  1
  B  B10  1  0.500000  0.053911  0.066839  1
  B  B11  1  0.500000  0.945903  0.933072  1
  B  B12  1  0.500000  0.747633  0.417830  1
  B  B13  1  0.500000  0.252450  0.582195  1
  B  B14  1  0.500000  0.247990  0.081281  1
  B  B15  1  0.500000  0.751481  0.918634  1
  B  B16  1  0.500000  0.790791  0.264759  1
  B  B17  1  0.500000  0.209394  0.735284  1
  B  B18  1  0.500000  0.289702  0.234402  1
  B  B19  1  0.500000  0.709741  0.765702  1
  B  B20  1  0.500000  0.631705  0.185397  1
  B  B21  1  0.500000  0.368769  0.814776  1
  B  B22  1  0.500000  0.131148  0.313716  1
  B  B23  1  0.500000  0.868735  0.686353  1
  B  B24  1  0.500000  0.983801  0.211313  1
  B  B25  1  0.500000  0.016099  0.788687  1
  B  B26  1  0.500000  0.484447  0.288439  1
  B  B27  1  0.500000  0.515929  0.711954  1
  B  B28  1  0.500000  0.603823  0.027996  1
  B  B29  1  0.500000  0.396634  0.971062  1
  B  B30  1  0.500000  0.100090  0.472311  1
  B  B31  1  0.500000  0.899906  0.527709  1
  Ru  Ru32  1  0.000000  0.639793  0.319067  1
  Ru  Ru33  1  0.000000  0.360614  0.681232  1
  Ru  Ru34  1  0.000000  0.137068  0.177899  1
  Ru  Ru35  1  0.000000  0.862331  0.822094  1
