# generated using pymatgen
data_TbDyAl3Pt4
_symmetry_space_group_name_H-M   'P 1'
_cell_length_a   8.15272408
_cell_length_b   8.15272544
_cell_length_c   7.63850409
_cell_angle_alpha   89.98385062
_cell_angle_beta   90.01614649
_cell_angle_gamma   140.05915560
_symmetry_Int_Tables_number   1
_chemical_formula_structural   TbDyAl3Pt4
_chemical_formula_sum   'Tb2 Dy2 Al6 Pt8'
_cell_volume   325.94657422
_cell_formula_units_Z   2
loop_
 _symmetry_equiv_pos_site_id
 _symmetry_equiv_pos_as_xyz
  1  'x, y, z'
loop_
 _atom_site_type_symbol
 _atom_site_label
 _atom_site_symmetry_multiplicity
 _atom_site_fract_x
 _atom_site_fract_y
 _atom_site_fract_z
 _atom_site_occupancy
  Tb  Tb0  1  0.606826  0.393174  0.907861  1
  Tb  Tb1  1  0.393174  0.606826  0.092139  1
  Dy  Dy2  1  0.893226  0.106774  0.408025  1
  Dy  Dy3  1  0.106774  0.893226  0.591975  1
  Al  Al4  1  0.500000  0.500000  0.500000  1
  Al  Al5  1  0.000000  0.000000  0.000000  1
  Al  Al6  1  0.523162  0.976803  0.749873  1
  Al  Al7  1  0.976803  0.523162  0.250127  1
  Al  Al8  1  0.476838  0.023197  0.250127  1
  Al  Al9  1  0.023197  0.476838  0.749873  1
  Pt  Pt10  1  0.691243  0.809293  0.749643  1
  Pt  Pt11  1  0.809293  0.691243  0.250357  1
  Pt  Pt12  1  0.308757  0.190707  0.250357  1
  Pt  Pt13  1  0.190707  0.308757  0.749643  1
  Pt  Pt14  1  0.684169  0.315831  0.528192  1
  Pt  Pt15  1  0.315831  0.684169  0.471808  1
  Pt  Pt16  1  0.815802  0.184198  0.028319  1
  Pt  Pt17  1  0.184198  0.815802  0.971681  1
