# generated using pymatgen
data_Er16Hf4Ir7Rh5
_symmetry_space_group_name_H-M   'P 1'
_cell_length_a   10.76600226
_cell_length_b   10.76600226
_cell_length_c   6.22039526
_cell_angle_alpha   90.02337472
_cell_angle_beta   90.02337472
_cell_angle_gamma   90.00890651
_symmetry_Int_Tables_number   1
_chemical_formula_structural   Er16Hf4Ir7Rh5
_chemical_formula_sum   'Er16 Hf4 Ir7 Rh5'
_cell_volume   720.98600900
_cell_formula_units_Z   1
loop_
 _symmetry_equiv_pos_site_id
 _symmetry_equiv_pos_as_xyz
  1  'x, y, z'
loop_
 _atom_site_type_symbol
 _atom_site_label
 _atom_site_symmetry_multiplicity
 _atom_site_fract_x
 _atom_site_fract_y
 _atom_site_fract_z
 _atom_site_occupancy
  Er  Er0  1  0.288844  0.086548  0.375088  1
  Er  Er1  1  0.288928  0.913325  0.874703  1
  Er  Er2  1  0.710693  0.086437  0.874337  1
  Er  Er3  1  0.710806  0.912458  0.375136  1
  Er  Er4  1  0.586450  0.788882  0.875034  1
  Er  Er5  1  0.585393  0.211409  0.375392  1
  Er  Er6  1  0.413347  0.788905  0.375130  1
  Er  Er7  1  0.413475  0.211115  0.874961  1
  Er  Er8  1  0.211118  0.413550  0.624966  1
  Er  Er9  1  0.211095  0.586653  0.124870  1
  Er  Er10  1  0.788591  0.414607  0.124608  1
  Er  Er11  1  0.788885  0.586525  0.625039  1
  Er  Er12  1  0.913452  0.711156  0.124912  1
  Er  Er13  1  0.913563  0.289307  0.625663  1
  Er  Er14  1  0.086675  0.711072  0.625297  1
  Er  Er15  1  0.087542  0.289194  0.124864  1
  Hf  Hf16  1  0.000377  0.999617  0.500268  1
  Hf  Hf17  1  0.000383  0.999623  0.999732  1
  Hf  Hf18  1  0.500007  0.500040  0.999843  1
  Hf  Hf19  1  0.499960  0.499993  0.500157  1
  Ir  Ir20  1  0.855237  0.855934  0.749816  1
  Ir  Ir21  1  0.144066  0.144763  0.750184  1
  Ir  Ir22  1  0.144703  0.855297  0.250000  1
  Ir  Ir23  1  0.645125  0.354875  0.750000  1
  Ir  Ir24  1  0.644946  0.644742  0.250017  1
  Ir  Ir25  1  0.355258  0.355054  0.249983  1
  Ir  Ir26  1  0.355231  0.644769  0.750000  1
  Rh  Rh27  1  0.855341  0.144659  0.250000  1
  Rh  Rh28  1  0.500576  0.000142  0.121580  1
  Rh  Rh29  1  0.500315  0.000241  0.621305  1
  Rh  Rh30  1  0.999759  0.499685  0.878695  1
  Rh  Rh31  1  0.999858  0.499424  0.378420  1
