# generated using pymatgen
data_Dy2Y2Se3N2
_symmetry_space_group_name_H-M   'P 1'
_cell_length_a   6.96355944
_cell_length_b   6.96355873
_cell_length_c   10.30382256
_cell_angle_alpha   52.22298569
_cell_angle_beta   52.22299132
_cell_angle_gamma   32.85297820
_symmetry_Int_Tables_number   1
_chemical_formula_structural   Dy2Y2Se3N2
_chemical_formula_sum   'Dy2 Y2 Se3 N2'
_cell_volume   208.57019572
_cell_formula_units_Z   1
loop_
 _symmetry_equiv_pos_site_id
 _symmetry_equiv_pos_as_xyz
  1  'x, y, z'
loop_
 _atom_site_type_symbol
 _atom_site_label
 _atom_site_symmetry_multiplicity
 _atom_site_fract_x
 _atom_site_fract_y
 _atom_site_fract_z
 _atom_site_occupancy
  Dy  Dy0  1  0.241564  0.241564  0.640576  1
  Dy  Dy1  1  0.758435  0.758436  0.359424  1
  Y  Y2  1  0.559048  0.559048  0.150711  1
  Y  Y3  1  0.440952  0.440952  0.849289  1
  Se  Se4  1  0.000000  0.000000  0.000000  1
  Se  Se5  1  0.831758  0.831758  0.773519  1
  Se  Se6  1  0.168242  0.168242  0.226481  1
  N  N7  1  0.352494  0.352494  0.362368  1
  N  N8  1  0.647506  0.647506  0.637632  1
