# generated using pymatgen
data_Nd16Sm3YSn16
_symmetry_space_group_name_H-M   'P 1'
_cell_length_a   8.28245000
_cell_length_b   8.42862700
_cell_length_c   15.96156300
_cell_angle_alpha   90.00000000
_cell_angle_beta   90.00000000
_cell_angle_gamma   90.00220116
_symmetry_Int_Tables_number   1
_chemical_formula_structural   Nd16Sm3YSn16
_chemical_formula_sum   'Nd16 Sm3 Y1 Sn16'
_cell_volume   1114.27163199
_cell_formula_units_Z   1
loop_
 _symmetry_equiv_pos_site_id
 _symmetry_equiv_pos_as_xyz
  1  'x, y, z'
loop_
 _atom_site_type_symbol
 _atom_site_label
 _atom_site_symmetry_multiplicity
 _atom_site_fract_x
 _atom_site_fract_y
 _atom_site_fract_z
 _atom_site_occupancy
  Nd  Nd0  1  0.018281  0.180856  0.401246  1
  Nd  Nd1  1  0.367728  0.837260  0.120748  1
  Nd  Nd2  1  0.131873  0.337548  0.620611  1
  Nd  Nd3  1  0.482026  0.680729  0.901207  1
  Nd  Nd4  1  0.867853  0.662799  0.120550  1
  Nd  Nd5  1  0.131873  0.337548  0.879389  1
  Nd  Nd6  1  0.482026  0.680729  0.598793  1
  Nd  Nd7  1  0.632468  0.162837  0.620780  1
  Nd  Nd8  1  0.867853  0.662799  0.379450  1
  Nd  Nd9  1  0.018281  0.180856  0.098754  1
  Nd  Nd10  1  0.981664  0.818878  0.901306  1
  Nd  Nd11  1  0.632468  0.162837  0.879220  1
  Nd  Nd12  1  0.518168  0.319039  0.098722  1
  Nd  Nd13  1  0.367728  0.837260  0.379252  1
  Nd  Nd14  1  0.981664  0.818878  0.598694  1
  Nd  Nd15  1  0.518168  0.319039  0.401278  1
  Sm  Sm16  1  0.198175  0.502139  0.250000  1
  Sm  Sm17  1  0.698134  0.997724  0.250000  1
  Sm  Sm18  1  0.301820  0.002102  0.750000  1
  Y  Y19  1  0.800775  0.497976  0.750000  1
  Sn  Sn20  1  0.791759  0.464861  0.543629  1
  Sn  Sn21  1  0.708296  0.964605  0.457107  1
  Sn  Sn22  1  0.675968  0.854053  0.750000  1
  Sn  Sn23  1  0.208265  0.535556  0.457077  1
  Sn  Sn24  1  0.291770  0.035336  0.956985  1
  Sn  Sn25  1  0.823926  0.355591  0.250000  1
  Sn  Sn26  1  0.791759  0.464861  0.956371  1
  Sn  Sn27  1  0.566344  0.616735  0.250000  1
  Sn  Sn28  1  0.208265  0.535556  0.042923  1
  Sn  Sn29  1  0.435285  0.383418  0.750000  1
  Sn  Sn30  1  0.175377  0.644186  0.750000  1
  Sn  Sn31  1  0.933393  0.117466  0.750000  1
  Sn  Sn32  1  0.291770  0.035336  0.543015  1
  Sn  Sn33  1  0.708296  0.964605  0.042893  1
  Sn  Sn34  1  0.324230  0.144705  0.250000  1
  Sn  Sn35  1  0.066270  0.883299  0.250000  1
