# generated using pymatgen
data_HfMn(ReO4)6
_symmetry_space_group_name_H-M   'P 1'
_cell_length_a   10.03148300
_cell_length_b   10.03148388
_cell_length_c   5.90342700
_cell_angle_alpha   90.00000000
_cell_angle_beta   90.00000000
_cell_angle_gamma   119.99998720
_symmetry_Int_Tables_number   1
_chemical_formula_structural   HfMn(ReO4)6
_chemical_formula_sum   'Hf1 Mn1 Re6 O24'
_cell_volume   514.47610208
_cell_formula_units_Z   1
loop_
 _symmetry_equiv_pos_site_id
 _symmetry_equiv_pos_as_xyz
  1  'x, y, z'
loop_
 _atom_site_type_symbol
 _atom_site_label
 _atom_site_symmetry_multiplicity
 _atom_site_fract_x
 _atom_site_fract_y
 _atom_site_fract_z
 _atom_site_occupancy
  Hf  Hf0  1  0.666667  0.333333  0.750000  1
  Mn  Mn1  1  0.333333  0.666667  0.250000  1
  Re  Re2  1  0.081725  0.392885  0.750000  1
  Re  Re3  1  0.399766  0.295037  0.250000  1
  Re  Re4  1  0.607115  0.688839  0.750000  1
  Re  Re5  1  0.895270  0.600234  0.250000  1
  Re  Re6  1  0.311161  0.918275  0.750000  1
  Re  Re7  1  0.704963  0.104730  0.250000  1
  O  O8  1  0.489150  0.645466  0.509856  1
  O  O9  1  0.354534  0.843684  0.509856  1
  O  O10  1  0.814836  0.716912  0.250000  1
  O  O11  1  0.117665  0.862320  0.750000  1
  O  O12  1  0.283088  0.097924  0.250000  1
  O  O13  1  0.137680  0.255345  0.750000  1
  O  O14  1  0.520064  0.353386  0.006736  1
  O  O15  1  0.902076  0.185164  0.250000  1
  O  O16  1  0.092931  0.715255  0.250000  1
  O  O17  1  0.156316  0.510850  0.990144  1
  O  O18  1  0.156316  0.510850  0.509856  1
  O  O19  1  0.877729  0.301627  0.750000  1
  O  O20  1  0.284745  0.377675  0.250000  1
  O  O21  1  0.698373  0.576102  0.750000  1
  O  O22  1  0.833322  0.479936  0.493264  1
  O  O23  1  0.423898  0.122271  0.750000  1
  O  O24  1  0.646614  0.166678  0.006736  1
  O  O25  1  0.489150  0.645466  0.990144  1
  O  O26  1  0.354534  0.843684  0.990144  1
  O  O27  1  0.646614  0.166678  0.493264  1
  O  O28  1  0.520064  0.353386  0.493264  1
  O  O29  1  0.833322  0.479936  0.006736  1
  O  O30  1  0.744655  0.882335  0.750000  1
  O  O31  1  0.622325  0.907069  0.250000  1
