# generated using pymatgen
data_Si16Mo4Ir2Pt9Rh
_symmetry_space_group_name_H-M   'P 1'
_cell_length_a   3.51505100
_cell_length_b   5.51731419
_cell_length_c   24.61663677
_cell_angle_alpha   90.10204536
_cell_angle_beta   90.00000000
_cell_angle_gamma   90.00000000
_symmetry_Int_Tables_number   1
_chemical_formula_structural   Si16Mo4Ir2Pt9Rh
_chemical_formula_sum   'Si16 Mo4 Ir2 Pt9 Rh1'
_cell_volume   477.40545269
_cell_formula_units_Z   1
loop_
 _symmetry_equiv_pos_site_id
 _symmetry_equiv_pos_as_xyz
  1  'x, y, z'
loop_
 _atom_site_type_symbol
 _atom_site_label
 _atom_site_symmetry_multiplicity
 _atom_site_fract_x
 _atom_site_fract_y
 _atom_site_fract_z
 _atom_site_occupancy
  Si  Si0  1  0.250000  0.173420  0.521064  1
  Si  Si1  1  0.750000  0.333837  0.018479  1
  Si  Si2  1  0.250000  0.669778  0.980557  1
  Si  Si3  1  0.750000  0.825858  0.481951  1
  Si  Si4  1  0.750000  0.319029  0.644591  1
  Si  Si5  1  0.250000  0.178942  0.143677  1
  Si  Si6  1  0.750000  0.821874  0.856385  1
  Si  Si7  1  0.250000  0.679061  0.354043  1
  Si  Si8  1  0.250000  0.670262  0.608900  1
  Si  Si9  1  0.750000  0.827155  0.107984  1
  Si  Si10  1  0.250000  0.171199  0.891805  1
  Si  Si11  1  0.750000  0.337351  0.390575  1
  Si  Si12  1  0.750000  0.829505  0.726833  1
  Si  Si13  1  0.250000  0.670932  0.226314  1
  Si  Si14  1  0.750000  0.329580  0.773752  1
  Si  Si15  1  0.250000  0.168432  0.273372  1
  Mo  Mo16  1  0.250000  0.504382  0.710017  1
  Mo  Mo17  1  0.750000  0.997513  0.209738  1
  Mo  Mo18  1  0.250000  0.003245  0.790053  1
  Mo  Mo19  1  0.750000  0.493836  0.289679  1
  Ir  Ir20  1  0.750000  0.000430  0.573530  1
  Ir  Ir21  1  0.250000  0.498659  0.073859  1
  Pt  Pt22  1  0.250000  0.996720  0.425313  1
  Pt  Pt23  1  0.250000  0.005648  0.670636  1
  Pt  Pt24  1  0.750000  0.494482  0.170898  1
  Pt  Pt25  1  0.250000  0.506017  0.829239  1
  Pt  Pt26  1  0.750000  0.995343  0.329765  1
  Pt  Pt27  1  0.750000  0.501450  0.549222  1
  Pt  Pt28  1  0.250000  0.997306  0.049402  1
  Pt  Pt29  1  0.750000  0.002202  0.950930  1
  Pt  Pt30  1  0.250000  0.495160  0.451662  1
  Rh  Rh31  1  0.750000  0.501393  0.925773  1
