# generated using pymatgen
data_YbLu2Pa(Al3Ir)6
_symmetry_space_group_name_H-M   'P 1'
_cell_length_a   7.55753269
_cell_length_b   7.54928632
_cell_length_c   9.40355800
_cell_angle_alpha   90.00000000
_cell_angle_beta   90.00000000
_cell_angle_gamma   119.45117555
_symmetry_Int_Tables_number   1
_chemical_formula_structural   YbLu2Pa(Al3Ir)6
_chemical_formula_sum   'Yb1 Lu2 Pa1 Al18 Ir6'
_cell_volume   467.17983561
_cell_formula_units_Z   1
loop_
 _symmetry_equiv_pos_site_id
 _symmetry_equiv_pos_as_xyz
  1  'x, y, z'
loop_
 _atom_site_type_symbol
 _atom_site_label
 _atom_site_symmetry_multiplicity
 _atom_site_fract_x
 _atom_site_fract_y
 _atom_site_fract_z
 _atom_site_occupancy
  Yb  Yb0  1  0.674088  0.994683  0.250000  1
  Lu  Lu1  1  0.002393  0.327534  0.750000  1
  Lu  Lu2  1  0.327436  0.003138  0.750000  1
  Pa  Pa3  1  0.995465  0.672599  0.250000  1
  Al  Al4  1  0.134094  0.131043  0.250000  1
  Al  Al5  1  0.873243  0.875278  0.750000  1
  Al  Al6  1  0.000536  0.331974  0.074256  1
  Al  Al7  1  0.999271  0.663791  0.919216  1
  Al  Al8  1  0.999271  0.663791  0.580784  1
  Al  Al9  1  0.340617  0.004485  0.425570  1
  Al  Al10  1  0.000536  0.331974  0.425744  1
  Al  Al11  1  0.664634  0.999915  0.575889  1
  Al  Al12  1  0.664634  0.999915  0.924111  1
  Al  Al13  1  0.340617  0.004485  0.074430  1
  Al  Al14  1  0.331556  0.331715  0.556098  1
  Al  Al15  1  0.663146  0.666462  0.451375  1
  Al  Al16  1  0.663146  0.666462  0.048625  1
  Al  Al17  1  0.331556  0.331715  0.943902  1
  Al  Al18  1  0.337460  0.547153  0.250000  1
  Al  Al19  1  0.659001  0.448421  0.750000  1
  Al  Al20  1  0.548471  0.344902  0.250000  1
  Al  Al21  1  0.449236  0.661260  0.750000  1
  Ir  Ir22  1  0.673936  0.330115  0.000096  1
  Ir  Ir23  1  0.324618  0.671168  0.000343  1
  Ir  Ir24  1  0.324618  0.671168  0.499657  1
  Ir  Ir25  1  0.673936  0.330115  0.499904  1
  Ir  Ir26  1  0.001242  0.997369  0.001314  1
  Ir  Ir27  1  0.001242  0.997369  0.498686  1
