# generated using pymatgen
data_Tb4Dy3Se8
_symmetry_space_group_name_H-M   'P 1'
_cell_length_a   8.19428300
_cell_length_b   8.19569849
_cell_length_c   8.19428300
_cell_angle_alpha   119.99429096
_cell_angle_beta   90.00000000
_cell_angle_gamma   119.99429096
_symmetry_Int_Tables_number   1
_chemical_formula_structural   Tb4Dy3Se8
_chemical_formula_sum   'Tb4 Dy3 Se8'
_cell_volume   389.19551566
_cell_formula_units_Z   1
loop_
 _symmetry_equiv_pos_site_id
 _symmetry_equiv_pos_as_xyz
  1  'x, y, z'
loop_
 _atom_site_type_symbol
 _atom_site_label
 _atom_site_symmetry_multiplicity
 _atom_site_fract_x
 _atom_site_fract_y
 _atom_site_fract_z
 _atom_site_occupancy
  Tb  Tb0  1  0.249980  0.000004  0.249978  1
  Tb  Tb1  1  0.750023  0.000004  0.249980  1
  Tb  Tb2  1  0.249978  0.999997  0.750019  1
  Tb  Tb3  1  0.750025  0.999997  0.750028  1
  Dy  Dy4  1  0.249977  0.499957  0.249981  1
  Dy  Dy5  1  0.249997  0.500004  0.749998  1
  Dy  Dy6  1  0.750024  0.500044  0.750022  1
  Se  Se7  1  0.000010  0.999999  0.999997  1
  Se  Se8  1  0.499986  0.000003  0.500003  1
  Se  Se9  1  0.997985  0.996156  0.497970  1
  Se  Se10  1  0.997847  0.499797  0.497805  1
  Se  Se11  1  0.502177  0.499965  0.497726  1
  Se  Se12  1  0.997821  0.500033  0.002274  1
  Se  Se13  1  0.502155  0.500198  0.002195  1
  Se  Se14  1  0.502018  0.003845  0.002035  1
