# generated using pymatgen
data_La7TbYbIr6
_symmetry_space_group_name_H-M   'P 1'
_cell_length_a   7.77265060
_cell_length_b   7.77265057
_cell_length_c   7.77265132
_cell_angle_alpha   69.28717281
_cell_angle_beta   69.28717628
_cell_angle_gamma   69.28716252
_symmetry_Int_Tables_number   1
_chemical_formula_structural   La7TbYbIr6
_chemical_formula_sum   'La7 Tb1 Yb1 Ir6'
_cell_volume   396.56632090
_cell_formula_units_Z   1
loop_
 _symmetry_equiv_pos_site_id
 _symmetry_equiv_pos_as_xyz
  1  'x, y, z'
loop_
 _atom_site_type_symbol
 _atom_site_label
 _atom_site_symmetry_multiplicity
 _atom_site_fract_x
 _atom_site_fract_y
 _atom_site_fract_z
 _atom_site_occupancy
  La  La0  1  0.193843  0.193843  0.193843  1
  La  La1  1  0.144622  0.391018  0.678902  1
  La  La2  1  0.678902  0.144622  0.391018  1
  La  La3  1  0.391018  0.678902  0.144622  1
  La  La4  1  0.851728  0.613380  0.321443  1
  La  La5  1  0.321443  0.851728  0.613380  1
  La  La6  1  0.613380  0.321443  0.851728  1
  Tb  Tb7  1  0.807900  0.807900  0.807900  1
  Yb  Yb8  1  0.999451  0.999451  0.999451  1
  Ir  Ir9  1  0.951609  0.173147  0.585383  1
  Ir  Ir10  1  0.585383  0.951609  0.173147  1
  Ir  Ir11  1  0.173147  0.585383  0.951609  1
  Ir  Ir12  1  0.044923  0.820838  0.421813  1
  Ir  Ir13  1  0.421813  0.044923  0.820838  1
  Ir  Ir14  1  0.820838  0.421813  0.044923  1
