# generated using pymatgen
data_Ho2Mo2O7
_symmetry_space_group_name_H-M   'P 1'
_cell_length_a   7.26718237
_cell_length_b   7.44001387
_cell_length_c   7.33278300
_cell_angle_alpha   60.47563919
_cell_angle_beta   59.70094286
_cell_angle_gamma   60.12118378
_symmetry_Int_Tables_number   1
_chemical_formula_structural   Ho2Mo2O7
_chemical_formula_sum   'Ho4 Mo4 O14'
_cell_volume   280.95036421
_cell_formula_units_Z   2
loop_
 _symmetry_equiv_pos_site_id
 _symmetry_equiv_pos_as_xyz
  1  'x, y, z'
loop_
 _atom_site_type_symbol
 _atom_site_label
 _atom_site_symmetry_multiplicity
 _atom_site_fract_x
 _atom_site_fract_y
 _atom_site_fract_z
 _atom_site_occupancy
  Ho  Ho0  1  0.125000  0.125000  0.625000  1
  Ho  Ho1  1  0.125000  0.625000  0.125000  1
  Ho  Ho2  1  0.125000  0.125000  0.125000  1
  Ho  Ho3  1  0.625000  0.125000  0.125000  1
  Mo  Mo4  1  0.125000  0.625000  0.625000  1
  Mo  Mo5  1  0.625000  0.625000  0.625000  1
  Mo  Mo6  1  0.625000  0.125000  0.625000  1
  Mo  Mo7  1  0.625000  0.625000  0.125000  1
  O  O8  1  0.282688  0.729105  0.718565  1
  O  O9  1  0.547555  0.962735  0.952358  1
  O  O10  1  0.702445  0.287265  0.712648  1
  O  O11  1  0.695888  0.731907  0.286102  1
  O  O12  1  0.282688  0.729105  0.269642  1
  O  O13  1  0.292003  0.277292  0.715353  1
  O  O14  1  0.998065  0.001198  0.000369  1
  O  O15  1  0.251935  0.248802  0.249631  1
  O  O16  1  0.967312  0.520895  0.980358  1
  O  O17  1  0.554112  0.518093  0.963898  1
  O  O18  1  0.957997  0.972708  0.534647  1
  O  O19  1  0.547555  0.962735  0.537352  1
  O  O20  1  0.702445  0.287265  0.297642  1
  O  O21  1  0.967312  0.520895  0.531435  1
