# generated using pymatgen
data_YbCd5(IO6)2
_symmetry_space_group_name_H-M   'P 1'
_cell_length_a   5.76969187
_cell_length_b   5.62605926
_cell_length_c   10.09312100
_cell_angle_alpha   56.46893980
_cell_angle_beta   89.75012860
_cell_angle_gamma   89.60476648
_symmetry_Int_Tables_number   1
_chemical_formula_structural   YbCd5(IO6)2
_chemical_formula_sum   'Yb1 Cd5 I2 O12'
_cell_volume   273.10059310
_cell_formula_units_Z   1
loop_
 _symmetry_equiv_pos_site_id
 _symmetry_equiv_pos_as_xyz
  1  'x, y, z'
loop_
 _atom_site_type_symbol
 _atom_site_label
 _atom_site_symmetry_multiplicity
 _atom_site_fract_x
 _atom_site_fract_y
 _atom_site_fract_z
 _atom_site_occupancy
  Yb  Yb0  1  0.000000  0.500000  0.500000  1
  Cd  Cd1  1  0.958945  0.263872  0.231814  1
  Cd  Cd2  1  0.450668  0.766700  0.254270  1
  Cd  Cd3  1  0.041055  0.736128  0.768186  1
  Cd  Cd4  1  0.549332  0.233300  0.745730  1
  Cd  Cd5  1  0.500000  0.500000  0.000000  1
  I  I6  1  0.000000  0.000000  0.000000  1
  I  I7  1  0.500000  0.000000  0.500000  1
  O  O8  1  0.286827  0.912400  0.903418  1
  O  O9  1  0.768613  0.078460  0.583891  1
  O  O10  1  0.713173  0.087600  0.096582  1
  O  O11  1  0.231387  0.921540  0.416109  1
  O  O12  1  0.182322  0.256333  0.049369  1
  O  O13  1  0.678662  0.772606  0.450749  1
  O  O14  1  0.817678  0.743667  0.950631  1
  O  O15  1  0.321338  0.227394  0.549251  1
  O  O16  1  0.420899  0.666720  0.705276  1
  O  O17  1  0.917421  0.354916  0.763942  1
  O  O18  1  0.579101  0.333280  0.294724  1
  O  O19  1  0.082579  0.645084  0.236058  1
