# generated using pymatgen
data_Tb3(PrGa2)2
_symmetry_space_group_name_H-M   'P 1'
_cell_length_a   7.64688800
_cell_length_b   8.03652400
_cell_length_c   15.60155900
_cell_angle_alpha   90.00000000
_cell_angle_beta   90.00000000
_cell_angle_gamma   90.00000000
_symmetry_Int_Tables_number   1
_chemical_formula_structural   Tb3(PrGa2)2
_chemical_formula_sum   'Tb12 Pr8 Ga16'
_cell_volume   958.78443083
_cell_formula_units_Z   4
loop_
 _symmetry_equiv_pos_site_id
 _symmetry_equiv_pos_as_xyz
  1  'x, y, z'
loop_
 _atom_site_type_symbol
 _atom_site_label
 _atom_site_symmetry_multiplicity
 _atom_site_fract_x
 _atom_site_fract_y
 _atom_site_fract_z
 _atom_site_occupancy
  Tb  Tb0  1  0.327052  0.172777  0.620733  1
  Tb  Tb1  1  0.672948  0.827223  0.379267  1
  Tb  Tb2  1  0.665133  0.992106  0.750000  1
  Tb  Tb3  1  0.172948  0.672777  0.379267  1
  Tb  Tb4  1  0.827052  0.327223  0.879267  1
  Tb  Tb5  1  0.827052  0.327223  0.620733  1
  Tb  Tb6  1  0.834867  0.492106  0.250000  1
  Tb  Tb7  1  0.334867  0.007894  0.250000  1
  Tb  Tb8  1  0.327052  0.172777  0.879267  1
  Tb  Tb9  1  0.172948  0.672777  0.120733  1
  Tb  Tb10  1  0.672948  0.827223  0.120733  1
  Tb  Tb11  1  0.165133  0.507894  0.750000  1
  Pr  Pr12  1  0.013349  0.177181  0.404903  1
  Pr  Pr13  1  0.513349  0.322819  0.404903  1
  Pr  Pr14  1  0.486651  0.677181  0.904903  1
  Pr  Pr15  1  0.486651  0.677181  0.595097  1
  Pr  Pr16  1  0.986651  0.822819  0.595097  1
  Pr  Pr17  1  0.986651  0.822819  0.904903  1
  Pr  Pr18  1  0.513349  0.322819  0.095097  1
  Pr  Pr19  1  0.013349  0.177181  0.095097  1
  Ga  Ga20  1  0.279215  0.878390  0.750000  1
  Ga  Ga21  1  0.464053  0.613070  0.250000  1
  Ga  Ga22  1  0.035947  0.113070  0.750000  1
  Ga  Ga23  1  0.535947  0.386930  0.750000  1
  Ga  Ga24  1  0.154911  0.465493  0.539132  1
  Ga  Ga25  1  0.964053  0.886930  0.250000  1
  Ga  Ga26  1  0.720785  0.121610  0.250000  1
  Ga  Ga27  1  0.845089  0.534507  0.039132  1
  Ga  Ga28  1  0.345089  0.965493  0.039132  1
  Ga  Ga29  1  0.154911  0.465493  0.960868  1
  Ga  Ga30  1  0.654911  0.034507  0.539132  1
  Ga  Ga31  1  0.345089  0.965493  0.460868  1
  Ga  Ga32  1  0.845089  0.534507  0.460868  1
  Ga  Ga33  1  0.779215  0.621610  0.750000  1
  Ga  Ga34  1  0.220785  0.378390  0.250000  1
  Ga  Ga35  1  0.654911  0.034507  0.960868  1
