# generated using pymatgen
data_Hf4TaNb3Si4
_symmetry_space_group_name_H-M   'P 1'
_cell_length_a   3.62130100
_cell_length_b   6.98809996
_cell_length_c   8.45434445
_cell_angle_alpha   90.09586710
_cell_angle_beta   90.00000000
_cell_angle_gamma   90.00000000
_symmetry_Int_Tables_number   1
_chemical_formula_structural   Hf4TaNb3Si4
_chemical_formula_sum   'Hf4 Ta1 Nb3 Si4'
_cell_volume   213.94545418
_cell_formula_units_Z   1
loop_
 _symmetry_equiv_pos_site_id
 _symmetry_equiv_pos_as_xyz
  1  'x, y, z'
loop_
 _atom_site_type_symbol
 _atom_site_label
 _atom_site_symmetry_multiplicity
 _atom_site_fract_x
 _atom_site_fract_y
 _atom_site_fract_z
 _atom_site_occupancy
  Hf  Hf0  1  0.250000  0.543832  0.166097  1
  Hf  Hf1  1  0.250000  0.044391  0.333798  1
  Hf  Hf2  1  0.750000  0.454992  0.834658  1
  Hf  Hf3  1  0.750000  0.954975  0.666866  1
  Ta  Ta4  1  0.750000  0.867327  0.059114  1
  Nb  Nb5  1  0.250000  0.633501  0.558437  1
  Nb  Nb6  1  0.250000  0.133724  0.940659  1
  Nb  Nb7  1  0.750000  0.368014  0.441127  1
  Si  Si8  1  0.250000  0.752294  0.859326  1
  Si  Si9  1  0.250000  0.252521  0.640556  1
  Si  Si10  1  0.750000  0.246410  0.141488  1
  Si  Si11  1  0.750000  0.748019  0.357874  1
