# generated using pymatgen
data_Hf4Ta2Al16PtRh6
_symmetry_space_group_name_H-M   'P 1'
_cell_length_a   8.62176465
_cell_length_b   8.67670372
_cell_length_c   8.67670417
_cell_angle_alpha   59.70922149
_cell_angle_beta   60.20923650
_cell_angle_gamma   60.20922774
_symmetry_Int_Tables_number   1
_chemical_formula_structural   Hf4Ta2Al16PtRh6
_chemical_formula_sum   'Hf4 Ta2 Al16 Pt1 Rh6'
_cell_volume   459.39635906
_cell_formula_units_Z   1
loop_
 _symmetry_equiv_pos_site_id
 _symmetry_equiv_pos_as_xyz
  1  'x, y, z'
loop_
 _atom_site_type_symbol
 _atom_site_label
 _atom_site_symmetry_multiplicity
 _atom_site_fract_x
 _atom_site_fract_y
 _atom_site_fract_z
 _atom_site_occupancy
  Hf  Hf0  1  0.318027  0.681906  0.318093  1
  Hf  Hf1  1  0.318027  0.318093  0.681906  1
  Hf  Hf2  1  0.681972  0.318093  0.681906  1
  Hf  Hf3  1  0.681972  0.681906  0.318093  1
  Ta  Ta4  1  0.677400  0.322599  0.322599  1
  Ta  Ta5  1  0.322599  0.677400  0.677400  1
  Al  Al6  1  0.342798  0.334805  0.334805  1
  Al  Al7  1  0.336928  0.338987  0.987156  1
  Al  Al8  1  0.987592  0.334805  0.334805  1
  Al  Al9  1  0.336928  0.987156  0.338987  1
  Al  Al10  1  0.657202  0.665195  0.665195  1
  Al  Al11  1  0.663072  0.661013  0.012844  1
  Al  Al12  1  0.663072  0.012844  0.661013  1
  Al  Al13  1  0.012408  0.665195  0.665195  1
  Al  Al14  1  0.118645  0.119966  0.119966  1
  Al  Al15  1  0.122808  0.112393  0.641992  1
  Al  Al16  1  0.641425  0.119966  0.119966  1
  Al  Al17  1  0.122808  0.641992  0.112393  1
  Al  Al18  1  0.881354  0.880033  0.880033  1
  Al  Al19  1  0.877191  0.887606  0.358011  1
  Al  Al20  1  0.877191  0.358011  0.887606  1
  Al  Al21  1  0.358578  0.880033  0.880033  1
  Pt  Pt22  1  0.000000  0.500000  0.500000  1
  Rh  Rh23  1  0.000000  0.000000  0.000000  1
  Rh  Rh24  1  0.500000  0.000000  0.000000  1
  Rh  Rh25  1  0.000000  0.500000  0.000000  1
  Rh  Rh26  1  0.000000  0.000000  0.500000  1
  Rh  Rh27  1  0.500000  0.000000  0.500000  1
  Rh  Rh28  1  0.500000  0.500000  0.000000  1
