# generated using pymatgen
data_Dy18Sc2Si15As
_symmetry_space_group_name_H-M   'P 1'
_cell_length_a   7.45752833
_cell_length_b   7.61057881
_cell_length_c   14.56397407
_cell_angle_alpha   89.88262126
_cell_angle_beta   85.75187590
_cell_angle_gamma   89.95058781
_symmetry_Int_Tables_number   1
_chemical_formula_structural   Dy18Sc2Si15As
_chemical_formula_sum   'Dy18 Sc2 Si15 As1'
_cell_volume   824.32155642
_cell_formula_units_Z   1
loop_
 _symmetry_equiv_pos_site_id
 _symmetry_equiv_pos_as_xyz
  1  'x, y, z'
loop_
 _atom_site_type_symbol
 _atom_site_label
 _atom_site_symmetry_multiplicity
 _atom_site_fract_x
 _atom_site_fract_y
 _atom_site_fract_z
 _atom_site_occupancy
  Dy  Dy0  1  0.828403  0.495510  0.751343  1
  Dy  Dy1  1  0.327097  0.005036  0.753794  1
  Dy  Dy2  1  0.011445  0.822261  0.104173  1
  Dy  Dy3  1  0.475040  0.684749  0.396500  1
  Dy  Dy4  1  0.487558  0.319038  0.899258  1
  Dy  Dy5  1  0.025917  0.185210  0.601340  1
  Dy  Dy6  1  0.991997  0.178723  0.899522  1
  Dy  Dy7  1  0.525012  0.314753  0.600703  1
  Dy  Dy8  1  0.507347  0.682802  0.103905  1
  Dy  Dy9  1  0.974573  0.813614  0.396429  1
  Dy  Dy10  1  0.638835  0.838060  0.882281  1
  Dy  Dy11  1  0.174120  0.677391  0.621377  1
  Dy  Dy12  1  0.861709  0.335462  0.120042  1
  Dy  Dy13  1  0.326089  0.175541  0.375790  1
  Dy  Dy14  1  0.360661  0.164170  0.121196  1
  Dy  Dy15  1  0.826256  0.323929  0.375909  1
  Dy  Dy16  1  0.140253  0.664741  0.883454  1
  Dy  Dy17  1  0.674148  0.823145  0.621470  1
  Sc  Sc18  1  0.675114  0.994251  0.245239  1
  Sc  Sc19  1  0.174036  0.504698  0.244851  1
  Si  Si20  1  0.788970  0.633533  0.250965  1
  Si  Si21  1  0.288337  0.865387  0.251648  1
  Si  Si22  1  0.712553  0.129469  0.748324  1
  Si  Si23  1  0.212472  0.372122  0.748697  1
  Si  Si24  1  0.041028  0.106651  0.251325  1
  Si  Si25  1  0.541903  0.393399  0.250441  1
  Si  Si26  1  0.453094  0.608837  0.749505  1
  Si  Si27  1  0.952988  0.891394  0.749023  1
  Si  Si28  1  0.356527  0.972352  0.541211  1
  Si  Si29  1  0.709384  0.029932  0.046929  1
  Si  Si30  1  0.145843  0.472171  0.455795  1
  Si  Si31  1  0.212548  0.470404  0.047746  1
  Si  Si32  1  0.645343  0.026238  0.454952  1
  Si  Si33  1  0.291297  0.968149  0.957491  1
  Si  Si34  1  0.855918  0.527094  0.541199  1
  As  As35  1  0.786184  0.529788  0.956173  1
