# generated using pymatgen
data_Ho2Mn3Co9P7
_symmetry_space_group_name_H-M   'P 1'
_cell_length_a   9.08050800
_cell_length_b   9.08050797
_cell_length_c   3.59596000
_cell_angle_alpha   90.00000000
_cell_angle_beta   90.00000000
_cell_angle_gamma   120.00000738
_symmetry_Int_Tables_number   1
_chemical_formula_structural   Ho2Mn3Co9P7
_chemical_formula_sum   'Ho2 Mn3 Co9 P7'
_cell_volume   256.78268820
_cell_formula_units_Z   1
loop_
 _symmetry_equiv_pos_site_id
 _symmetry_equiv_pos_as_xyz
  1  'x, y, z'
loop_
 _atom_site_type_symbol
 _atom_site_label
 _atom_site_symmetry_multiplicity
 _atom_site_fract_x
 _atom_site_fract_y
 _atom_site_fract_z
 _atom_site_occupancy
  Ho  Ho0  1  0.666667  0.333333  0.000000  1
  Ho  Ho1  1  0.333333  0.666667  0.500000  1
  Mn  Mn2  1  0.101260  0.221225  0.500000  1
  Mn  Mn3  1  0.778775  0.880036  0.500000  1
  Mn  Mn4  1  0.119964  0.898740  0.500000  1
  Co  Co5  1  0.061040  0.430292  0.000000  1
  Co  Co6  1  0.569708  0.630748  0.000000  1
  Co  Co7  1  0.369252  0.938960  0.000000  1
  Co  Co8  1  0.275693  0.158133  0.000000  1
  Co  Co9  1  0.841867  0.117560  0.000000  1
  Co  Co10  1  0.882440  0.724307  0.000000  1
  Co  Co11  1  0.437443  0.386661  0.500000  1
  Co  Co12  1  0.613339  0.050782  0.500000  1
  Co  Co13  1  0.949218  0.562557  0.500000  1
  P  P14  1  0.300876  0.412662  0.000000  1
  P  P15  1  0.587338  0.888214  0.000000  1
  P  P16  1  0.111786  0.699124  0.000000  1
  P  P17  1  0.406569  0.117179  0.500000  1
  P  P18  1  0.882821  0.289390  0.500000  1
  P  P19  1  0.710610  0.593431  0.500000  1
  P  P20  1  0.000000  0.000000  0.000000  1
