# generated using pymatgen
data_Lu6Al6PtAu5
_symmetry_space_group_name_H-M   'P 1'
_cell_length_a   7.24696200
_cell_length_b   7.24696270
_cell_length_c   7.94578400
_cell_angle_alpha   90.00000000
_cell_angle_beta   90.00000000
_cell_angle_gamma   119.99999681
_symmetry_Int_Tables_number   1
_chemical_formula_structural   Lu6Al6PtAu5
_chemical_formula_sum   'Lu6 Al6 Pt1 Au5'
_cell_volume   361.39272906
_cell_formula_units_Z   1
loop_
 _symmetry_equiv_pos_site_id
 _symmetry_equiv_pos_as_xyz
  1  'x, y, z'
loop_
 _atom_site_type_symbol
 _atom_site_label
 _atom_site_symmetry_multiplicity
 _atom_site_fract_x
 _atom_site_fract_y
 _atom_site_fract_z
 _atom_site_occupancy
  Lu  Lu0  1  0.581430  0.995782  0.750000  1
  Lu  Lu1  1  0.004218  0.585650  0.750000  1
  Lu  Lu2  1  0.414350  0.418570  0.750000  1
  Lu  Lu3  1  0.995500  0.590453  0.250000  1
  Lu  Lu4  1  0.594952  0.004500  0.250000  1
  Lu  Lu5  1  0.409547  0.405048  0.250000  1
  Al  Al6  1  0.756996  0.757402  0.005478  1
  Al  Al7  1  0.242598  0.999594  0.005478  1
  Al  Al8  1  0.000406  0.243004  0.005478  1
  Al  Al9  1  0.756996  0.757402  0.494522  1
  Al  Al10  1  0.242598  0.999594  0.494522  1
  Al  Al11  1  0.000406  0.243004  0.494522  1
  Pt  Pt12  1  0.000000  0.000000  0.250000  1
  Au  Au13  1  0.000000  0.000000  0.750000  1
  Au  Au14  1  0.666667  0.333333  0.996441  1
  Au  Au15  1  0.666667  0.333333  0.503559  1
  Au  Au16  1  0.333333  0.666667  0.491994  1
  Au  Au17  1  0.333333  0.666667  0.008006  1
