# generated using pymatgen
data_ErTc4Sb3F28
_symmetry_space_group_name_H-M   'P 1'
_cell_length_a   5.61068272
_cell_length_b   8.93074443
_cell_length_c   12.04907500
_cell_angle_alpha   62.57125510
_cell_angle_beta   89.97096754
_cell_angle_gamma   90.00253694
_symmetry_Int_Tables_number   1
_chemical_formula_structural   ErTc4Sb3F28
_chemical_formula_sum   'Er1 Tc4 Sb3 F28'
_cell_volume   535.87890385
_cell_formula_units_Z   1
loop_
 _symmetry_equiv_pos_site_id
 _symmetry_equiv_pos_as_xyz
  1  'x, y, z'
loop_
 _atom_site_type_symbol
 _atom_site_label
 _atom_site_symmetry_multiplicity
 _atom_site_fract_x
 _atom_site_fract_y
 _atom_site_fract_z
 _atom_site_occupancy
  Er  Er0  1  0.740945  0.807973  0.263704  1
  Tc  Tc1  1  0.760056  0.269857  0.958673  1
  Tc  Tc2  1  0.258406  0.727311  0.539897  1
  Tc  Tc3  1  0.240284  0.728662  0.043876  1
  Tc  Tc4  1  0.741141  0.274778  0.457299  1
  Sb  Sb5  1  0.763325  0.821812  0.759014  1
  Sb  Sb6  1  0.258755  0.181168  0.743817  1
  Sb  Sb7  1  0.234539  0.169994  0.243054  1
  F  F8  1  0.440424  0.707503  0.920335  1
  F  F9  1  0.937671  0.296301  0.582655  1
  F  F10  1  0.564457  0.293475  0.081524  1
  F  F11  1  0.051552  0.708493  0.415275  1
  F  F12  1  0.447199  0.278767  0.543896  1
  F  F13  1  0.947018  0.726642  0.954881  1
  F  F14  1  0.551216  0.725455  0.448159  1
  F  F15  1  0.056379  0.273429  0.044083  1
  F  F16  1  0.776437  0.512762  0.858328  1
  F  F17  1  0.275279  0.485323  0.638718  1
  F  F18  1  0.224547  0.489137  0.142081  1
  F  F19  1  0.728310  0.522133  0.357912  1
  F  F20  1  0.755191  0.021579  0.058662  1
  F  F21  1  0.256453  0.978499  0.443606  1
  F  F22  1  0.243716  0.981094  0.942805  1
  F  F23  1  0.744464  0.024674  0.555552  1
  F  F24  1  0.975236  0.730198  0.633325  1
  F  F25  1  0.473166  0.269867  0.862405  1
  F  F26  1  0.026515  0.270926  0.364503  1
  F  F27  1  0.519098  0.733137  0.142664  1
  F  F28  1  0.041790  0.751314  0.172175  1
  F  F29  1  0.551777  0.251501  0.328514  1
  F  F30  1  0.951686  0.247997  0.826013  1
  F  F31  1  0.451705  0.750116  0.667851  1
  F  F32  1  0.410919  0.969248  0.232820  1
  F  F33  1  0.921336  0.023080  0.270231  1
  F  F34  1  0.593418  0.025053  0.770834  1
  F  F35  1  0.085587  0.970736  0.730855  1
