# generated using pymatgen
data_Nd4Dy2RuI10
_symmetry_space_group_name_H-M   'P 1'
_cell_length_a   7.89332432
_cell_length_b   9.92173927
_cell_length_c   9.93007174
_cell_angle_alpha   107.21657503
_cell_angle_beta   104.67921969
_cell_angle_gamma   96.30915714
_symmetry_Int_Tables_number   1
_chemical_formula_structural   Nd4Dy2RuI10
_chemical_formula_sum   'Nd4 Dy2 Ru1 I10'
_cell_volume   704.05326121
_cell_formula_units_Z   1
loop_
 _symmetry_equiv_pos_site_id
 _symmetry_equiv_pos_as_xyz
  1  'x, y, z'
loop_
 _atom_site_type_symbol
 _atom_site_label
 _atom_site_symmetry_multiplicity
 _atom_site_fract_x
 _atom_site_fract_y
 _atom_site_fract_z
 _atom_site_occupancy
  Nd  Nd0  1  0.032109  0.915469  0.718256  1
  Nd  Nd1  1  0.967891  0.084531  0.281744  1
  Nd  Nd2  1  0.117510  0.761042  0.042928  1
  Nd  Nd3  1  0.882490  0.238958  0.957072  1
  Dy  Dy4  1  0.650843  0.832511  0.874390  1
  Dy  Dy5  1  0.349157  0.167489  0.125610  1
  Ru  Ru6  1  0.000000  0.000000  0.000000  1
  I  I7  1  0.645633  0.729096  0.555009  1
  I  I8  1  0.354367  0.270904  0.444991  1
  I  I9  1  0.230352  0.653952  0.744940  1
  I  I10  1  0.769648  0.346048  0.255060  1
  I  I11  1  0.454557  0.088937  0.820069  1
  I  I12  1  0.545443  0.911063  0.179931  1
  I  I13  1  0.260558  0.455158  0.087991  1
  I  I14  1  0.739442  0.544842  0.912009  1
  I  I15  1  0.087283  0.817544  0.371079  1
  I  I16  1  0.912717  0.182456  0.628921  1
