# generated using pymatgen
data_Dy7Tm9Cd4RuPtRh2
_symmetry_space_group_name_H-M   'P 1'
_cell_length_a   9.54000544
_cell_length_b   9.58329160
_cell_length_c   9.61599900
_cell_angle_alpha   59.88643104
_cell_angle_beta   59.73584697
_cell_angle_gamma   59.70429203
_symmetry_Int_Tables_number   1
_chemical_formula_structural   Dy7Tm9Cd4RuPtRh2
_chemical_formula_sum   'Dy7 Tm9 Cd4 Ru1 Pt1 Rh2'
_cell_volume   618.47355117
_cell_formula_units_Z   1
loop_
 _symmetry_equiv_pos_site_id
 _symmetry_equiv_pos_as_xyz
  1  'x, y, z'
loop_
 _atom_site_type_symbol
 _atom_site_label
 _atom_site_symmetry_multiplicity
 _atom_site_fract_x
 _atom_site_fract_y
 _atom_site_fract_z
 _atom_site_occupancy
  Dy  Dy0  1  0.816073  0.806389  0.188769  1
  Dy  Dy1  1  0.937270  0.563310  0.561785  1
  Dy  Dy2  1  0.559388  0.938603  0.936490  1
  Dy  Dy3  1  0.559441  0.938561  0.565522  1
  Dy  Dy4  1  0.937299  0.563284  0.937622  1
  Dy  Dy5  1  0.556383  0.565155  0.939239  1
  Dy  Dy6  1  0.935723  0.936840  0.563699  1
  Tm  Tm7  1  0.347472  0.352039  0.349654  1
  Tm  Tm8  1  0.347476  0.352021  0.950801  1
  Tm  Tm9  1  0.348270  0.951933  0.349898  1
  Tm  Tm10  1  0.960523  0.346994  0.346230  1
  Tm  Tm11  1  0.813402  0.188974  0.189579  1
  Tm  Tm12  1  0.186637  0.810070  0.814556  1
  Tm  Tm13  1  0.186635  0.810098  0.188729  1
  Tm  Tm14  1  0.813387  0.188981  0.808058  1
  Tm  Tm15  1  0.186907  0.187829  0.812665  1
  Cd  Cd16  1  0.580014  0.580049  0.580796  1
  Cd  Cd17  1  0.580000  0.580067  0.259139  1
  Cd  Cd18  1  0.580482  0.258566  0.580484  1
  Cd  Cd19  1  0.256093  0.581064  0.581434  1
  Ru  Ru20  1  0.147499  0.572013  0.140228  1
  Pt  Pt21  1  0.572329  0.145577  0.141053  1
  Rh  Rh22  1  0.145647  0.140805  0.139950  1
  Rh  Rh23  1  0.145655  0.140772  0.573613  1
