# generated using pymatgen
data_Pr2DyThSe6
_symmetry_space_group_name_H-M   'P 1'
_cell_length_a   4.19576500
_cell_length_b   11.08068100
_cell_length_c   11.43788200
_cell_angle_alpha   90.00000000
_cell_angle_beta   90.00000000
_cell_angle_gamma   90.00000000
_symmetry_Int_Tables_number   1
_chemical_formula_structural   Pr2DyThSe6
_chemical_formula_sum   'Pr4 Dy2 Th2 Se12'
_cell_volume   531.76924951
_cell_formula_units_Z   2
loop_
 _symmetry_equiv_pos_site_id
 _symmetry_equiv_pos_as_xyz
  1  'x, y, z'
loop_
 _atom_site_type_symbol
 _atom_site_label
 _atom_site_symmetry_multiplicity
 _atom_site_fract_x
 _atom_site_fract_y
 _atom_site_fract_z
 _atom_site_occupancy
  Pr  Pr0  1  0.750000  0.505254  0.696806  1
  Pr  Pr1  1  0.750000  0.994746  0.196806  1
  Pr  Pr2  1  0.250000  0.508288  0.306460  1
  Pr  Pr3  1  0.250000  0.991712  0.806460  1
  Dy  Dy4  1  0.750000  0.810853  0.511072  1
  Dy  Dy5  1  0.750000  0.689147  0.011072  1
  Th  Th6  1  0.250000  0.187771  0.487507  1
  Th  Th7  1  0.250000  0.312229  0.987507  1
  Se  Se8  1  0.250000  0.297857  0.727707  1
  Se  Se9  1  0.250000  0.202143  0.227707  1
  Se  Se10  1  0.750000  0.707698  0.268901  1
  Se  Se11  1  0.750000  0.792302  0.768901  1
  Se  Se12  1  0.750000  0.051573  0.618427  1
  Se  Se13  1  0.750000  0.448427  0.118427  1
  Se  Se14  1  0.250000  0.942285  0.385478  1
  Se  Se15  1  0.250000  0.557715  0.885478  1
  Se  Se16  1  0.250000  0.633887  0.543686  1
  Se  Se17  1  0.250000  0.866113  0.043686  1
  Se  Se18  1  0.750000  0.374312  0.453956  1
  Se  Se19  1  0.750000  0.125688  0.953956  1
