# generated using pymatgen
data_CaEu(InN)2
_symmetry_space_group_name_H-M   'P 1'
_cell_length_a   3.76692600
_cell_length_b   3.76692600
_cell_length_c   8.07912000
_cell_angle_alpha   90.00000000
_cell_angle_beta   90.00000000
_cell_angle_gamma   90.00000000
_symmetry_Int_Tables_number   1
_chemical_formula_structural   CaEu(InN)2
_chemical_formula_sum   'Ca1 Eu1 In2 N2'
_cell_volume   114.64054347
_cell_formula_units_Z   1
loop_
 _symmetry_equiv_pos_site_id
 _symmetry_equiv_pos_as_xyz
  1  'x, y, z'
loop_
 _atom_site_type_symbol
 _atom_site_label
 _atom_site_symmetry_multiplicity
 _atom_site_fract_x
 _atom_site_fract_y
 _atom_site_fract_z
 _atom_site_occupancy
  Ca  Ca0  1  0.500000  0.000000  0.643092  1
  Eu  Eu1  1  0.000000  0.500000  0.360879  1
  In  In2  1  0.500000  0.000000  0.084513  1
  In  In3  1  0.000000  0.500000  0.912620  1
  N  N4  1  0.500000  0.000000  0.348573  1
  N  N5  1  0.000000  0.500000  0.650322  1
