# generated using pymatgen
data_YZr2Al7Cu2
_symmetry_space_group_name_H-M   'P 1'
_cell_length_a   8.91502163
_cell_length_b   8.91502273
_cell_length_c   8.91502200
_cell_angle_alpha   34.83126958
_cell_angle_beta   34.83125946
_cell_angle_gamma   34.83126043
_symmetry_Int_Tables_number   1
_chemical_formula_structural   YZr2Al7Cu2
_chemical_formula_sum   'Y1 Zr2 Al7 Cu2'
_cell_volume   206.32586548
_cell_formula_units_Z   1
loop_
 _symmetry_equiv_pos_site_id
 _symmetry_equiv_pos_as_xyz
  1  'x, y, z'
loop_
 _atom_site_type_symbol
 _atom_site_label
 _atom_site_symmetry_multiplicity
 _atom_site_fract_x
 _atom_site_fract_y
 _atom_site_fract_z
 _atom_site_occupancy
  Y  Y0  1  0.000000  0.000000  0.000000  1
  Zr  Zr1  1  0.855725  0.855725  0.855725  1
  Zr  Zr2  1  0.144275  0.144275  0.144275  1
  Al  Al3  1  0.415217  0.415217  0.924495  1
  Al  Al4  1  0.924495  0.415217  0.415217  1
  Al  Al5  1  0.415217  0.924495  0.415217  1
  Al  Al6  1  0.500000  0.500000  0.500000  1
  Al  Al7  1  0.584783  0.075505  0.584783  1
  Al  Al8  1  0.075505  0.584783  0.584783  1
  Al  Al9  1  0.584783  0.584783  0.075505  1
  Cu  Cu10  1  0.665581  0.665581  0.665581  1
  Cu  Cu11  1  0.334419  0.334419  0.334419  1
