# generated using pymatgen
data_Dy10Y5Tm(InRh)4
_symmetry_space_group_name_H-M   'P 1'
_cell_length_a   9.65543088
_cell_length_b   9.66668499
_cell_length_c   9.66675315
_cell_angle_alpha   59.99871260
_cell_angle_beta   59.89335289
_cell_angle_gamma   59.89297804
_symmetry_Int_Tables_number   1
_chemical_formula_structural   Dy10Y5Tm(InRh)4
_chemical_formula_sum   'Dy10 Y5 Tm1 In4 Rh4'
_cell_volume   636.95309685
_cell_formula_units_Z   1
loop_
 _symmetry_equiv_pos_site_id
 _symmetry_equiv_pos_as_xyz
  1  'x, y, z'
loop_
 _atom_site_type_symbol
 _atom_site_label
 _atom_site_symmetry_multiplicity
 _atom_site_fract_x
 _atom_site_fract_y
 _atom_site_fract_z
 _atom_site_occupancy
  Dy  Dy0  1  0.650152  0.049290  0.647456  1
  Dy  Dy1  1  0.189359  0.811384  0.189275  1
  Dy  Dy2  1  0.189361  0.189277  0.811382  1
  Dy  Dy3  1  0.810296  0.810022  0.191258  1
  Dy  Dy4  1  0.440925  0.058588  0.058580  1
  Dy  Dy5  1  0.811360  0.189418  0.189420  1
  Dy  Dy6  1  0.059685  0.439439  0.439438  1
  Dy  Dy7  1  0.810294  0.191258  0.810023  1
  Dy  Dy8  1  0.190638  0.810759  0.810759  1
  Dy  Dy9  1  0.650151  0.647460  0.049292  1
  Y  Y10  1  0.062365  0.062527  0.436611  1
  Y  Y11  1  0.438307  0.061533  0.437286  1
  Y  Y12  1  0.062366  0.436613  0.062527  1
  Y  Y13  1  0.050039  0.649355  0.649359  1
  Y  Y14  1  0.438297  0.437287  0.061532  1
  Tm  Tm15  1  0.651419  0.652438  0.652436  1
  In  In16  1  0.416659  0.416937  0.416940  1
  In  In17  1  0.748077  0.417966  0.417961  1
  In  In18  1  0.417715  0.748493  0.417626  1
  In  In19  1  0.417715  0.417599  0.748492  1
  Rh  Rh20  1  0.856165  0.857601  0.426430  1
  Rh  Rh21  1  0.854139  0.860219  0.860212  1
  Rh  Rh22  1  0.428339  0.858127  0.858107  1
  Rh  Rh23  1  0.856181  0.426410  0.857596  1
