# generated using pymatgen
data_CaPrY2(Al8Pt3)3
_symmetry_space_group_name_H-M   'P 1'
_cell_length_a   7.55115695
_cell_length_b   7.56929153
_cell_length_c   13.26005818
_cell_angle_alpha   84.59149058
_cell_angle_beta   79.12115580
_cell_angle_gamma   59.91164986
_symmetry_Int_Tables_number   1
_chemical_formula_structural   CaPrY2(Al8Pt3)3
_chemical_formula_sum   'Ca1 Pr1 Y2 Al24 Pt9'
_cell_volume   643.99352222
_cell_formula_units_Z   1
loop_
 _symmetry_equiv_pos_site_id
 _symmetry_equiv_pos_as_xyz
  1  'x, y, z'
loop_
 _atom_site_type_symbol
 _atom_site_label
 _atom_site_symmetry_multiplicity
 _atom_site_fract_x
 _atom_site_fract_y
 _atom_site_fract_z
 _atom_site_occupancy
  Ca  Ca0  1  0.393805  0.168193  0.807226  1
  Pr  Pr1  1  0.267397  0.501025  0.190527  1
  Y  Y2  1  0.604740  0.832954  0.192198  1
  Y  Y3  1  0.734157  0.498288  0.807563  1
  Al  Al4  1  0.684172  0.833876  0.945059  1
  Al  Al5  1  0.315995  0.164278  0.052584  1
  Al  Al6  1  0.146500  0.832599  0.560959  1
  Al  Al7  1  0.853239  0.167756  0.438786  1
  Al  Al8  1  0.480346  0.166230  0.558988  1
  Al  Al9  1  0.520090  0.833532  0.441233  1
  Al  Al10  1  0.216786  0.164653  0.332097  1
  Al  Al11  1  0.782005  0.835655  0.669201  1
  Al  Al12  1  0.437778  0.505364  0.668596  1
  Al  Al13  1  0.562871  0.493547  0.332287  1
  Al  Al14  1  0.111178  0.159948  0.667594  1
  Al  Al15  1  0.888614  0.840627  0.333543  1
  Al  Al16  1  0.352348  0.499641  0.943763  1
  Al  Al17  1  0.650064  0.500547  0.053788  1
  Al  Al18  1  0.015057  0.167191  0.955018  1
  Al  Al19  1  0.982866  0.833989  0.044953  1
  Al  Al20  1  0.186467  0.499284  0.441626  1
  Al  Al21  1  0.813443  0.500376  0.558769  1
  Al  Al22  1  0.737450  0.160609  0.184171  1
  Al  Al23  1  0.267352  0.832668  0.816261  1
  Al  Al24  1  0.057977  0.633262  0.815340  1
  Al  Al25  1  0.934713  0.370065  0.185283  1
  Al  Al26  1  0.857708  0.042851  0.816021  1
  Al  Al27  1  0.145694  0.962089  0.184560  1
  Pt  Pt28  1  0.119463  0.493718  0.637646  1
  Pt  Pt29  1  0.878853  0.507293  0.362975  1
  Pt  Pt30  1  0.658073  0.171171  0.000085  1
  Pt  Pt31  1  0.341701  0.828143  0.000358  1
  Pt  Pt32  1  0.538940  0.166216  0.363045  1
  Pt  Pt33  1  0.461700  0.831859  0.637439  1
  Pt  Pt34  1  0.780968  0.173982  0.636286  1
  Pt  Pt35  1  0.219979  0.826337  0.363953  1
  Pt  Pt36  1  0.999511  0.500186  0.000217  1
