# generated using pymatgen
data_Tb4Co17(ReP4)3
_symmetry_space_group_name_H-M   'P 1'
_cell_length_a   3.69637500
_cell_length_b   10.32838787
_cell_length_c   11.76490529
_cell_angle_alpha   89.91445075
_cell_angle_beta   90.00000000
_cell_angle_gamma   90.00000000
_symmetry_Int_Tables_number   1
_chemical_formula_structural   Tb4Co17(ReP4)3
_chemical_formula_sum   'Tb4 Co17 Re3 P12'
_cell_volume   449.15528525
_cell_formula_units_Z   1
loop_
 _symmetry_equiv_pos_site_id
 _symmetry_equiv_pos_as_xyz
  1  'x, y, z'
loop_
 _atom_site_type_symbol
 _atom_site_label
 _atom_site_symmetry_multiplicity
 _atom_site_fract_x
 _atom_site_fract_y
 _atom_site_fract_z
 _atom_site_occupancy
  Tb  Tb0  1  0.250000  0.581774  0.702548  1
  Tb  Tb1  1  0.250000  0.915091  0.204965  1
  Tb  Tb2  1  0.750000  0.414386  0.296310  1
  Tb  Tb3  1  0.750000  0.084116  0.794684  1
  Co  Co4  1  0.750000  0.215105  0.510323  1
  Co  Co5  1  0.250000  0.405538  0.488646  1
  Co  Co6  1  0.250000  0.094136  0.988801  1
  Co  Co7  1  0.750000  0.593558  0.510428  1
  Co  Co8  1  0.750000  0.906013  0.011024  1
  Co  Co9  1  0.250000  0.220499  0.176763  1
  Co  Co10  1  0.250000  0.278053  0.676261  1
  Co  Co11  1  0.750000  0.778004  0.822863  1
  Co  Co12  1  0.750000  0.722183  0.323782  1
  Co  Co13  1  0.250000  0.886280  0.700858  1
  Co  Co14  1  0.250000  0.613540  0.201925  1
  Co  Co15  1  0.750000  0.116125  0.301628  1
  Co  Co16  1  0.750000  0.385788  0.798122  1
  Co  Co17  1  0.250000  0.464446  0.932878  1
  Co  Co18  1  0.250000  0.034915  0.432403  1
  Co  Co19  1  0.750000  0.536147  0.067805  1
  Co  Co20  1  0.750000  0.966703  0.567967  1
  Re  Re21  1  0.250000  0.710145  0.988780  1
  Re  Re22  1  0.250000  0.789911  0.489082  1
  Re  Re23  1  0.750000  0.289787  0.011023  1
  P  P24  1  0.250000  0.419103  0.114139  1
  P  P25  1  0.250000  0.082735  0.611301  1
  P  P26  1  0.750000  0.579531  0.885882  1
  P  P27  1  0.750000  0.921127  0.387071  1
  P  P28  1  0.250000  0.270228  0.864913  1
  P  P29  1  0.250000  0.229614  0.369347  1
  P  P30  1  0.750000  0.729934  0.134816  1
  P  P31  1  0.750000  0.770796  0.633239  1
  P  P32  1  0.250000  0.595260  0.391525  1
  P  P33  1  0.250000  0.904501  0.890596  1
  P  P34  1  0.750000  0.398238  0.606508  1
  P  P35  1  0.750000  0.096689  0.110795  1
