# generated using pymatgen
data_Pr17Sm(ErSn8)2
_symmetry_space_group_name_H-M   'P 1'
_cell_length_a   8.32384800
_cell_length_b   8.48129703
_cell_length_c   16.07966900
_cell_angle_alpha   90.00000000
_cell_angle_beta   90.00000000
_cell_angle_gamma   89.96032468
_symmetry_Int_Tables_number   1
_chemical_formula_structural   Pr17Sm(ErSn8)2
_chemical_formula_sum   'Pr17 Sm1 Er2 Sn16'
_cell_volume   1135.17655999
_cell_formula_units_Z   1
loop_
 _symmetry_equiv_pos_site_id
 _symmetry_equiv_pos_as_xyz
  1  'x, y, z'
loop_
 _atom_site_type_symbol
 _atom_site_label
 _atom_site_symmetry_multiplicity
 _atom_site_fract_x
 _atom_site_fract_y
 _atom_site_fract_z
 _atom_site_occupancy
  Pr  Pr0  1  0.368466  0.837231  0.879901  1
  Pr  Pr1  1  0.867103  0.663459  0.620690  1
  Pr  Pr2  1  0.632059  0.162509  0.379348  1
  Pr  Pr3  1  0.132909  0.336872  0.121711  1
  Pr  Pr4  1  0.632059  0.162509  0.120652  1
  Pr  Pr5  1  0.132909  0.336872  0.378289  1
  Pr  Pr6  1  0.368466  0.837231  0.620099  1
  Pr  Pr7  1  0.867103  0.663459  0.879310  1
  Pr  Pr8  1  0.519903  0.318785  0.901480  1
  Pr  Pr9  1  0.018970  0.180107  0.598513  1
  Pr  Pr10  1  0.480188  0.680852  0.400706  1
  Pr  Pr11  1  0.980840  0.819422  0.098879  1
  Pr  Pr12  1  0.480188  0.680852  0.099294  1
  Pr  Pr13  1  0.980840  0.819422  0.401121  1
  Pr  Pr14  1  0.519903  0.318785  0.598520  1
  Pr  Pr15  1  0.018970  0.180107  0.901487  1
  Pr  Pr16  1  0.198118  0.501484  0.750000  1
  Sm  Sm17  1  0.800944  0.498552  0.250000  1
  Er  Er18  1  0.699859  0.998241  0.750000  1
  Er  Er19  1  0.299767  0.001113  0.250000  1
  Sn  Sn20  1  0.291956  0.034225  0.044554  1
  Sn  Sn21  1  0.792346  0.465611  0.456539  1
  Sn  Sn22  1  0.707883  0.965931  0.544525  1
  Sn  Sn23  1  0.207699  0.535664  0.958132  1
  Sn  Sn24  1  0.707883  0.965931  0.955475  1
  Sn  Sn25  1  0.207699  0.535664  0.541868  1
  Sn  Sn26  1  0.291956  0.034225  0.455446  1
  Sn  Sn27  1  0.792346  0.465611  0.043461  1
  Sn  Sn28  1  0.569063  0.617544  0.750000  1
  Sn  Sn29  1  0.063382  0.886692  0.750000  1
  Sn  Sn30  1  0.433767  0.383017  0.250000  1
  Sn  Sn31  1  0.935803  0.115211  0.250000  1
  Sn  Sn32  1  0.326502  0.141189  0.750000  1
  Sn  Sn33  1  0.822450  0.351683  0.750000  1
  Sn  Sn34  1  0.674684  0.855987  0.250000  1
  Sn  Sn35  1  0.175014  0.647947  0.250000  1
