# generated using pymatgen
data_LiTm6Zn22P
_symmetry_space_group_name_H-M   'P 1'
_cell_length_a   8.96236942
_cell_length_b   8.96236931
_cell_length_c   8.96237000
_cell_angle_alpha   60.00000482
_cell_angle_beta   60.00000522
_cell_angle_gamma   59.99999882
_symmetry_Int_Tables_number   1
_chemical_formula_structural   LiTm6Zn22P
_chemical_formula_sum   'Li1 Tm6 Zn22 P1'
_cell_volume   509.04195362
_cell_formula_units_Z   1
loop_
 _symmetry_equiv_pos_site_id
 _symmetry_equiv_pos_as_xyz
  1  'x, y, z'
loop_
 _atom_site_type_symbol
 _atom_site_label
 _atom_site_symmetry_multiplicity
 _atom_site_fract_x
 _atom_site_fract_y
 _atom_site_fract_z
 _atom_site_occupancy
  Li  Li0  1  0.000000  0.000000  0.000000  1
  Tm  Tm1  1  0.710990  0.289010  0.289010  1
  Tm  Tm2  1  0.289010  0.710990  0.710990  1
  Tm  Tm3  1  0.289010  0.710990  0.289010  1
  Tm  Tm4  1  0.710990  0.289010  0.710990  1
  Tm  Tm5  1  0.289010  0.289010  0.710990  1
  Tm  Tm6  1  0.710990  0.710990  0.289010  1
  Zn  Zn7  1  0.122095  0.122095  0.122095  1
  Zn  Zn8  1  0.877905  0.877905  0.877905  1
  Zn  Zn9  1  0.122095  0.122095  0.633715  1
  Zn  Zn10  1  0.122095  0.633715  0.122095  1
  Zn  Zn11  1  0.877905  0.877905  0.366285  1
  Zn  Zn12  1  0.877905  0.366285  0.877905  1
  Zn  Zn13  1  0.633715  0.122095  0.122095  1
  Zn  Zn14  1  0.366285  0.877905  0.877905  1
  Zn  Zn15  1  0.500000  0.000000  0.000000  1
  Zn  Zn16  1  0.000000  0.500000  0.500000  1
  Zn  Zn17  1  0.000000  0.500000  0.000000  1
  Zn  Zn18  1  0.500000  0.000000  0.500000  1
  Zn  Zn19  1  0.000000  0.000000  0.500000  1
  Zn  Zn20  1  0.500000  0.500000  0.000000  1
  Zn  Zn21  1  0.330005  0.330005  0.330005  1
  Zn  Zn22  1  0.669995  0.669995  0.669995  1
  Zn  Zn23  1  0.330005  0.330005  0.009986  1
  Zn  Zn24  1  0.330005  0.009986  0.330005  1
  Zn  Zn25  1  0.669995  0.669995  0.990014  1
  Zn  Zn26  1  0.669995  0.990014  0.669995  1
  Zn  Zn27  1  0.009986  0.330005  0.330005  1
  Zn  Zn28  1  0.990014  0.669995  0.669995  1
  P  P29  1  0.500000  0.500000  0.500000  1
