# generated using pymatgen
data_Er5In2Sb
_symmetry_space_group_name_H-M   'P 1'
_cell_length_a   8.90590878
_cell_length_b   8.86094024
_cell_length_c   6.54742700
_cell_angle_alpha   90.00000000
_cell_angle_beta   90.00000000
_cell_angle_gamma   119.83310109
_symmetry_Int_Tables_number   1
_chemical_formula_structural   Er5In2Sb
_chemical_formula_sum   'Er10 In4 Sb2'
_cell_volume   448.21592472
_cell_formula_units_Z   2
loop_
 _symmetry_equiv_pos_site_id
 _symmetry_equiv_pos_as_xyz
  1  'x, y, z'
loop_
 _atom_site_type_symbol
 _atom_site_label
 _atom_site_symmetry_multiplicity
 _atom_site_fract_x
 _atom_site_fract_y
 _atom_site_fract_z
 _atom_site_occupancy
  Er  Er0  1  0.003340  0.766773  0.750000  1
  Er  Er1  1  0.003340  0.236566  0.250000  1
  Er  Er2  1  0.766197  0.761225  0.250000  1
  Er  Er3  1  0.766197  0.004972  0.750000  1
  Er  Er4  1  0.233633  0.235475  0.750000  1
  Er  Er5  1  0.233633  0.998158  0.250000  1
  Er  Er6  1  0.329165  0.664583  0.500000  1
  Er  Er7  1  0.665384  0.332692  0.000000  1
  Er  Er8  1  0.665384  0.332692  0.500000  1
  Er  Er9  1  0.329165  0.664583  0.000000  1
  In  In10  1  0.399238  0.001017  0.750000  1
  In  In11  1  0.399238  0.398221  0.250000  1
  In  In12  1  0.997933  0.596886  0.250000  1
  In  In13  1  0.997933  0.401047  0.750000  1
  Sb  Sb14  1  0.605111  0.607004  0.750000  1
  Sb  Sb15  1  0.605111  0.998107  0.250000  1
