# generated using pymatgen
data_Tb13Y7(CoSb2)4
_symmetry_space_group_name_H-M   'P 1'
_cell_length_a   7.97199621
_cell_length_b   8.75329500
_cell_length_c   12.25214633
_cell_angle_alpha   90.00000000
_cell_angle_beta   89.97366585
_cell_angle_gamma   90.00000000
_symmetry_Int_Tables_number   1
_chemical_formula_structural   Tb13Y7(CoSb2)4
_chemical_formula_sum   'Tb13 Y7 Co4 Sb8'
_cell_volume   854.96980628
_cell_formula_units_Z   1
loop_
 _symmetry_equiv_pos_site_id
 _symmetry_equiv_pos_as_xyz
  1  'x, y, z'
loop_
 _atom_site_type_symbol
 _atom_site_label
 _atom_site_symmetry_multiplicity
 _atom_site_fract_x
 _atom_site_fract_y
 _atom_site_fract_z
 _atom_site_occupancy
  Tb  Tb0  1  0.045339  0.750000  0.498177  1
  Tb  Tb1  1  0.622316  0.750000  0.305418  1
  Tb  Tb2  1  0.122099  0.250000  0.194418  1
  Tb  Tb3  1  0.378028  0.250000  0.694587  1
  Tb  Tb4  1  0.877770  0.750000  0.805532  1
  Tb  Tb5  1  0.821425  0.965192  0.065010  1
  Tb  Tb6  1  0.321517  0.035152  0.434939  1
  Tb  Tb7  1  0.178521  0.465131  0.935031  1
  Tb  Tb8  1  0.678803  0.535146  0.564945  1
  Tb  Tb9  1  0.178521  0.034869  0.935031  1
  Tb  Tb10  1  0.678803  0.964854  0.564945  1
  Tb  Tb11  1  0.821425  0.534808  0.065010  1
  Tb  Tb12  1  0.321517  0.464848  0.434939  1
  Y  Y13  1  0.155532  0.750000  0.203784  1
  Y  Y14  1  0.655471  0.250000  0.296048  1
  Y  Y15  1  0.844461  0.250000  0.796288  1
  Y  Y16  1  0.344350  0.750000  0.704050  1
  Y  Y17  1  0.455711  0.750000  0.998279  1
  Y  Y18  1  0.955675  0.250000  0.501720  1
  Y  Y19  1  0.544260  0.250000  0.001739  1
  Co  Co20  1  0.433733  0.750000  0.489265  1
  Co  Co21  1  0.934913  0.250000  0.010598  1
  Co  Co22  1  0.565109  0.250000  0.510563  1
  Co  Co23  1  0.065067  0.750000  0.989434  1
  Sb  Sb24  1  0.927710  0.991863  0.326930  1
  Sb  Sb25  1  0.427925  0.008470  0.172846  1
  Sb  Sb26  1  0.072059  0.491218  0.673192  1
  Sb  Sb27  1  0.572123  0.508460  0.827156  1
  Sb  Sb28  1  0.072059  0.008782  0.673192  1
  Sb  Sb29  1  0.572123  0.991540  0.827156  1
  Sb  Sb30  1  0.927710  0.508137  0.326930  1
  Sb  Sb31  1  0.427925  0.491530  0.172846  1
