# generated using pymatgen
data_SrLa3(USe5)2
_symmetry_space_group_name_H-M   'P 1'
_cell_length_a   7.95679725
_cell_length_b   8.55816115
_cell_length_c   12.54196900
_cell_angle_alpha   90.00000000
_cell_angle_beta   90.00000000
_cell_angle_gamma   90.40744590
_symmetry_Int_Tables_number   1
_chemical_formula_structural   SrLa3(USe5)2
_chemical_formula_sum   'Sr2 La6 U4 Se20'
_cell_volume   854.03072126
_cell_formula_units_Z   2
loop_
 _symmetry_equiv_pos_site_id
 _symmetry_equiv_pos_as_xyz
  1  'x, y, z'
loop_
 _atom_site_type_symbol
 _atom_site_label
 _atom_site_symmetry_multiplicity
 _atom_site_fract_x
 _atom_site_fract_y
 _atom_site_fract_z
 _atom_site_occupancy
  Sr  Sr0  1  0.532021  0.501833  0.323932  1
  Sr  Sr1  1  0.967979  0.998167  0.823932  1
  La  La2  1  0.470118  0.000234  0.678194  1
  La  La3  1  0.029882  0.499766  0.178194  1
  La  La4  1  0.467137  0.499751  0.674965  1
  La  La5  1  0.032863  0.000249  0.174965  1
  La  La6  1  0.529320  0.999310  0.324123  1
  La  La7  1  0.970680  0.500690  0.824123  1
  U  U8  1  0.068149  0.751645  0.491982  1
  U  U9  1  0.431851  0.748355  0.991982  1
  U  U10  1  0.929439  0.249678  0.508633  1
  U  U11  1  0.570561  0.250322  0.008633  1
  Se  Se12  1  0.833322  0.955494  0.585486  1
  Se  Se13  1  0.666678  0.544506  0.085486  1
  Se  Se14  1  0.159166  0.460689  0.409560  1
  Se  Se15  1  0.340834  0.039311  0.909560  1
  Se  Se16  1  0.165923  0.042660  0.409430  1
  Se  Se17  1  0.334077  0.457340  0.909430  1
  Se  Se18  1  0.834856  0.543152  0.591095  1
  Se  Se19  1  0.665144  0.956848  0.091095  1
  Se  Se20  1  0.842764  0.754157  0.313076  1
  Se  Se21  1  0.657236  0.745843  0.813076  1
  Se  Se22  1  0.163445  0.255826  0.683185  1
  Se  Se23  1  0.336555  0.244174  0.183185  1
  Se  Se24  1  0.449627  0.756442  0.500795  1
  Se  Se25  1  0.050373  0.743558  0.000795  1
  Se  Se26  1  0.550932  0.245421  0.505530  1
  Se  Se27  1  0.949068  0.254579  0.005530  1
  Se  Se28  1  0.189527  0.745227  0.711418  1
  Se  Se29  1  0.310473  0.754773  0.211418  1
  Se  Se30  1  0.815367  0.244246  0.288594  1
  Se  Se31  1  0.684633  0.255754  0.788594  1
