# generated using pymatgen
data_Ho3Lu5Tc3B24Rh
_symmetry_space_group_name_H-M   'P 1'
_cell_length_a   3.63025800
_cell_length_b   9.07291379
_cell_length_c   11.45197200
_cell_angle_alpha   90.11802662
_cell_angle_beta   90.00000000
_cell_angle_gamma   90.00000000
_symmetry_Int_Tables_number   1
_chemical_formula_structural   Ho3Lu5Tc3B24Rh
_chemical_formula_sum   'Ho3 Lu5 Tc3 B24 Rh1'
_cell_volume   377.19300644
_cell_formula_units_Z   1
loop_
 _symmetry_equiv_pos_site_id
 _symmetry_equiv_pos_as_xyz
  1  'x, y, z'
loop_
 _atom_site_type_symbol
 _atom_site_label
 _atom_site_symmetry_multiplicity
 _atom_site_fract_x
 _atom_site_fract_y
 _atom_site_fract_z
 _atom_site_occupancy
  Ho  Ho0  1  0.500000  0.317770  0.415730  1
  Ho  Ho1  1  0.500000  0.678710  0.590889  1
  Ho  Ho2  1  0.500000  0.178000  0.912929  1
  Lu  Lu3  1  0.500000  0.826895  0.080639  1
  Lu  Lu4  1  0.500000  0.440632  0.128521  1
  Lu  Lu5  1  0.500000  0.557392  0.871362  1
  Lu  Lu6  1  0.500000  0.056158  0.629639  1
  Lu  Lu7  1  0.500000  0.943722  0.369832  1
  Tc  Tc8  1  0.500000  0.137824  0.180547  1
  Tc  Tc9  1  0.500000  0.861495  0.820821  1
  Tc  Tc10  1  0.500000  0.362113  0.678594  1
  B  B11  1  0.000000  0.099268  0.472016  1
  B  B12  1  0.000000  0.897559  0.527461  1
  B  B13  1  0.000000  0.399375  0.972623  1
  B  B14  1  0.000000  0.602784  0.028886  1
  B  B15  1  0.000000  0.129461  0.315593  1
  B  B16  1  0.000000  0.869580  0.684847  1
  B  B17  1  0.000000  0.370464  0.815107  1
  B  B18  1  0.000000  0.631180  0.182793  1
  B  B19  1  0.000000  0.052943  0.066542  1
  B  B20  1  0.000000  0.946998  0.933258  1
  B  B21  1  0.000000  0.446342  0.566532  1
  B  B22  1  0.000000  0.554174  0.433753  1
  B  B23  1  0.000000  0.482306  0.287303  1
  B  B24  1  0.000000  0.519081  0.712885  1
  B  B25  1  0.000000  0.018473  0.786960  1
  B  B26  1  0.000000  0.980824  0.211961  1
  B  B27  1  0.000000  0.250161  0.081357  1
  B  B28  1  0.000000  0.750761  0.919771  1
  B  B29  1  0.000000  0.248963  0.581003  1
  B  B30  1  0.000000  0.750129  0.419944  1
  B  B31  1  0.000000  0.292202  0.235606  1
  B  B32  1  0.000000  0.707893  0.765845  1
  B  B33  1  0.000000  0.207955  0.734670  1
  B  B34  1  0.000000  0.791860  0.263928  1
  Rh  Rh35  1  0.500000  0.638551  0.319857  1
