# generated using pymatgen
data_HfTa4(TiP2)2
_symmetry_space_group_name_H-M   'P 1'
_cell_length_a   7.68430061
_cell_length_b   7.68430161
_cell_length_c   13.86833421
_cell_angle_alpha   76.02007985
_cell_angle_beta   76.02007820
_cell_angle_gamma   26.04043537
_symmetry_Int_Tables_number   1
_chemical_formula_structural   HfTa4(TiP2)2
_chemical_formula_sum   'Hf2 Ta8 Ti4 P8'
_cell_volume   348.27639609
_cell_formula_units_Z   2
loop_
 _symmetry_equiv_pos_site_id
 _symmetry_equiv_pos_as_xyz
  1  'x, y, z'
loop_
 _atom_site_type_symbol
 _atom_site_label
 _atom_site_symmetry_multiplicity
 _atom_site_fract_x
 _atom_site_fract_y
 _atom_site_fract_z
 _atom_site_occupancy
  Hf  Hf0  1  0.340906  0.340906  0.967258  1
  Hf  Hf1  1  0.659094  0.659094  0.032742  1
  Ta  Ta2  1  0.000000  0.000000  0.000000  1
  Ta  Ta3  1  0.500000  0.500000  0.500000  1
  Ta  Ta4  1  0.427625  0.427625  0.174421  1
  Ta  Ta5  1  0.572375  0.572375  0.825579  1
  Ta  Ta6  1  0.197877  0.197877  0.685605  1
  Ta  Ta7  1  0.802123  0.802123  0.314395  1
  Ta  Ta8  1  0.207545  0.207545  0.205992  1
  Ta  Ta9  1  0.792455  0.792455  0.794008  1
  Ti  Ti10  1  0.000729  0.000729  0.337987  1
  Ti  Ti11  1  0.999271  0.999271  0.662013  1
  Ti  Ti12  1  0.176920  0.176920  0.456785  1
  Ti  Ti13  1  0.823080  0.823080  0.543215  1
  P  P14  1  0.176998  0.176998  0.886565  1
  P  P15  1  0.823002  0.823002  0.113435  1
  P  P16  1  0.373685  0.373685  0.403063  1
  P  P17  1  0.626315  0.626315  0.596937  1
  P  P18  1  0.373173  0.373173  0.660910  1
  P  P19  1  0.626827  0.626827  0.339090  1
  P  P20  1  0.057743  0.057743  0.158258  1
  P  P21  1  0.942257  0.942257  0.841742  1
