# generated using pymatgen
data_Er2Co7(As2Ru)3
_symmetry_space_group_name_H-M   'P 1'
_cell_length_a   3.82981400
_cell_length_b   10.81050400
_cell_length_c   12.32425200
_cell_angle_alpha   90.00000000
_cell_angle_beta   90.00000000
_cell_angle_gamma   90.00000000
_symmetry_Int_Tables_number   1
_chemical_formula_structural   Er2Co7(As2Ru)3
_chemical_formula_sum   'Er4 Co14 As12 Ru6'
_cell_volume   510.25138729
_cell_formula_units_Z   2
loop_
 _symmetry_equiv_pos_site_id
 _symmetry_equiv_pos_as_xyz
  1  'x, y, z'
loop_
 _atom_site_type_symbol
 _atom_site_label
 _atom_site_symmetry_multiplicity
 _atom_site_fract_x
 _atom_site_fract_y
 _atom_site_fract_z
 _atom_site_occupancy
  Er  Er0  1  0.250000  0.584786  0.704449  1
  Er  Er1  1  0.250000  0.915214  0.204449  1
  Er  Er2  1  0.750000  0.416870  0.294504  1
  Er  Er3  1  0.750000  0.083130  0.794504  1
  Co  Co4  1  0.750000  0.596273  0.513771  1
  Co  Co5  1  0.750000  0.903727  0.013771  1
  Co  Co6  1  0.250000  0.219826  0.177661  1
  Co  Co7  1  0.250000  0.280174  0.677661  1
  Co  Co8  1  0.750000  0.781998  0.822913  1
  Co  Co9  1  0.750000  0.718002  0.322913  1
  Co  Co10  1  0.250000  0.883611  0.698234  1
  Co  Co11  1  0.250000  0.616389  0.198234  1
  Co  Co12  1  0.750000  0.114198  0.300822  1
  Co  Co13  1  0.750000  0.385802  0.800822  1
  Co  Co14  1  0.250000  0.467070  0.931673  1
  Co  Co15  1  0.250000  0.032930  0.431673  1
  Co  Co16  1  0.750000  0.535873  0.067893  1
  Co  Co17  1  0.750000  0.964127  0.567893  1
  As  As18  1  0.250000  0.419547  0.114120  1
  As  As19  1  0.250000  0.080453  0.614120  1
  As  As20  1  0.750000  0.582308  0.885325  1
  As  As21  1  0.750000  0.917692  0.385325  1
  As  As22  1  0.250000  0.271620  0.865639  1
  As  As23  1  0.250000  0.228380  0.365639  1
  As  As24  1  0.750000  0.732256  0.133103  1
  As  As25  1  0.750000  0.767744  0.633103  1
  As  As26  1  0.250000  0.600606  0.385954  1
  As  As27  1  0.250000  0.899394  0.885954  1
  As  As28  1  0.750000  0.403746  0.614121  1
  As  As29  1  0.750000  0.096254  0.114121  1
  Ru  Ru30  1  0.250000  0.709909  0.990185  1
  Ru  Ru31  1  0.250000  0.790091  0.490185  1
  Ru  Ru32  1  0.750000  0.292026  0.012585  1
  Ru  Ru33  1  0.750000  0.207974  0.512585  1
  Ru  Ru34  1  0.250000  0.407903  0.487051  1
  Ru  Ru35  1  0.250000  0.092097  0.987051  1
