# generated using pymatgen
data_LuB4Ir
_symmetry_space_group_name_H-M   'P 1'
_cell_length_a   5.92171200
_cell_length_b   11.48708100
_cell_length_c   3.53906700
_cell_angle_alpha   90.00000000
_cell_angle_beta   90.00000000
_cell_angle_gamma   90.00001965
_symmetry_Int_Tables_number   1
_chemical_formula_structural   LuB4Ir
_chemical_formula_sum   'Lu4 B16 Ir4'
_cell_volume   240.73861069
_cell_formula_units_Z   4
loop_
 _symmetry_equiv_pos_site_id
 _symmetry_equiv_pos_as_xyz
  1  'x, y, z'
loop_
 _atom_site_type_symbol
 _atom_site_label
 _atom_site_symmetry_multiplicity
 _atom_site_fract_x
 _atom_site_fract_y
 _atom_site_fract_z
 _atom_site_occupancy
  Lu  Lu0  1  0.633442  0.148304  0.000000  1
  Lu  Lu1  1  0.133455  0.351756  0.000000  1
  Lu  Lu2  1  0.866569  0.648233  0.000000  1
  Lu  Lu3  1  0.366519  0.851686  0.000000  1
  B  B4  1  0.364851  0.029323  0.500000  1
  B  B5  1  0.887069  0.047433  0.500000  1
  B  B6  1  0.294732  0.188199  0.500000  1
  B  B7  1  0.977928  0.193760  0.500000  1
  B  B8  1  0.477930  0.306251  0.500000  1
  B  B9  1  0.794743  0.311801  0.500000  1
  B  B10  1  0.387083  0.452573  0.500000  1
  B  B11  1  0.864848  0.470681  0.500000  1
  B  B12  1  0.135159  0.529321  0.500000  1
  B  B13  1  0.612922  0.547428  0.500000  1
  B  B14  1  0.205256  0.688202  0.500000  1
  B  B15  1  0.522078  0.693751  0.500000  1
  B  B16  1  0.022074  0.806243  0.500000  1
  B  B17  1  0.705265  0.811802  0.500000  1
  B  B18  1  0.112930  0.952568  0.500000  1
  B  B19  1  0.635149  0.970675  0.500000  1
  Ir  Ir20  1  0.145795  0.097456  0.000000  1
  Ir  Ir21  1  0.645817  0.402545  0.000000  1
  Ir  Ir22  1  0.354182  0.597458  0.000000  1
  Ir  Ir23  1  0.854208  0.902549  0.000000  1
