# generated using pymatgen
data_Tb11Lu(Si3Ir)4
_symmetry_space_group_name_H-M   'P 1'
_cell_length_a   4.23541400
_cell_length_b   10.63224288
_cell_length_c   12.28878200
_cell_angle_alpha   89.89493313
_cell_angle_beta   90.00000000
_cell_angle_gamma   90.00000000
_symmetry_Int_Tables_number   1
_chemical_formula_structural   Tb11Lu(Si3Ir)4
_chemical_formula_sum   'Tb11 Lu1 Si12 Ir4'
_cell_volume   553.38689021
_cell_formula_units_Z   1
loop_
 _symmetry_equiv_pos_site_id
 _symmetry_equiv_pos_as_xyz
  1  'x, y, z'
loop_
 _atom_site_type_symbol
 _atom_site_label
 _atom_site_symmetry_multiplicity
 _atom_site_fract_x
 _atom_site_fract_y
 _atom_site_fract_z
 _atom_site_occupancy
  Tb  Tb0  1  0.250000  0.881310  0.019731  1
  Tb  Tb1  1  0.250000  0.618960  0.520249  1
  Tb  Tb2  1  0.750000  0.119587  0.978441  1
  Tb  Tb3  1  0.750000  0.378692  0.480638  1
  Tb  Tb4  1  0.250000  0.919406  0.603368  1
  Tb  Tb5  1  0.250000  0.581456  0.103428  1
  Tb  Tb6  1  0.750000  0.081057  0.398094  1
  Tb  Tb7  1  0.750000  0.418166  0.896091  1
  Tb  Tb8  1  0.250000  0.658616  0.801042  1
  Tb  Tb9  1  0.250000  0.841969  0.301286  1
  Tb  Tb10  1  0.750000  0.340482  0.198816  1
  Lu  Lu11  1  0.750000  0.159789  0.700463  1
  Si  Si12  1  0.250000  0.011558  0.819550  1
  Si  Si13  1  0.250000  0.489592  0.321085  1
  Si  Si14  1  0.750000  0.991222  0.179336  1
  Si  Si15  1  0.750000  0.510208  0.678712  1
  Si  Si16  1  0.250000  0.245367  0.839467  1
  Si  Si17  1  0.250000  0.252940  0.341780  1
  Si  Si18  1  0.750000  0.754366  0.159337  1
  Si  Si19  1  0.750000  0.745943  0.658915  1
  Si  Si20  1  0.250000  0.199513  0.546922  1
  Si  Si21  1  0.250000  0.298191  0.042666  1
  Si  Si22  1  0.750000  0.797879  0.456857  1
  Si  Si23  1  0.750000  0.702486  0.956224  1
  Ir  Ir24  1  0.250000  0.387836  0.681418  1
  Ir  Ir25  1  0.250000  0.111116  0.181486  1
  Ir  Ir26  1  0.750000  0.610822  0.318339  1
  Ir  Ir27  1  0.750000  0.891470  0.816258  1
