# generated using pymatgen
data_Tb3Er(ScAu)4
_symmetry_space_group_name_H-M   'P 1'
_cell_length_a   4.78527800
_cell_length_b   6.99940049
_cell_length_c   8.60318892
_cell_angle_alpha   89.83821903
_cell_angle_beta   90.00000000
_cell_angle_gamma   90.00000000
_symmetry_Int_Tables_number   1
_chemical_formula_structural   Tb3Er(ScAu)4
_chemical_formula_sum   'Tb3 Er1 Sc4 Au4'
_cell_volume   288.15472523
_cell_formula_units_Z   1
loop_
 _symmetry_equiv_pos_site_id
 _symmetry_equiv_pos_as_xyz
  1  'x, y, z'
loop_
 _atom_site_type_symbol
 _atom_site_label
 _atom_site_symmetry_multiplicity
 _atom_site_fract_x
 _atom_site_fract_y
 _atom_site_fract_z
 _atom_site_occupancy
  Tb  Tb0  1  0.250000  0.983818  0.319129  1
  Tb  Tb1  1  0.750000  0.516112  0.820235  1
  Tb  Tb2  1  0.750000  0.016383  0.680274  1
  Er  Er3  1  0.250000  0.483944  0.179740  1
  Sc  Sc4  1  0.250000  0.854405  0.922930  1
  Sc  Sc5  1  0.250000  0.355148  0.577221  1
  Sc  Sc6  1  0.750000  0.145698  0.078038  1
  Sc  Sc7  1  0.750000  0.644673  0.420969  1
  Au  Au8  1  0.250000  0.247766  0.900103  1
  Au  Au9  1  0.250000  0.747125  0.601529  1
  Au  Au10  1  0.750000  0.751426  0.101883  1
  Au  Au11  1  0.750000  0.253506  0.397947  1
