# generated using pymatgen
data_Cs8MnCo3Br16
_symmetry_space_group_name_H-M   'P 1'
_cell_length_a   7.89742300
_cell_length_b   10.37936172
_cell_length_c   14.06508586
_cell_angle_alpha   89.91607031
_cell_angle_beta   90.00000000
_cell_angle_gamma   90.00000000
_symmetry_Int_Tables_number   1
_chemical_formula_structural   Cs8MnCo3Br16
_chemical_formula_sum   'Cs8 Mn1 Co3 Br16'
_cell_volume   1152.91680430
_cell_formula_units_Z   1
loop_
 _symmetry_equiv_pos_site_id
 _symmetry_equiv_pos_as_xyz
  1  'x, y, z'
loop_
 _atom_site_type_symbol
 _atom_site_label
 _atom_site_symmetry_multiplicity
 _atom_site_fract_x
 _atom_site_fract_y
 _atom_site_fract_z
 _atom_site_occupancy
  Cs  Cs0  1  0.250000  0.984771  0.172183  1
  Cs  Cs1  1  0.750000  0.017499  0.828923  1
  Cs  Cs2  1  0.750000  0.514743  0.673878  1
  Cs  Cs3  1  0.250000  0.482741  0.324849  1
  Cs  Cs4  1  0.250000  0.636818  0.916067  1
  Cs  Cs5  1  0.750000  0.363199  0.086416  1
  Cs  Cs6  1  0.750000  0.865263  0.411653  1
  Cs  Cs7  1  0.250000  0.135233  0.586741  1
  Mn  Mn8  1  0.250000  0.731471  0.577408  1
  Co  Co9  1  0.750000  0.267054  0.422660  1
  Co  Co10  1  0.750000  0.765871  0.077202  1
  Co  Co11  1  0.250000  0.234055  0.922555  1
  Br  Br12  1  0.994929  0.823032  0.655259  1
  Br  Br13  1  0.997889  0.180419  0.346915  1
  Br  Br14  1  0.998542  0.679650  0.152312  1
  Br  Br15  1  0.502111  0.180419  0.346915  1
  Br  Br16  1  0.001567  0.320998  0.847859  1
  Br  Br17  1  0.505071  0.823032  0.655259  1
  Br  Br18  1  0.498433  0.320998  0.847859  1
  Br  Br19  1  0.501458  0.679650  0.152312  1
  Br  Br20  1  0.250000  0.492614  0.589985  1
  Br  Br21  1  0.750000  0.498084  0.409479  1
  Br  Br22  1  0.750000  0.996556  0.091902  1
  Br  Br23  1  0.250000  0.003354  0.908855  1
  Br  Br24  1  0.250000  0.316664  0.083282  1
  Br  Br25  1  0.750000  0.683471  0.916670  1
  Br  Br26  1  0.750000  0.184328  0.583511  1
  Br  Br27  1  0.250000  0.818012  0.411090  1
