# generated using pymatgen
data_Ce4Be(CuRh3)3
_symmetry_space_group_name_H-M   'P 1'
_cell_length_a   7.08299156
_cell_length_b   7.08299103
_cell_length_c   7.16977700
_cell_angle_alpha   109.71961960
_cell_angle_beta   109.71961808
_cell_angle_gamma   109.22168653
_symmetry_Int_Tables_number   1
_chemical_formula_structural   Ce4Be(CuRh3)3
_chemical_formula_sum   'Ce4 Be1 Cu3 Rh9'
_cell_volume   276.04291826
_cell_formula_units_Z   1
loop_
 _symmetry_equiv_pos_site_id
 _symmetry_equiv_pos_as_xyz
  1  'x, y, z'
loop_
 _atom_site_type_symbol
 _atom_site_label
 _atom_site_symmetry_multiplicity
 _atom_site_fract_x
 _atom_site_fract_y
 _atom_site_fract_z
 _atom_site_occupancy
  Ce  Ce0  1  0.000000  0.000000  0.500000  1
  Ce  Ce1  1  0.020458  0.510229  0.010229  1
  Ce  Ce2  1  0.489771  0.979542  0.989771  1
  Ce  Ce3  1  0.489771  0.510229  0.500000  1
  Be  Be4  1  0.000000  0.000000  0.000000  1
  Cu  Cu5  1  0.746569  0.253431  0.500000  1
  Cu  Cu6  1  0.746569  0.493138  0.246569  1
  Cu  Cu7  1  0.506862  0.253431  0.753431  1
  Rh  Rh8  1  0.244374  0.488748  0.744374  1
  Rh  Rh9  1  0.244374  0.755626  0.500000  1
  Rh  Rh10  1  0.511252  0.755626  0.255626  1
  Rh  Rh11  1  0.738007  0.718340  0.000211  1
  Rh  Rh12  1  0.281660  0.019668  0.281871  1
  Rh  Rh13  1  0.980332  0.261993  0.262204  1
  Rh  Rh14  1  0.281660  0.261993  0.999789  1
  Rh  Rh15  1  0.738007  0.019668  0.737796  1
  Rh  Rh16  1  0.980332  0.718340  0.718129  1
