# generated using pymatgen
data_Y4Er(GeB4)2
_symmetry_space_group_name_H-M   'P 1'
_cell_length_a   7.25062900
_cell_length_b   7.25062900
_cell_length_c   8.13464800
_cell_angle_alpha   90.00000000
_cell_angle_beta   90.00000000
_cell_angle_gamma   90.00000000
_symmetry_Int_Tables_number   1
_chemical_formula_structural   Y4Er(GeB4)2
_chemical_formula_sum   'Y8 Er2 Ge4 B16'
_cell_volume   427.65163078
_cell_formula_units_Z   2
loop_
 _symmetry_equiv_pos_site_id
 _symmetry_equiv_pos_as_xyz
  1  'x, y, z'
loop_
 _atom_site_type_symbol
 _atom_site_label
 _atom_site_symmetry_multiplicity
 _atom_site_fract_x
 _atom_site_fract_y
 _atom_site_fract_z
 _atom_site_occupancy
  Y  Y0  1  0.680354  0.180354  0.221548  1
  Y  Y1  1  0.319646  0.819646  0.778452  1
  Y  Y2  1  0.319646  0.819646  0.221548  1
  Y  Y3  1  0.819646  0.680354  0.221548  1
  Y  Y4  1  0.819646  0.680354  0.778452  1
  Y  Y5  1  0.680354  0.180354  0.778452  1
  Y  Y6  1  0.180354  0.319646  0.778452  1
  Y  Y7  1  0.180354  0.319646  0.221548  1
  Er  Er8  1  0.000000  0.000000  0.500000  1
  Er  Er9  1  0.500000  0.500000  0.500000  1
  Ge  Ge10  1  0.120464  0.620464  0.500000  1
  Ge  Ge11  1  0.879536  0.379536  0.500000  1
  Ge  Ge12  1  0.379536  0.120464  0.500000  1
  Ge  Ge13  1  0.620464  0.879536  0.500000  1
  B  B14  1  0.172144  0.039309  0.000000  1
  B  B15  1  0.827856  0.960691  0.000000  1
  B  B16  1  0.960691  0.172144  0.000000  1
  B  B17  1  0.327856  0.539309  0.000000  1
  B  B18  1  0.039309  0.827856  0.000000  1
  B  B19  1  0.672144  0.460691  0.000000  1
  B  B20  1  0.539309  0.672144  0.000000  1
  B  B21  1  0.460691  0.327856  0.000000  1
  B  B22  1  0.090248  0.590248  0.000000  1
  B  B23  1  0.909752  0.409752  0.000000  1
  B  B24  1  0.409752  0.090248  0.000000  1
  B  B25  1  0.590248  0.909752  0.000000  1
  B  B26  1  0.000000  0.000000  0.162020  1
  B  B27  1  0.000000  0.000000  0.837980  1
  B  B28  1  0.500000  0.500000  0.837980  1
  B  B29  1  0.500000  0.500000  0.162020  1
