# generated using pymatgen
data_Tm4Lu4Tl3Ir
_symmetry_space_group_name_H-M   'P 1'
_cell_length_a   10.12732500
_cell_length_b   10.12732512
_cell_length_c   7.09040300
_cell_angle_alpha   90.00000000
_cell_angle_beta   90.00000000
_cell_angle_gamma   120.00000939
_symmetry_Int_Tables_number   1
_chemical_formula_structural   Tm4Lu4Tl3Ir
_chemical_formula_sum   'Tm8 Lu8 Tl6 Ir2'
_cell_volume   629.78311202
_cell_formula_units_Z   2
loop_
 _symmetry_equiv_pos_site_id
 _symmetry_equiv_pos_as_xyz
  1  'x, y, z'
loop_
 _atom_site_type_symbol
 _atom_site_label
 _atom_site_symmetry_multiplicity
 _atom_site_fract_x
 _atom_site_fract_y
 _atom_site_fract_z
 _atom_site_occupancy
  Tm  Tm0  1  0.465130  0.534870  0.288886  1
  Tm  Tm1  1  0.930261  0.465130  0.788886  1
  Tm  Tm2  1  0.534870  0.069739  0.788886  1
  Tm  Tm3  1  0.465130  0.930261  0.288886  1
  Tm  Tm4  1  0.069739  0.534870  0.288886  1
  Tm  Tm5  1  0.534870  0.465130  0.788886  1
  Tm  Tm6  1  0.000000  0.000000  0.269825  1
  Tm  Tm7  1  0.000000  0.000000  0.769825  1
  Lu  Lu8  1  0.176459  0.823541  0.990167  1
  Lu  Lu9  1  0.352917  0.176459  0.490167  1
  Lu  Lu10  1  0.823541  0.647083  0.490167  1
  Lu  Lu11  1  0.176459  0.352917  0.990167  1
  Lu  Lu12  1  0.647083  0.823541  0.990167  1
  Lu  Lu13  1  0.823541  0.176459  0.490167  1
  Lu  Lu14  1  0.333333  0.666667  0.671795  1
  Lu  Lu15  1  0.666667  0.333333  0.171795  1
  Tl  Tl16  1  0.163768  0.836232  0.541849  1
  Tl  Tl17  1  0.327538  0.163768  0.041849  1
  Tl  Tl18  1  0.836232  0.672462  0.041849  1
  Tl  Tl19  1  0.163768  0.327538  0.541849  1
  Tl  Tl20  1  0.672462  0.836232  0.541849  1
  Tl  Tl21  1  0.836232  0.163768  0.041849  1
  Ir  Ir22  1  0.333333  0.666667  0.057680  1
  Ir  Ir23  1  0.666667  0.333333  0.557680  1
