# generated using pymatgen
data_Dy13Y3MgIn3Pt4
_symmetry_space_group_name_H-M   'P 1'
_cell_length_a   9.73802733
_cell_length_b   9.73663624
_cell_length_c   9.72433833
_cell_angle_alpha   60.04488721
_cell_angle_beta   60.10397665
_cell_angle_gamma   60.17135526
_symmetry_Int_Tables_number   1
_chemical_formula_structural   Dy13Y3MgIn3Pt4
_chemical_formula_sum   'Dy13 Y3 Mg1 In3 Pt4'
_cell_volume   653.54121419
_cell_formula_units_Z   1
loop_
 _symmetry_equiv_pos_site_id
 _symmetry_equiv_pos_as_xyz
  1  'x, y, z'
loop_
 _atom_site_type_symbol
 _atom_site_label
 _atom_site_symmetry_multiplicity
 _atom_site_fract_x
 _atom_site_fract_y
 _atom_site_fract_z
 _atom_site_occupancy
  Dy  Dy0  1  0.598546  0.598641  0.598691  1
  Dy  Dy1  1  0.600564  0.600464  0.198543  1
  Dy  Dy2  1  0.601160  0.198184  0.600844  1
  Dy  Dy3  1  0.194573  0.601634  0.601598  1
  Dy  Dy4  1  0.058558  0.441686  0.441621  1
  Dy  Dy5  1  0.440231  0.060368  0.060151  1
  Dy  Dy6  1  0.439042  0.061506  0.439420  1
  Dy  Dy7  1  0.058280  0.442910  0.058414  1
  Dy  Dy8  1  0.439129  0.439348  0.061209  1
  Dy  Dy9  1  0.058668  0.058807  0.442750  1
  Dy  Dy10  1  0.185894  0.814933  0.814386  1
  Dy  Dy11  1  0.812481  0.187175  0.187555  1
  Dy  Dy12  1  0.814292  0.185814  0.813287  1
  Y  Y13  1  0.186798  0.812296  0.187746  1
  Y  Y14  1  0.814454  0.813878  0.185500  1
  Y  Y15  1  0.186174  0.186873  0.813192  1
  Mg  Mg16  1  0.518899  0.826769  0.826577  1
  In  In17  1  0.833613  0.833961  0.833545  1
  In  In18  1  0.831605  0.833451  0.501670  1
  In  In19  1  0.831549  0.501612  0.833478  1
  Pt  Pt20  1  0.392268  0.393611  0.393447  1
  Pt  Pt21  1  0.390197  0.392336  0.822203  1
  Pt  Pt22  1  0.390292  0.822432  0.392508  1
  Pt  Pt23  1  0.822735  0.391311  0.391666  1
