# generated using pymatgen
data_TmPa3(Pd2Pb)2
_symmetry_space_group_name_H-M   'P 1'
_cell_length_a   7.88666689
_cell_length_b   7.88666689
_cell_length_c   3.65332100
_cell_angle_alpha   90.00000000
_cell_angle_beta   90.00000000
_cell_angle_gamma   90.05442857
_symmetry_Int_Tables_number   1
_chemical_formula_structural   TmPa3(Pd2Pb)2
_chemical_formula_sum   'Tm1 Pa3 Pd4 Pb2'
_cell_volume   227.23469045
_cell_formula_units_Z   1
loop_
 _symmetry_equiv_pos_site_id
 _symmetry_equiv_pos_as_xyz
  1  'x, y, z'
loop_
 _atom_site_type_symbol
 _atom_site_label
 _atom_site_symmetry_multiplicity
 _atom_site_fract_x
 _atom_site_fract_y
 _atom_site_fract_z
 _atom_site_occupancy
  Tm  Tm0  1  0.826978  0.673022  0.500000  1
  Pa  Pa1  1  0.326395  0.825540  0.500000  1
  Pa  Pa2  1  0.674460  0.173605  0.500000  1
  Pa  Pa3  1  0.170637  0.329363  0.500000  1
  Pd  Pd4  1  0.877100  0.368347  0.000000  1
  Pd  Pd5  1  0.618603  0.881397  0.000000  1
  Pd  Pd6  1  0.369749  0.130251  0.000000  1
  Pd  Pd7  1  0.131653  0.622900  0.000000  1
  Pb  Pb8  1  0.508207  0.503783  0.000000  1
  Pb  Pb9  1  0.996217  0.991793  0.000000  1
