# generated using pymatgen
data_Y5Sc3(OsI4)2
_symmetry_space_group_name_H-M   'P 1'
_cell_length_a   11.19520810
_cell_length_b   11.25526147
_cell_length_c   6.04139080
_cell_angle_alpha   89.98230709
_cell_angle_beta   89.96839812
_cell_angle_gamma   88.61544722
_symmetry_Int_Tables_number   1
_chemical_formula_structural   Y5Sc3(OsI4)2
_chemical_formula_sum   'Y5 Sc3 Os2 I8'
_cell_volume   761.02301211
_cell_formula_units_Z   1
loop_
 _symmetry_equiv_pos_site_id
 _symmetry_equiv_pos_as_xyz
  1  'x, y, z'
loop_
 _atom_site_type_symbol
 _atom_site_label
 _atom_site_symmetry_multiplicity
 _atom_site_fract_x
 _atom_site_fract_y
 _atom_site_fract_z
 _atom_site_occupancy
  Y  Y0  1  0.199834  0.084704  0.499239  1
  Y  Y1  1  0.922037  0.797524  0.999624  1
  Y  Y2  1  0.913377  0.204628  0.499538  1
  Y  Y3  1  0.202911  0.911081  0.999567  1
  Y  Y4  1  0.796928  0.923523  0.499684  1
  Sc  Sc5  1  0.815114  0.077239  0.998423  1
  Sc  Sc6  1  0.077955  0.816639  0.498441  1
  Sc  Sc7  1  0.074406  0.181807  0.999620  1
  Os  Os8  1  0.999676  0.000285  0.248548  1
  Os  Os9  1  0.999982  0.000064  0.750223  1
  I  I10  1  0.639016  0.155825  0.509719  1
  I  I11  1  0.863355  0.649081  0.504172  1
  I  I12  1  0.346973  0.148012  0.995975  1
  I  I13  1  0.143840  0.356339  0.493693  1
  I  I14  1  0.647031  0.863955  0.004144  1
  I  I15  1  0.351151  0.843532  0.494631  1
  I  I16  1  0.154784  0.639883  0.009516  1
  I  I17  1  0.851629  0.345880  0.995244  1
