# generated using pymatgen
data_DyLuNbB2Ru5
_symmetry_space_group_name_H-M   'P 1'
_cell_length_a   9.64993780
_cell_length_b   9.64993780
_cell_length_c   3.12432000
_cell_angle_alpha   90.00000000
_cell_angle_beta   90.00000000
_cell_angle_gamma   90.46013978
_symmetry_Int_Tables_number   1
_chemical_formula_structural   DyLuNbB2Ru5
_chemical_formula_sum   'Dy2 Lu2 Nb2 B4 Ru10'
_cell_volume   290.93135623
_cell_formula_units_Z   2
loop_
 _symmetry_equiv_pos_site_id
 _symmetry_equiv_pos_as_xyz
  1  'x, y, z'
loop_
 _atom_site_type_symbol
 _atom_site_label
 _atom_site_symmetry_multiplicity
 _atom_site_fract_x
 _atom_site_fract_y
 _atom_site_fract_z
 _atom_site_occupancy
  Dy  Dy0  1  0.825448  0.674552  0.000000  1
  Dy  Dy1  1  0.174552  0.325448  0.000000  1
  Lu  Lu2  1  0.325267  0.825267  0.000000  1
  Lu  Lu3  1  0.674733  0.174733  0.000000  1
  Nb  Nb4  1  0.500000  0.500000  0.000000  1
  Nb  Nb5  1  0.000000  0.000000  0.000000  1
  B  B6  1  0.619565  0.880435  0.000000  1
  B  B7  1  0.380435  0.119565  0.000000  1
  B  B8  1  0.120930  0.620930  0.000000  1
  B  B9  1  0.879070  0.379070  0.000000  1
  Ru  Ru10  1  0.569044  0.719347  0.500000  1
  Ru  Ru11  1  0.430956  0.280653  0.500000  1
  Ru  Ru12  1  0.074019  0.782517  0.500000  1
  Ru  Ru13  1  0.925981  0.217483  0.500000  1
  Ru  Ru14  1  0.282517  0.574019  0.500000  1
  Ru  Ru15  1  0.717483  0.425981  0.500000  1
  Ru  Ru16  1  0.219347  0.069044  0.500000  1
  Ru  Ru17  1  0.780653  0.930956  0.500000  1
  Ru  Ru18  1  0.500000  0.000000  0.500000  1
  Ru  Ru19  1  0.000000  0.500000  0.500000  1
