# generated using pymatgen
data_Lu2Th(AlCo)3
_symmetry_space_group_name_H-M   'P 1'
_cell_length_a   6.90628728
_cell_length_b   6.90628753
_cell_length_c   3.77700700
_cell_angle_alpha   90.00000000
_cell_angle_beta   90.00000000
_cell_angle_gamma   118.43210297
_symmetry_Int_Tables_number   1
_chemical_formula_structural   Lu2Th(AlCo)3
_chemical_formula_sum   'Lu2 Th1 Al3 Co3'
_cell_volume   158.42168491
_cell_formula_units_Z   1
loop_
 _symmetry_equiv_pos_site_id
 _symmetry_equiv_pos_as_xyz
  1  'x, y, z'
loop_
 _atom_site_type_symbol
 _atom_site_label
 _atom_site_symmetry_multiplicity
 _atom_site_fract_x
 _atom_site_fract_y
 _atom_site_fract_z
 _atom_site_occupancy
  Lu  Lu0  1  0.583727  0.997209  0.000000  1
  Lu  Lu1  1  0.997209  0.583727  0.000000  1
  Th  Th2  1  0.428965  0.428965  0.000000  1
  Al  Al3  1  0.238191  0.990524  0.500000  1
  Al  Al4  1  0.990524  0.238191  0.500000  1
  Al  Al5  1  0.778799  0.778799  0.500000  1
  Co  Co6  1  0.330501  0.648806  0.500000  1
  Co  Co7  1  0.648806  0.330501  0.500000  1
  Co  Co8  1  0.003277  0.003277  0.000000  1
