# generated using pymatgen
data_Cs5CdAg5
_symmetry_space_group_name_H-M   'P 1'
_cell_length_a   17.62373339
_cell_length_b   17.62373254
_cell_length_c   5.73677000
_cell_angle_alpha   90.00000000
_cell_angle_beta   90.00000000
_cell_angle_gamma   163.53612930
_symmetry_Int_Tables_number   1
_chemical_formula_structural   Cs5CdAg5
_chemical_formula_sum   'Cs5 Cd1 Ag5'
_cell_volume   504.98613974
_cell_formula_units_Z   1
loop_
 _symmetry_equiv_pos_site_id
 _symmetry_equiv_pos_as_xyz
  1  'x, y, z'
loop_
 _atom_site_type_symbol
 _atom_site_label
 _atom_site_symmetry_multiplicity
 _atom_site_fract_x
 _atom_site_fract_y
 _atom_site_fract_z
 _atom_site_occupancy
  Cs  Cs0  1  0.004454  0.995546  0.000000  1
  Cs  Cs1  1  0.614527  0.385471  0.000000  1
  Cs  Cs2  1  0.382822  0.617176  0.000000  1
  Cs  Cs3  1  0.802848  0.197150  0.500001  1
  Cs  Cs4  1  0.193461  0.806537  0.500001  1
  Cd  Cd5  1  0.923035  0.076964  0.500001  1
  Ag  Ag6  1  0.735825  0.264173  0.000000  1
  Ag  Ag7  1  0.263854  0.736144  0.000000  1
  Ag  Ag8  1  0.543827  0.456171  0.500001  1
  Ag  Ag9  1  0.461484  0.538514  0.500001  1
  Ag  Ag10  1  0.073854  0.926145  0.500001  1
