# generated using pymatgen
data_Ti13Al9Os5Pt3
_symmetry_space_group_name_H-M   'P 1'
_cell_length_a   8.84771019
_cell_length_b   8.84769322
_cell_length_c   8.84859600
_cell_angle_alpha   59.94339048
_cell_angle_beta   59.94349151
_cell_angle_gamma   59.94919773
_symmetry_Int_Tables_number   1
_chemical_formula_structural   Ti13Al9Os5Pt3
_chemical_formula_sum   'Ti13 Al9 Os5 Pt3'
_cell_volume   489.19473739
_cell_formula_units_Z   1
loop_
 _symmetry_equiv_pos_site_id
 _symmetry_equiv_pos_as_xyz
  1  'x, y, z'
loop_
 _atom_site_type_symbol
 _atom_site_label
 _atom_site_symmetry_multiplicity
 _atom_site_fract_x
 _atom_site_fract_y
 _atom_site_fract_z
 _atom_site_occupancy
  Ti  Ti0  1  0.213163  0.213171  0.782784  1
  Ti  Ti1  1  0.782825  0.213055  0.213117  1
  Ti  Ti2  1  0.213074  0.782816  0.213139  1
  Ti  Ti3  1  0.799976  0.799988  0.191043  1
  Ti  Ti4  1  0.191013  0.799962  0.799998  1
  Ti  Ti5  1  0.799968  0.191005  0.800016  1
  Ti  Ti6  1  0.378568  0.378600  0.378540  1
  Ti  Ti7  1  0.382911  0.863241  0.382826  1
  Ti  Ti8  1  0.863219  0.382869  0.382865  1
  Ti  Ti9  1  0.382906  0.382829  0.863247  1
  Ti  Ti10  1  0.842930  0.467240  0.843066  1
  Ti  Ti11  1  0.467392  0.842924  0.843032  1
  Ti  Ti12  1  0.843022  0.843032  0.467190  1
  Al  Al13  1  0.149679  0.149703  0.149646  1
  Al  Al14  1  0.160787  0.528023  0.160887  1
  Al  Al15  1  0.528070  0.160815  0.160821  1
  Al  Al16  1  0.160785  0.160866  0.528150  1
  Al  Al17  1  0.619998  0.620003  0.619979  1
  Al  Al18  1  0.615851  0.144494  0.615806  1
  Al  Al19  1  0.144483  0.615833  0.615803  1
  Al  Al20  1  0.615857  0.615844  0.144490  1
  Al  Al21  1  0.828994  0.829059  0.829088  1
  Os  Os22  1  0.500322  0.500306  0.999003  1
  Os  Os23  1  0.999002  0.500287  0.500384  1
  Os  Os24  1  0.500305  0.999025  0.500362  1
  Os  Os25  1  0.500906  0.500904  0.500851  1
  Os  Os26  1  0.005503  0.005627  0.005488  1
  Pt  Pt27  1  0.004935  0.004925  0.498614  1
  Pt  Pt28  1  0.498630  0.004925  0.004881  1
  Pt  Pt29  1  0.004924  0.498626  0.004878  1
