# generated using pymatgen
data_Ho6NbCo14Mo(P6Rh)2
_symmetry_space_group_name_H-M   'P 1'
_cell_length_a   3.70756900
_cell_length_b   10.64960700
_cell_length_c   12.33986400
_cell_angle_alpha   90.00000000
_cell_angle_beta   90.00000000
_cell_angle_gamma   90.00000000
_symmetry_Int_Tables_number   1
_chemical_formula_structural   Ho6NbCo14Mo(P6Rh)2
_chemical_formula_sum   'Ho6 Nb1 Co14 Mo1 P12 Rh2'
_cell_volume   487.22907540
_cell_formula_units_Z   1
loop_
 _symmetry_equiv_pos_site_id
 _symmetry_equiv_pos_as_xyz
  1  'x, y, z'
loop_
 _atom_site_type_symbol
 _atom_site_label
 _atom_site_symmetry_multiplicity
 _atom_site_fract_x
 _atom_site_fract_y
 _atom_site_fract_z
 _atom_site_occupancy
  Ho  Ho0  1  0.000000  0.500000  0.520672  1
  Ho  Ho1  1  0.500000  0.000000  0.478077  1
  Ho  Ho2  1  0.500000  0.815972  0.203472  1
  Ho  Ho3  1  0.500000  0.184028  0.203472  1
  Ho  Ho4  1  0.000000  0.682839  0.796418  1
  Ho  Ho5  1  0.000000  0.317161  0.796418  1
  Nb  Nb6  1  0.000000  0.000000  0.844445  1
  Co  Co7  1  0.000000  0.500000  0.988630  1
  Co  Co8  1  0.500000  0.000000  0.013254  1
  Co  Co9  1  0.500000  0.297810  0.431161  1
  Co  Co10  1  0.500000  0.702190  0.431161  1
  Co  Co11  1  0.000000  0.202921  0.567994  1
  Co  Co12  1  0.000000  0.797079  0.567994  1
  Co  Co13  1  0.500000  0.878605  0.706486  1
  Co  Co14  1  0.500000  0.121395  0.706486  1
  Co  Co15  1  0.000000  0.620231  0.292613  1
  Co  Co16  1  0.000000  0.379769  0.292613  1
  Co  Co17  1  0.500000  0.333023  0.992830  1
  Co  Co18  1  0.500000  0.666977  0.992830  1
  Co  Co19  1  0.000000  0.169846  0.008823  1
  Co  Co20  1  0.000000  0.830154  0.008823  1
  Mo  Mo21  1  0.500000  0.500000  0.156699  1
  P  P22  1  0.500000  0.303967  0.613533  1
  P  P23  1  0.500000  0.696033  0.613533  1
  P  P24  1  0.000000  0.196630  0.385667  1
  P  P25  1  0.000000  0.803370  0.385667  1
  P  P26  1  0.500000  0.500000  0.888588  1
  P  P27  1  0.000000  0.000000  0.111347  1
  P  P28  1  0.500000  0.841007  0.894616  1
  P  P29  1  0.500000  0.158993  0.894616  1
  P  P30  1  0.000000  0.655132  0.108208  1
  P  P31  1  0.000000  0.344868  0.108208  1
  P  P32  1  0.500000  0.500000  0.348797  1
  P  P33  1  0.000000  0.000000  0.645971  1
  Rh  Rh34  1  0.500000  0.500000  0.701181  1
  Rh  Rh35  1  0.000000  0.000000  0.298697  1
