# generated using pymatgen
data_Yb2Y2(Ga8Pt3)3
_symmetry_space_group_name_H-M   'P 1'
_cell_length_a   7.49260636
_cell_length_b   7.58772894
_cell_length_c   13.41427268
_cell_angle_alpha   84.70303803
_cell_angle_beta   79.40000280
_cell_angle_gamma   60.50335049
_symmetry_Int_Tables_number   1
_chemical_formula_structural   Yb2Y2(Ga8Pt3)3
_chemical_formula_sum   'Yb2 Y2 Ga24 Pt9'
_cell_volume   652.44972458
_cell_formula_units_Z   1
loop_
 _symmetry_equiv_pos_site_id
 _symmetry_equiv_pos_as_xyz
  1  'x, y, z'
loop_
 _atom_site_type_symbol
 _atom_site_label
 _atom_site_symmetry_multiplicity
 _atom_site_fract_x
 _atom_site_fract_y
 _atom_site_fract_z
 _atom_site_occupancy
  Yb  Yb0  1  0.397018  0.167921  0.808339  1
  Yb  Yb1  1  0.602982  0.832079  0.191661  1
  Y  Y2  1  0.732611  0.498771  0.811443  1
  Y  Y3  1  0.267389  0.501229  0.188557  1
  Ga  Ga4  1  0.686527  0.835408  0.939544  1
  Ga  Ga5  1  0.313473  0.164592  0.060456  1
  Ga  Ga6  1  0.146611  0.831199  0.559402  1
  Ga  Ga7  1  0.853389  0.168801  0.440598  1
  Ga  Ga8  1  0.478992  0.166046  0.556334  1
  Ga  Ga9  1  0.521008  0.833954  0.443666  1
  Ga  Ga10  1  0.221355  0.164067  0.323327  1
  Ga  Ga11  1  0.778645  0.835933  0.676673  1
  Ga  Ga12  1  0.437352  0.503417  0.674870  1
  Ga  Ga13  1  0.562648  0.496583  0.325130  1
  Ga  Ga14  1  0.108495  0.161692  0.673660  1
  Ga  Ga15  1  0.891505  0.838308  0.326340  1
  Ga  Ga16  1  0.359913  0.495466  0.938517  1
  Ga  Ga17  1  0.640087  0.504534  0.061483  1
  Ga  Ga18  1  0.022542  0.168383  0.945205  1
  Ga  Ga19  1  0.977458  0.831617  0.054795  1
  Ga  Ga20  1  0.187029  0.499094  0.443247  1
  Ga  Ga21  1  0.812971  0.500906  0.556753  1
  Ga  Ga22  1  0.733594  0.165406  0.181838  1
  Ga  Ga23  1  0.266406  0.834594  0.818162  1
  Ga  Ga24  1  0.060036  0.631173  0.817070  1
  Ga  Ga25  1  0.939964  0.368827  0.182930  1
  Ga  Ga26  1  0.857322  0.042287  0.816272  1
  Ga  Ga27  1  0.142678  0.957713  0.183728  1
  Pt  Pt28  1  0.116711  0.494104  0.639447  1
  Pt  Pt29  1  0.883289  0.505896  0.360553  1
  Pt  Pt30  1  0.661306  0.169781  0.999043  1
  Pt  Pt31  1  0.338694  0.830219  0.000957  1
  Pt  Pt32  1  0.540907  0.166856  0.360620  1
  Pt  Pt33  1  0.459093  0.833144  0.639380  1
  Pt  Pt34  1  0.778844  0.173068  0.636652  1
  Pt  Pt35  1  0.221156  0.826932  0.363348  1
  Pt  Pt36  1  0.000000  0.500000  0.000000  1
