# generated using pymatgen
data_Ho4ErReRuO12
_symmetry_space_group_name_H-M   'P 1'
_cell_length_a   6.82386056
_cell_length_b   6.82386100
_cell_length_c   7.47260552
_cell_angle_alpha   73.81759635
_cell_angle_beta   73.81759490
_cell_angle_gamma   48.98380429
_symmetry_Int_Tables_number   1
_chemical_formula_structural   Ho4ErReRuO12
_chemical_formula_sum   'Ho4 Er1 Re1 Ru1 O12'
_cell_volume   249.93076598
_cell_formula_units_Z   1
loop_
 _symmetry_equiv_pos_site_id
 _symmetry_equiv_pos_as_xyz
  1  'x, y, z'
loop_
 _atom_site_type_symbol
 _atom_site_label
 _atom_site_symmetry_multiplicity
 _atom_site_fract_x
 _atom_site_fract_y
 _atom_site_fract_z
 _atom_site_occupancy
  Ho  Ho0  1  0.711151  0.684159  0.642080  1
  Ho  Ho1  1  0.315841  0.288849  0.357920  1
  Ho  Ho2  1  0.689497  0.681596  0.174292  1
  Ho  Ho3  1  0.318404  0.310503  0.825708  1
  Er  Er4  1  0.007233  0.992767  0.500000  1
  Re  Re5  1  0.204650  0.795350  0.000000  1
  Ru  Ru6  1  0.770295  0.229705  0.000000  1
  O  O7  1  0.006131  0.998035  0.204007  1
  O  O8  1  0.001965  0.993869  0.795993  1
  O  O9  1  0.565799  0.085983  0.086288  1
  O  O10  1  0.407676  0.910686  0.914851  1
  O  O11  1  0.914017  0.434201  0.913712  1
  O  O12  1  0.089314  0.592324  0.085149  1
  O  O13  1  0.487065  0.511459  0.176593  1
  O  O14  1  0.488541  0.512935  0.823407  1
  O  O15  1  0.406373  0.893494  0.432042  1
  O  O16  1  0.599763  0.090221  0.576160  1
  O  O17  1  0.106506  0.593627  0.567958  1
  O  O18  1  0.909779  0.400237  0.423840  1
