# generated using pymatgen
data_ErLu5Np3O18
_symmetry_space_group_name_H-M   'P 1'
_cell_length_a   9.38630126
_cell_length_b   9.39005597
_cell_length_c   5.03182801
_cell_angle_alpha   89.99999774
_cell_angle_beta   89.99373153
_cell_angle_gamma   120.01323396
_symmetry_Int_Tables_number   1
_chemical_formula_structural   ErLu5Np3O18
_chemical_formula_sum   'Er1 Lu5 Np3 O18'
_cell_volume   384.02646640
_cell_formula_units_Z   1
loop_
 _symmetry_equiv_pos_site_id
 _symmetry_equiv_pos_as_xyz
  1  'x, y, z'
loop_
 _atom_site_type_symbol
 _atom_site_label
 _atom_site_symmetry_multiplicity
 _atom_site_fract_x
 _atom_site_fract_y
 _atom_site_fract_z
 _atom_site_occupancy
  Er  Er0  1  0.000000  0.630804  0.000000  1
  Lu  Lu1  1  0.000000  0.293867  0.500000  1
  Lu  Lu2  1  0.368372  0.368429  0.000190  1
  Lu  Lu3  1  0.294577  0.000220  0.499987  1
  Lu  Lu4  1  0.705423  0.705643  0.500013  1
  Lu  Lu5  1  0.631628  0.000057  0.999810  1
  Np  Np6  1  0.334130  0.666773  0.503630  1
  Np  Np7  1  0.000000  0.000611  0.000000  1
  Np  Np8  1  0.665870  0.332642  0.496370  1
  O  O9  1  0.091573  0.878839  0.778691  1
  O  O10  1  0.219338  0.767544  0.282269  1
  O  O11  1  0.120916  0.536474  0.724823  1
  O  O12  1  0.418079  0.880339  0.728419  1
  O  O13  1  0.233811  0.451266  0.279165  1
  O  O14  1  0.123158  0.214545  0.779926  1
  O  O15  1  0.214467  0.123186  0.220134  1
  O  O16  1  0.548856  0.782637  0.279757  1
  O  O17  1  0.462285  0.581888  0.727914  1
  O  O18  1  0.785533  0.908719  0.779866  1
  O  O19  1  0.451144  0.233781  0.720243  1
  O  O20  1  0.581921  0.462260  0.271581  1
  O  O21  1  0.537715  0.119602  0.272086  1
  O  O22  1  0.780662  0.548207  0.717731  1
  O  O23  1  0.908427  0.787266  0.221309  1
  O  O24  1  0.766189  0.217454  0.720835  1
  O  O25  1  0.879084  0.415558  0.275177  1
  O  O26  1  0.876842  0.091388  0.220074  1
