# generated using pymatgen
data_Er20Ir3Os4Rh5
_symmetry_space_group_name_H-M   'P 1'
_cell_length_a   10.77553302
_cell_length_b   10.77553302
_cell_length_c   6.35821500
_cell_angle_alpha   90.00232168
_cell_angle_beta   90.00232168
_cell_angle_gamma   89.99288555
_symmetry_Int_Tables_number   1
_chemical_formula_structural   Er20Ir3Os4Rh5
_chemical_formula_sum   'Er20 Ir3 Os4 Rh5'
_cell_volume   738.26576515
_cell_formula_units_Z   1
loop_
 _symmetry_equiv_pos_site_id
 _symmetry_equiv_pos_as_xyz
  1  'x, y, z'
loop_
 _atom_site_type_symbol
 _atom_site_label
 _atom_site_symmetry_multiplicity
 _atom_site_fract_x
 _atom_site_fract_y
 _atom_site_fract_z
 _atom_site_occupancy
  Er  Er0  1  0.294487  0.086635  0.375830  1
  Er  Er1  1  0.294469  0.913336  0.875825  1
  Er  Er2  1  0.705553  0.085820  0.875992  1
  Er  Er3  1  0.705437  0.913244  0.375639  1
  Er  Er4  1  0.585350  0.793536  0.876729  1
  Er  Er5  1  0.585064  0.205874  0.375818  1
  Er  Er6  1  0.414608  0.793513  0.376408  1
  Er  Er7  1  0.413696  0.205988  0.876860  1
  Er  Er8  1  0.206464  0.414650  0.623271  1
  Er  Er9  1  0.206487  0.585392  0.123592  1
  Er  Er10  1  0.794126  0.414936  0.124182  1
  Er  Er11  1  0.794012  0.586304  0.623140  1
  Er  Er12  1  0.913365  0.705513  0.124170  1
  Er  Er13  1  0.914180  0.294447  0.624008  1
  Er  Er14  1  0.086664  0.705531  0.624175  1
  Er  Er15  1  0.086756  0.294563  0.124361  1
  Er  Er16  1  0.999999  0.999976  0.500084  1
  Er  Er17  1  0.000024  0.000001  0.999916  1
  Er  Er18  1  0.499836  0.500235  0.000236  1
  Er  Er19  1  0.499765  0.500164  0.499764  1
  Ir  Ir20  1  0.652578  0.652272  0.250074  1
  Ir  Ir21  1  0.347728  0.347422  0.249926  1
  Ir  Ir22  1  0.347431  0.652569  0.750000  1
  Os  Os23  1  0.500171  0.000352  0.122763  1
  Os  Os24  1  0.500211  0.000396  0.622974  1
  Os  Os25  1  0.999604  0.499789  0.877026  1
  Os  Os26  1  0.999648  0.499829  0.377237  1
  Rh  Rh27  1  0.847902  0.152098  0.250000  1
  Rh  Rh28  1  0.848105  0.848129  0.749941  1
  Rh  Rh29  1  0.151871  0.151895  0.750059  1
  Rh  Rh30  1  0.151831  0.848169  0.250000  1
  Rh  Rh31  1  0.652578  0.347422  0.750000  1
