# generated using pymatgen
data_La4DyZr2P12Ir17
_symmetry_space_group_name_H-M   'P 1'
_cell_length_a   12.76910718
_cell_length_b   13.02558464
_cell_length_c   4.04357900
_cell_angle_alpha   90.00000000
_cell_angle_beta   90.00000000
_cell_angle_gamma   119.37005124
_symmetry_Int_Tables_number   1
_chemical_formula_structural   La4DyZr2P12Ir17
_chemical_formula_sum   'La4 Dy1 Zr2 P12 Ir17'
_cell_volume   586.10614616
_cell_formula_units_Z   1
loop_
 _symmetry_equiv_pos_site_id
 _symmetry_equiv_pos_as_xyz
  1  'x, y, z'
loop_
 _atom_site_type_symbol
 _atom_site_label
 _atom_site_symmetry_multiplicity
 _atom_site_fract_x
 _atom_site_fract_y
 _atom_site_fract_z
 _atom_site_occupancy
  La  La0  1  0.328751  0.661031  0.500000  1
  La  La1  1  0.003288  0.816448  0.000000  1
  La  La2  1  0.186630  0.185284  0.000000  1
  La  La3  1  0.814114  0.998852  0.000000  1
  Dy  Dy4  1  0.669065  0.339605  0.500000  1
  Zr  Zr5  1  0.993810  0.444077  0.500000  1
  Zr  Zr6  1  0.553215  0.553924  0.500000  1
  P  P7  1  0.006752  0.647215  0.500000  1
  P  P8  1  0.358382  0.355879  0.500000  1
  P  P9  1  0.639862  0.997503  0.500000  1
  P  P10  1  0.517276  0.685544  0.000000  1
  P  P11  1  0.309290  0.826272  0.000000  1
  P  P12  1  0.160365  0.477121  0.000000  1
  P  P13  1  0.486501  0.179587  0.000000  1
  P  P14  1  0.684728  0.518998  0.000000  1
  P  P15  1  0.825595  0.311782  0.000000  1
  P  P16  1  0.997667  0.176978  0.500000  1
  P  P17  1  0.822916  0.821222  0.500000  1
  P  P18  1  0.187399  0.001850  0.500000  1
  Ir  Ir19  1  0.507978  0.868657  0.000000  1
  Ir  Ir20  1  0.122197  0.643651  0.000000  1
  Ir  Ir21  1  0.354440  0.491280  0.000000  1
  Ir  Ir22  1  0.486535  0.358183  0.000000  1
  Ir  Ir23  1  0.856739  0.501175  0.000000  1
  Ir  Ir24  1  0.637898  0.135862  0.000000  1
  Ir  Ir25  1  0.464017  0.001525  0.500000  1
  Ir  Ir26  1  0.993888  0.278669  0.000000  1
  Ir  Ir27  1  0.717627  0.718951  0.000000  1
  Ir  Ir28  1  0.296758  0.002507  0.000000  1
  Ir  Ir29  1  0.620942  0.804065  0.500000  1
  Ir  Ir30  1  0.210102  0.828485  0.500000  1
  Ir  Ir31  1  0.174926  0.368988  0.500000  1
  Ir  Ir32  1  0.384235  0.176040  0.500000  1
  Ir  Ir33  1  0.809092  0.629482  0.500000  1
  Ir  Ir34  1  0.812183  0.192916  0.500000  1
  Ir  Ir35  1  0.004838  0.000394  0.500000  1
