# generated using pymatgen
data_NaSm(NbSe2)6
_symmetry_space_group_name_H-M   'P 1'
_cell_length_a   6.08819700
_cell_length_b   6.08819702
_cell_length_c   15.00768200
_cell_angle_alpha   90.00000000
_cell_angle_beta   90.00000000
_cell_angle_gamma   120.00000532
_symmetry_Int_Tables_number   1
_chemical_formula_structural   NaSm(NbSe2)6
_chemical_formula_sum   'Na1 Sm1 Nb6 Se12'
_cell_volume   481.74988778
_cell_formula_units_Z   1
loop_
 _symmetry_equiv_pos_site_id
 _symmetry_equiv_pos_as_xyz
  1  'x, y, z'
loop_
 _atom_site_type_symbol
 _atom_site_label
 _atom_site_symmetry_multiplicity
 _atom_site_fract_x
 _atom_site_fract_y
 _atom_site_fract_z
 _atom_site_occupancy
  Na  Na0  1  0.666667  0.333333  0.750000  1
  Sm  Sm1  1  0.333333  0.666667  0.250000  1
  Nb  Nb2  1  0.333333  0.666667  0.004586  1
  Nb  Nb3  1  0.000000  0.000000  0.002060  1
  Nb  Nb4  1  0.666667  0.333333  0.001594  1
  Nb  Nb5  1  0.333333  0.666667  0.495414  1
  Nb  Nb6  1  0.000000  0.000000  0.497940  1
  Nb  Nb7  1  0.666667  0.333333  0.498406  1
  Se  Se8  1  0.673505  0.666076  0.385265  1
  Se  Se9  1  0.664770  0.670374  0.608051  1
  Se  Se10  1  0.005605  0.670374  0.891949  1
  Se  Se11  1  0.664770  0.994395  0.891949  1
  Se  Se12  1  0.673505  0.007430  0.114735  1
  Se  Se13  1  0.333924  0.007430  0.385265  1
  Se  Se14  1  0.005605  0.335230  0.608051  1
  Se  Se15  1  0.329626  0.994395  0.608051  1
  Se  Se16  1  0.992570  0.666076  0.114735  1
  Se  Se17  1  0.329626  0.335230  0.891949  1
  Se  Se18  1  0.992570  0.326495  0.385265  1
  Se  Se19  1  0.333924  0.326495  0.114735  1
