# generated using pymatgen
data_YAgIr2O7
_symmetry_space_group_name_H-M   'P 1'
_cell_length_a   7.22420636
_cell_length_b   7.16402617
_cell_length_c   7.22420767
_cell_angle_alpha   60.27518822
_cell_angle_beta   61.17716048
_cell_angle_gamma   60.27518894
_symmetry_Int_Tables_number   1
_chemical_formula_structural   YAgIr2O7
_chemical_formula_sum   'Y2 Ag2 Ir4 O14'
_cell_volume   267.77145453
_cell_formula_units_Z   2
loop_
 _symmetry_equiv_pos_site_id
 _symmetry_equiv_pos_as_xyz
  1  'x, y, z'
loop_
 _atom_site_type_symbol
 _atom_site_label
 _atom_site_symmetry_multiplicity
 _atom_site_fract_x
 _atom_site_fract_y
 _atom_site_fract_z
 _atom_site_occupancy
  Y  Y0  1  0.625000  0.125000  0.125000  1
  Y  Y1  1  0.125000  0.125000  0.625000  1
  Ag  Ag2  1  0.125000  0.625000  0.125000  1
  Ag  Ag3  1  0.125000  0.125000  0.125000  1
  Ir  Ir4  1  0.125000  0.625000  0.625000  1
  Ir  Ir5  1  0.625000  0.125000  0.625000  1
  Ir  Ir6  1  0.625000  0.625000  0.125000  1
  Ir  Ir7  1  0.625000  0.625000  0.625000  1
  O  O8  1  0.694833  0.712027  0.298837  1
  O  O9  1  0.298837  0.294302  0.694833  1
  O  O10  1  0.713288  0.286712  0.713288  1
  O  O11  1  0.306718  0.693282  0.306718  1
  O  O12  1  0.298837  0.712027  0.694833  1
  O  O13  1  0.694833  0.294302  0.298837  1
  O  O14  1  0.555167  0.537973  0.951163  1
  O  O15  1  0.951163  0.955698  0.555167  1
  O  O16  1  0.536712  0.963288  0.536712  1
  O  O17  1  0.943282  0.556718  0.943282  1
  O  O18  1  0.951163  0.537973  0.555167  1
  O  O19  1  0.555167  0.955698  0.951163  1
  O  O20  1  0.244250  0.255750  0.244250  1
  O  O21  1  0.005750  0.994250  0.005750  1
