# generated using pymatgen
data_Nd2Os2I
_symmetry_space_group_name_H-M   'P 1'
_cell_length_a   4.31101000
_cell_length_b   4.31101035
_cell_length_c   17.77524800
_cell_angle_alpha   90.00000000
_cell_angle_beta   90.00000000
_cell_angle_gamma   120.00001268
_symmetry_Int_Tables_number   1
_chemical_formula_structural   Nd2Os2I
_chemical_formula_sum   'Nd4 Os4 I2'
_cell_volume   286.09109533
_cell_formula_units_Z   2
loop_
 _symmetry_equiv_pos_site_id
 _symmetry_equiv_pos_as_xyz
  1  'x, y, z'
loop_
 _atom_site_type_symbol
 _atom_site_label
 _atom_site_symmetry_multiplicity
 _atom_site_fract_x
 _atom_site_fract_y
 _atom_site_fract_z
 _atom_site_occupancy
  Nd  Nd0  1  0.000000  0.000000  0.107614  1
  Nd  Nd1  1  0.000000  0.000000  0.892386  1
  Nd  Nd2  1  0.000000  0.000000  0.607614  1
  Nd  Nd3  1  0.000000  0.000000  0.392386  1
  Os  Os4  1  0.333333  0.666667  0.504330  1
  Os  Os5  1  0.666667  0.333333  0.495670  1
  Os  Os6  1  0.666667  0.333333  0.004330  1
  Os  Os7  1  0.333333  0.666667  0.995670  1
  I  I8  1  0.333333  0.666667  0.250000  1
  I  I9  1  0.666667  0.333333  0.750000  1
