# generated using pymatgen
data_Dy3Nb2Bi3O14
_symmetry_space_group_name_H-M   'P 1'
_cell_length_a   6.44378796
_cell_length_b   6.73815625
_cell_length_c   7.67158651
_cell_angle_alpha   106.64683021
_cell_angle_beta   89.56333995
_cell_angle_gamma   98.16171458
_symmetry_Int_Tables_number   1
_chemical_formula_structural   Dy3Nb2Bi3O14
_chemical_formula_sum   'Dy3 Nb2 Bi3 O14'
_cell_volume   315.70985368
_cell_formula_units_Z   1
loop_
 _symmetry_equiv_pos_site_id
 _symmetry_equiv_pos_as_xyz
  1  'x, y, z'
loop_
 _atom_site_type_symbol
 _atom_site_label
 _atom_site_symmetry_multiplicity
 _atom_site_fract_x
 _atom_site_fract_y
 _atom_site_fract_z
 _atom_site_occupancy
  Dy  Dy0  1  0.549400  0.994661  0.754673  1
  Dy  Dy1  1  0.452084  0.003934  0.251482  1
  Dy  Dy2  1  0.253994  0.540389  0.882903  1
  Nb  Nb3  1  0.003599  0.007976  0.501823  1
  Nb  Nb4  1  0.005360  0.009776  0.999747  1
  Bi  Bi5  1  0.744193  0.488068  0.115463  1
  Bi  Bi6  1  0.726289  0.452775  0.612404  1
  Bi  Bi7  1  0.266360  0.541207  0.395117  1
  O  O8  1  0.445287  0.651451  0.166662  1
  O  O9  1  0.541105  0.342477  0.822180  1
  O  O10  1  0.295379  0.920820  0.950072  1
  O  O11  1  0.711293  0.041458  0.053121  1
  O  O12  1  0.290965  0.921205  0.515397  1
  O  O13  1  0.709251  0.082233  0.488379  1
  O  O14  1  0.524035  0.352320  0.349427  1
  O  O15  1  0.458183  0.645560  0.659515  1
  O  O16  1  0.934064  0.675122  0.955346  1
  O  O17  1  0.090402  0.304179  0.025730  1
  O  O18  1  0.094761  0.313003  0.623603  1
  O  O19  1  0.899644  0.705361  0.375947  1
  O  O20  1  0.906850  0.949114  0.737126  1
  O  O21  1  0.097501  0.056911  0.263884  1
