# generated using pymatgen
data_Er3Th2(In2Ni)2
_symmetry_space_group_name_H-M   'P 1'
_cell_length_a   3.77761400
_cell_length_b   8.02599400
_cell_length_c   18.01505600
_cell_angle_alpha   90.00000000
_cell_angle_beta   90.00000000
_cell_angle_gamma   90.00000000
_symmetry_Int_Tables_number   1
_chemical_formula_structural   Er3Th2(In2Ni)2
_chemical_formula_sum   'Er6 Th4 In8 Ni4'
_cell_volume   546.20041585
_cell_formula_units_Z   2
loop_
 _symmetry_equiv_pos_site_id
 _symmetry_equiv_pos_as_xyz
  1  'x, y, z'
loop_
 _atom_site_type_symbol
 _atom_site_label
 _atom_site_symmetry_multiplicity
 _atom_site_fract_x
 _atom_site_fract_y
 _atom_site_fract_z
 _atom_site_occupancy
  Er  Er0  1  0.000000  0.000000  0.000000  1
  Er  Er1  1  0.000000  0.500000  0.500000  1
  Er  Er2  1  0.000000  0.893469  0.588188  1
  Er  Er3  1  0.000000  0.106531  0.411812  1
  Er  Er4  1  0.000000  0.393469  0.911812  1
  Er  Er5  1  0.000000  0.606531  0.088188  1
  Th  Th6  1  0.000000  0.763212  0.780099  1
  Th  Th7  1  0.000000  0.236788  0.219901  1
  Th  Th8  1  0.000000  0.263212  0.719901  1
  Th  Th9  1  0.000000  0.736788  0.280099  1
  In  In10  1  0.500000  0.792796  0.438409  1
  In  In11  1  0.500000  0.207204  0.561591  1
  In  In12  1  0.500000  0.292796  0.061591  1
  In  In13  1  0.500000  0.707204  0.938409  1
  In  In14  1  0.500000  0.913786  0.145806  1
  In  In15  1  0.500000  0.086214  0.854194  1
  In  In16  1  0.500000  0.413786  0.354194  1
  In  In17  1  0.500000  0.586214  0.645806  1
  Ni  Ni18  1  0.500000  0.980655  0.699582  1
  Ni  Ni19  1  0.500000  0.019345  0.300418  1
  Ni  Ni20  1  0.500000  0.480655  0.800418  1
  Ni  Ni21  1  0.500000  0.519345  0.199582  1
