# generated using pymatgen
data_Tb3Dy13(LuSn4)4
_symmetry_space_group_name_H-M   'P 1'
_cell_length_a   8.00596908
_cell_length_b   8.15944203
_cell_length_c   15.43709500
_cell_angle_alpha   90.00246473
_cell_angle_beta   90.00833748
_cell_angle_gamma   89.99568812
_symmetry_Int_Tables_number   1
_chemical_formula_structural   Tb3Dy13(LuSn4)4
_chemical_formula_sum   'Tb3 Dy13 Lu4 Sn16'
_cell_volume   1008.41649420
_cell_formula_units_Z   1
loop_
 _symmetry_equiv_pos_site_id
 _symmetry_equiv_pos_as_xyz
  1  'x, y, z'
loop_
 _atom_site_type_symbol
 _atom_site_label
 _atom_site_symmetry_multiplicity
 _atom_site_fract_x
 _atom_site_fract_y
 _atom_site_fract_z
 _atom_site_occupancy
  Tb  Tb0  1  0.980144  0.820471  0.402838  1
  Tb  Tb1  1  0.519869  0.320521  0.597147  1
  Tb  Tb2  1  0.019883  0.179440  0.902857  1
  Dy  Dy3  1  0.366843  0.837278  0.877744  1
  Dy  Dy4  1  0.866796  0.662689  0.622256  1
  Dy  Dy5  1  0.633222  0.162670  0.377758  1
  Dy  Dy6  1  0.133204  0.337347  0.122219  1
  Dy  Dy7  1  0.633216  0.162673  0.122214  1
  Dy  Dy8  1  0.133226  0.337307  0.377789  1
  Dy  Dy9  1  0.366788  0.837291  0.622248  1
  Dy  Dy10  1  0.866847  0.662706  0.877738  1
  Dy  Dy11  1  0.520022  0.320602  0.902721  1
  Dy  Dy12  1  0.019989  0.179401  0.597231  1
  Dy  Dy13  1  0.480065  0.679448  0.402794  1
  Dy  Dy14  1  0.980034  0.820523  0.097223  1
  Dy  Dy15  1  0.480050  0.679424  0.097165  1
  Lu  Lu16  1  0.198042  0.502895  0.750057  1
  Lu  Lu17  1  0.697974  0.997088  0.750017  1
  Lu  Lu18  1  0.801900  0.497029  0.249941  1
  Lu  Lu19  1  0.301953  0.002924  0.249907  1
  Sn  Sn20  1  0.293470  0.035957  0.042753  1
  Sn  Sn21  1  0.793370  0.463732  0.457329  1
  Sn  Sn22  1  0.706618  0.963823  0.542741  1
  Sn  Sn23  1  0.207164  0.536522  0.957409  1
  Sn  Sn24  1  0.706300  0.963401  0.957544  1
  Sn  Sn25  1  0.206188  0.536660  0.542480  1
  Sn  Sn26  1  0.293811  0.036603  0.457652  1
  Sn  Sn27  1  0.793044  0.463674  0.042471  1
  Sn  Sn28  1  0.563280  0.618294  0.749990  1
  Sn  Sn29  1  0.063196  0.881707  0.749973  1
  Sn  Sn30  1  0.436739  0.381887  0.249997  1
  Sn  Sn31  1  0.936793  0.118205  0.250018  1
  Sn  Sn32  1  0.329176  0.149135  0.750101  1
  Sn  Sn33  1  0.829251  0.350865  0.749872  1
  Sn  Sn34  1  0.670624  0.850719  0.249943  1
  Sn  Sn35  1  0.170916  0.649090  0.249861  1
