# generated using pymatgen
data_DyTm(Ni2B)12
_symmetry_space_group_name_H-M   'P 1'
_cell_length_a   6.01972266
_cell_length_b   6.01972295
_cell_length_c   10.95171574
_cell_angle_alpha   90.12629826
_cell_angle_beta   90.12629672
_cell_angle_gamma   104.60581060
_symmetry_Int_Tables_number   1
_chemical_formula_structural   DyTm(Ni2B)12
_chemical_formula_sum   'Dy1 Tm1 Ni24 B12'
_cell_volume   384.03049310
_cell_formula_units_Z   1
loop_
 _symmetry_equiv_pos_site_id
 _symmetry_equiv_pos_as_xyz
  1  'x, y, z'
loop_
 _atom_site_type_symbol
 _atom_site_label
 _atom_site_symmetry_multiplicity
 _atom_site_fract_x
 _atom_site_fract_y
 _atom_site_fract_z
 _atom_site_occupancy
  Dy  Dy0  1  0.166634  0.166634  0.995835  1
  Tm  Tm1  1  0.833939  0.833939  0.494165  1
  Ni  Ni2  1  0.566122  0.566122  0.918719  1
  Ni  Ni3  1  0.435586  0.435586  0.420310  1
  Ni  Ni4  1  0.782802  0.782802  0.099072  1
  Ni  Ni5  1  0.215831  0.215831  0.598651  1
  Ni  Ni6  1  0.544729  0.804685  0.732253  1
  Ni  Ni7  1  0.804685  0.544729  0.732253  1
  Ni  Ni8  1  0.455719  0.195097  0.233555  1
  Ni  Ni9  1  0.195097  0.455719  0.233555  1
  Ni  Ni10  1  0.144752  0.881694  0.755382  1
  Ni  Ni11  1  0.881694  0.144752  0.755382  1
  Ni  Ni12  1  0.854692  0.117814  0.255804  1
  Ni  Ni13  1  0.117814  0.854692  0.255804  1
  Ni  Ni14  1  0.658578  0.267553  0.567794  1
  Ni  Ni15  1  0.267553  0.658578  0.567794  1
  Ni  Ni16  1  0.342576  0.731221  0.068047  1
  Ni  Ni17  1  0.731221  0.342576  0.068047  1
  Ni  Ni18  1  0.631442  0.997624  0.937340  1
  Ni  Ni19  1  0.997624  0.631442  0.937340  1
  Ni  Ni20  1  0.367880  0.001791  0.437571  1
  Ni  Ni21  1  0.001791  0.367880  0.437571  1
  Ni  Ni22  1  0.473753  0.212811  0.776374  1
  Ni  Ni23  1  0.212811  0.473753  0.776374  1
  Ni  Ni24  1  0.527343  0.787781  0.277465  1
  Ni  Ni25  1  0.787781  0.527343  0.277465  1
  B  B26  1  0.836133  0.836133  0.838983  1
  B  B27  1  0.163896  0.163896  0.339411  1
  B  B28  1  0.487798  0.487798  0.652717  1
  B  B29  1  0.512208  0.512208  0.154724  1
  B  B30  1  0.327879  0.759231  0.884366  1
  B  B31  1  0.759231  0.327879  0.884366  1
  B  B32  1  0.671892  0.239719  0.384661  1
  B  B33  1  0.239719  0.671892  0.384661  1
  B  B34  1  0.400671  0.988213  0.623065  1
  B  B35  1  0.988213  0.400671  0.623065  1
  B  B36  1  0.599607  0.012305  0.123025  1
  B  B37  1  0.012305  0.599607  0.123025  1
