# generated using pymatgen
data_Tb4Ti3Co16MoP12
_symmetry_space_group_name_H-M   'P 1'
_cell_length_a   3.67351300
_cell_length_b   10.47039336
_cell_length_c   11.94441755
_cell_angle_alpha   90.05837885
_cell_angle_beta   90.00000000
_cell_angle_gamma   90.00000000
_symmetry_Int_Tables_number   1
_chemical_formula_structural   Tb4Ti3Co16MoP12
_chemical_formula_sum   'Tb4 Ti3 Co16 Mo1 P12'
_cell_volume   459.41940016
_cell_formula_units_Z   1
loop_
 _symmetry_equiv_pos_site_id
 _symmetry_equiv_pos_as_xyz
  1  'x, y, z'
loop_
 _atom_site_type_symbol
 _atom_site_label
 _atom_site_symmetry_multiplicity
 _atom_site_fract_x
 _atom_site_fract_y
 _atom_site_fract_z
 _atom_site_occupancy
  Tb  Tb0  1  0.250000  0.582804  0.705649  1
  Tb  Tb1  1  0.250000  0.917746  0.205513  1
  Tb  Tb2  1  0.750000  0.417255  0.295024  1
  Tb  Tb3  1  0.750000  0.081458  0.794006  1
  Ti  Ti4  1  0.250000  0.798156  0.490694  1
  Ti  Ti5  1  0.750000  0.297131  0.009410  1
  Ti  Ti6  1  0.750000  0.202138  0.509684  1
  Co  Co7  1  0.250000  0.406401  0.489349  1
  Co  Co8  1  0.250000  0.094181  0.990266  1
  Co  Co9  1  0.750000  0.593744  0.509786  1
  Co  Co10  1  0.750000  0.906600  0.010861  1
  Co  Co11  1  0.250000  0.221681  0.175461  1
  Co  Co12  1  0.250000  0.278972  0.675473  1
  Co  Co13  1  0.750000  0.777903  0.824269  1
  Co  Co14  1  0.750000  0.722124  0.322746  1
  Co  Co15  1  0.250000  0.884593  0.700567  1
  Co  Co16  1  0.250000  0.612849  0.200493  1
  Co  Co17  1  0.750000  0.115289  0.299825  1
  Co  Co18  1  0.750000  0.385262  0.800108  1
  Co  Co19  1  0.250000  0.464950  0.933873  1
  Co  Co20  1  0.250000  0.035272  0.433487  1
  Co  Co21  1  0.750000  0.534792  0.067195  1
  Co  Co22  1  0.750000  0.964187  0.566793  1
  Mo  Mo23  1  0.250000  0.707835  0.988619  1
  P  P24  1  0.250000  0.420901  0.115528  1
  P  P25  1  0.250000  0.078350  0.615491  1
  P  P26  1  0.750000  0.578992  0.886036  1
  P  P27  1  0.750000  0.922136  0.384806  1
  P  P28  1  0.250000  0.270216  0.861754  1
  P  P29  1  0.250000  0.229735  0.362211  1
  P  P30  1  0.750000  0.730393  0.135618  1
  P  P31  1  0.750000  0.769233  0.637599  1
  P  P32  1  0.250000  0.594248  0.390267  1
  P  P33  1  0.250000  0.903196  0.892421  1
  P  P34  1  0.750000  0.406620  0.609150  1
  P  P35  1  0.750000  0.092657  0.109967  1
