# generated using pymatgen
data_SrYbDyGa8Ag3
_symmetry_space_group_name_H-M   'P 1'
_cell_length_a   4.38412066
_cell_length_b   8.48016191
_cell_length_c   8.48016136
_cell_angle_alpha   69.78080007
_cell_angle_beta   75.01934715
_cell_angle_gamma   75.01935824
_symmetry_Int_Tables_number   1
_chemical_formula_structural   SrYbDyGa8Ag3
_chemical_formula_sum   'Sr1 Yb1 Dy1 Ga8 Ag3'
_cell_volume   280.77287270
_cell_formula_units_Z   1
loop_
 _symmetry_equiv_pos_site_id
 _symmetry_equiv_pos_as_xyz
  1  'x, y, z'
loop_
 _atom_site_type_symbol
 _atom_site_label
 _atom_site_symmetry_multiplicity
 _atom_site_fract_x
 _atom_site_fract_y
 _atom_site_fract_z
 _atom_site_occupancy
  Sr  Sr0  1  0.500466  0.499534  0.499534  1
  Yb  Yb1  1  0.802163  0.197837  0.197837  1
  Dy  Dy2  1  0.201626  0.798374  0.798374  1
  Ga  Ga3  1  0.643416  0.072940  0.640228  1
  Ga  Ga4  1  0.353910  0.928544  0.363635  1
  Ga  Ga5  1  0.643416  0.640228  0.072940  1
  Ga  Ga6  1  0.353910  0.363635  0.928544  1
  Ga  Ga7  1  0.837160  0.795405  0.530275  1
  Ga  Ga8  1  0.164620  0.200029  0.470729  1
  Ga  Ga9  1  0.837160  0.530275  0.795405  1
  Ga  Ga10  1  0.164620  0.470729  0.200029  1
  Ag  Ag11  1  0.499599  0.000401  0.000401  1
  Ag  Ag12  1  0.998966  0.807704  0.194364  1
  Ag  Ag13  1  0.998966  0.194364  0.807704  1
