# generated using pymatgen
data_Tb15Dy4ErPb16
_symmetry_space_group_name_H-M   'P 1'
_cell_length_a   8.23068008
_cell_length_b   8.31889899
_cell_length_c   15.70806201
_cell_angle_alpha   90.00359607
_cell_angle_beta   89.99911984
_cell_angle_gamma   90.03574636
_symmetry_Int_Tables_number   1
_chemical_formula_structural   Tb15Dy4ErPb16
_chemical_formula_sum   'Tb15 Dy4 Er1 Pb16'
_cell_volume   1075.53387580
_cell_formula_units_Z   1
loop_
 _symmetry_equiv_pos_site_id
 _symmetry_equiv_pos_as_xyz
  1  'x, y, z'
loop_
 _atom_site_type_symbol
 _atom_site_label
 _atom_site_symmetry_multiplicity
 _atom_site_fract_x
 _atom_site_fract_y
 _atom_site_fract_z
 _atom_site_occupancy
  Tb  Tb0  1  0.877400  0.659371  0.620463  1
  Tb  Tb1  1  0.622331  0.159155  0.379479  1
  Tb  Tb2  1  0.122741  0.340583  0.120461  1
  Tb  Tb3  1  0.622351  0.159216  0.120544  1
  Tb  Tb4  1  0.122721  0.340563  0.379500  1
  Tb  Tb5  1  0.377419  0.840633  0.620361  1
  Tb  Tb6  1  0.877453  0.659351  0.879574  1
  Tb  Tb7  1  0.534469  0.323298  0.899810  1
  Tb  Tb8  1  0.034454  0.176629  0.600126  1
  Tb  Tb9  1  0.465432  0.676854  0.399793  1
  Tb  Tb10  1  0.965635  0.823448  0.100219  1
  Tb  Tb11  1  0.465391  0.676884  0.100123  1
  Tb  Tb12  1  0.965666  0.823494  0.399789  1
  Tb  Tb13  1  0.534466  0.323349  0.600224  1
  Tb  Tb14  1  0.034505  0.176589  0.899878  1
  Dy  Dy15  1  0.377355  0.840696  0.879624  1
  Dy  Dy16  1  0.209177  0.503811  0.750062  1
  Dy  Dy17  1  0.709008  0.996325  0.750053  1
  Dy  Dy18  1  0.790927  0.496377  0.250006  1
  Er  Er19  1  0.290792  0.003697  0.249884  1
  Pb  Pb20  1  0.281016  0.032679  0.043043  1
  Pb  Pb21  1  0.780874  0.466977  0.457145  1
  Pb  Pb22  1  0.719136  0.966912  0.542657  1
  Pb  Pb23  1  0.219273  0.533338  0.957302  1
  Pb  Pb24  1  0.718822  0.966824  0.957298  1
  Pb  Pb25  1  0.219103  0.533040  0.542662  1
  Pb  Pb26  1  0.280938  0.032863  0.456790  1
  Pb  Pb27  1  0.780874  0.466973  0.042862  1
  Pb  Pb28  1  0.572944  0.626205  0.750092  1
  Pb  Pb29  1  0.073260  0.874004  0.750083  1
  Pb  Pb30  1  0.426709  0.373624  0.249999  1
  Pb  Pb31  1  0.927584  0.125516  0.250001  1
  Pb  Pb32  1  0.345894  0.151962  0.750073  1
  Pb  Pb33  1  0.845978  0.347640  0.750018  1
  Pb  Pb34  1  0.653727  0.847934  0.250002  1
  Pb  Pb35  1  0.154179  0.653188  0.250001  1
