# generated using pymatgen
data_Y12Tc2PdRh
_symmetry_space_group_name_H-M   'P 1'
_cell_length_a   6.42485148
_cell_length_b   7.34913783
_cell_length_c   9.27092400
_cell_angle_alpha   90.00000000
_cell_angle_beta   90.00000000
_cell_angle_gamma   90.05947363
_symmetry_Int_Tables_number   1
_chemical_formula_structural   Y12Tc2PdRh
_chemical_formula_sum   'Y12 Tc2 Pd1 Rh1'
_cell_volume   437.74608669
_cell_formula_units_Z   1
loop_
 _symmetry_equiv_pos_site_id
 _symmetry_equiv_pos_as_xyz
  1  'x, y, z'
loop_
 _atom_site_type_symbol
 _atom_site_label
 _atom_site_symmetry_multiplicity
 _atom_site_fract_x
 _atom_site_fract_y
 _atom_site_fract_z
 _atom_site_occupancy
  Y  Y0  1  0.625511  0.040217  0.250000  1
  Y  Y1  1  0.366739  0.958656  0.750000  1
  Y  Y2  1  0.130861  0.461711  0.750000  1
  Y  Y3  1  0.868029  0.534763  0.250000  1
  Y  Y4  1  0.170190  0.183782  0.058738  1
  Y  Y5  1  0.826154  0.823474  0.931970  1
  Y  Y6  1  0.669133  0.319412  0.937570  1
  Y  Y7  1  0.826154  0.823474  0.568030  1
  Y  Y8  1  0.333422  0.673831  0.063866  1
  Y  Y9  1  0.170190  0.183782  0.441262  1
  Y  Y10  1  0.333422  0.673831  0.436134  1
  Y  Y11  1  0.669133  0.319412  0.562430  1
  Tc  Tc12  1  0.461682  0.387060  0.250000  1
  Tc  Tc13  1  0.964096  0.112912  0.750000  1
  Pd  Pd14  1  0.044993  0.889211  0.250000  1
  Rh  Rh15  1  0.540290  0.614468  0.750000  1
