# generated using pymatgen
data_Er20Ir7Ru5
_symmetry_space_group_name_H-M   'P 1'
_cell_length_a   10.74294099
_cell_length_b   10.74294099
_cell_length_c   6.36818751
_cell_angle_alpha   89.96751723
_cell_angle_beta   89.96751723
_cell_angle_gamma   90.03688074
_symmetry_Int_Tables_number   1
_chemical_formula_structural   Er20Ir7Ru5
_chemical_formula_sum   'Er20 Ir7 Ru5'
_cell_volume   734.95710616
_cell_formula_units_Z   1
loop_
 _symmetry_equiv_pos_site_id
 _symmetry_equiv_pos_as_xyz
  1  'x, y, z'
loop_
 _atom_site_type_symbol
 _atom_site_label
 _atom_site_symmetry_multiplicity
 _atom_site_fract_x
 _atom_site_fract_y
 _atom_site_fract_z
 _atom_site_occupancy
  Er  Er0  1  0.293599  0.086168  0.377362  1
  Er  Er1  1  0.293161  0.913685  0.877397  1
  Er  Er2  1  0.707149  0.086485  0.877701  1
  Er  Er3  1  0.706827  0.913985  0.376670  1
  Er  Er4  1  0.586283  0.793620  0.877387  1
  Er  Er5  1  0.586948  0.206628  0.377429  1
  Er  Er6  1  0.413637  0.793572  0.377289  1
  Er  Er7  1  0.413511  0.206272  0.876849  1
  Er  Er8  1  0.206380  0.413717  0.622613  1
  Er  Er9  1  0.206428  0.586363  0.122711  1
  Er  Er10  1  0.793372  0.413052  0.122571  1
  Er  Er11  1  0.793728  0.586489  0.623151  1
  Er  Er12  1  0.913832  0.706401  0.122638  1
  Er  Er13  1  0.913515  0.292851  0.622299  1
  Er  Er14  1  0.086315  0.706839  0.622603  1
  Er  Er15  1  0.086015  0.293173  0.123330  1
  Er  Er16  1  0.999563  0.000824  0.499368  1
  Er  Er17  1  0.999176  0.000437  0.000632  1
  Er  Er18  1  0.500182  0.500061  0.000018  1
  Er  Er19  1  0.499939  0.499818  0.499982  1
  Ir  Ir20  1  0.846807  0.846495  0.749889  1
  Ir  Ir21  1  0.153505  0.153193  0.750111  1
  Ir  Ir22  1  0.153207  0.846793  0.250000  1
  Ir  Ir23  1  0.652270  0.347730  0.750000  1
  Ir  Ir24  1  0.652981  0.652776  0.249790  1
  Ir  Ir25  1  0.347224  0.347019  0.250210  1
  Ir  Ir26  1  0.347252  0.652748  0.750000  1
  Ru  Ru27  1  0.847422  0.152578  0.250000  1
  Ru  Ru28  1  0.500104  0.000180  0.121490  1
  Ru  Ru29  1  0.499840  0.999990  0.621589  1
  Ru  Ru30  1  0.000010  0.500160  0.878411  1
  Ru  Ru31  1  0.999820  0.499896  0.378510  1
