# generated using pymatgen
data_YEr5Al24(IrOs3)2
_symmetry_space_group_name_H-M   'P 1'
_cell_length_a   8.80044686
_cell_length_b   8.79412946
_cell_length_c   9.52858200
_cell_angle_alpha   90.00000000
_cell_angle_beta   90.00000000
_cell_angle_gamma   119.48410440
_symmetry_Int_Tables_number   1
_chemical_formula_structural   YEr5Al24(IrOs3)2
_chemical_formula_sum   'Y1 Er5 Al24 Ir2 Os6'
_cell_volume   641.93458835
_cell_formula_units_Z   1
loop_
 _symmetry_equiv_pos_site_id
 _symmetry_equiv_pos_as_xyz
  1  'x, y, z'
loop_
 _atom_site_type_symbol
 _atom_site_label
 _atom_site_symmetry_multiplicity
 _atom_site_fract_x
 _atom_site_fract_y
 _atom_site_fract_z
 _atom_site_occupancy
  Y  Y0  1  0.186993  0.384744  0.250000  1
  Er  Er1  1  0.812614  0.613016  0.750000  1
  Er  Er2  1  0.612112  0.812328  0.250000  1
  Er  Er3  1  0.387325  0.187985  0.750000  1
  Er  Er4  1  0.195325  0.805060  0.250000  1
  Er  Er5  1  0.805147  0.195606  0.750000  1
  Al  Al6  1  0.332246  0.667528  0.020516  1
  Al  Al7  1  0.667520  0.332646  0.978681  1
  Al  Al8  1  0.667520  0.332646  0.521319  1
  Al  Al9  1  0.332246  0.667528  0.479484  1
  Al  Al10  1  0.162709  0.324806  0.578119  1
  Al  Al11  1  0.837316  0.675386  0.422855  1
  Al  Al12  1  0.675581  0.837480  0.577508  1
  Al  Al13  1  0.837316  0.675386  0.077145  1
  Al  Al14  1  0.325012  0.162460  0.423051  1
  Al  Al15  1  0.162709  0.324806  0.921881  1
  Al  Al16  1  0.164224  0.836091  0.575469  1
  Al  Al17  1  0.325012  0.162460  0.076949  1
  Al  Al18  1  0.835470  0.163926  0.425055  1
  Al  Al19  1  0.675581  0.837480  0.922492  1
  Al  Al20  1  0.835470  0.163926  0.074945  1
  Al  Al21  1  0.164224  0.836091  0.924531  1
  Al  Al22  1  0.559618  0.123313  0.250000  1
  Al  Al23  1  0.440670  0.877220  0.750000  1
  Al  Al24  1  0.876831  0.440776  0.250000  1
  Al  Al25  1  0.123300  0.559970  0.750000  1
  Al  Al26  1  0.560248  0.440644  0.250000  1
  Al  Al27  1  0.440726  0.559827  0.750000  1
  Al  Al28  1  0.997353  0.997851  0.250000  1
  Al  Al29  1  0.000971  0.999359  0.750000  1
  Ir  Ir30  1  0.500229  0.500172  0.999793  1
  Ir  Ir31  1  0.500229  0.500172  0.500207  1
  Os  Os32  1  0.500116  0.000095  0.000002  1
  Os  Os33  1  0.999550  0.500203  0.999369  1
  Os  Os34  1  0.500116  0.000095  0.499998  1
  Os  Os35  1  0.999550  0.500203  0.500631  1
  Os  Os36  1  0.000410  0.000356  0.000040  1
  Os  Os37  1  0.000410  0.000356  0.499960  1
