# generated using pymatgen
data_Sr(GaSb)2
_symmetry_space_group_name_H-M   'P 1'
_cell_length_a   4.45384100
_cell_length_b   6.85957800
_cell_length_c   18.46826200
_cell_angle_alpha   90.00000000
_cell_angle_beta   90.00000000
_cell_angle_gamma   90.00000000
_symmetry_Int_Tables_number   1
_chemical_formula_structural   Sr(GaSb)2
_chemical_formula_sum   'Sr4 Ga8 Sb8'
_cell_volume   564.23254763
_cell_formula_units_Z   4
loop_
 _symmetry_equiv_pos_site_id
 _symmetry_equiv_pos_as_xyz
  1  'x, y, z'
loop_
 _atom_site_type_symbol
 _atom_site_label
 _atom_site_symmetry_multiplicity
 _atom_site_fract_x
 _atom_site_fract_y
 _atom_site_fract_z
 _atom_site_occupancy
  Sr  Sr0  1  0.750000  0.721693  0.385397  1
  Sr  Sr1  1  0.750000  0.778307  0.885397  1
  Sr  Sr2  1  0.250000  0.278307  0.614603  1
  Sr  Sr3  1  0.250000  0.221693  0.114603  1
  Ga  Ga4  1  0.750000  0.539748  0.207591  1
  Ga  Ga5  1  0.750000  0.960252  0.707591  1
  Ga  Ga6  1  0.250000  0.460252  0.792409  1
  Ga  Ga7  1  0.250000  0.039748  0.292409  1
  Ga  Ga8  1  0.750000  0.940514  0.569712  1
  Ga  Ga9  1  0.750000  0.559486  0.069712  1
  Ga  Ga10  1  0.250000  0.059486  0.430288  1
  Ga  Ga11  1  0.250000  0.440514  0.930288  1
  Sb  Sb12  1  0.750000  0.937362  0.214347  1
  Sb  Sb13  1  0.750000  0.562638  0.714347  1
  Sb  Sb14  1  0.250000  0.062638  0.785653  1
  Sb  Sb15  1  0.250000  0.437362  0.285653  1
  Sb  Sb16  1  0.750000  0.263324  0.468349  1
  Sb  Sb17  1  0.750000  0.236676  0.968349  1
  Sb  Sb18  1  0.250000  0.736676  0.531651  1
  Sb  Sb19  1  0.250000  0.763324  0.031651  1
