# generated using pymatgen
data_Yb9PrIr4
_symmetry_space_group_name_H-M   'P 1'
_cell_length_a   8.49118248
_cell_length_b   8.49118151
_cell_length_c   7.49928248
_cell_angle_alpha   83.14982558
_cell_angle_beta   83.14982969
_cell_angle_gamma   44.91595094
_symmetry_Int_Tables_number   1
_chemical_formula_structural   Yb9PrIr4
_chemical_formula_sum   'Yb9 Pr1 Ir4'
_cell_volume   378.57814940
_cell_formula_units_Z   1
loop_
 _symmetry_equiv_pos_site_id
 _symmetry_equiv_pos_as_xyz
  1  'x, y, z'
loop_
 _atom_site_type_symbol
 _atom_site_label
 _atom_site_symmetry_multiplicity
 _atom_site_fract_x
 _atom_site_fract_y
 _atom_site_fract_z
 _atom_site_occupancy
  Yb  Yb0  1  0.027720  0.799562  0.915501  1
  Yb  Yb1  1  0.200438  0.972280  0.584499  1
  Yb  Yb2  1  0.973326  0.200276  0.078563  1
  Yb  Yb3  1  0.799724  0.026674  0.421437  1
  Yb  Yb4  1  0.362552  0.202743  0.821355  1
  Yb  Yb5  1  0.797257  0.637448  0.678645  1
  Yb  Yb6  1  0.643061  0.799067  0.177795  1
  Yb  Yb7  1  0.200933  0.356939  0.322205  1
  Yb  Yb8  1  0.568030  0.431970  0.750000  1
  Pr  Pr9  1  0.430351  0.569649  0.250000  1
  Ir  Ir10  1  0.173694  0.606010  0.576084  1
  Ir  Ir11  1  0.393990  0.826306  0.923916  1
  Ir  Ir12  1  0.823223  0.394298  0.419003  1
  Ir  Ir13  1  0.605702  0.176777  0.080997  1
