# generated using pymatgen
data_Gd3Dy(Si4Tc3)2
_symmetry_space_group_name_H-M   'P 1'
_cell_length_a   6.75716051
_cell_length_b   6.75780536
_cell_length_c   12.58939200
_cell_angle_alpha   90.09997805
_cell_angle_beta   89.72913723
_cell_angle_gamma   90.00882383
_symmetry_Int_Tables_number   1
_chemical_formula_structural   Gd3Dy(Si4Tc3)2
_chemical_formula_sum   'Gd6 Dy2 Si16 Tc12'
_cell_volume   574.86934681
_cell_formula_units_Z   2
loop_
 _symmetry_equiv_pos_site_id
 _symmetry_equiv_pos_as_xyz
  1  'x, y, z'
loop_
 _atom_site_type_symbol
 _atom_site_label
 _atom_site_symmetry_multiplicity
 _atom_site_fract_x
 _atom_site_fract_y
 _atom_site_fract_z
 _atom_site_occupancy
  Gd  Gd0  1  0.002340  0.663987  0.030084  1
  Gd  Gd1  1  0.997855  0.336504  0.530150  1
  Gd  Gd2  1  0.663968  0.002421  0.969649  1
  Gd  Gd3  1  0.164708  0.497569  0.780281  1
  Gd  Gd4  1  0.836122  0.502827  0.280640  1
  Gd  Gd5  1  0.497826  0.164914  0.220082  1
  Dy  Dy6  1  0.503916  0.837215  0.719271  1
  Dy  Dy7  1  0.336853  0.997617  0.470003  1
  Si  Si8  1  0.021306  0.727323  0.436820  1
  Si  Si9  1  0.976186  0.277625  0.935322  1
  Si  Si10  1  0.726263  0.021575  0.563188  1
  Si  Si11  1  0.223430  0.477098  0.185666  1
  Si  Si12  1  0.776411  0.522489  0.686451  1
  Si  Si13  1  0.476754  0.222642  0.814205  1
  Si  Si14  1  0.521499  0.776149  0.313775  1
  Si  Si15  1  0.278039  0.975817  0.064736  1
  Si  Si16  1  0.805954  0.883690  0.187398  1
  Si  Si17  1  0.307764  0.615205  0.562534  1
  Si  Si18  1  0.693377  0.384016  0.062123  1
  Si  Si19  1  0.614079  0.307338  0.437960  1
  Si  Si20  1  0.384036  0.693646  0.937253  1
  Si  Si21  1  0.114876  0.192705  0.312412  1
  Si  Si22  1  0.193835  0.114692  0.687424  1
  Si  Si23  1  0.884031  0.806259  0.812377  1
  Tc  Tc24  1  0.317480  0.483844  0.377066  1
  Tc  Tc25  1  0.815258  0.018330  0.370733  1
  Tc  Tc26  1  0.984478  0.178838  0.126379  1
  Tc  Tc27  1  0.019103  0.816053  0.628906  1
  Tc  Tc28  1  0.484556  0.317685  0.623127  1
  Tc  Tc29  1  0.180392  0.984448  0.873353  1
  Tc  Tc30  1  0.665693  0.667742  0.500180  1
  Tc  Tc31  1  0.833574  0.165367  0.750162  1
  Tc  Tc32  1  0.166591  0.834412  0.250487  1
  Tc  Tc33  1  0.334181  0.333589  0.000120  1
  Tc  Tc34  1  0.516287  0.681482  0.121885  1
  Tc  Tc35  1  0.680978  0.516891  0.877797  1
