# generated using pymatgen
data_Hf6Ti6ZnSn9
_symmetry_space_group_name_H-M   'P 1'
_cell_length_a   9.46532300
_cell_length_b   9.46532173
_cell_length_c   5.77804200
_cell_angle_alpha   90.00000000
_cell_angle_beta   90.00000000
_cell_angle_gamma   120.00000093
_symmetry_Int_Tables_number   1
_chemical_formula_structural   Hf6Ti6ZnSn9
_chemical_formula_sum   'Hf6 Ti6 Zn1 Sn9'
_cell_volume   448.31383479
_cell_formula_units_Z   1
loop_
 _symmetry_equiv_pos_site_id
 _symmetry_equiv_pos_as_xyz
  1  'x, y, z'
loop_
 _atom_site_type_symbol
 _atom_site_label
 _atom_site_symmetry_multiplicity
 _atom_site_fract_x
 _atom_site_fract_y
 _atom_site_fract_z
 _atom_site_occupancy
  Hf  Hf0  1  0.847512  0.695023  0.744449  1
  Hf  Hf1  1  0.152488  0.847512  0.255551  1
  Hf  Hf2  1  0.695023  0.847512  0.255551  1
  Hf  Hf3  1  0.304977  0.152488  0.744449  1
  Hf  Hf4  1  0.847512  0.152488  0.744449  1
  Hf  Hf5  1  0.152488  0.304977  0.255551  1
  Ti  Ti6  1  0.500000  0.000000  0.500000  1
  Ti  Ti7  1  0.500000  0.500000  0.000000  1
  Ti  Ti8  1  0.000000  0.500000  0.000000  1
  Ti  Ti9  1  0.000000  0.500000  0.500000  1
  Ti  Ti10  1  0.500000  0.000000  0.000000  1
  Ti  Ti11  1  0.500000  0.500000  0.500000  1
  Zn  Zn12  1  0.000000  0.000000  0.500000  1
  Sn  Sn13  1  0.206695  0.413390  0.751351  1
  Sn  Sn14  1  0.793305  0.206695  0.248649  1
  Sn  Sn15  1  0.413390  0.206695  0.248649  1
  Sn  Sn16  1  0.586610  0.793305  0.751351  1
  Sn  Sn17  1  0.206695  0.793305  0.751351  1
  Sn  Sn18  1  0.793305  0.586610  0.248649  1
  Sn  Sn19  1  0.666667  0.333333  0.751503  1
  Sn  Sn20  1  0.333333  0.666667  0.248497  1
  Sn  Sn21  1  0.000000  0.000000  0.000000  1
