# generated using pymatgen
data_Sr2YbPt2
_symmetry_space_group_name_H-M   'P 1'
_cell_length_a   7.91267469
_cell_length_b   7.91267524
_cell_length_c   7.91267470
_cell_angle_alpha   70.16998085
_cell_angle_beta   70.16998112
_cell_angle_gamma   70.16999024
_symmetry_Int_Tables_number   1
_chemical_formula_structural   Sr2YbPt2
_chemical_formula_sum   'Sr6 Yb3 Pt6'
_cell_volume   424.10702772
_cell_formula_units_Z   3
loop_
 _symmetry_equiv_pos_site_id
 _symmetry_equiv_pos_as_xyz
  1  'x, y, z'
loop_
 _atom_site_type_symbol
 _atom_site_label
 _atom_site_symmetry_multiplicity
 _atom_site_fract_x
 _atom_site_fract_y
 _atom_site_fract_z
 _atom_site_occupancy
  Sr  Sr0  1  0.331803  0.605078  0.846523  1
  Sr  Sr1  1  0.846523  0.331803  0.605078  1
  Sr  Sr2  1  0.605078  0.846523  0.331803  1
  Sr  Sr3  1  0.668197  0.394922  0.153477  1
  Sr  Sr4  1  0.153477  0.668197  0.394922  1
  Sr  Sr5  1  0.394922  0.153477  0.668197  1
  Yb  Yb6  1  0.000000  0.000000  0.000000  1
  Yb  Yb7  1  0.806814  0.806814  0.806814  1
  Yb  Yb8  1  0.193186  0.193186  0.193186  1
  Pt  Pt9  1  0.145050  0.963457  0.589109  1
  Pt  Pt10  1  0.589109  0.145050  0.963457  1
  Pt  Pt11  1  0.963457  0.589109  0.145050  1
  Pt  Pt12  1  0.854950  0.036543  0.410891  1
  Pt  Pt13  1  0.410891  0.854950  0.036543  1
  Pt  Pt14  1  0.036543  0.410891  0.854950  1
