# generated using pymatgen
data_DyHo9IrOs3
_symmetry_space_group_name_H-M   'P 1'
_cell_length_a   6.37331188
_cell_length_b   7.32782672
_cell_length_c   8.36903831
_cell_angle_alpha   96.77034653
_cell_angle_beta   112.24545757
_cell_angle_gamma   89.99749233
_symmetry_Int_Tables_number   1
_chemical_formula_structural   DyHo9IrOs3
_chemical_formula_sum   'Dy1 Ho9 Ir1 Os3'
_cell_volume   358.81842655
_cell_formula_units_Z   1
loop_
 _symmetry_equiv_pos_site_id
 _symmetry_equiv_pos_as_xyz
  1  'x, y, z'
loop_
 _atom_site_type_symbol
 _atom_site_label
 _atom_site_symmetry_multiplicity
 _atom_site_fract_x
 _atom_site_fract_y
 _atom_site_fract_z
 _atom_site_occupancy
  Dy  Dy0  1  0.972036  0.914962  0.180463  1
  Ho  Ho1  1  0.790745  0.582748  0.817048  1
  Ho  Ho2  1  0.023642  0.084089  0.813873  1
  Ho  Ho3  1  0.207489  0.418171  0.180800  1
  Ho  Ho4  1  0.648800  0.816687  0.438828  1
  Ho  Ho5  1  0.210209  0.682149  0.562922  1
  Ho  Ho6  1  0.352011  0.181968  0.564319  1
  Ho  Ho7  1  0.793228  0.319455  0.438370  1
  Ho  Ho8  1  0.422318  0.748693  0.999209  1
  Ho  Ho9  1  0.577591  0.250578  0.999510  1
  Ir  Ir10  1  0.396050  0.077080  0.221740  1
  Os  Os11  1  0.823336  0.575886  0.218386  1
  Os  Os12  1  0.606567  0.924358  0.781648  1
  Os  Os13  1  0.175978  0.423175  0.782884  1
