# generated using pymatgen
data_Ce4Cu3SiPtRh8
_symmetry_space_group_name_H-M   'P 1'
_cell_length_a   7.16948708
_cell_length_b   7.17765031
_cell_length_c   7.26375535
_cell_angle_alpha   109.26833583
_cell_angle_beta   110.63488811
_cell_angle_gamma   108.73016823
_symmetry_Int_Tables_number   1
_chemical_formula_structural   Ce4Cu3SiPtRh8
_chemical_formula_sum   'Ce4 Cu3 Si1 Pt1 Rh8'
_cell_volume   286.89996201
_cell_formula_units_Z   1
loop_
 _symmetry_equiv_pos_site_id
 _symmetry_equiv_pos_as_xyz
  1  'x, y, z'
loop_
 _atom_site_type_symbol
 _atom_site_label
 _atom_site_symmetry_multiplicity
 _atom_site_fract_x
 _atom_site_fract_y
 _atom_site_fract_z
 _atom_site_occupancy
  Ce  Ce0  1  0.995209  0.990417  0.495209  1
  Ce  Ce1  1  0.021637  0.513089  0.017330  1
  Ce  Ce2  1  0.491985  0.983969  0.991985  1
  Ce  Ce3  1  0.491452  0.513089  0.495759  1
  Cu  Cu4  1  0.748522  0.253046  0.501344  1
  Cu  Cu5  1  0.746832  0.493665  0.246832  1
  Cu  Cu6  1  0.504524  0.253046  0.751702  1
  Si  Si7  1  0.000030  0.000060  0.000030  1
  Pt  Pt8  1  0.242893  0.485786  0.742893  1
  Rh  Rh9  1  0.243328  0.756693  0.501782  1
  Rh  Rh10  1  0.513365  0.756693  0.254911  1
  Rh  Rh11  1  0.731236  0.707038  0.997446  1
  Rh  Rh12  1  0.294688  0.025638  0.294499  1
  Rh  Rh13  1  0.976735  0.267549  0.268745  1
  Rh  Rh14  1  0.290813  0.267549  0.998803  1
  Rh  Rh15  1  0.730949  0.025638  0.731139  1
  Rh  Rh16  1  0.975801  0.707038  0.709592  1
