# generated using pymatgen
data_LuNbSnB2Ru5
_symmetry_space_group_name_H-M   'P 1'
_cell_length_a   9.60470347
_cell_length_b   9.60470314
_cell_length_c   3.07815400
_cell_angle_alpha   90.00000000
_cell_angle_beta   90.00000000
_cell_angle_gamma   91.44918026
_symmetry_Int_Tables_number   1
_chemical_formula_structural   LuNbSnB2Ru5
_chemical_formula_sum   'Lu2 Nb2 Sn2 B4 Ru10'
_cell_volume   283.86988380
_cell_formula_units_Z   2
loop_
 _symmetry_equiv_pos_site_id
 _symmetry_equiv_pos_as_xyz
  1  'x, y, z'
loop_
 _atom_site_type_symbol
 _atom_site_label
 _atom_site_symmetry_multiplicity
 _atom_site_fract_x
 _atom_site_fract_y
 _atom_site_fract_z
 _atom_site_occupancy
  Lu  Lu0  1  0.824326  0.675674  0.000000  1
  Lu  Lu1  1  0.175674  0.324326  0.000000  1
  Nb  Nb2  1  0.325496  0.825496  0.000000  1
  Nb  Nb3  1  0.674504  0.174504  0.000000  1
  Sn  Sn4  1  0.500000  0.500000  0.000000  1
  Sn  Sn5  1  0.000000  0.000000  0.000000  1
  B  B6  1  0.620718  0.879282  0.000000  1
  B  B7  1  0.379282  0.120718  0.000000  1
  B  B8  1  0.121324  0.621324  0.000000  1
  B  B9  1  0.878676  0.378676  0.000000  1
  Ru  Ru10  1  0.557864  0.726692  0.500000  1
  Ru  Ru11  1  0.442136  0.273308  0.500000  1
  Ru  Ru12  1  0.084293  0.782765  0.500000  1
  Ru  Ru13  1  0.915707  0.217235  0.500000  1
  Ru  Ru14  1  0.282765  0.584293  0.500000  1
  Ru  Ru15  1  0.717235  0.415707  0.500000  1
  Ru  Ru16  1  0.226692  0.057864  0.500000  1
  Ru  Ru17  1  0.773308  0.942136  0.500000  1
  Ru  Ru18  1  0.500000  0.000000  0.500000  1
  Ru  Ru19  1  0.000000  0.500000  0.500000  1
