# generated using pymatgen
data_LiOsBr6
_symmetry_space_group_name_H-M   'P 1'
_cell_length_a   10.11712332
_cell_length_b   10.11682071
_cell_length_c   10.11704740
_cell_angle_alpha   82.98965794
_cell_angle_beta   82.99019190
_cell_angle_gamma   82.99255226
_symmetry_Int_Tables_number   1
_chemical_formula_structural   LiOsBr6
_chemical_formula_sum   'Li4 Os4 Br24'
_cell_volume   1014.04075523
_cell_formula_units_Z   4
loop_
 _symmetry_equiv_pos_site_id
 _symmetry_equiv_pos_as_xyz
  1  'x, y, z'
loop_
 _atom_site_type_symbol
 _atom_site_label
 _atom_site_symmetry_multiplicity
 _atom_site_fract_x
 _atom_site_fract_y
 _atom_site_fract_z
 _atom_site_occupancy
  Li  Li0  1  0.336962  0.336963  0.336964  1
  Li  Li1  1  0.167337  0.668718  0.167858  1
  Li  Li2  1  0.167857  0.167338  0.668717  1
  Li  Li3  1  0.668722  0.167858  0.167334  1
  Os  Os4  1  0.502085  0.995049  0.501596  1
  Os  Os5  1  0.999193  0.999198  0.999197  1
  Os  Os6  1  0.501595  0.502080  0.995046  1
  Os  Os7  1  0.995046  0.501594  0.502083  1
  Br  Br8  1  0.934668  0.269916  0.573024  1
  Br  Br9  1  0.422924  0.777523  0.568249  1
  Br  Br10  1  0.076917  0.222808  0.920622  1
  Br  Br11  1  0.568243  0.422925  0.777531  1
  Br  Br12  1  0.920619  0.076921  0.222812  1
  Br  Br13  1  0.420509  0.076397  0.723412  1
  Br  Br14  1  0.573019  0.934667  0.269927  1
  Br  Br15  1  0.085301  0.427356  0.271739  1
  Br  Br16  1  0.228852  0.420350  0.574614  1
  Br  Br17  1  0.222805  0.920628  0.076921  1
  Br  Br18  1  0.574615  0.228855  0.420350  1
  Br  Br19  1  0.932199  0.770249  0.072541  1
  Br  Br20  1  0.777536  0.568247  0.422929  1
  Br  Br21  1  0.722505  0.925393  0.573072  1
  Br  Br22  1  0.427355  0.271728  0.085304  1
  Br  Br23  1  0.271742  0.085300  0.427358  1
  Br  Br24  1  0.420355  0.574616  0.228851  1
  Br  Br25  1  0.770251  0.072536  0.932205  1
  Br  Br26  1  0.076402  0.723423  0.420505  1
  Br  Br27  1  0.573080  0.722518  0.925380  1
  Br  Br28  1  0.925390  0.573073  0.722505  1
  Br  Br29  1  0.723410  0.420507  0.076396  1
  Br  Br30  1  0.269933  0.573023  0.934668  1
  Br  Br31  1  0.072536  0.932206  0.770250  1
