# generated using pymatgen
data_Li8Ac7PrSi7Bi
_symmetry_space_group_name_H-M   'P 1'
_cell_length_a   9.33154700
_cell_length_b   9.33154810
_cell_length_c   8.09154200
_cell_angle_alpha   89.99957711
_cell_angle_beta   89.99980263
_cell_angle_gamma   120.00042014
_symmetry_Int_Tables_number   1
_chemical_formula_structural   Li8Ac7PrSi7Bi
_chemical_formula_sum   'Li8 Ac7 Pr1 Si7 Bi1'
_cell_volume   610.19329713
_cell_formula_units_Z   1
loop_
 _symmetry_equiv_pos_site_id
 _symmetry_equiv_pos_as_xyz
  1  'x, y, z'
loop_
 _atom_site_type_symbol
 _atom_site_label
 _atom_site_symmetry_multiplicity
 _atom_site_fract_x
 _atom_site_fract_y
 _atom_site_fract_z
 _atom_site_occupancy
  Li  Li0  1  0.836823  0.163176  0.740667  1
  Li  Li1  1  0.836823  0.673647  0.740666  1
  Li  Li2  1  0.326352  0.163176  0.740667  1
  Li  Li3  1  0.158596  0.841405  0.212863  1
  Li  Li4  1  0.158596  0.317192  0.212864  1
  Li  Li5  1  0.682807  0.841405  0.212862  1
  Li  Li6  1  0.666669  0.333334  0.289148  1
  Li  Li7  1  0.333332  0.666667  0.798707  1
  Ac  Ac8  1  0.498107  0.501895  0.509496  1
  Ac  Ac9  1  0.498107  0.996211  0.509494  1
  Ac  Ac10  1  0.003788  0.501894  0.509497  1
  Ac  Ac11  1  0.512619  0.487382  0.998914  1
  Ac  Ac12  1  0.512619  0.025237  0.998915  1
  Ac  Ac13  1  0.974764  0.487382  0.998913  1
  Ac  Ac14  1  0.999999  0.999999  0.493966  1
  Pr  Pr15  1  0.000000  0.999999  0.988514  1
  Si  Si16  1  0.833884  0.166116  0.264571  1
  Si  Si17  1  0.833884  0.667769  0.264571  1
  Si  Si18  1  0.332232  0.166116  0.264571  1
  Si  Si19  1  0.164898  0.835100  0.778653  1
  Si  Si20  1  0.164898  0.329797  0.778653  1
  Si  Si21  1  0.670202  0.835101  0.778653  1
  Si  Si22  1  0.666666  0.333333  0.735067  1
  Bi  Bi23  1  0.333334  0.666668  0.237112  1
