# generated using pymatgen
data_Sc8Nb11Si16Pt
_symmetry_space_group_name_H-M   'P 1'
_cell_length_a   6.67403585
_cell_length_b   6.93131998
_cell_length_c   13.11976800
_cell_angle_alpha   90.00000000
_cell_angle_beta   90.00000000
_cell_angle_gamma   90.68290259
_symmetry_Int_Tables_number   1
_chemical_formula_structural   Sc8Nb11Si16Pt
_chemical_formula_sum   'Sc8 Nb11 Si16 Pt1'
_cell_volume   606.87575920
_cell_formula_units_Z   1
loop_
 _symmetry_equiv_pos_site_id
 _symmetry_equiv_pos_as_xyz
  1  'x, y, z'
loop_
 _atom_site_type_symbol
 _atom_site_label
 _atom_site_symmetry_multiplicity
 _atom_site_fract_x
 _atom_site_fract_y
 _atom_site_fract_z
 _atom_site_occupancy
  Sc  Sc0  1  0.497134  0.675609  0.592726  1
  Sc  Sc1  1  0.003084  0.826700  0.907433  1
  Sc  Sc2  1  0.496849  0.326699  0.095143  1
  Sc  Sc3  1  0.999569  0.173618  0.401794  1
  Sc  Sc4  1  0.496849  0.326699  0.404857  1
  Sc  Sc5  1  0.999569  0.173618  0.098206  1
  Sc  Sc6  1  0.497134  0.675609  0.907274  1
  Sc  Sc7  1  0.003084  0.826700  0.592567  1
  Nb  Nb8  1  0.673392  0.172074  0.627840  1
  Nb  Nb9  1  0.158457  0.323387  0.872545  1
  Nb  Nb10  1  0.336471  0.826341  0.124476  1
  Nb  Nb11  1  0.835010  0.674568  0.376746  1
  Nb  Nb12  1  0.336471  0.826341  0.375524  1
  Nb  Nb13  1  0.835010  0.674568  0.123254  1
  Nb  Nb14  1  0.673392  0.172074  0.872160  1
  Nb  Nb15  1  0.158457  0.323387  0.627455  1
  Nb  Nb16  1  0.340868  0.997110  0.750000  1
  Nb  Nb17  1  0.161123  0.506028  0.250000  1
  Nb  Nb18  1  0.662475  0.995813  0.250000  1
  Si  Si19  1  0.669666  0.968517  0.460420  1
  Si  Si20  1  0.167894  0.532813  0.038378  1
  Si  Si21  1  0.334874  0.035300  0.959003  1
  Si  Si22  1  0.830778  0.462354  0.537245  1
  Si  Si23  1  0.334874  0.035300  0.540997  1
  Si  Si24  1  0.830778  0.462354  0.962755  1
  Si  Si25  1  0.669666  0.968517  0.039580  1
  Si  Si26  1  0.167894  0.532813  0.461622  1
  Si  Si27  1  0.466608  0.384387  0.750000  1
  Si  Si28  1  0.967374  0.099021  0.750000  1
  Si  Si29  1  0.537585  0.613409  0.250000  1
  Si  Si30  1  0.039079  0.886328  0.250000  1
  Si  Si31  1  0.704462  0.860387  0.750000  1
  Si  Si32  1  0.202277  0.631702  0.750000  1
  Si  Si33  1  0.295936  0.138056  0.250000  1
  Si  Si34  1  0.791125  0.364228  0.250000  1
  Pt  Pt35  1  0.824730  0.527573  0.750000  1
