# generated using pymatgen
data_Zr6Ti4Ga12Rh7
_symmetry_space_group_name_H-M   'P 1'
_cell_length_a   8.79068070
_cell_length_b   8.79068158
_cell_length_c   8.79068200
_cell_angle_alpha   60.00000593
_cell_angle_beta   60.00000262
_cell_angle_gamma   60.00000506
_symmetry_Int_Tables_number   1
_chemical_formula_structural   Zr6Ti4Ga12Rh7
_chemical_formula_sum   'Zr6 Ti4 Ga12 Rh7'
_cell_volume   480.34433274
_cell_formula_units_Z   1
loop_
 _symmetry_equiv_pos_site_id
 _symmetry_equiv_pos_as_xyz
  1  'x, y, z'
loop_
 _atom_site_type_symbol
 _atom_site_label
 _atom_site_symmetry_multiplicity
 _atom_site_fract_x
 _atom_site_fract_y
 _atom_site_fract_z
 _atom_site_occupancy
  Zr  Zr0  1  0.695476  0.695476  0.304524  1
  Zr  Zr1  1  0.304524  0.695476  0.304524  1
  Zr  Zr2  1  0.695476  0.304524  0.304524  1
  Zr  Zr3  1  0.304524  0.304524  0.695476  1
  Zr  Zr4  1  0.695476  0.304524  0.695476  1
  Zr  Zr5  1  0.304524  0.695476  0.695476  1
  Ti  Ti6  1  0.878481  0.878481  0.364558  1
  Ti  Ti7  1  0.878481  0.364558  0.878481  1
  Ti  Ti8  1  0.364558  0.878481  0.878481  1
  Ti  Ti9  1  0.878481  0.878481  0.878481  1
  Ga  Ga10  1  0.119738  0.119738  0.640786  1
  Ga  Ga11  1  0.119738  0.640786  0.119738  1
  Ga  Ga12  1  0.640786  0.119738  0.119738  1
  Ga  Ga13  1  0.119738  0.119738  0.119738  1
  Ga  Ga14  1  0.659518  0.659518  0.021444  1
  Ga  Ga15  1  0.659518  0.021444  0.659518  1
  Ga  Ga16  1  0.021444  0.659518  0.659518  1
  Ga  Ga17  1  0.659518  0.659518  0.659518  1
  Ga  Ga18  1  0.340735  0.340735  0.977797  1
  Ga  Ga19  1  0.340735  0.977797  0.340735  1
  Ga  Ga20  1  0.977797  0.340735  0.340735  1
  Ga  Ga21  1  0.340735  0.340735  0.340735  1
  Rh  Rh22  1  0.000000  0.000000  0.000000  1
  Rh  Rh23  1  0.997552  0.997552  0.502448  1
  Rh  Rh24  1  0.502448  0.997552  0.502448  1
  Rh  Rh25  1  0.997552  0.502448  0.502448  1
  Rh  Rh26  1  0.502448  0.502448  0.997552  1
  Rh  Rh27  1  0.997552  0.502448  0.997552  1
  Rh  Rh28  1  0.502448  0.997552  0.997552  1
