# generated using pymatgen
data_Er5In4HgIr
_symmetry_space_group_name_H-M   'P 1'
_cell_length_a   3.62002400
_cell_length_b   8.24392627
_cell_length_c   18.38519633
_cell_angle_alpha   89.81904220
_cell_angle_beta   90.00000000
_cell_angle_gamma   90.00000000
_symmetry_Int_Tables_number   1
_chemical_formula_structural   Er5In4HgIr
_chemical_formula_sum   'Er10 In8 Hg2 Ir2'
_cell_volume   548.67055620
_cell_formula_units_Z   2
loop_
 _symmetry_equiv_pos_site_id
 _symmetry_equiv_pos_as_xyz
  1  'x, y, z'
loop_
 _atom_site_type_symbol
 _atom_site_label
 _atom_site_symmetry_multiplicity
 _atom_site_fract_x
 _atom_site_fract_y
 _atom_site_fract_z
 _atom_site_occupancy
  Er  Er0  1  0.000000  0.121789  0.422452  1
  Er  Er1  1  0.000000  0.878211  0.577548  1
  Er  Er2  1  0.000000  0.387284  0.915191  1
  Er  Er3  1  0.000000  0.612716  0.084809  1
  Er  Er4  1  0.000000  0.265205  0.213815  1
  Er  Er5  1  0.000000  0.734795  0.786185  1
  Er  Er6  1  0.000000  0.289935  0.724640  1
  Er  Er7  1  0.000000  0.710065  0.275360  1
  Er  Er8  1  0.000000  0.000000  0.000000  1
  Er  Er9  1  0.000000  0.500000  0.500000  1
  In  In10  1  0.500000  0.419737  0.351965  1
  In  In11  1  0.500000  0.580263  0.648035  1
  In  In12  1  0.500000  0.085913  0.854419  1
  In  In13  1  0.500000  0.914087  0.145581  1
  In  In14  1  0.500000  0.294316  0.065237  1
  In  In15  1  0.500000  0.705684  0.934763  1
  In  In16  1  0.500000  0.212620  0.568211  1
  In  In17  1  0.500000  0.787380  0.431789  1
  Hg  Hg18  1  0.500000  0.022461  0.299722  1
  Hg  Hg19  1  0.500000  0.977539  0.700278  1
  Ir  Ir20  1  0.500000  0.478550  0.805933  1
  Ir  Ir21  1  0.500000  0.521450  0.194067  1
