# generated using pymatgen
data_Th4Zn4Ru3Au
_symmetry_space_group_name_H-M   'P 1'
_cell_length_a   4.01271400
_cell_length_b   7.29754311
_cell_length_c   8.52067804
_cell_angle_alpha   91.07242440
_cell_angle_beta   90.00000000
_cell_angle_gamma   90.00000000
_symmetry_Int_Tables_number   1
_chemical_formula_structural   Th4Zn4Ru3Au
_chemical_formula_sum   'Th4 Zn4 Ru3 Au1'
_cell_volume   249.46691271
_cell_formula_units_Z   1
loop_
 _symmetry_equiv_pos_site_id
 _symmetry_equiv_pos_as_xyz
  1  'x, y, z'
loop_
 _atom_site_type_symbol
 _atom_site_label
 _atom_site_symmetry_multiplicity
 _atom_site_fract_x
 _atom_site_fract_y
 _atom_site_fract_z
 _atom_site_occupancy
  Th  Th0  1  0.250000  0.040240  0.330147  1
  Th  Th1  1  0.250000  0.568947  0.189217  1
  Th  Th2  1  0.750000  0.948401  0.692136  1
  Th  Th3  1  0.750000  0.459062  0.798529  1
  Zn  Zn4  1  0.250000  0.119858  0.937967  1
  Zn  Zn5  1  0.250000  0.624725  0.556955  1
  Zn  Zn6  1  0.750000  0.868187  0.061558  1
  Zn  Zn7  1  0.750000  0.379418  0.441348  1
  Ru  Ru8  1  0.250000  0.237701  0.628424  1
  Ru  Ru9  1  0.250000  0.738874  0.871230  1
  Ru  Ru10  1  0.750000  0.759604  0.369433  1
  Au  Au11  1  0.750000  0.254985  0.123054  1
