# generated using pymatgen
data_YbPa3(CoGe)4
_symmetry_space_group_name_H-M   'P 1'
_cell_length_a   4.29657200
_cell_length_b   6.93814019
_cell_length_c   7.26404049
_cell_angle_alpha   93.22283710
_cell_angle_beta   90.00000000
_cell_angle_gamma   90.00000000
_symmetry_Int_Tables_number   1
_chemical_formula_structural   YbPa3(CoGe)4
_chemical_formula_sum   'Yb1 Pa3 Co4 Ge4'
_cell_volume   216.20016077
_cell_formula_units_Z   1
loop_
 _symmetry_equiv_pos_site_id
 _symmetry_equiv_pos_as_xyz
  1  'x, y, z'
loop_
 _atom_site_type_symbol
 _atom_site_label
 _atom_site_symmetry_multiplicity
 _atom_site_fract_x
 _atom_site_fract_y
 _atom_site_fract_z
 _atom_site_occupancy
  Yb  Yb0  1  0.250000  0.777242  0.478342  1
  Pa  Pa1  1  0.250000  0.696635  0.991652  1
  Pa  Pa2  1  0.750000  0.303661  0.010263  1
  Pa  Pa3  1  0.750000  0.230414  0.525754  1
  Co  Co4  1  0.250000  0.042560  0.122519  1
  Co  Co5  1  0.750000  0.959060  0.873239  1
  Co  Co6  1  0.750000  0.548114  0.248491  1
  Co  Co7  1  0.250000  0.441038  0.745818  1
  Ge  Ge8  1  0.250000  0.387170  0.304063  1
  Ge  Ge9  1  0.750000  0.618733  0.703967  1
  Ge  Ge10  1  0.750000  0.908122  0.219846  1
  Ge  Ge11  1  0.250000  0.087253  0.776046  1
