# generated using pymatgen
data_Nd8Er12Si15Ni
_symmetry_space_group_name_H-M   'P 1'
_cell_length_a   7.40079159
_cell_length_b   14.66445700
_cell_length_c   7.80835298
_cell_angle_alpha   90.00000000
_cell_angle_beta   89.85868969
_cell_angle_gamma   90.00000000
_symmetry_Int_Tables_number   1
_chemical_formula_structural   Nd8Er12Si15Ni
_chemical_formula_sum   'Nd8 Er12 Si15 Ni1'
_cell_volume   847.42696168
_cell_formula_units_Z   1
loop_
 _symmetry_equiv_pos_site_id
 _symmetry_equiv_pos_as_xyz
  1  'x, y, z'
loop_
 _atom_site_type_symbol
 _atom_site_label
 _atom_site_symmetry_multiplicity
 _atom_site_fract_x
 _atom_site_fract_y
 _atom_site_fract_z
 _atom_site_occupancy
  Nd  Nd0  1  0.019664  0.096813  0.181306  1
  Nd  Nd1  1  0.019664  0.403187  0.181306  1
  Nd  Nd2  1  0.518691  0.095719  0.321489  1
  Nd  Nd3  1  0.518691  0.404281  0.321489  1
  Nd  Nd4  1  0.482198  0.596276  0.679042  1
  Nd  Nd5  1  0.482198  0.903724  0.679042  1
  Nd  Nd6  1  0.982513  0.595534  0.822480  1
  Nd  Nd7  1  0.982513  0.904466  0.822480  1
  Er  Er8  1  0.344860  0.250000  0.012061  1
  Er  Er9  1  0.310158  0.627170  0.172501  1
  Er  Er10  1  0.310158  0.872829  0.172501  1
  Er  Er11  1  0.828844  0.626301  0.317273  1
  Er  Er12  1  0.828844  0.873698  0.317273  1
  Er  Er13  1  0.844551  0.250000  0.489235  1
  Er  Er14  1  0.154745  0.750000  0.517098  1
  Er  Er15  1  0.178543  0.123642  0.679018  1
  Er  Er16  1  0.178543  0.376357  0.679018  1
  Er  Er17  1  0.678964  0.124127  0.824767  1
  Er  Er18  1  0.678964  0.375872  0.824767  1
  Er  Er19  1  0.665326  0.750000  0.991490  1
  Si  Si20  1  0.647665  0.539727  0.032331  1
  Si  Si21  1  0.647665  0.960273  0.032331  1
  Si  Si22  1  0.724058  0.250000  0.123994  1
  Si  Si23  1  0.225334  0.250000  0.377294  1
  Si  Si24  1  0.526341  0.750000  0.388732  1
  Si  Si25  1  0.150727  0.539055  0.469936  1
  Si  Si26  1  0.150727  0.960945  0.469936  1
  Si  Si27  1  0.850537  0.037498  0.532585  1
  Si  Si28  1  0.850537  0.462501  0.532585  1
  Si  Si29  1  0.473809  0.250000  0.613198  1
  Si  Si30  1  0.769478  0.750000  0.619412  1
  Si  Si31  1  0.272291  0.750000  0.877043  1
  Si  Si32  1  0.974258  0.250000  0.887739  1
  Si  Si33  1  0.351796  0.038403  0.968458  1
  Si  Si34  1  0.351796  0.461596  0.968458  1
  Ni  Ni35  1  0.024352  0.750000  0.100335  1
