# generated using pymatgen
data_Dy3Tm13In4OsRh3
_symmetry_space_group_name_H-M   'P 1'
_cell_length_a   9.57229952
_cell_length_b   9.55400561
_cell_length_c   9.58876035
_cell_angle_alpha   59.93186450
_cell_angle_beta   59.94759157
_cell_angle_gamma   59.81506406
_symmetry_Int_Tables_number   1
_chemical_formula_structural   Dy3Tm13In4OsRh3
_chemical_formula_sum   'Dy3 Tm13 In4 Os1 Rh3'
_cell_volume   618.64770560
_cell_formula_units_Z   1
loop_
 _symmetry_equiv_pos_site_id
 _symmetry_equiv_pos_as_xyz
  1  'x, y, z'
loop_
 _atom_site_type_symbol
 _atom_site_label
 _atom_site_symmetry_multiplicity
 _atom_site_fract_x
 _atom_site_fract_y
 _atom_site_fract_z
 _atom_site_occupancy
  Dy  Dy0  1  0.057150  0.057088  0.438828  1
  Dy  Dy1  1  0.444849  0.060251  0.435571  1
  Dy  Dy2  1  0.062945  0.438859  0.060600  1
  Tm  Tm3  1  0.047249  0.648965  0.650233  1
  Tm  Tm4  1  0.439631  0.438410  0.060443  1
  Tm  Tm5  1  0.649220  0.046825  0.650539  1
  Tm  Tm6  1  0.188980  0.809591  0.192590  1
  Tm  Tm7  1  0.190642  0.190544  0.810190  1
  Tm  Tm8  1  0.808999  0.809623  0.193645  1
  Tm  Tm9  1  0.440144  0.060856  0.058698  1
  Tm  Tm10  1  0.809858  0.189086  0.192576  1
  Tm  Tm11  1  0.057509  0.447435  0.438033  1
  Tm  Tm12  1  0.808972  0.192213  0.809961  1
  Tm  Tm13  1  0.192217  0.809248  0.809596  1
  Tm  Tm14  1  0.649670  0.649920  0.048093  1
  Tm  Tm15  1  0.651887  0.651689  0.651151  1
  In  In16  1  0.416154  0.417919  0.415441  1
  In  In17  1  0.750214  0.417603  0.415392  1
  In  In18  1  0.417747  0.749159  0.415475  1
  In  In19  1  0.417815  0.416928  0.748513  1
  Os  Os20  1  0.858488  0.856829  0.425329  1
  Rh  Rh21  1  0.858616  0.859308  0.860310  1
  Rh  Rh22  1  0.423250  0.857991  0.860281  1
  Rh  Rh23  1  0.857795  0.423661  0.858520  1
