# generated using pymatgen
data_Ti20Ga5As7
_symmetry_space_group_name_H-M   'P 1'
_cell_length_a   6.73693190
_cell_length_b   7.88409265
_cell_length_c   9.85888111
_cell_angle_alpha   90.05337063
_cell_angle_beta   89.92798410
_cell_angle_gamma   90.07860242
_symmetry_Int_Tables_number   1
_chemical_formula_structural   Ti20Ga5As7
_chemical_formula_sum   'Ti20 Ga5 As7'
_cell_volume   523.64934726
_cell_formula_units_Z   1
loop_
 _symmetry_equiv_pos_site_id
 _symmetry_equiv_pos_as_xyz
  1  'x, y, z'
loop_
 _atom_site_type_symbol
 _atom_site_label
 _atom_site_symmetry_multiplicity
 _atom_site_fract_x
 _atom_site_fract_y
 _atom_site_fract_z
 _atom_site_occupancy
  Ti  Ti0  1  0.808915  0.557213  0.058810  1
  Ti  Ti1  1  0.689628  0.942865  0.557588  1
  Ti  Ti2  1  0.191448  0.056206  0.942878  1
  Ti  Ti3  1  0.310409  0.441095  0.437760  1
  Ti  Ti4  1  0.188180  0.444399  0.937684  1
  Ti  Ti5  1  0.315777  0.054551  0.434462  1
  Ti  Ti6  1  0.815719  0.945579  0.066048  1
  Ti  Ti7  1  0.684797  0.556083  0.564321  1
  Ti  Ti8  1  0.171548  0.759161  0.226522  1
  Ti  Ti9  1  0.329837  0.744763  0.728507  1
  Ti  Ti10  1  0.825789  0.254890  0.772190  1
  Ti  Ti11  1  0.671378  0.241091  0.272858  1
  Ti  Ti12  1  0.481367  0.750046  0.003511  1
  Ti  Ti13  1  0.017640  0.751488  0.503610  1
  Ti  Ti14  1  0.520563  0.251403  0.996630  1
  Ti  Ti15  1  0.982394  0.247256  0.497556  1
  Ti  Ti16  1  0.661723  0.752614  0.287593  1
  Ti  Ti17  1  0.837190  0.749335  0.786688  1
  Ti  Ti18  1  0.335289  0.253446  0.712889  1
  Ti  Ti19  1  0.161762  0.245557  0.211905  1
  Ga  Ga20  1  0.936013  0.505809  0.323625  1
  Ga  Ga21  1  0.564765  0.994567  0.821669  1
  Ga  Ga22  1  0.066203  0.006069  0.679112  1
  Ga  Ga23  1  0.434654  0.493154  0.177706  1
  Ga  Ga24  1  0.063328  0.494172  0.672825  1
  As  As25  1  0.400037  0.747678  0.473403  1
  As  As26  1  0.097616  0.749826  0.971481  1
  As  As27  1  0.598551  0.249427  0.528066  1
  As  As28  1  0.903283  0.251302  0.026065  1
  As  As29  1  0.434924  0.008683  0.171025  1
  As  As30  1  0.934762  0.991157  0.328150  1
  As  As31  1  0.564512  0.509115  0.826863  1
