# generated using pymatgen
data_Er4Al9Ga7(SiIr3)2
_symmetry_space_group_name_H-M   'P 1'
_cell_length_a   7.52091805
_cell_length_b   7.48084312
_cell_length_c   9.49465570
_cell_angle_alpha   90.14949373
_cell_angle_beta   89.61519480
_cell_angle_gamma   119.95002289
_symmetry_Int_Tables_number   1
_chemical_formula_structural   Er4Al9Ga7(SiIr3)2
_chemical_formula_sum   'Er4 Al9 Ga7 Si2 Ir6'
_cell_volume   462.84949380
_cell_formula_units_Z   1
loop_
 _symmetry_equiv_pos_site_id
 _symmetry_equiv_pos_as_xyz
  1  'x, y, z'
loop_
 _atom_site_type_symbol
 _atom_site_label
 _atom_site_symmetry_multiplicity
 _atom_site_fract_x
 _atom_site_fract_y
 _atom_site_fract_z
 _atom_site_occupancy
  Er  Er0  1  0.996688  0.664161  0.743926  1
  Er  Er1  1  0.004258  0.336752  0.257374  1
  Er  Er2  1  0.675805  0.002630  0.747620  1
  Er  Er3  1  0.324135  0.997128  0.252941  1
  Al  Al4  1  0.998369  0.666230  0.068908  1
  Al  Al5  1  0.334585  0.999223  0.926708  1
  Al  Al6  1  0.001775  0.334105  0.931008  1
  Al  Al7  1  0.665923  0.001159  0.073285  1
  Al  Al8  1  0.660678  0.994794  0.424520  1
  Al  Al9  1  0.338762  0.006231  0.577176  1
  Al  Al10  1  0.333326  0.332618  0.058893  1
  Al  Al11  1  0.667277  0.668027  0.940295  1
  Al  Al12  1  0.659158  0.662339  0.559957  1
  Ga  Ga13  1  0.131544  0.126920  0.751426  1
  Ga  Ga14  1  0.868275  0.873203  0.249944  1
  Ga  Ga15  1  0.335856  0.330696  0.427483  1
  Ga  Ga16  1  0.343292  0.549739  0.751108  1
  Ga  Ga17  1  0.662036  0.452043  0.248851  1
  Ga  Ga18  1  0.549029  0.341185  0.749939  1
  Ga  Ga19  1  0.452878  0.663409  0.250191  1
  Si  Si20  1  0.999789  0.327989  0.575804  1
  Si  Si21  1  0.000261  0.672595  0.426972  1
  Ir  Ir22  1  0.691843  0.337813  0.500572  1
  Ir  Ir23  1  0.309542  0.662918  0.500954  1
  Ir  Ir24  1  0.327213  0.670512  0.001388  1
  Ir  Ir25  1  0.672067  0.328862  0.999622  1
  Ir  Ir26  1  0.995427  0.996444  0.502207  1
  Ir  Ir27  1  0.000212  0.000274  0.000925  1
