# generated using pymatgen
data_Y9Zr(IrRh2)2
_symmetry_space_group_name_H-M   'P 1'
_cell_length_a   10.93002500
_cell_length_b   10.93002500
_cell_length_c   6.31691000
_cell_angle_alpha   90.00000000
_cell_angle_beta   90.00000000
_cell_angle_gamma   90.00000000
_symmetry_Int_Tables_number   1
_chemical_formula_structural   Y9Zr(IrRh2)2
_chemical_formula_sum   'Y18 Zr2 Ir4 Rh8'
_cell_volume   754.65247365
_cell_formula_units_Z   2
loop_
 _symmetry_equiv_pos_site_id
 _symmetry_equiv_pos_as_xyz
  1  'x, y, z'
loop_
 _atom_site_type_symbol
 _atom_site_label
 _atom_site_symmetry_multiplicity
 _atom_site_fract_x
 _atom_site_fract_y
 _atom_site_fract_z
 _atom_site_occupancy
  Y  Y0  1  0.292486  0.090430  0.377234  1
  Y  Y1  1  0.292486  0.909570  0.877234  1
  Y  Y2  1  0.707514  0.090430  0.877234  1
  Y  Y3  1  0.707514  0.909570  0.377234  1
  Y  Y4  1  0.586915  0.787251  0.877980  1
  Y  Y5  1  0.586915  0.212749  0.377980  1
  Y  Y6  1  0.413085  0.787251  0.377980  1
  Y  Y7  1  0.413085  0.212749  0.877980  1
  Y  Y8  1  0.212749  0.413085  0.622020  1
  Y  Y9  1  0.212749  0.586915  0.122020  1
  Y  Y10  1  0.787251  0.413085  0.122020  1
  Y  Y11  1  0.787251  0.586915  0.622020  1
  Y  Y12  1  0.909570  0.707514  0.122766  1
  Y  Y13  1  0.909570  0.292486  0.622766  1
  Y  Y14  1  0.090430  0.707514  0.622766  1
  Y  Y15  1  0.090430  0.292486  0.122766  1
  Y  Y16  1  0.000000  0.000000  0.500000  1
  Y  Y17  1  0.000000  0.000000  0.000000  1
  Zr  Zr18  1  0.500000  0.500000  0.000000  1
  Zr  Zr19  1  0.500000  0.500000  0.500000  1
  Ir  Ir20  1  0.644291  0.355709  0.750000  1
  Ir  Ir21  1  0.644291  0.644291  0.250000  1
  Ir  Ir22  1  0.355709  0.355709  0.250000  1
  Ir  Ir23  1  0.355709  0.644291  0.750000  1
  Rh  Rh24  1  0.845450  0.154550  0.250000  1
  Rh  Rh25  1  0.845450  0.845450  0.750000  1
  Rh  Rh26  1  0.154550  0.154550  0.750000  1
  Rh  Rh27  1  0.154550  0.845450  0.250000  1
  Rh  Rh28  1  0.500000  0.000000  0.126363  1
  Rh  Rh29  1  0.500000  0.000000  0.626363  1
  Rh  Rh30  1  0.000000  0.500000  0.873637  1
  Rh  Rh31  1  0.000000  0.500000  0.373637  1
