# generated using pymatgen
data_Tb3AgSn3Rh2
_symmetry_space_group_name_H-M   'P 1'
_cell_length_a   7.73691600
_cell_length_b   7.73691480
_cell_length_c   3.83865600
_cell_angle_alpha   90.00000000
_cell_angle_beta   90.00000000
_cell_angle_gamma   119.99999656
_symmetry_Int_Tables_number   1
_chemical_formula_structural   Tb3AgSn3Rh2
_chemical_formula_sum   'Tb3 Ag1 Sn3 Rh2'
_cell_volume   198.99654573
_cell_formula_units_Z   1
loop_
 _symmetry_equiv_pos_site_id
 _symmetry_equiv_pos_as_xyz
  1  'x, y, z'
loop_
 _atom_site_type_symbol
 _atom_site_label
 _atom_site_symmetry_multiplicity
 _atom_site_fract_x
 _atom_site_fract_y
 _atom_site_fract_z
 _atom_site_occupancy
  Tb  Tb0  1  0.410907  0.018459  0.500000  1
  Tb  Tb1  1  0.981541  0.392448  0.500000  1
  Tb  Tb2  1  0.607552  0.589093  0.500000  1
  Ag  Ag3  1  0.333333  0.666667  0.000000  1
  Sn  Sn4  1  0.742904  0.000882  0.000000  1
  Sn  Sn5  1  0.999118  0.742022  0.000000  1
  Sn  Sn6  1  0.257978  0.257096  0.000000  1
  Rh  Rh7  1  0.666667  0.333333  0.000000  1
  Rh  Rh8  1  0.000000  0.000000  0.500000  1
