# generated using pymatgen
data_SrPH
_symmetry_space_group_name_H-M   'P 1'
_cell_length_a   4.67991100
_cell_length_b   4.30502162
_cell_length_c   6.35252947
_cell_angle_alpha   82.69782129
_cell_angle_beta   90.00000000
_cell_angle_gamma   90.00000000
_symmetry_Int_Tables_number   1
_chemical_formula_structural   SrPH
_chemical_formula_sum   'Sr2 P2 H2'
_cell_volume   126.94715149
_cell_formula_units_Z   2
loop_
 _symmetry_equiv_pos_site_id
 _symmetry_equiv_pos_as_xyz
  1  'x, y, z'
loop_
 _atom_site_type_symbol
 _atom_site_label
 _atom_site_symmetry_multiplicity
 _atom_site_fract_x
 _atom_site_fract_y
 _atom_site_fract_z
 _atom_site_occupancy
  Sr  Sr0  1  0.750000  0.754211  0.751708  1
  Sr  Sr1  1  0.250000  0.245789  0.248292  1
  P  P2  1  0.750000  0.757329  0.244337  1
  P  P3  1  0.250000  0.242671  0.755663  1
  H  H4  1  0.750000  0.468469  0.389339  1
  H  H5  1  0.250000  0.531531  0.610661  1
