# generated using pymatgen
data_Tb4LuPb3S
_symmetry_space_group_name_H-M   'P 1'
_cell_length_a   9.15336700
_cell_length_b   9.15336781
_cell_length_c   6.71864900
_cell_angle_alpha   90.00000000
_cell_angle_beta   90.00000000
_cell_angle_gamma   120.00000068
_symmetry_Int_Tables_number   1
_chemical_formula_structural   Tb4LuPb3S
_chemical_formula_sum   'Tb8 Lu2 Pb6 S2'
_cell_volume   487.49972076
_cell_formula_units_Z   2
loop_
 _symmetry_equiv_pos_site_id
 _symmetry_equiv_pos_as_xyz
  1  'x, y, z'
loop_
 _atom_site_type_symbol
 _atom_site_label
 _atom_site_symmetry_multiplicity
 _atom_site_fract_x
 _atom_site_fract_y
 _atom_site_fract_z
 _atom_site_occupancy
  Tb  Tb0  1  0.756538  0.756538  0.749197  1
  Tb  Tb1  1  0.243462  0.000000  0.749197  1
  Tb  Tb2  1  0.000000  0.243462  0.749197  1
  Tb  Tb3  1  0.243462  0.243462  0.250803  1
  Tb  Tb4  1  0.756538  0.000000  0.250803  1
  Tb  Tb5  1  0.000000  0.756538  0.250803  1
  Tb  Tb6  1  0.666667  0.333333  0.000000  1
  Tb  Tb7  1  0.333333  0.666667  0.000000  1
  Lu  Lu8  1  0.333333  0.666667  0.500000  1
  Lu  Lu9  1  0.666667  0.333333  0.500000  1
  Pb  Pb10  1  0.398485  0.398485  0.747567  1
  Pb  Pb11  1  0.601515  0.000000  0.747567  1
  Pb  Pb12  1  0.000000  0.601515  0.747567  1
  Pb  Pb13  1  0.601515  0.601515  0.252433  1
  Pb  Pb14  1  0.398485  0.000000  0.252433  1
  Pb  Pb15  1  0.000000  0.398485  0.252433  1
  S  S16  1  0.000000  0.000000  0.000000  1
  S  S17  1  0.000000  0.000000  0.500000  1
