# generated using pymatgen
data_Tb7Er9Cd4Ni3Os
_symmetry_space_group_name_H-M   'P 1'
_cell_length_a   9.56108642
_cell_length_b   9.56108644
_cell_length_c   9.55775577
_cell_angle_alpha   59.57342269
_cell_angle_beta   59.57342849
_cell_angle_gamma   59.56372332
_symmetry_Int_Tables_number   1
_chemical_formula_structural   Tb7Er9Cd4Ni3Os
_chemical_formula_sum   'Tb7 Er9 Cd4 Ni3 Os1'
_cell_volume   611.77415784
_cell_formula_units_Z   1
loop_
 _symmetry_equiv_pos_site_id
 _symmetry_equiv_pos_as_xyz
  1  'x, y, z'
loop_
 _atom_site_type_symbol
 _atom_site_label
 _atom_site_symmetry_multiplicity
 _atom_site_fract_x
 _atom_site_fract_y
 _atom_site_fract_z
 _atom_site_occupancy
  Tb  Tb0  1  0.811879  0.811879  0.185861  1
  Tb  Tb1  1  0.936763  0.564714  0.565411  1
  Tb  Tb2  1  0.556153  0.939768  0.939411  1
  Tb  Tb3  1  0.564714  0.936763  0.565411  1
  Tb  Tb4  1  0.939768  0.556153  0.939411  1
  Tb  Tb5  1  0.565059  0.565059  0.936390  1
  Tb  Tb6  1  0.939541  0.939541  0.556446  1
  Er  Er7  1  0.347346  0.347346  0.347346  1
  Er  Er8  1  0.350752  0.350752  0.954665  1
  Er  Er9  1  0.350101  0.954824  0.351094  1
  Er  Er10  1  0.954824  0.350101  0.351094  1
  Er  Er11  1  0.810829  0.188447  0.187594  1
  Er  Er12  1  0.186471  0.811938  0.811344  1
  Er  Er13  1  0.188447  0.810829  0.187594  1
  Er  Er14  1  0.811938  0.186471  0.811344  1
  Er  Er15  1  0.187724  0.187724  0.810768  1
  Cd  Cd16  1  0.579734  0.579734  0.580409  1
  Cd  Cd17  1  0.579573  0.579573  0.256691  1
  Cd  Cd18  1  0.579780  0.256677  0.579788  1
  Cd  Cd19  1  0.256677  0.579780  0.579788  1
  Ni  Ni20  1  0.142040  0.142040  0.575019  1
  Ni  Ni21  1  0.141746  0.575464  0.142164  1
  Ni  Ni22  1  0.575464  0.141746  0.142164  1
  Os  Os23  1  0.142679  0.142679  0.142793  1
