# generated using pymatgen
data_Np2I2F11
_symmetry_space_group_name_H-M   'P 1'
_cell_length_a   8.58595645
_cell_length_b   8.58595641
_cell_length_c   5.32895883
_cell_angle_alpha   76.17726047
_cell_angle_beta   76.17725641
_cell_angle_gamma   65.69300847
_symmetry_Int_Tables_number   1
_chemical_formula_structural   Np2I2F11
_chemical_formula_sum   'Np2 I2 F11'
_cell_volume   343.23675897
_cell_formula_units_Z   1
loop_
 _symmetry_equiv_pos_site_id
 _symmetry_equiv_pos_as_xyz
  1  'x, y, z'
loop_
 _atom_site_type_symbol
 _atom_site_label
 _atom_site_symmetry_multiplicity
 _atom_site_fract_x
 _atom_site_fract_y
 _atom_site_fract_z
 _atom_site_occupancy
  Np  Np0  1  0.343482  0.353841  0.453355  1
  Np  Np1  1  0.646159  0.656518  0.546645  1
  I  I2  1  0.040707  0.050027  0.190911  1
  I  I3  1  0.949973  0.959293  0.809089  1
  F  F4  1  0.195364  0.567470  0.235893  1
  F  F5  1  0.432530  0.804636  0.764107  1
  F  F6  1  0.518173  0.276795  0.133915  1
  F  F7  1  0.723205  0.481827  0.866085  1
  F  F8  1  0.487847  0.512153  0.500000  1
  F  F9  1  0.794720  0.786519  0.581029  1
  F  F10  1  0.213481  0.205280  0.418971  1
  F  F11  1  0.566478  0.829193  0.226655  1
  F  F12  1  0.170807  0.433522  0.773345  1
  F  F13  1  0.852048  0.498975  0.331221  1
  F  F14  1  0.501025  0.147952  0.668779  1
