# generated using pymatgen
data_MnHgAsO5
_symmetry_space_group_name_H-M   'P 1'
_cell_length_a   6.33316400
_cell_length_b   8.33708100
_cell_length_c   8.57320000
_cell_angle_alpha   90.00000000
_cell_angle_beta   90.00000000
_cell_angle_gamma   90.00000000
_symmetry_Int_Tables_number   1
_chemical_formula_structural   MnHgAsO5
_chemical_formula_sum   'Mn4 Hg4 As4 O20'
_cell_volume   452.66582807
_cell_formula_units_Z   4
loop_
 _symmetry_equiv_pos_site_id
 _symmetry_equiv_pos_as_xyz
  1  'x, y, z'
loop_
 _atom_site_type_symbol
 _atom_site_label
 _atom_site_symmetry_multiplicity
 _atom_site_fract_x
 _atom_site_fract_y
 _atom_site_fract_z
 _atom_site_occupancy
  Mn  Mn0  1  0.250233  0.750595  0.999369  1
  Mn  Mn1  1  0.249767  0.249405  0.499369  1
  Mn  Mn2  1  0.749767  0.250595  0.500631  1
  Mn  Mn3  1  0.750233  0.749405  0.000631  1
  Hg  Hg4  1  0.001207  0.820074  0.661423  1
  Hg  Hg5  1  0.498793  0.179926  0.161423  1
  Hg  Hg6  1  0.998793  0.320074  0.838577  1
  Hg  Hg7  1  0.501207  0.679926  0.338577  1
  As  As8  1  0.498187  0.077588  0.789448  1
  As  As9  1  0.001813  0.922412  0.289448  1
  As  As10  1  0.501813  0.577588  0.710552  1
  As  As11  1  0.998187  0.422412  0.210552  1
  O  O12  1  0.500363  0.897985  0.886305  1
  O  O13  1  0.999637  0.102015  0.386305  1
  O  O14  1  0.499637  0.397985  0.613695  1
  O  O15  1  0.000363  0.602015  0.113695  1
  O  O16  1  0.490892  0.232956  0.926021  1
  O  O17  1  0.009108  0.767044  0.426021  1
  O  O18  1  0.509108  0.732956  0.573979  1
  O  O19  1  0.990892  0.267044  0.073979  1
  O  O20  1  0.726388  0.097452  0.680324  1
  O  O21  1  0.773612  0.902548  0.180324  1
  O  O22  1  0.273612  0.597452  0.819676  1
  O  O23  1  0.226388  0.402548  0.319676  1
  O  O24  1  0.272533  0.094227  0.677045  1
  O  O25  1  0.227467  0.905773  0.177045  1
  O  O26  1  0.727467  0.594227  0.822955  1
  O  O27  1  0.772533  0.405773  0.322955  1
  O  O28  1  0.999316  0.843663  0.902723  1
  O  O29  1  0.500684  0.156337  0.402723  1
  O  O30  1  0.000684  0.343663  0.597277  1
  O  O31  1  0.499316  0.656337  0.097277  1
