# generated using pymatgen
data_Na3Nd8Gd9Pb16
_symmetry_space_group_name_H-M   'P 1'
_cell_length_a   8.26872700
_cell_length_b   8.35879813
_cell_length_c   15.84507200
_cell_angle_alpha   90.00000000
_cell_angle_beta   90.00000000
_cell_angle_gamma   90.04956524
_symmetry_Int_Tables_number   1
_chemical_formula_structural   Na3Nd8Gd9Pb16
_chemical_formula_sum   'Na3 Nd8 Gd9 Pb16'
_cell_volume   1095.15740680
_cell_formula_units_Z   1
loop_
 _symmetry_equiv_pos_site_id
 _symmetry_equiv_pos_as_xyz
  1  'x, y, z'
loop_
 _atom_site_type_symbol
 _atom_site_label
 _atom_site_symmetry_multiplicity
 _atom_site_fract_x
 _atom_site_fract_y
 _atom_site_fract_z
 _atom_site_occupancy
  Na  Na0  1  0.309741  0.000276  0.750000  1
  Na  Na1  1  0.189977  0.500201  0.250000  1
  Na  Na2  1  0.689894  0.998138  0.250000  1
  Nd  Nd3  1  0.483172  0.684125  0.597148  1
  Nd  Nd4  1  0.991144  0.822488  0.904551  1
  Nd  Nd5  1  0.511288  0.318741  0.095090  1
  Nd  Nd6  1  0.010352  0.183002  0.404822  1
  Nd  Nd7  1  0.511288  0.318741  0.404910  1
  Nd  Nd8  1  0.010352  0.183002  0.095178  1
  Nd  Nd9  1  0.483172  0.684125  0.902852  1
  Nd  Nd10  1  0.991144  0.822488  0.595449  1
  Gd  Gd11  1  0.636717  0.161826  0.624192  1
  Gd  Gd12  1  0.140662  0.334718  0.877233  1
  Gd  Gd13  1  0.363146  0.833467  0.124434  1
  Gd  Gd14  1  0.863201  0.661031  0.378154  1
  Gd  Gd15  1  0.363146  0.833467  0.375566  1
  Gd  Gd16  1  0.863201  0.661031  0.121846  1
  Gd  Gd17  1  0.636717  0.161826  0.875808  1
  Gd  Gd18  1  0.140662  0.334718  0.622767  1
  Gd  Gd19  1  0.810063  0.495455  0.750000  1
  Pb  Pb20  1  0.697100  0.957070  0.460570  1
  Pb  Pb21  1  0.201009  0.542082  0.038810  1
  Pb  Pb22  1  0.304123  0.043465  0.961985  1
  Pb  Pb23  1  0.800105  0.463285  0.544445  1
  Pb  Pb24  1  0.304123  0.043465  0.538015  1
  Pb  Pb25  1  0.800105  0.463285  0.955555  1
  Pb  Pb26  1  0.697100  0.957070  0.039430  1
  Pb  Pb27  1  0.201009  0.542082  0.461190  1
  Pb  Pb28  1  0.441454  0.386516  0.750000  1
  Pb  Pb29  1  0.948575  0.113884  0.750000  1
  Pb  Pb30  1  0.556502  0.609158  0.250000  1
  Pb  Pb31  1  0.053275  0.888525  0.250000  1
  Pb  Pb32  1  0.682700  0.853505  0.750000  1
  Pb  Pb33  1  0.175278  0.645271  0.750000  1
  Pb  Pb34  1  0.318131  0.144086  0.250000  1
  Pb  Pb35  1  0.820370  0.354383  0.250000  1
