# generated using pymatgen
data_Zr8Fe6CoSi14Ru
_symmetry_space_group_name_H-M   'P 1'
_cell_length_a   9.58300411
_cell_length_b   9.58842077
_cell_length_c   9.59249862
_cell_angle_alpha   94.05062928
_cell_angle_beta   94.07992083
_cell_angle_gamma   149.10679461
_symmetry_Int_Tables_number   1
_chemical_formula_structural   Zr8Fe6CoSi14Ru
_chemical_formula_sum   'Zr8 Fe6 Co1 Si14 Ru1'
_cell_volume   436.22742282
_cell_formula_units_Z   1
loop_
 _symmetry_equiv_pos_site_id
 _symmetry_equiv_pos_as_xyz
  1  'x, y, z'
loop_
 _atom_site_type_symbol
 _atom_site_label
 _atom_site_symmetry_multiplicity
 _atom_site_fract_x
 _atom_site_fract_y
 _atom_site_fract_z
 _atom_site_occupancy
  Zr  Zr0  1  0.138229  0.138271  0.276455  1
  Zr  Zr1  1  0.862546  0.862605  0.725188  1
  Zr  Zr2  1  0.862643  0.137802  0.001240  1
  Zr  Zr3  1  0.138595  0.863439  0.001238  1
  Zr  Zr4  1  0.499980  0.304177  0.804373  1
  Zr  Zr5  1  0.501159  0.697352  0.197373  1
  Zr  Zr6  1  0.696199  0.499965  0.197289  1
  Zr  Zr7  1  0.304385  0.500145  0.804293  1
  Fe  Fe8  1  0.103643  0.603670  0.207310  1
  Fe  Fe9  1  0.102257  0.898017  0.499793  1
  Fe  Fe10  1  0.397620  0.601793  0.499822  1
  Fe  Fe11  1  0.600750  0.397484  0.497414  1
  Fe  Fe12  1  0.896625  0.099921  0.497464  1
  Fe  Fe13  1  0.898135  0.398128  0.796278  1
  Co  Co14  1  0.601666  0.101685  0.203378  1
  Si  Si15  1  0.512154  0.105161  0.586157  1
  Si  Si16  1  0.496065  0.905569  0.406286  1
  Si  Si17  1  0.910279  0.500727  0.406287  1
  Si  Si18  1  0.074029  0.480935  0.586181  1
  Si  Si19  1  0.750248  0.750168  0.000762  1
  Si  Si20  1  0.250534  0.250589  0.000775  1
  Si  Si21  1  0.289482  0.289571  0.579245  1
  Si  Si22  1  0.710501  0.710593  0.420894  1
  Si  Si23  1  0.721879  0.301612  0.006596  1
  Si  Si24  1  0.284684  0.705018  0.006607  1
  Si  Si25  1  0.998744  0.302018  0.299638  1
  Si  Si26  1  0.989588  0.694644  0.698859  1
  Si  Si27  1  0.709288  0.004192  0.698756  1
  Si  Si28  1  0.300849  0.997501  0.299592  1
  Ru  Ru29  1  0.397248  0.897248  0.794460  1
