# generated using pymatgen
data_NdSm11Fe2Br17
_symmetry_space_group_name_H-M   'P 1'
_cell_length_a   9.40781788
_cell_length_b   11.41864193
_cell_length_c   11.35933800
_cell_angle_alpha   74.01078554
_cell_angle_beta   75.41596349
_cell_angle_gamma   65.47959713
_symmetry_Int_Tables_number   1
_chemical_formula_structural   NdSm11Fe2Br17
_chemical_formula_sum   'Nd1 Sm11 Fe2 Br17'
_cell_volume   1054.00106270
_cell_formula_units_Z   1
loop_
 _symmetry_equiv_pos_site_id
 _symmetry_equiv_pos_as_xyz
  1  'x, y, z'
loop_
 _atom_site_type_symbol
 _atom_site_label
 _atom_site_symmetry_multiplicity
 _atom_site_fract_x
 _atom_site_fract_y
 _atom_site_fract_z
 _atom_site_occupancy
  Nd  Nd0  1  0.135938  0.712232  0.148136  1
  Sm  Sm1  1  0.456826  0.481919  0.322647  1
  Sm  Sm2  1  0.558547  0.673057  0.003054  1
  Sm  Sm3  1  0.266114  0.992716  0.107422  1
  Sm  Sm4  1  0.867106  0.288680  0.851640  1
  Sm  Sm5  1  0.403737  0.239618  0.714098  1
  Sm  Sm6  1  0.732241  0.011764  0.891751  1
  Sm  Sm7  1  0.545663  0.513069  0.677880  1
  Sm  Sm8  1  0.445841  0.326768  0.992870  1
  Sm  Sm9  1  0.589979  0.759810  0.284581  1
  Sm  Sm10  1  0.826155  0.192572  0.579398  1
  Sm  Sm11  1  0.170366  0.808421  0.424958  1
  Fe  Fe12  1  0.363860  0.738044  0.213422  1
  Fe  Fe13  1  0.635447  0.261891  0.786309  1
  Br  Br14  1  0.057051  0.094490  0.327556  1
  Br  Br15  1  0.465204  0.950707  0.849797  1
  Br  Br16  1  0.424590  0.810671  0.533886  1
  Br  Br17  1  0.574183  0.188063  0.465654  1
  Br  Br18  1  0.832126  0.711237  0.049447  1
  Br  Br19  1  0.228679  0.421049  0.239313  1
  Br  Br20  1  0.681532  0.376577  0.098596  1
  Br  Br21  1  0.532545  0.047947  0.151197  1
  Br  Br22  1  0.732586  0.475238  0.420331  1
  Br  Br23  1  0.890820  0.784788  0.366655  1
  Br  Br24  1  0.944854  0.904934  0.673595  1
  Br  Br25  1  0.165566  0.289493  0.951380  1
  Br  Br26  1  0.322765  0.625488  0.899847  1
  Br  Br27  1  0.999856  0.001534  0.000941  1
  Br  Br28  1  0.108075  0.216378  0.635787  1
  Br  Br29  1  0.775913  0.576221  0.760969  1
  Br  Br30  1  0.265837  0.524623  0.576882  1
