# generated using pymatgen
data_EuTcAs2Rh
_symmetry_space_group_name_H-M   'P 1'
_cell_length_a   6.26004195
_cell_length_b   6.26004189
_cell_length_c   6.26004125
_cell_angle_alpha   140.58074784
_cell_angle_beta   140.58075129
_cell_angle_gamma   56.97256211
_symmetry_Int_Tables_number   1
_chemical_formula_structural   EuTcAs2Rh
_chemical_formula_sum   'Eu1 Tc1 As2 Rh1'
_cell_volume   98.09781308
_cell_formula_units_Z   1
loop_
 _symmetry_equiv_pos_site_id
 _symmetry_equiv_pos_as_xyz
  1  'x, y, z'
loop_
 _atom_site_type_symbol
 _atom_site_label
 _atom_site_symmetry_multiplicity
 _atom_site_fract_x
 _atom_site_fract_y
 _atom_site_fract_z
 _atom_site_occupancy
  Eu  Eu0  1  0.000000  0.000000  0.000000  1
  Tc  Tc1  1  0.750000  0.250000  0.500000  1
  As  As2  1  0.635174  0.635174  0.000000  1
  As  As3  1  0.364826  0.364826  0.000000  1
  Rh  Rh4  1  0.250000  0.750000  0.500000  1
