# generated using pymatgen
data_Dy10In8Cu3Ir
_symmetry_space_group_name_H-M   'P 1'
_cell_length_a   3.64039500
_cell_length_b   8.06943235
_cell_length_c   18.04904071
_cell_angle_alpha   90.03290884
_cell_angle_beta   90.00000000
_cell_angle_gamma   90.00000000
_symmetry_Int_Tables_number   1
_chemical_formula_structural   Dy10In8Cu3Ir
_chemical_formula_sum   'Dy10 In8 Cu3 Ir1'
_cell_volume   530.20710971
_cell_formula_units_Z   1
loop_
 _symmetry_equiv_pos_site_id
 _symmetry_equiv_pos_as_xyz
  1  'x, y, z'
loop_
 _atom_site_type_symbol
 _atom_site_label
 _atom_site_symmetry_multiplicity
 _atom_site_fract_x
 _atom_site_fract_y
 _atom_site_fract_z
 _atom_site_occupancy
  Dy  Dy0  1  0.500000  0.380205  0.584089  1
  Dy  Dy1  1  0.500000  0.879151  0.915370  1
  Dy  Dy2  1  0.500000  0.116362  0.085587  1
  Dy  Dy3  1  0.500000  0.758228  0.720725  1
  Dy  Dy4  1  0.500000  0.259815  0.779583  1
  Dy  Dy5  1  0.500000  0.501457  0.000015  1
  Dy  Dy6  1  0.500000  0.757099  0.219387  1
  Dy  Dy7  1  0.500000  0.230510  0.278273  1
  Dy  Dy8  1  0.500000  0.002237  0.500173  1
  Dy  Dy9  1  0.500000  0.618901  0.416512  1
  In  In10  1  0.000000  0.792854  0.067563  1
  In  In11  1  0.000000  0.924351  0.352223  1
  In  In12  1  0.000000  0.074206  0.650148  1
  In  In13  1  0.000000  0.573524  0.849711  1
  In  In14  1  0.000000  0.707419  0.569298  1
  In  In15  1  0.000000  0.207031  0.930710  1
  In  In16  1  0.000000  0.294318  0.431343  1
  In  In17  1  0.000000  0.425752  0.150876  1
  Cu  Cu18  1  0.000000  0.974802  0.802146  1
  Cu  Cu19  1  0.000000  0.523217  0.302506  1
  Cu  Cu20  1  0.000000  0.474234  0.697644  1
  Ir  Ir21  1  0.000000  0.024326  0.196119  1
