# generated using pymatgen
data_Y3Ho5(InPd)2
_symmetry_space_group_name_H-M   'P 1'
_cell_length_a   9.71053439
_cell_length_b   9.71053556
_cell_length_c   9.71053500
_cell_angle_alpha   59.99999849
_cell_angle_beta   59.99999451
_cell_angle_gamma   59.99999835
_symmetry_Int_Tables_number   1
_chemical_formula_structural   Y3Ho5(InPd)2
_chemical_formula_sum   'Y6 Ho10 In4 Pd4'
_cell_volume   647.46223947
_cell_formula_units_Z   2
loop_
 _symmetry_equiv_pos_site_id
 _symmetry_equiv_pos_as_xyz
  1  'x, y, z'
loop_
 _atom_site_type_symbol
 _atom_site_label
 _atom_site_symmetry_multiplicity
 _atom_site_fract_x
 _atom_site_fract_y
 _atom_site_fract_z
 _atom_site_occupancy
  Y  Y0  1  0.937042  0.562958  0.562958  1
  Y  Y1  1  0.562958  0.937042  0.937042  1
  Y  Y2  1  0.562958  0.937042  0.562958  1
  Y  Y3  1  0.937042  0.562958  0.937042  1
  Y  Y4  1  0.562958  0.562958  0.937042  1
  Y  Y5  1  0.937042  0.937042  0.562958  1
  Ho  Ho6  1  0.352761  0.352761  0.352761  1
  Ho  Ho7  1  0.352761  0.352761  0.941715  1
  Ho  Ho8  1  0.352761  0.941715  0.352761  1
  Ho  Ho9  1  0.941715  0.352761  0.352761  1
  Ho  Ho10  1  0.810606  0.189394  0.189394  1
  Ho  Ho11  1  0.189394  0.810606  0.810606  1
  Ho  Ho12  1  0.189394  0.810606  0.189394  1
  Ho  Ho13  1  0.810606  0.189394  0.810606  1
  Ho  Ho14  1  0.189394  0.189394  0.810606  1
  Ho  Ho15  1  0.810606  0.810606  0.189394  1
  In  In16  1  0.583385  0.583385  0.583385  1
  In  In17  1  0.583385  0.583385  0.249848  1
  In  In18  1  0.583385  0.249848  0.583385  1
  In  In19  1  0.249848  0.583385  0.583385  1
  Pd  Pd20  1  0.144079  0.144079  0.144079  1
  Pd  Pd21  1  0.144079  0.144079  0.567761  1
  Pd  Pd22  1  0.144079  0.567761  0.144079  1
  Pd  Pd23  1  0.567761  0.144079  0.144079  1
