# generated using pymatgen
data_Ta4Co2SbS12
_symmetry_space_group_name_H-M   'P 1'
_cell_length_a   6.96916061
_cell_length_b   6.96916025
_cell_length_c   19.15457491
_cell_angle_alpha   73.35431738
_cell_angle_beta   73.35431845
_cell_angle_gamma   27.67169803
_symmetry_Int_Tables_number   1
_chemical_formula_structural   Ta4Co2SbS12
_chemical_formula_sum   'Ta4 Co2 Sb1 S12'
_cell_volume   412.81714418
_cell_formula_units_Z   1
loop_
 _symmetry_equiv_pos_site_id
 _symmetry_equiv_pos_as_xyz
  1  'x, y, z'
loop_
 _atom_site_type_symbol
 _atom_site_label
 _atom_site_symmetry_multiplicity
 _atom_site_fract_x
 _atom_site_fract_y
 _atom_site_fract_z
 _atom_site_occupancy
  Ta  Ta0  1  0.633267  0.633267  0.837032  1
  Ta  Ta1  1  0.366733  0.366733  0.162968  1
  Ta  Ta2  1  0.742146  0.742146  0.590233  1
  Ta  Ta3  1  0.257854  0.257854  0.409767  1
  Co  Co4  1  0.232444  0.232444  0.712004  1
  Co  Co5  1  0.767556  0.767556  0.287996  1
  Sb  Sb6  1  0.000000  0.000000  0.000000  1
  S  S7  1  0.990336  0.990336  0.862401  1
  S  S8  1  0.009664  0.009664  0.137599  1
  S  S9  1  0.636475  0.636475  0.393367  1
  S  S10  1  0.363525  0.363525  0.606633  1
  S  S11  1  0.141231  0.141231  0.543983  1
  S  S12  1  0.858769  0.858769  0.456017  1
  S  S13  1  0.807056  0.807056  0.757684  1
  S  S14  1  0.192944  0.192944  0.242316  1
  S  S15  1  0.196141  0.196141  0.911164  1
  S  S16  1  0.803859  0.803859  0.088836  1
  S  S17  1  0.616131  0.616131  0.709593  1
  S  S18  1  0.383869  0.383869  0.290407  1
