# generated using pymatgen
data_Eu2TcMoO7
_symmetry_space_group_name_H-M   'P 1'
_cell_length_a   7.43126228
_cell_length_b   7.42744581
_cell_length_c   7.42744470
_cell_angle_alpha   59.78364706
_cell_angle_beta   59.98299730
_cell_angle_gamma   59.98299380
_symmetry_Int_Tables_number   1
_chemical_formula_structural   Eu2TcMoO7
_chemical_formula_sum   'Eu4 Tc2 Mo2 O14'
_cell_volume   289.33439182
_cell_formula_units_Z   2
loop_
 _symmetry_equiv_pos_site_id
 _symmetry_equiv_pos_as_xyz
  1  'x, y, z'
loop_
 _atom_site_type_symbol
 _atom_site_label
 _atom_site_symmetry_multiplicity
 _atom_site_fract_x
 _atom_site_fract_y
 _atom_site_fract_z
 _atom_site_occupancy
  Eu  Eu0  1  0.625000  0.125000  0.125000  1
  Eu  Eu1  1  0.125000  0.625000  0.125000  1
  Eu  Eu2  1  0.125000  0.125000  0.625000  1
  Eu  Eu3  1  0.125000  0.125000  0.125000  1
  Tc  Tc4  1  0.625000  0.125000  0.625000  1
  Tc  Tc5  1  0.625000  0.625000  0.125000  1
  Mo  Mo6  1  0.125000  0.625000  0.625000  1
  Mo  Mo7  1  0.625000  0.625000  0.625000  1
  O  O8  1  0.251374  0.248626  0.248626  1
  O  O9  1  0.998626  0.001374  0.001374  1
  O  O10  1  0.700986  0.701502  0.296481  1
  O  O11  1  0.301031  0.296481  0.701502  1
  O  O12  1  0.700986  0.296481  0.701502  1
  O  O13  1  0.301031  0.701502  0.296481  1
  O  O14  1  0.294628  0.705372  0.705372  1
  O  O15  1  0.699536  0.300464  0.300464  1
  O  O16  1  0.549014  0.548498  0.953519  1
  O  O17  1  0.948969  0.953519  0.548498  1
  O  O18  1  0.549014  0.953519  0.548498  1
  O  O19  1  0.948969  0.548498  0.953519  1
  O  O20  1  0.955372  0.544628  0.544628  1
  O  O21  1  0.550464  0.949536  0.949536  1
