# generated using pymatgen
data_Nd7Pa(Nb3Si4)4
_symmetry_space_group_name_H-M   'P 1'
_cell_length_a   6.98547603
_cell_length_b   7.20777746
_cell_length_c   13.59464600
_cell_angle_alpha   89.92578662
_cell_angle_beta   89.99439795
_cell_angle_gamma   89.96408638
_symmetry_Int_Tables_number   1
_chemical_formula_structural   Nd7Pa(Nb3Si4)4
_chemical_formula_sum   'Nd7 Pa1 Nb12 Si16'
_cell_volume   684.48640682
_cell_formula_units_Z   1
loop_
 _symmetry_equiv_pos_site_id
 _symmetry_equiv_pos_as_xyz
  1  'x, y, z'
loop_
 _atom_site_type_symbol
 _atom_site_label
 _atom_site_symmetry_multiplicity
 _atom_site_fract_x
 _atom_site_fract_y
 _atom_site_fract_z
 _atom_site_occupancy
  Nd  Nd0  1  0.502459  0.331038  0.095791  1
  Nd  Nd1  1  0.004974  0.169393  0.403846  1
  Nd  Nd2  1  0.495668  0.668823  0.596548  1
  Nd  Nd3  1  0.995569  0.830202  0.904180  1
  Nd  Nd4  1  0.495116  0.669958  0.903657  1
  Nd  Nd5  1  0.994750  0.830262  0.596484  1
  Nd  Nd6  1  0.503991  0.330890  0.403604  1
  Pa  Pa7  1  0.004752  0.171268  0.096998  1
  Nb  Nb8  1  0.662248  0.011143  0.750379  1
  Nb  Nb9  1  0.162856  0.488087  0.751191  1
  Nb  Nb10  1  0.334651  0.991623  0.248094  1
  Nb  Nb11  1  0.838187  0.507716  0.248031  1
  Nb  Nb12  1  0.838360  0.324243  0.627177  1
  Nb  Nb13  1  0.335550  0.174404  0.875013  1
  Nb  Nb14  1  0.161496  0.675626  0.126243  1
  Nb  Nb15  1  0.662705  0.824498  0.371945  1
  Nb  Nb16  1  0.162635  0.674950  0.372264  1
  Nb  Nb17  1  0.667343  0.828480  0.125458  1
  Nb  Nb18  1  0.840268  0.321641  0.875495  1
  Nb  Nb19  1  0.337595  0.175155  0.626678  1
  Si  Si20  1  0.797851  0.615603  0.750619  1
  Si  Si21  1  0.297406  0.884186  0.750135  1
  Si  Si22  1  0.200117  0.381691  0.248912  1
  Si  Si23  1  0.702929  0.117644  0.249022  1
  Si  Si24  1  0.542020  0.370424  0.750937  1
  Si  Si25  1  0.041244  0.127430  0.750086  1
  Si  Si26  1  0.458279  0.631116  0.248709  1
  Si  Si27  1  0.959930  0.873927  0.249337  1
  Si  Si28  1  0.657317  0.040191  0.542844  1
  Si  Si29  1  0.158147  0.457909  0.958565  1
  Si  Si30  1  0.338791  0.961537  0.043241  1
  Si  Si31  1  0.841988  0.540219  0.456799  1
  Si  Si32  1  0.342637  0.959277  0.457068  1
  Si  Si33  1  0.841273  0.538336  0.043597  1
  Si  Si34  1  0.661074  0.041065  0.958085  1
  Si  Si35  1  0.157827  0.460046  0.542965  1
