# generated using pymatgen
data_Li3Tb4GaPt4
_symmetry_space_group_name_H-M   'P 1'
_cell_length_a   4.05598200
_cell_length_b   7.05906600
_cell_length_c   8.41477805
_cell_angle_alpha   89.99532532
_cell_angle_beta   90.00000000
_cell_angle_gamma   90.00000000
_symmetry_Int_Tables_number   1
_chemical_formula_structural   Li3Tb4GaPt4
_chemical_formula_sum   'Li3 Tb4 Ga1 Pt4'
_cell_volume   240.92725113
_cell_formula_units_Z   1
loop_
 _symmetry_equiv_pos_site_id
 _symmetry_equiv_pos_as_xyz
  1  'x, y, z'
loop_
 _atom_site_type_symbol
 _atom_site_label
 _atom_site_symmetry_multiplicity
 _atom_site_fract_x
 _atom_site_fract_y
 _atom_site_fract_z
 _atom_site_occupancy
  Li  Li0  1  0.750000  0.631441  0.437508  1
  Li  Li1  1  0.250000  0.369687  0.560210  1
  Li  Li2  1  0.750000  0.129636  0.059886  1
  Tb  Tb3  1  0.750000  0.545613  0.817744  1
  Tb  Tb4  1  0.250000  0.955103  0.316346  1
  Tb  Tb5  1  0.250000  0.457493  0.183051  1
  Tb  Tb6  1  0.750000  0.040660  0.685293  1
  Ga  Ga7  1  0.250000  0.872860  0.940079  1
  Pt  Pt8  1  0.250000  0.752294  0.625651  1
  Pt  Pt9  1  0.250000  0.248405  0.881811  1
  Pt  Pt10  1  0.750000  0.752657  0.114517  1
  Pt  Pt11  1  0.750000  0.244151  0.377903  1
