# generated using pymatgen
data_Hf11Ta9Si16
_symmetry_space_group_name_H-M   'P 1'
_cell_length_a   6.90423356
_cell_length_b   6.89500579
_cell_length_c   12.70856341
_cell_angle_alpha   90.11719663
_cell_angle_beta   89.85704767
_cell_angle_gamma   90.00196388
_symmetry_Int_Tables_number   1
_chemical_formula_structural   Hf11Ta9Si16
_chemical_formula_sum   'Hf11 Ta9 Si16'
_cell_volume   604.98458542
_cell_formula_units_Z   1
loop_
 _symmetry_equiv_pos_site_id
 _symmetry_equiv_pos_as_xyz
  1  'x, y, z'
loop_
 _atom_site_type_symbol
 _atom_site_label
 _atom_site_symmetry_multiplicity
 _atom_site_fract_x
 _atom_site_fract_y
 _atom_site_fract_z
 _atom_site_occupancy
  Hf  Hf0  1  0.499868  0.351241  0.622683  1
  Hf  Hf1  1  0.501925  0.649314  0.124290  1
  Hf  Hf2  1  0.147563  0.998413  0.873801  1
  Hf  Hf3  1  0.001846  0.655018  0.032540  1
  Hf  Hf4  1  0.998978  0.343444  0.529786  1
  Hf  Hf5  1  0.658047  0.000047  0.969503  1
  Hf  Hf6  1  0.154423  0.498725  0.780618  1
  Hf  Hf7  1  0.844412  0.501259  0.281224  1
  Hf  Hf8  1  0.500880  0.158316  0.220525  1
  Hf  Hf9  1  0.501969  0.841869  0.718387  1
  Hf  Hf10  1  0.341170  0.000910  0.468831  1
  Ta  Ta11  1  0.348252  0.507334  0.376395  1
  Ta  Ta12  1  0.852112  0.998758  0.373887  1
  Ta  Ta13  1  0.006831  0.151797  0.126285  1
  Ta  Ta14  1  0.992769  0.849475  0.626414  1
  Ta  Ta15  1  0.650909  0.491871  0.875954  1
  Ta  Ta16  1  0.670269  0.673194  0.499053  1
  Ta  Ta17  1  0.827117  0.169617  0.749523  1
  Ta  Ta18  1  0.172248  0.832444  0.251633  1
  Ta  Ta19  1  0.330485  0.327329  0.000184  1
  Si  Si20  1  0.043471  0.701536  0.436335  1
  Si  Si21  1  0.955601  0.301023  0.936055  1
  Si  Si22  1  0.699709  0.044175  0.562650  1
  Si  Si23  1  0.200606  0.454859  0.186512  1
  Si  Si24  1  0.800602  0.544769  0.685406  1
  Si  Si25  1  0.454830  0.197406  0.814123  1
  Si  Si26  1  0.547053  0.803059  0.315092  1
  Si  Si27  1  0.302308  0.955772  0.064912  1
  Si  Si28  1  0.855241  0.789934  0.822423  1
  Si  Si29  1  0.139179  0.209651  0.323719  1
  Si  Si30  1  0.798949  0.863981  0.178189  1
  Si  Si31  1  0.289940  0.643788  0.572802  1
  Si  Si32  1  0.709602  0.355669  0.072807  1
  Si  Si33  1  0.637491  0.294309  0.424574  1
  Si  Si34  1  0.361907  0.701123  0.926727  1
  Si  Si35  1  0.201441  0.138568  0.676154  1
