# generated using pymatgen
data_Eu6Mo2HN6
_symmetry_space_group_name_H-M   'P 1'
_cell_length_a   6.33182144
_cell_length_b   6.33182022
_cell_length_c   6.33182278
_cell_angle_alpha   95.49600413
_cell_angle_beta   95.49600646
_cell_angle_gamma   95.49601199
_symmetry_Int_Tables_number   1
_chemical_formula_structural   Eu6Mo2HN6
_chemical_formula_sum   'Eu6 Mo2 H1 N6'
_cell_volume   250.11155722
_cell_formula_units_Z   1
loop_
 _symmetry_equiv_pos_site_id
 _symmetry_equiv_pos_as_xyz
  1  'x, y, z'
loop_
 _atom_site_type_symbol
 _atom_site_label
 _atom_site_symmetry_multiplicity
 _atom_site_fract_x
 _atom_site_fract_y
 _atom_site_fract_z
 _atom_site_occupancy
  Eu  Eu0  1  0.630853  0.118716  0.788346  1
  Eu  Eu1  1  0.118716  0.788346  0.630853  1
  Eu  Eu2  1  0.788346  0.630853  0.118716  1
  Eu  Eu3  1  0.369147  0.881284  0.211654  1
  Eu  Eu4  1  0.881284  0.211654  0.369147  1
  Eu  Eu5  1  0.211654  0.369147  0.881284  1
  Mo  Mo6  1  0.626513  0.626513  0.626513  1
  Mo  Mo7  1  0.373487  0.373487  0.373487  1
  H  H8  1  0.000000  0.000000  0.000000  1
  N  N9  1  0.735047  0.859801  0.472201  1
  N  N10  1  0.859801  0.472201  0.735047  1
  N  N11  1  0.472201  0.735047  0.859801  1
  N  N12  1  0.264953  0.140199  0.527799  1
  N  N13  1  0.140199  0.527799  0.264953  1
  N  N14  1  0.527799  0.264953  0.140199  1
