# generated using pymatgen
data_TaNb2RhS10
_symmetry_space_group_name_H-M   'P 1'
_cell_length_a   3.39746900
_cell_length_b   9.60924054
_cell_length_c   9.93758940
_cell_angle_alpha   67.68421374
_cell_angle_beta   90.00000000
_cell_angle_gamma   90.00000000
_symmetry_Int_Tables_number   1
_chemical_formula_structural   TaNb2RhS10
_chemical_formula_sum   'Ta1 Nb2 Rh1 S10'
_cell_volume   300.13504472
_cell_formula_units_Z   1
loop_
 _symmetry_equiv_pos_site_id
 _symmetry_equiv_pos_as_xyz
  1  'x, y, z'
loop_
 _atom_site_type_symbol
 _atom_site_label
 _atom_site_symmetry_multiplicity
 _atom_site_fract_x
 _atom_site_fract_y
 _atom_site_fract_z
 _atom_site_occupancy
  Ta  Ta0  1  0.500000  0.451038  0.909206  1
  Nb  Nb1  1  0.000000  0.296846  0.628354  1
  Nb  Nb2  1  0.500000  0.704292  0.365896  1
  Rh  Rh3  1  0.000000  0.547674  0.109644  1
  S  S4  1  0.500000  0.085177  0.736729  1
  S  S5  1  0.000000  0.917765  0.256102  1
  S  S6  1  0.500000  0.493691  0.628872  1
  S  S7  1  0.000000  0.510553  0.363335  1
  S  S8  1  0.500000  0.173499  0.515341  1
  S  S9  1  0.000000  0.829682  0.477200  1
  S  S10  1  0.000000  0.264374  0.899934  1
  S  S11  1  0.500000  0.724380  0.098751  1
  S  S12  1  0.000000  0.649386  0.848051  1
  S  S13  1  0.500000  0.351643  0.162584  1
