# generated using pymatgen
data_Ba2FeCoRhN3
_symmetry_space_group_name_H-M   'P 1'
_cell_length_a   6.82132795
_cell_length_b   6.75825697
_cell_length_c   6.73878066
_cell_angle_alpha   88.71618678
_cell_angle_beta   89.72262902
_cell_angle_gamma   117.49730766
_symmetry_Int_Tables_number   1
_chemical_formula_structural   Ba2FeCoRhN3
_chemical_formula_sum   'Ba4 Fe2 Co2 Rh2 N6'
_cell_volume   275.45571397
_cell_formula_units_Z   2
loop_
 _symmetry_equiv_pos_site_id
 _symmetry_equiv_pos_as_xyz
  1  'x, y, z'
loop_
 _atom_site_type_symbol
 _atom_site_label
 _atom_site_symmetry_multiplicity
 _atom_site_fract_x
 _atom_site_fract_y
 _atom_site_fract_z
 _atom_site_occupancy
  Ba  Ba0  1  0.834824  0.672609  0.901596  1
  Ba  Ba1  1  0.325852  0.162375  0.598906  1
  Ba  Ba2  1  0.165176  0.327391  0.098404  1
  Ba  Ba3  1  0.674148  0.837625  0.401094  1
  Fe  Fe4  1  0.847547  0.445004  0.390861  1
  Fe  Fe5  1  0.152453  0.554996  0.609139  1
  Co  Co6  1  0.557476  0.151020  0.104541  1
  Co  Co7  1  0.442524  0.848980  0.895459  1
  Rh  Rh8  1  0.808352  0.197900  0.748769  1
  Rh  Rh9  1  0.191648  0.802100  0.251231  1
  N  N10  1  0.385586  0.610701  0.747529  1
  N  N11  1  0.614414  0.389299  0.252471  1
  N  N12  1  0.012637  0.714337  0.506393  1
  N  N13  1  0.718785  0.016662  0.999594  1
  N  N14  1  0.987363  0.285663  0.493607  1
  N  N15  1  0.281215  0.983338  0.000406  1
