# generated using pymatgen
data_Y3Tm(TiIr)4
_symmetry_space_group_name_H-M   'P 1'
_cell_length_a   4.42006200
_cell_length_b   6.88997260
_cell_length_c   8.09638200
_cell_angle_alpha   90.41599429
_cell_angle_beta   90.00000000
_cell_angle_gamma   90.00000000
_symmetry_Int_Tables_number   1
_chemical_formula_structural   Y3Tm(TiIr)4
_chemical_formula_sum   'Y3 Tm1 Ti4 Ir4'
_cell_volume   246.56157738
_cell_formula_units_Z   1
loop_
 _symmetry_equiv_pos_site_id
 _symmetry_equiv_pos_as_xyz
  1  'x, y, z'
loop_
 _atom_site_type_symbol
 _atom_site_label
 _atom_site_symmetry_multiplicity
 _atom_site_fract_x
 _atom_site_fract_y
 _atom_site_fract_z
 _atom_site_occupancy
  Y  Y0  1  0.250000  0.486420  0.183736  1
  Y  Y1  1  0.750000  0.014032  0.682563  1
  Y  Y2  1  0.750000  0.514949  0.816874  1
  Tm  Tm3  1  0.250000  0.983625  0.317704  1
  Ti  Ti4  1  0.250000  0.359335  0.566361  1
  Ti  Ti5  1  0.250000  0.862795  0.933557  1
  Ti  Ti6  1  0.750000  0.638133  0.430920  1
  Ti  Ti7  1  0.750000  0.140871  0.070862  1
  Ir  Ir8  1  0.250000  0.220655  0.908309  1
  Ir  Ir9  1  0.250000  0.719402  0.588986  1
  Ir  Ir10  1  0.750000  0.782866  0.093738  1
  Ir  Ir11  1  0.750000  0.276920  0.406391  1
