# generated using pymatgen
data_Nd6EuPtI12
_symmetry_space_group_name_H-M   'P 1'
_cell_length_a   10.05578168
_cell_length_b   10.05578285
_cell_length_c   10.05578272
_cell_angle_alpha   106.60666550
_cell_angle_beta   106.60666378
_cell_angle_gamma   106.60666338
_symmetry_Int_Tables_number   1
_chemical_formula_structural   Nd6EuPtI12
_chemical_formula_sum   'Nd6 Eu1 Pt1 I12'
_cell_volume   855.74795500
_cell_formula_units_Z   1
loop_
 _symmetry_equiv_pos_site_id
 _symmetry_equiv_pos_as_xyz
  1  'x, y, z'
loop_
 _atom_site_type_symbol
 _atom_site_label
 _atom_site_symmetry_multiplicity
 _atom_site_fract_x
 _atom_site_fract_y
 _atom_site_fract_z
 _atom_site_occupancy
  Nd  Nd0  1  0.400331  0.475776  0.194935  1
  Nd  Nd1  1  0.194935  0.400331  0.475776  1
  Nd  Nd2  1  0.475776  0.194935  0.400331  1
  Nd  Nd3  1  0.599669  0.524224  0.805065  1
  Nd  Nd4  1  0.805065  0.599669  0.524224  1
  Nd  Nd5  1  0.524224  0.805065  0.599669  1
  Eu  Eu6  1  0.000000  0.000000  0.000000  1
  Pt  Pt7  1  0.500000  0.500000  0.500000  1
  I  I8  1  0.042894  0.351050  0.122436  1
  I  I9  1  0.122436  0.042894  0.351050  1
  I  I10  1  0.351050  0.122436  0.042894  1
  I  I11  1  0.957106  0.648950  0.877564  1
  I  I12  1  0.877564  0.957106  0.648950  1
  I  I13  1  0.648950  0.877564  0.957106  1
  I  I14  1  0.725408  0.574519  0.178890  1
  I  I15  1  0.178890  0.725408  0.574519  1
  I  I16  1  0.574519  0.178890  0.725408  1
  I  I17  1  0.274592  0.425481  0.821110  1
  I  I18  1  0.821110  0.274592  0.425481  1
  I  I19  1  0.425481  0.821110  0.274592  1
