# generated using pymatgen
data_SmDyY(Co3P2)3
_symmetry_space_group_name_H-M   'P 1'
_cell_length_a   3.71158900
_cell_length_b   10.53705100
_cell_length_c   12.21230500
_cell_angle_alpha   90.00000000
_cell_angle_beta   90.00000000
_cell_angle_gamma   90.00000000
_symmetry_Int_Tables_number   1
_chemical_formula_structural   SmDyY(Co3P2)3
_chemical_formula_sum   'Sm2 Dy2 Y2 Co18 P12'
_cell_volume   477.61351026
_cell_formula_units_Z   2
loop_
 _symmetry_equiv_pos_site_id
 _symmetry_equiv_pos_as_xyz
  1  'x, y, z'
loop_
 _atom_site_type_symbol
 _atom_site_label
 _atom_site_symmetry_multiplicity
 _atom_site_fract_x
 _atom_site_fract_y
 _atom_site_fract_z
 _atom_site_occupancy
  Sm  Sm0  1  0.000000  0.500000  0.521797  1
  Sm  Sm1  1  0.500000  0.000000  0.477989  1
  Dy  Dy2  1  0.500000  0.817417  0.205320  1
  Dy  Dy3  1  0.500000  0.182583  0.205320  1
  Y  Y4  1  0.000000  0.682670  0.794733  1
  Y  Y5  1  0.000000  0.317330  0.794733  1
  Co  Co6  1  0.500000  0.500000  0.157364  1
  Co  Co7  1  0.000000  0.000000  0.842796  1
  Co  Co8  1  0.500000  0.500000  0.704969  1
  Co  Co9  1  0.000000  0.000000  0.294820  1
  Co  Co10  1  0.000000  0.500000  0.986661  1
  Co  Co11  1  0.500000  0.000000  0.013709  1
  Co  Co12  1  0.500000  0.333308  0.995108  1
  Co  Co13  1  0.500000  0.666692  0.995108  1
  Co  Co14  1  0.000000  0.166606  0.005227  1
  Co  Co15  1  0.000000  0.833394  0.005227  1
  Co  Co16  1  0.500000  0.296916  0.429519  1
  Co  Co17  1  0.500000  0.703084  0.429519  1
  Co  Co18  1  0.000000  0.203031  0.570209  1
  Co  Co19  1  0.000000  0.796969  0.570209  1
  Co  Co20  1  0.500000  0.879688  0.711433  1
  Co  Co21  1  0.500000  0.120312  0.711433  1
  Co  Co22  1  0.000000  0.620451  0.288428  1
  Co  Co23  1  0.000000  0.379549  0.288428  1
  P  P24  1  0.500000  0.500000  0.883521  1
  P  P25  1  0.000000  0.000000  0.116629  1
  P  P26  1  0.500000  0.500000  0.341037  1
  P  P27  1  0.000000  0.000000  0.658899  1
  P  P28  1  0.500000  0.308629  0.616509  1
  P  P29  1  0.500000  0.691371  0.616509  1
  P  P30  1  0.000000  0.191413  0.383222  1
  P  P31  1  0.000000  0.808587  0.383222  1
  P  P32  1  0.500000  0.847217  0.894020  1
  P  P33  1  0.500000  0.152783  0.894020  1
  P  P34  1  0.000000  0.653025  0.106175  1
  P  P35  1  0.000000  0.346975  0.106175  1
