# generated using pymatgen
data_EuPd4Pb
_symmetry_space_group_name_H-M   'P 1'
_cell_length_a   5.46680611
_cell_length_b   5.46680650
_cell_length_c   5.46680600
_cell_angle_alpha   60.00000300
_cell_angle_beta   60.00000066
_cell_angle_gamma   60.00000278
_symmetry_Int_Tables_number   1
_chemical_formula_structural   EuPd4Pb
_chemical_formula_sum   'Eu1 Pd4 Pb1'
_cell_volume   115.52768175
_cell_formula_units_Z   1
loop_
 _symmetry_equiv_pos_site_id
 _symmetry_equiv_pos_as_xyz
  1  'x, y, z'
loop_
 _atom_site_type_symbol
 _atom_site_label
 _atom_site_symmetry_multiplicity
 _atom_site_fract_x
 _atom_site_fract_y
 _atom_site_fract_z
 _atom_site_occupancy
  Eu  Eu0  1  0.500000  0.500000  0.500000  1
  Pd  Pd1  1  0.124753  0.124753  0.625742  1
  Pd  Pd2  1  0.124753  0.625742  0.124753  1
  Pd  Pd3  1  0.124753  0.124753  0.124753  1
  Pd  Pd4  1  0.625742  0.124753  0.124753  1
  Pb  Pb5  1  0.750000  0.750000  0.750000  1
