# generated using pymatgen
data_DyErZn2(Ni3B)2
_symmetry_space_group_name_H-M   'P 1'
_cell_length_a   5.13440100
_cell_length_b   5.13439964
_cell_length_c   6.86245800
_cell_angle_alpha   90.00000000
_cell_angle_beta   90.00000000
_cell_angle_gamma   119.99998941
_symmetry_Int_Tables_number   1
_chemical_formula_structural   DyErZn2(Ni3B)2
_chemical_formula_sum   'Dy1 Er1 Zn2 Ni6 B2'
_cell_volume   156.67143871
_cell_formula_units_Z   1
loop_
 _symmetry_equiv_pos_site_id
 _symmetry_equiv_pos_as_xyz
  1  'x, y, z'
loop_
 _atom_site_type_symbol
 _atom_site_label
 _atom_site_symmetry_multiplicity
 _atom_site_fract_x
 _atom_site_fract_y
 _atom_site_fract_z
 _atom_site_occupancy
  Dy  Dy0  1  0.000000  0.000000  0.000000  1
  Er  Er1  1  0.000000  0.000000  0.500000  1
  Zn  Zn2  1  0.333333  0.666667  0.000000  1
  Zn  Zn3  1  0.666667  0.333333  0.000000  1
  Ni  Ni4  1  0.500000  0.000000  0.299217  1
  Ni  Ni5  1  0.500000  0.500000  0.299217  1
  Ni  Ni6  1  0.000000  0.500000  0.299217  1
  Ni  Ni7  1  0.500000  0.000000  0.700783  1
  Ni  Ni8  1  0.500000  0.500000  0.700783  1
  Ni  Ni9  1  0.000000  0.500000  0.700783  1
  B  B10  1  0.666667  0.333333  0.500000  1
  B  B11  1  0.333333  0.666667  0.500000  1
