# generated using pymatgen
data_Dy12Tc2IrOs
_symmetry_space_group_name_H-M   'P 1'
_cell_length_a   6.29930542
_cell_length_b   7.40629398
_cell_length_c   9.13746900
_cell_angle_alpha   90.00000000
_cell_angle_beta   90.00000000
_cell_angle_gamma   90.02094929
_symmetry_Int_Tables_number   1
_chemical_formula_structural   Dy12Tc2IrOs
_chemical_formula_sum   'Dy12 Tc2 Ir1 Os1'
_cell_volume   426.30409010
_cell_formula_units_Z   1
loop_
 _symmetry_equiv_pos_site_id
 _symmetry_equiv_pos_as_xyz
  1  'x, y, z'
loop_
 _atom_site_type_symbol
 _atom_site_label
 _atom_site_symmetry_multiplicity
 _atom_site_fract_x
 _atom_site_fract_y
 _atom_site_fract_z
 _atom_site_occupancy
  Dy  Dy0  1  0.333131  0.674258  0.062300  1
  Dy  Dy1  1  0.168562  0.177651  0.437759  1
  Dy  Dy2  1  0.665372  0.324198  0.563617  1
  Dy  Dy3  1  0.832607  0.824609  0.934722  1
  Dy  Dy4  1  0.665372  0.324198  0.936383  1
  Dy  Dy5  1  0.832607  0.824609  0.565278  1
  Dy  Dy6  1  0.333131  0.674258  0.437700  1
  Dy  Dy7  1  0.168562  0.177651  0.062241  1
  Dy  Dy8  1  0.867455  0.538795  0.250000  1
  Dy  Dy9  1  0.633477  0.040851  0.250000  1
  Dy  Dy10  1  0.123471  0.461024  0.750000  1
  Dy  Dy11  1  0.374749  0.959564  0.750000  1
  Tc  Tc12  1  0.962146  0.114708  0.750000  1
  Tc  Tc13  1  0.538651  0.615001  0.750000  1
  Ir  Ir14  1  0.043616  0.884377  0.250000  1
  Os  Os15  1  0.457090  0.384250  0.250000  1
