# generated using pymatgen
data_Y6Tm13Sc(Cd3Ru)2
_symmetry_space_group_name_H-M   'P 1'
_cell_length_a   9.48895500
_cell_length_b   9.48895468
_cell_length_c   9.71175900
_cell_angle_alpha   90.00000000
_cell_angle_beta   90.00000000
_cell_angle_gamma   119.99999764
_symmetry_Int_Tables_number   1
_chemical_formula_structural   Y6Tm13Sc(Cd3Ru)2
_chemical_formula_sum   'Y6 Tm13 Sc1 Cd6 Ru2'
_cell_volume   757.29536375
_cell_formula_units_Z   1
loop_
 _symmetry_equiv_pos_site_id
 _symmetry_equiv_pos_as_xyz
  1  'x, y, z'
loop_
 _atom_site_type_symbol
 _atom_site_label
 _atom_site_symmetry_multiplicity
 _atom_site_fract_x
 _atom_site_fract_y
 _atom_site_fract_z
 _atom_site_occupancy
  Y  Y0  1  0.540098  0.459902  0.250052  1
  Y  Y1  1  0.540098  0.080195  0.250052  1
  Y  Y2  1  0.919805  0.459902  0.250052  1
  Y  Y3  1  0.459902  0.540098  0.749948  1
  Y  Y4  1  0.459902  0.919805  0.749948  1
  Y  Y5  1  0.080195  0.540098  0.749948  1
  Tm  Tm6  1  0.000000  0.000000  0.000000  1
  Tm  Tm7  1  0.208999  0.791001  0.440417  1
  Tm  Tm8  1  0.208999  0.417999  0.440417  1
  Tm  Tm9  1  0.582001  0.791001  0.440417  1
  Tm  Tm10  1  0.791001  0.208999  0.559583  1
  Tm  Tm11  1  0.791001  0.582001  0.559583  1
  Tm  Tm12  1  0.417999  0.208999  0.559583  1
  Tm  Tm13  1  0.789810  0.210190  0.940880  1
  Tm  Tm14  1  0.789810  0.579620  0.940880  1
  Tm  Tm15  1  0.420380  0.210190  0.940880  1
  Tm  Tm16  1  0.210190  0.789810  0.059120  1
  Tm  Tm17  1  0.210190  0.420380  0.059120  1
  Tm  Tm18  1  0.579620  0.789810  0.059120  1
  Sc  Sc19  1  0.000000  0.000000  0.500000  1
  Cd  Cd20  1  0.887772  0.112228  0.254198  1
  Cd  Cd21  1  0.887772  0.775546  0.254198  1
  Cd  Cd22  1  0.224454  0.112228  0.254198  1
  Cd  Cd23  1  0.112228  0.887772  0.745802  1
  Cd  Cd24  1  0.112228  0.224454  0.745802  1
  Cd  Cd25  1  0.775546  0.887772  0.745802  1
  Ru  Ru26  1  0.333333  0.666667  0.250174  1
  Ru  Ru27  1  0.666667  0.333333  0.749826  1
