# generated using pymatgen
data_Tb13Y7Ir11Ru
_symmetry_space_group_name_H-M   'P 1'
_cell_length_a   10.92231121
_cell_length_b   10.92151017
_cell_length_c   6.41701211
_cell_angle_alpha   89.98700407
_cell_angle_beta   89.98375355
_cell_angle_gamma   89.98455501
_symmetry_Int_Tables_number   1
_chemical_formula_structural   Tb13Y7Ir11Ru
_chemical_formula_sum   'Tb13 Y7 Ir11 Ru1'
_cell_volume   765.47331490
_cell_formula_units_Z   1
loop_
 _symmetry_equiv_pos_site_id
 _symmetry_equiv_pos_as_xyz
  1  'x, y, z'
loop_
 _atom_site_type_symbol
 _atom_site_label
 _atom_site_symmetry_multiplicity
 _atom_site_fract_x
 _atom_site_fract_y
 _atom_site_fract_z
 _atom_site_occupancy
  Tb  Tb0  1  0.292289  0.087332  0.377604  1
  Tb  Tb1  1  0.292648  0.912519  0.880442  1
  Tb  Tb2  1  0.707347  0.087466  0.880483  1
  Tb  Tb3  1  0.707700  0.912644  0.377682  1
  Tb  Tb4  1  0.587457  0.792634  0.880456  1
  Tb  Tb5  1  0.587371  0.207726  0.377684  1
  Tb  Tb6  1  0.412666  0.792311  0.377651  1
  Tb  Tb7  1  0.412572  0.207408  0.880561  1
  Tb  Tb8  1  0.208848  0.411644  0.621208  1
  Tb  Tb9  1  0.999952  0.999971  0.499221  1
  Tb  Tb10  1  0.000022  0.000009  0.999181  1
  Tb  Tb11  1  0.500026  0.499996  0.999245  1
  Tb  Tb12  1  0.500082  0.500043  0.499217  1
  Y  Y13  1  0.208801  0.588272  0.121045  1
  Y  Y14  1  0.791226  0.411852  0.120917  1
  Y  Y15  1  0.791102  0.588365  0.621290  1
  Y  Y16  1  0.911800  0.708757  0.120950  1
  Y  Y17  1  0.911540  0.291114  0.621288  1
  Y  Y18  1  0.088318  0.708914  0.621226  1
  Y  Y19  1  0.088117  0.291136  0.121005  1
  Ir  Ir20  1  0.846855  0.153508  0.249845  1
  Ir  Ir21  1  0.846938  0.846867  0.749626  1
  Ir  Ir22  1  0.153082  0.153277  0.749498  1
  Ir  Ir23  1  0.153138  0.846476  0.249864  1
  Ir  Ir24  1  0.653116  0.346900  0.749593  1
  Ir  Ir25  1  0.653493  0.653125  0.249806  1
  Ir  Ir26  1  0.346372  0.346869  0.250067  1
  Ir  Ir27  1  0.346785  0.653022  0.749615  1
  Ir  Ir28  1  0.500000  0.999990  0.624683  1
  Ir  Ir29  1  0.000159  0.499946  0.876283  1
  Ir  Ir30  1  0.000168  0.499902  0.376877  1
  Ru  Ru31  1  0.500007  0.000004  0.125883  1
