# generated using pymatgen
data_CeGd2(YH6)3
_symmetry_space_group_name_H-M   'P 1'
_cell_length_a   6.46396700
_cell_length_b   6.45143228
_cell_length_c   6.68252168
_cell_angle_alpha   90.17159013
_cell_angle_beta   90.00000000
_cell_angle_gamma   120.06428751
_symmetry_Int_Tables_number   1
_chemical_formula_structural   CeGd2(YH6)3
_chemical_formula_sum   'Ce1 Gd2 Y3 H18'
_cell_volume   241.18038241
_cell_formula_units_Z   1
loop_
 _symmetry_equiv_pos_site_id
 _symmetry_equiv_pos_as_xyz
  1  'x, y, z'
loop_
 _atom_site_type_symbol
 _atom_site_label
 _atom_site_symmetry_multiplicity
 _atom_site_fract_x
 _atom_site_fract_y
 _atom_site_fract_z
 _atom_site_occupancy
  Ce  Ce0  1  0.334107  0.000000  0.250000  1
  Gd  Gd1  1  0.998222  0.662219  0.750014  1
  Gd  Gd2  1  0.336003  0.337781  0.749986  1
  Y  Y3  1  0.999273  0.335326  0.249815  1
  Y  Y4  1  0.663947  0.664674  0.250185  1
  Y  Y5  1  0.665860  0.000000  0.750000  1
  H  H6  1  0.991639  0.000000  0.250000  1
  H  H7  1  0.999207  0.000000  0.750000  1
  H  H8  1  0.332632  0.658951  0.191506  1
  H  H9  1  0.673682  0.341049  0.308494  1
  H  H10  1  0.665074  0.329672  0.811759  1
  H  H11  1  0.335400  0.670328  0.688241  1
  H  H12  1  0.347257  0.325878  0.090406  1
  H  H13  1  0.678791  0.024993  0.091698  1
  H  H14  1  0.978499  0.657190  0.095783  1
  H  H15  1  0.021379  0.674122  0.409594  1
  H  H16  1  0.653797  0.975007  0.408302  1
  H  H17  1  0.321309  0.342810  0.404217  1
  H  H18  1  0.652075  0.677726  0.908063  1
  H  H19  1  0.323938  0.971752  0.903728  1
  H  H20  1  0.025308  0.349239  0.909205  1
  H  H21  1  0.974349  0.322274  0.591937  1
  H  H22  1  0.352186  0.028248  0.596272  1
  H  H23  1  0.676069  0.650761  0.590795  1
