# generated using pymatgen
data_TmNi(BRu)2
_symmetry_space_group_name_H-M   'P 1'
_cell_length_a   5.56791200
_cell_length_b   5.21166928
_cell_length_c   3.04215500
_cell_angle_alpha   90.00000000
_cell_angle_beta   90.00000000
_cell_angle_gamma   122.28812958
_symmetry_Int_Tables_number   1
_chemical_formula_structural   TmNi(BRu)2
_chemical_formula_sum   'Tm1 Ni1 B2 Ru2'
_cell_volume   74.62746275
_cell_formula_units_Z   1
loop_
 _symmetry_equiv_pos_site_id
 _symmetry_equiv_pos_as_xyz
  1  'x, y, z'
loop_
 _atom_site_type_symbol
 _atom_site_label
 _atom_site_symmetry_multiplicity
 _atom_site_fract_x
 _atom_site_fract_y
 _atom_site_fract_z
 _atom_site_occupancy
  Tm  Tm0  1  0.000000  0.000000  0.000000  1
  Ni  Ni1  1  0.500000  0.000000  0.500000  1
  B  B2  1  0.332136  0.664273  0.000000  1
  B  B3  1  0.667864  0.335727  0.000000  1
  Ru  Ru4  1  0.500000  0.500000  0.500000  1
  Ru  Ru5  1  0.000000  0.500000  0.500000  1
