# generated using pymatgen
data_Tm2Al10Re2Os
_symmetry_space_group_name_H-M   'P 1'
_cell_length_a   9.09444400
_cell_length_b   9.09444400
_cell_length_c   6.22986200
_cell_angle_alpha   90.00000000
_cell_angle_beta   90.00000000
_cell_angle_gamma   90.00000000
_symmetry_Int_Tables_number   1
_chemical_formula_structural   Tm2Al10Re2Os
_chemical_formula_sum   'Tm4 Al20 Re4 Os2'
_cell_volume   515.26510587
_cell_formula_units_Z   2
loop_
 _symmetry_equiv_pos_site_id
 _symmetry_equiv_pos_as_xyz
  1  'x, y, z'
loop_
 _atom_site_type_symbol
 _atom_site_label
 _atom_site_symmetry_multiplicity
 _atom_site_fract_x
 _atom_site_fract_y
 _atom_site_fract_z
 _atom_site_occupancy
  Tm  Tm0  1  0.182182  0.317818  0.000000  1
  Tm  Tm1  1  0.682182  0.182182  0.000000  1
  Tm  Tm2  1  0.817818  0.682182  0.000000  1
  Tm  Tm3  1  0.317818  0.817818  0.000000  1
  Al  Al4  1  0.500000  0.000000  0.290509  1
  Al  Al5  1  0.500000  0.000000  0.709491  1
  Al  Al6  1  0.296766  0.559154  0.712209  1
  Al  Al7  1  0.000000  0.500000  0.290509  1
  Al  Al8  1  0.000000  0.500000  0.709491  1
  Al  Al9  1  0.059154  0.796766  0.712209  1
  Al  Al10  1  0.203234  0.059154  0.287791  1
  Al  Al11  1  0.059154  0.796766  0.287791  1
  Al  Al12  1  0.703234  0.440846  0.712209  1
  Al  Al13  1  0.203234  0.059154  0.712209  1
  Al  Al14  1  0.940846  0.203234  0.712209  1
  Al  Al15  1  0.703234  0.440846  0.287791  1
  Al  Al16  1  0.559154  0.703234  0.287791  1
  Al  Al17  1  0.940846  0.203234  0.287791  1
  Al  Al18  1  0.559154  0.703234  0.712209  1
  Al  Al19  1  0.796766  0.940846  0.287791  1
  Al  Al20  1  0.440846  0.296766  0.712209  1
  Al  Al21  1  0.796766  0.940846  0.712209  1
  Al  Al22  1  0.440846  0.296766  0.287791  1
  Al  Al23  1  0.296766  0.559154  0.287791  1
  Re  Re24  1  0.179265  0.320735  0.500000  1
  Re  Re25  1  0.320735  0.820735  0.500000  1
  Re  Re26  1  0.820735  0.679265  0.500000  1
  Re  Re27  1  0.679265  0.179265  0.500000  1
  Os  Os28  1  0.000000  0.000000  0.000000  1
  Os  Os29  1  0.500000  0.500000  0.000000  1
