# generated using pymatgen
data_Y17Ho3Cd6OsPd
_symmetry_space_group_name_H-M   'P 1'
_cell_length_a   9.68663600
_cell_length_b   9.68663663
_cell_length_c   9.85381400
_cell_angle_alpha   90.00000000
_cell_angle_beta   90.00000000
_cell_angle_gamma   120.00000469
_symmetry_Int_Tables_number   1
_chemical_formula_structural   Y17Ho3Cd6OsPd
_chemical_formula_sum   'Y17 Ho3 Cd6 Os1 Pd1'
_cell_volume   800.72052362
_cell_formula_units_Z   1
loop_
 _symmetry_equiv_pos_site_id
 _symmetry_equiv_pos_as_xyz
  1  'x, y, z'
loop_
 _atom_site_type_symbol
 _atom_site_label
 _atom_site_symmetry_multiplicity
 _atom_site_fract_x
 _atom_site_fract_y
 _atom_site_fract_z
 _atom_site_occupancy
  Y  Y0  1  0.792347  0.207653  0.057485  1
  Y  Y1  1  0.792347  0.584692  0.057485  1
  Y  Y2  1  0.415308  0.207653  0.057485  1
  Y  Y3  1  0.792234  0.207766  0.442396  1
  Y  Y4  1  0.792234  0.584467  0.442396  1
  Y  Y5  1  0.415533  0.207766  0.442396  1
  Y  Y6  1  0.209485  0.790515  0.560574  1
  Y  Y7  1  0.209485  0.418972  0.560574  1
  Y  Y8  1  0.581028  0.790515  0.560574  1
  Y  Y9  1  0.539970  0.460030  0.750376  1
  Y  Y10  1  0.539970  0.079941  0.750376  1
  Y  Y11  1  0.920059  0.460030  0.750376  1
  Y  Y12  1  0.456795  0.543205  0.249453  1
  Y  Y13  1  0.456795  0.913590  0.249453  1
  Y  Y14  1  0.086410  0.543205  0.249453  1
  Y  Y15  1  0.000000  0.000000  0.000327  1
  Y  Y16  1  0.000000  0.000000  0.499437  1
  Ho  Ho17  1  0.210174  0.789826  0.939154  1
  Ho  Ho18  1  0.210174  0.420349  0.939154  1
  Ho  Ho19  1  0.579651  0.789826  0.939154  1
  Cd  Cd20  1  0.884903  0.115097  0.749995  1
  Cd  Cd21  1  0.884903  0.769806  0.749995  1
  Cd  Cd22  1  0.230194  0.115097  0.749995  1
  Cd  Cd23  1  0.115191  0.884809  0.250018  1
  Cd  Cd24  1  0.115191  0.230382  0.250018  1
  Cd  Cd25  1  0.769618  0.884809  0.250018  1
  Os  Os26  1  0.333333  0.666667  0.752083  1
  Pd  Pd27  1  0.666667  0.333333  0.249801  1
