# generated using pymatgen
data_Dy6ReB14Ru
_symmetry_space_group_name_H-M   'P 1'
_cell_length_a   8.07268975
_cell_length_b   8.07269028
_cell_length_c   9.34364900
_cell_angle_alpha   90.00000000
_cell_angle_beta   90.00000000
_cell_angle_gamma   154.70054494
_symmetry_Int_Tables_number   1
_chemical_formula_structural   Dy6ReB14Ru
_chemical_formula_sum   'Dy6 Re1 B14 Ru1'
_cell_volume   260.21721776
_cell_formula_units_Z   1
loop_
 _symmetry_equiv_pos_site_id
 _symmetry_equiv_pos_as_xyz
  1  'x, y, z'
loop_
 _atom_site_type_symbol
 _atom_site_label
 _atom_site_symmetry_multiplicity
 _atom_site_fract_x
 _atom_site_fract_y
 _atom_site_fract_z
 _atom_site_occupancy
  Dy  Dy0  1  0.894594  0.105406  0.439972  1
  Dy  Dy1  1  0.105554  0.894446  0.560916  1
  Dy  Dy2  1  0.894594  0.105406  0.060028  1
  Dy  Dy3  1  0.105554  0.894446  0.939084  1
  Dy  Dy4  1  0.243157  0.756843  0.250000  1
  Dy  Dy5  1  0.756855  0.243145  0.750000  1
  Re  Re6  1  0.947120  0.052880  0.750000  1
  B  B7  1  0.726770  0.273230  0.465612  1
  B  B8  1  0.272689  0.727311  0.533281  1
  B  B9  1  0.726770  0.273230  0.034388  1
  B  B10  1  0.272689  0.727311  0.966719  1
  B  B11  1  0.631325  0.368675  0.151728  1
  B  B12  1  0.367835  0.632165  0.849002  1
  B  B13  1  0.631325  0.368675  0.348272  1
  B  B14  1  0.367835  0.632165  0.650998  1
  B  B15  1  0.520705  0.479295  0.096605  1
  B  B16  1  0.479395  0.520605  0.904415  1
  B  B17  1  0.520705  0.479295  0.403395  1
  B  B18  1  0.479395  0.520605  0.595585  1
  B  B19  1  0.457512  0.542488  0.250000  1
  B  B20  1  0.543422  0.456578  0.750000  1
  Ru  Ru21  1  0.054199  0.945801  0.250000  1
