# generated using pymatgen
data_Ca4AgSb4Pt3
_symmetry_space_group_name_H-M   'P 1'
_cell_length_a   4.68932600
_cell_length_b   7.44189422
_cell_length_c   8.05568894
_cell_angle_alpha   90.54332343
_cell_angle_beta   90.00000000
_cell_angle_gamma   90.00000000
_symmetry_Int_Tables_number   1
_chemical_formula_structural   Ca4AgSb4Pt3
_chemical_formula_sum   'Ca4 Ag1 Sb4 Pt3'
_cell_volume   281.11050758
_cell_formula_units_Z   1
loop_
 _symmetry_equiv_pos_site_id
 _symmetry_equiv_pos_as_xyz
  1  'x, y, z'
loop_
 _atom_site_type_symbol
 _atom_site_label
 _atom_site_symmetry_multiplicity
 _atom_site_fract_x
 _atom_site_fract_y
 _atom_site_fract_z
 _atom_site_occupancy
  Ca  Ca0  1  0.750000  0.999848  0.696902  1
  Ca  Ca1  1  0.250000  0.009823  0.303250  1
  Ca  Ca2  1  0.750000  0.487653  0.796587  1
  Ca  Ca3  1  0.250000  0.501837  0.203764  1
  Ag  Ag4  1  0.250000  0.802151  0.912987  1
  Sb  Sb5  1  0.750000  0.312505  0.408442  1
  Sb  Sb6  1  0.250000  0.201406  0.908727  1
  Sb  Sb7  1  0.250000  0.682419  0.582821  1
  Sb  Sb8  1  0.750000  0.810283  0.101400  1
  Pt  Pt9  1  0.250000  0.302053  0.581222  1
  Pt  Pt10  1  0.750000  0.695127  0.419913  1
  Pt  Pt11  1  0.750000  0.194894  0.083985  1
