# generated using pymatgen
data_Ca4LaTm3Hg8
_symmetry_space_group_name_H-M   'P 1'
_cell_length_a   7.52424500
_cell_length_b   7.52734300
_cell_length_c   7.46577200
_cell_angle_alpha   90.00000000
_cell_angle_beta   90.00039692
_cell_angle_gamma   90.00000000
_symmetry_Int_Tables_number   1
_chemical_formula_structural   Ca4LaTm3Hg8
_chemical_formula_sum   'Ca4 La1 Tm3 Hg8'
_cell_volume   422.84320613
_cell_formula_units_Z   1
loop_
 _symmetry_equiv_pos_site_id
 _symmetry_equiv_pos_as_xyz
  1  'x, y, z'
loop_
 _atom_site_type_symbol
 _atom_site_label
 _atom_site_symmetry_multiplicity
 _atom_site_fract_x
 _atom_site_fract_y
 _atom_site_fract_z
 _atom_site_occupancy
  Ca  Ca0  1  0.749252  0.250000  0.000077  1
  Ca  Ca1  1  0.249626  0.750000  0.499906  1
  Ca  Ca2  1  0.750569  0.250000  0.500109  1
  Ca  Ca3  1  0.250631  0.750000  0.999900  1
  La  La4  1  0.751258  0.750000  0.500040  1
  Tm  Tm5  1  0.251145  0.250000  0.000004  1
  Tm  Tm6  1  0.749084  0.750000  0.000012  1
  Tm  Tm7  1  0.248931  0.250000  0.499982  1
  Hg  Hg8  1  0.005670  0.494265  0.242547  1
  Hg  Hg9  1  0.005670  0.005734  0.242547  1
  Hg  Hg10  1  0.494397  0.005726  0.246177  1
  Hg  Hg11  1  0.494397  0.494275  0.246177  1
  Hg  Hg12  1  0.494167  0.494344  0.753811  1
  Hg  Hg13  1  0.494167  0.005655  0.753811  1
  Hg  Hg14  1  0.005518  0.005790  0.757448  1
  Hg  Hg15  1  0.005518  0.494211  0.757448  1
