# generated using pymatgen
data_Tb6Ho8Lu2Cd4Ir3Rh
_symmetry_space_group_name_H-M   'P 1'
_cell_length_a   9.61688529
_cell_length_b   9.61688498
_cell_length_c   9.60383213
_cell_angle_alpha   60.06023075
_cell_angle_beta   60.06023567
_cell_angle_gamma   59.90762630
_symmetry_Int_Tables_number   1
_chemical_formula_structural   Tb6Ho8Lu2Cd4Ir3Rh
_chemical_formula_sum   'Tb6 Ho8 Lu2 Cd4 Ir3 Rh1'
_cell_volume   628.18644222
_cell_formula_units_Z   1
loop_
 _symmetry_equiv_pos_site_id
 _symmetry_equiv_pos_as_xyz
  1  'x, y, z'
loop_
 _atom_site_type_symbol
 _atom_site_label
 _atom_site_symmetry_multiplicity
 _atom_site_fract_x
 _atom_site_fract_y
 _atom_site_fract_z
 _atom_site_occupancy
  Tb  Tb0  1  0.189870  0.811008  0.811118  1
  Tb  Tb1  1  0.812205  0.188519  0.188482  1
  Tb  Tb2  1  0.811008  0.189870  0.811118  1
  Tb  Tb3  1  0.188519  0.812205  0.188482  1
  Tb  Tb4  1  0.811078  0.811078  0.190308  1
  Tb  Tb5  1  0.188376  0.188376  0.812225  1
  Ho  Ho6  1  0.598139  0.598139  0.598942  1
  Ho  Ho7  1  0.599841  0.599841  0.202447  1
  Ho  Ho8  1  0.600846  0.202697  0.599811  1
  Ho  Ho9  1  0.202697  0.600846  0.599811  1
  Ho  Ho10  1  0.060639  0.437832  0.438044  1
  Ho  Ho11  1  0.436358  0.062082  0.062081  1
  Ho  Ho12  1  0.437832  0.060639  0.438044  1
  Ho  Ho13  1  0.062082  0.436358  0.062081  1
  Lu  Lu14  1  0.438784  0.438784  0.059580  1
  Lu  Lu15  1  0.061537  0.061537  0.436898  1
  Cd  Cd16  1  0.830217  0.830217  0.829767  1
  Cd  Cd17  1  0.830728  0.830728  0.507722  1
  Cd  Cd18  1  0.830387  0.507551  0.830767  1
  Cd  Cd19  1  0.507551  0.830387  0.830767  1
  Ir  Ir20  1  0.393084  0.393084  0.825463  1
  Ir  Ir21  1  0.390429  0.825437  0.392953  1
  Ir  Ir22  1  0.825437  0.390429  0.392953  1
  Rh  Rh23  1  0.392359  0.392359  0.390139  1
