# generated using pymatgen
data_TiV3(Mo2W)4
_symmetry_space_group_name_H-M   'P 1'
_cell_length_a   6.27667500
_cell_length_b   4.44290300
_cell_length_c   8.88959900
_cell_angle_alpha   90.00000000
_cell_angle_beta   90.00054455
_cell_angle_gamma   90.00000000
_symmetry_Int_Tables_number   1
_chemical_formula_structural   TiV3(Mo2W)4
_chemical_formula_sum   'Ti1 V3 Mo8 W4'
_cell_volume   247.90120873
_cell_formula_units_Z   1
loop_
 _symmetry_equiv_pos_site_id
 _symmetry_equiv_pos_as_xyz
  1  'x, y, z'
loop_
 _atom_site_type_symbol
 _atom_site_label
 _atom_site_symmetry_multiplicity
 _atom_site_fract_x
 _atom_site_fract_y
 _atom_site_fract_z
 _atom_site_occupancy
  Ti  Ti0  1  0.249955  0.250000  0.125017  1
  V  V1  1  0.749952  0.749999  0.375873  1
  V  V2  1  0.250045  0.250000  0.625007  1
  V  V3  1  0.750048  0.750000  0.874105  1
  Mo  Mo4  1  0.996673  0.750000  0.125003  1
  Mo  Mo5  1  0.503248  0.750000  0.125011  1
  Mo  Mo6  1  0.998554  0.249999  0.377922  1
  Mo  Mo7  1  0.501373  0.249999  0.377931  1
  Mo  Mo8  1  0.500067  0.750000  0.624977  1
  Mo  Mo9  1  0.000007  0.750000  0.624985  1
  Mo  Mo10  1  0.501430  0.249999  0.872079  1
  Mo  Mo11  1  0.998645  0.249999  0.872081  1
  W  W12  1  0.749962  0.249999  0.125010  1
  W  W13  1  0.249960  0.750000  0.375279  1
  W  W14  1  0.750039  0.249999  0.625003  1
  W  W15  1  0.250041  0.750000  0.874717  1
