# generated using pymatgen
data_Ba4TmLuAl2O10
_symmetry_space_group_name_H-M   'P 1'
_cell_length_a   5.98833800
_cell_length_b   5.98833814
_cell_length_c   20.11655300
_cell_angle_alpha   90.00000000
_cell_angle_beta   90.00000000
_cell_angle_gamma   119.99999921
_symmetry_Int_Tables_number   1
_chemical_formula_structural   Ba4TmLuAl2O10
_chemical_formula_sum   'Ba8 Tm2 Lu2 Al4 O20'
_cell_volume   624.73641611
_cell_formula_units_Z   2
loop_
 _symmetry_equiv_pos_site_id
 _symmetry_equiv_pos_as_xyz
  1  'x, y, z'
loop_
 _atom_site_type_symbol
 _atom_site_label
 _atom_site_symmetry_multiplicity
 _atom_site_fract_x
 _atom_site_fract_y
 _atom_site_fract_z
 _atom_site_occupancy
  Ba  Ba0  1  0.666667  0.333333  0.893802  1
  Ba  Ba1  1  0.333333  0.666667  0.105976  1
  Ba  Ba2  1  0.333333  0.666667  0.393802  1
  Ba  Ba3  1  0.000000  0.000000  0.999747  1
  Ba  Ba4  1  0.000000  0.000000  0.499747  1
  Ba  Ba5  1  0.666667  0.333333  0.250255  1
  Ba  Ba6  1  0.666667  0.333333  0.605976  1
  Ba  Ba7  1  0.333333  0.666667  0.750255  1
  Tm  Tm8  1  0.333333  0.666667  0.566697  1
  Tm  Tm9  1  0.666667  0.333333  0.066697  1
  Lu  Lu10  1  0.333333  0.666667  0.933047  1
  Lu  Lu11  1  0.666667  0.333333  0.433047  1
  Al  Al12  1  0.000000  0.000000  0.836304  1
  Al  Al13  1  0.000000  0.000000  0.164218  1
  Al  Al14  1  0.000000  0.000000  0.664218  1
  Al  Al15  1  0.000000  0.000000  0.336304  1
  O  O16  1  0.677956  0.838979  0.634265  1
  O  O17  1  0.998468  0.499234  0.499529  1
  O  O18  1  0.000000  0.000000  0.250272  1
  O  O19  1  0.838566  0.677129  0.366100  1
  O  O20  1  0.838979  0.161021  0.134265  1
  O  O21  1  0.161021  0.322044  0.634265  1
  O  O22  1  0.677129  0.838566  0.866100  1
  O  O23  1  0.322044  0.161021  0.134265  1
  O  O24  1  0.000000  0.000000  0.750272  1
  O  O25  1  0.838566  0.161434  0.366100  1
  O  O26  1  0.161434  0.322871  0.866100  1
  O  O27  1  0.499234  0.998468  0.999529  1
  O  O28  1  0.322871  0.161434  0.366100  1
  O  O29  1  0.500766  0.001532  0.499529  1
  O  O30  1  0.838979  0.677956  0.134265  1
  O  O31  1  0.161021  0.838979  0.634265  1
  O  O32  1  0.499234  0.500766  0.999529  1
  O  O33  1  0.001532  0.500766  0.999529  1
  O  O34  1  0.500766  0.499234  0.499529  1
  O  O35  1  0.161434  0.838566  0.866100  1
