# generated using pymatgen
data_TaNb5Sb2(PO4)12
_symmetry_space_group_name_H-M   'P 1'
_cell_length_a   8.91355494
_cell_length_b   9.01447135
_cell_length_c   12.49405141
_cell_angle_alpha   90.03193905
_cell_angle_beta   90.60061581
_cell_angle_gamma   89.99785729
_symmetry_Int_Tables_number   1
_chemical_formula_structural   TaNb5Sb2(PO4)12
_chemical_formula_sum   'Ta1 Nb5 Sb2 P12 O48'
_cell_volume   1003.85403031
_cell_formula_units_Z   1
loop_
 _symmetry_equiv_pos_site_id
 _symmetry_equiv_pos_as_xyz
  1  'x, y, z'
loop_
 _atom_site_type_symbol
 _atom_site_label
 _atom_site_symmetry_multiplicity
 _atom_site_fract_x
 _atom_site_fract_y
 _atom_site_fract_z
 _atom_site_occupancy
  Ta  Ta0  1  0.749686  0.464540  0.116063  1
  Nb  Nb1  1  0.747761  0.035202  0.885854  1
  Nb  Nb2  1  0.751872  0.534917  0.616420  1
  Nb  Nb3  1  0.249589  0.035355  0.617001  1
  Nb  Nb4  1  0.251739  0.964767  0.116637  1
  Nb  Nb5  1  0.248073  0.464714  0.385340  1
  Sb  Sb6  1  0.748848  0.966566  0.378325  1
  Sb  Sb7  1  0.249302  0.533459  0.878884  1
  P  P8  1  0.540062  0.751924  0.005335  1
  P  P9  1  0.970175  0.257456  0.505603  1
  P  P10  1  0.470382  0.242770  0.006347  1
  P  P11  1  0.039740  0.747500  0.504906  1
  P  P12  1  0.612382  0.594471  0.350173  1
  P  P13  1  0.902880  0.121541  0.136973  1
  P  P14  1  0.875240  0.388656  0.853157  1
  P  P15  1  0.601350  0.884933  0.646772  1
  P  P16  1  0.402645  0.379545  0.636786  1
  P  P17  1  0.111698  0.904698  0.850986  1
  P  P18  1  0.100285  0.615009  0.146678  1
  P  P19  1  0.375647  0.111621  0.352761  1
  O  O20  1  0.926985  0.593639  0.142460  1
  O  O21  1  0.545051  0.114264  0.350773  1
  O  O22  1  0.575490  0.404144  0.640538  1
  O  O23  1  0.940777  0.941716  0.849341  1
  O  O24  1  0.044506  0.386308  0.851811  1
  O  O25  1  0.427925  0.904941  0.643082  1
  O  O26  1  0.441325  0.557016  0.348651  1
  O  O27  1  0.075731  0.097133  0.140977  1
  O  O28  1  0.958393  0.822905  0.413330  1
  O  O29  1  0.576795  0.330826  0.082864  1
  O  O30  1  0.565572  0.142470  0.933038  1
  O  O31  1  0.929884  0.663084  0.580271  1
  O  O32  1  0.075829  0.170035  0.582819  1
  O  O33  1  0.458385  0.676779  0.913718  1
  O  O34  1  0.430004  0.836162  0.080879  1
  O  O35  1  0.065709  0.357458  0.432437  1
  O  O36  1  0.686003  0.489057  0.265924  1
  O  O37  1  0.823089  0.017646  0.211805  1
  O  O38  1  0.810741  0.500417  0.767867  1
  O  O39  1  0.657451  0.963849  0.750946  1
  O  O40  1  0.323018  0.483949  0.711469  1
  O  O41  1  0.185717  0.011307  0.767771  1
  O  O42  1  0.156581  0.536425  0.250865  1
  O  O43  1  0.311229  0.999347  0.267589  1
  O  O44  1  0.679284  0.555655  0.462031  1
  O  O45  1  0.850581  0.094283  0.020173  1
  O  O46  1  0.812422  0.438318  0.963674  1
  O  O47  1  0.676637  0.950598  0.550683  1
  O  O48  1  0.350241  0.405565  0.519902  1
  O  O49  1  0.178479  0.942976  0.963018  1
  O  O50  1  0.176230  0.549512  0.050732  1
  O  O51  1  0.313217  0.062070  0.463123  1
  O  O52  1  0.628165  0.637780  0.076160  1
  O  O53  1  0.871801  0.160265  0.436688  1
  O  O54  1  0.874285  0.361139  0.577096  1
  O  O55  1  0.661381  0.860709  0.963080  1
  O  O56  1  0.372073  0.340093  0.937646  1
  O  O57  1  0.127090  0.861515  0.576578  1
  O  O58  1  0.161635  0.639192  0.462835  1
  O  O59  1  0.374764  0.138913  0.077773  1
  O  O60  1  0.631828  0.755097  0.320186  1
  O  O61  1  0.871891  0.288786  0.160158  1
  O  O62  1  0.811138  0.232238  0.824712  1
  O  O63  1  0.635420  0.715906  0.658292  1
  O  O64  1  0.372863  0.212453  0.660919  1
  O  O65  1  0.132029  0.744357  0.820272  1
  O  O66  1  0.133660  0.784234  0.158142  1
  O  O67  1  0.311341  0.267823  0.323901  1
