# generated using pymatgen
data_CaPr6BBr12
_symmetry_space_group_name_H-M   'P 1'
_cell_length_a   9.45652495
_cell_length_b   9.45899035
_cell_length_c   9.45984327
_cell_angle_alpha   106.94384008
_cell_angle_beta   106.92874284
_cell_angle_gamma   106.90858553
_symmetry_Int_Tables_number   1
_chemical_formula_structural   CaPr6BBr12
_chemical_formula_sum   'Ca1 Pr6 B1 Br12'
_cell_volume   706.10030183
_cell_formula_units_Z   1
loop_
 _symmetry_equiv_pos_site_id
 _symmetry_equiv_pos_as_xyz
  1  'x, y, z'
loop_
 _atom_site_type_symbol
 _atom_site_label
 _atom_site_symmetry_multiplicity
 _atom_site_fract_x
 _atom_site_fract_y
 _atom_site_fract_z
 _atom_site_occupancy
  Ca  Ca0  1  0.500000  0.500000  0.500000  1
  Pr  Pr1  1  0.102266  0.308052  0.025263  1
  Pr  Pr2  1  0.308279  0.025315  0.102309  1
  Pr  Pr3  1  0.025332  0.102382  0.308347  1
  Pr  Pr4  1  0.974669  0.897618  0.691654  1
  Pr  Pr5  1  0.691721  0.974686  0.897691  1
  Pr  Pr6  1  0.897734  0.691948  0.974737  1
  B  B7  1  0.000000  0.000000  0.000000  1
  Br  Br8  1  0.224439  0.683024  0.074440  1
  Br  Br9  1  0.459096  0.379336  0.162393  1
  Br  Br10  1  0.683070  0.074406  0.224504  1
  Br  Br11  1  0.925648  0.775421  0.317001  1
  Br  Br12  1  0.162428  0.459000  0.379214  1
  Br  Br13  1  0.379279  0.162308  0.458888  1
  Br  Br14  1  0.620721  0.837692  0.541113  1
  Br  Br15  1  0.837573  0.541000  0.620786  1
  Br  Br16  1  0.074353  0.224579  0.683000  1
  Br  Br17  1  0.316931  0.925595  0.775496  1
  Br  Br18  1  0.540904  0.620664  0.837608  1
  Br  Br19  1  0.775561  0.316976  0.925560  1
