# generated using pymatgen
data_Tm3Hf(BiRh5)2
_symmetry_space_group_name_H-M   'P 1'
_cell_length_a   4.23697000
_cell_length_b   5.76785461
_cell_length_c   11.38474201
_cell_angle_alpha   89.89177474
_cell_angle_beta   90.00000000
_cell_angle_gamma   90.00000000
_symmetry_Int_Tables_number   1
_chemical_formula_structural   Tm3Hf(BiRh5)2
_chemical_formula_sum   'Tm3 Hf1 Bi2 Rh10'
_cell_volume   278.22241248
_cell_formula_units_Z   1
loop_
 _symmetry_equiv_pos_site_id
 _symmetry_equiv_pos_as_xyz
  1  'x, y, z'
loop_
 _atom_site_type_symbol
 _atom_site_label
 _atom_site_symmetry_multiplicity
 _atom_site_fract_x
 _atom_site_fract_y
 _atom_site_fract_z
 _atom_site_occupancy
  Tm  Tm0  1  0.500000  0.183461  0.642614  1
  Tm  Tm1  1  0.500000  0.819612  0.358742  1
  Tm  Tm2  1  0.500000  0.682406  0.858791  1
  Hf  Hf3  1  0.500000  0.324142  0.143201  1
  Bi  Bi4  1  0.000000  0.499045  0.499528  1
  Bi  Bi5  1  0.000000  0.995841  0.000317  1
  Rh  Rh6  1  0.500000  0.204791  0.890228  1
  Rh  Rh7  1  0.500000  0.791679  0.115866  1
  Rh  Rh8  1  0.500000  0.702841  0.616316  1
  Rh  Rh9  1  0.500000  0.299008  0.377079  1
  Rh  Rh10  1  0.000000  0.439750  0.753841  1
  Rh  Rh11  1  0.000000  0.557181  0.246210  1
  Rh  Rh12  1  0.000000  0.001299  0.498429  1
  Rh  Rh13  1  0.000000  0.489953  0.004963  1
  Rh  Rh14  1  0.000000  0.068004  0.244887  1
  Rh  Rh15  1  0.000000  0.940986  0.748988  1
