# generated using pymatgen
data_Er3Zr(MnOs3)2
_symmetry_space_group_name_H-M   'P 1'
_cell_length_a   5.20832183
_cell_length_b   5.31881410
_cell_length_c   8.70952465
_cell_angle_alpha   90.00000147
_cell_angle_beta   89.72252318
_cell_angle_gamma   120.70431457
_symmetry_Int_Tables_number   1
_chemical_formula_structural   Er3Zr(MnOs3)2
_chemical_formula_sum   'Er3 Zr1 Mn2 Os6'
_cell_volume   207.44578265
_cell_formula_units_Z   1
loop_
 _symmetry_equiv_pos_site_id
 _symmetry_equiv_pos_as_xyz
  1  'x, y, z'
loop_
 _atom_site_type_symbol
 _atom_site_label
 _atom_site_symmetry_multiplicity
 _atom_site_fract_x
 _atom_site_fract_y
 _atom_site_fract_z
 _atom_site_occupancy
  Er  Er0  1  0.337863  0.668932  0.063756  1
  Er  Er1  1  0.660281  0.330140  0.563408  1
  Er  Er2  1  0.660809  0.330404  0.936814  1
  Zr  Zr3  1  0.343059  0.671530  0.434118  1
  Mn  Mn4  1  0.670433  0.835216  0.747629  1
  Mn  Mn5  1  0.330423  0.165212  0.252867  1
  Os  Os6  1  0.999140  0.999570  0.500561  1
  Os  Os7  1  0.998518  0.999259  0.000360  1
  Os  Os8  1  0.167404  0.346493  0.747441  1
  Os  Os9  1  0.832333  0.178426  0.252802  1
  Os  Os10  1  0.832333  0.653907  0.252802  1
  Os  Os11  1  0.167404  0.820910  0.747441  1
