# generated using pymatgen
data_La3ErZr4F28
_symmetry_space_group_name_H-M   'P 1'
_cell_length_a   5.89537738
_cell_length_b   9.37235348
_cell_length_c   12.59782115
_cell_angle_alpha   62.19861168
_cell_angle_beta   90.05172990
_cell_angle_gamma   89.95442358
_symmetry_Int_Tables_number   1
_chemical_formula_structural   La3ErZr4F28
_chemical_formula_sum   'La3 Er1 Zr4 F28'
_cell_volume   615.72553880
_cell_formula_units_Z   1
loop_
 _symmetry_equiv_pos_site_id
 _symmetry_equiv_pos_as_xyz
  1  'x, y, z'
loop_
 _atom_site_type_symbol
 _atom_site_label
 _atom_site_symmetry_multiplicity
 _atom_site_fract_x
 _atom_site_fract_y
 _atom_site_fract_z
 _atom_site_occupancy
  La  La0  1  0.743784  0.808443  0.266976  1
  La  La1  1  0.243136  0.186793  0.233145  1
  La  La2  1  0.256937  0.180919  0.733892  1
  Er  Er3  1  0.758059  0.810346  0.766399  1
  Zr  Zr4  1  0.746004  0.267221  0.458956  1
  Zr  Zr5  1  0.244765  0.725870  0.037588  1
  Zr  Zr6  1  0.256668  0.726016  0.552353  1
  Zr  Zr7  1  0.755572  0.281897  0.951423  1
  F  F8  1  0.469110  0.714466  0.918305  1
  F  F9  1  0.959307  0.289400  0.577214  1
  F  F10  1  0.542847  0.293442  0.074226  1
  F  F11  1  0.043526  0.712214  0.429945  1
  F  F12  1  0.459999  0.282641  0.545329  1
  F  F13  1  0.958998  0.720994  0.943805  1
  F  F14  1  0.535128  0.716567  0.458421  1
  F  F15  1  0.040304  0.288550  0.041928  1
  F  F16  1  0.763977  0.529597  0.856665  1
  F  F17  1  0.266221  0.481410  0.643880  1
  F  F18  1  0.229618  0.482493  0.136597  1
  F  F19  1  0.732925  0.513490  0.362993  1
  F  F20  1  0.760552  0.037369  0.052341  1
  F  F21  1  0.260729  0.969877  0.448745  1
  F  F22  1  0.239357  0.971203  0.944700  1
  F  F23  1  0.740856  0.023106  0.562118  1
  F  F24  1  0.988713  0.736138  0.653420  1
  F  F25  1  0.488678  0.269756  0.853017  1
  F  F26  1  0.014516  0.267476  0.357505  1
  F  F27  1  0.509268  0.731000  0.140460  1
  F  F28  1  0.041214  0.743396  0.163952  1
  F  F29  1  0.544822  0.253747  0.331275  1
  F  F30  1  0.958352  0.260162  0.827645  1
  F  F31  1  0.473119  0.749230  0.673453  1
  F  F32  1  0.418099  0.966368  0.233100  1
  F  F33  1  0.915787  0.030665  0.266973  1
  F  F34  1  0.581238  0.013956  0.765298  1
  F  F35  1  0.057814  0.963782  0.735964  1
