# generated using pymatgen
data_Yb9ZrIr4
_symmetry_space_group_name_H-M   'P 1'
_cell_length_a   6.44154168
_cell_length_b   7.34843576
_cell_length_c   8.43190254
_cell_angle_alpha   97.37357349
_cell_angle_beta   112.45604186
_cell_angle_gamma   90.00000327
_symmetry_Int_Tables_number   1
_chemical_formula_structural   Yb9ZrIr4
_chemical_formula_sum   'Yb9 Zr1 Ir4'
_cell_volume   365.28770884
_cell_formula_units_Z   1
loop_
 _symmetry_equiv_pos_site_id
 _symmetry_equiv_pos_as_xyz
  1  'x, y, z'
loop_
 _atom_site_type_symbol
 _atom_site_label
 _atom_site_symmetry_multiplicity
 _atom_site_fract_x
 _atom_site_fract_y
 _atom_site_fract_z
 _atom_site_occupancy
  Yb  Yb0  1  0.960457  0.925013  0.169015  1
  Yb  Yb1  1  0.791442  0.574987  0.830985  1
  Yb  Yb2  1  0.032091  0.077389  0.829526  1
  Yb  Yb3  1  0.202566  0.422611  0.170474  1
  Yb  Yb4  1  0.639193  0.821104  0.435407  1
  Yb  Yb5  1  0.203786  0.678896  0.564593  1
  Yb  Yb6  1  0.359254  0.180014  0.562253  1
  Yb  Yb7  1  0.797001  0.319986  0.437747  1
  Yb  Yb8  1  0.427751  0.750000  0.000000  1
  Zr  Zr9  1  0.559240  0.250000  0.000000  1
  Ir  Ir10  1  0.810664  0.557974  0.205053  1
  Ir  Ir11  1  0.605610  0.942026  0.794947  1
  Ir  Ir12  1  0.201596  0.412083  0.792243  1
  Ir  Ir13  1  0.409352  0.087917  0.207757  1
