# generated using pymatgen
data_Th2MnSi5Ir2
_symmetry_space_group_name_H-M   'P 1'
_cell_length_a   8.23934113
_cell_length_b   8.23933946
_cell_length_c   8.23934047
_cell_angle_alpha   138.24772143
_cell_angle_beta   105.80355701
_cell_angle_gamma   88.94736484
_symmetry_Int_Tables_number   1
_chemical_formula_structural   Th2MnSi5Ir2
_chemical_formula_sum   'Th4 Mn2 Si10 Ir4'
_cell_volume   343.16265825
_cell_formula_units_Z   2
loop_
 _symmetry_equiv_pos_site_id
 _symmetry_equiv_pos_as_xyz
  1  'x, y, z'
loop_
 _atom_site_type_symbol
 _atom_site_label
 _atom_site_symmetry_multiplicity
 _atom_site_fract_x
 _atom_site_fract_y
 _atom_site_fract_z
 _atom_site_occupancy
  Th  Th0  1  0.863665  0.627315  0.236350  1
  Th  Th1  1  0.136336  0.372685  0.763650  1
  Th  Th2  1  0.390965  0.127315  0.263650  1
  Th  Th3  1  0.609035  0.872685  0.736350  1
  Mn  Mn4  1  0.000000  0.750000  0.750000  1
  Mn  Mn5  1  0.000000  0.250000  0.250000  1
  Si  Si6  1  0.500000  0.750000  0.250000  1
  Si  Si7  1  0.500000  0.250000  0.750000  1
  Si  Si8  1  0.223236  0.973236  0.750000  1
  Si  Si9  1  0.776764  0.526764  0.750000  1
  Si  Si10  1  0.776764  0.026764  0.250000  1
  Si  Si11  1  0.223236  0.473236  0.250000  1
  Si  Si12  1  0.041496  0.897129  0.144367  1
  Si  Si13  1  0.958504  0.102871  0.855633  1
  Si  Si14  1  0.752762  0.397129  0.355633  1
  Si  Si15  1  0.247238  0.602871  0.644367  1
  Ir  Ir16  1  0.245067  0.859664  0.385402  1
  Ir  Ir17  1  0.754933  0.140336  0.614598  1
  Ir  Ir18  1  0.474262  0.359664  0.114598  1
  Ir  Ir19  1  0.525738  0.640336  0.885402  1
