# generated using pymatgen
data_Dy3Lu5In2IrPt
_symmetry_space_group_name_H-M   'P 1'
_cell_length_a   9.55914108
_cell_length_b   9.55914035
_cell_length_c   9.53607700
_cell_angle_alpha   60.07977603
_cell_angle_beta   60.07977855
_cell_angle_gamma   60.31761975
_symmetry_Int_Tables_number   1
_chemical_formula_structural   Dy3Lu5In2IrPt
_chemical_formula_sum   'Dy6 Lu10 In4 Ir2 Pt2'
_cell_volume   618.37122306
_cell_formula_units_Z   2
loop_
 _symmetry_equiv_pos_site_id
 _symmetry_equiv_pos_as_xyz
  1  'x, y, z'
loop_
 _atom_site_type_symbol
 _atom_site_label
 _atom_site_symmetry_multiplicity
 _atom_site_fract_x
 _atom_site_fract_y
 _atom_site_fract_z
 _atom_site_occupancy
  Dy  Dy0  1  0.190144  0.813375  0.807313  1
  Dy  Dy1  1  0.813375  0.190144  0.189168  1
  Dy  Dy2  1  0.813375  0.190144  0.807313  1
  Dy  Dy3  1  0.190144  0.813375  0.189168  1
  Dy  Dy4  1  0.811884  0.811884  0.188116  1
  Dy  Dy5  1  0.190629  0.190629  0.809371  1
  Lu  Lu6  1  0.599365  0.599365  0.594391  1
  Lu  Lu7  1  0.599365  0.599365  0.206878  1
  Lu  Lu8  1  0.604751  0.197088  0.599080  1
  Lu  Lu9  1  0.197088  0.604751  0.599080  1
  Lu  Lu10  1  0.056176  0.441742  0.438959  1
  Lu  Lu11  1  0.441742  0.056176  0.063123  1
  Lu  Lu12  1  0.441742  0.056176  0.438959  1
  Lu  Lu13  1  0.056176  0.441742  0.063123  1
  Lu  Lu14  1  0.440436  0.440436  0.059564  1
  Lu  Lu15  1  0.060572  0.060572  0.439428  1
  In  In16  1  0.832355  0.832355  0.833757  1
  In  In17  1  0.832355  0.832355  0.501535  1
  In  In18  1  0.831031  0.502926  0.833022  1
  In  In19  1  0.502926  0.831031  0.833022  1
  Ir  Ir20  1  0.388374  0.826059  0.392783  1
  Ir  Ir21  1  0.826059  0.388374  0.392783  1
  Pt  Pt22  1  0.389969  0.389969  0.395446  1
  Pt  Pt23  1  0.389969  0.389969  0.824616  1
