# generated using pymatgen
data_Sc6Sn6Rh5Au
_symmetry_space_group_name_H-M   'P 1'
_cell_length_a   7.60977800
_cell_length_b   7.60977671
_cell_length_c   6.97134600
_cell_angle_alpha   90.00000000
_cell_angle_beta   90.00000000
_cell_angle_gamma   120.00001430
_symmetry_Int_Tables_number   1
_chemical_formula_structural   Sc6Sn6Rh5Au
_chemical_formula_sum   'Sc6 Sn6 Rh5 Au1'
_cell_volume   349.61584588
_cell_formula_units_Z   1
loop_
 _symmetry_equiv_pos_site_id
 _symmetry_equiv_pos_as_xyz
  1  'x, y, z'
loop_
 _atom_site_type_symbol
 _atom_site_label
 _atom_site_symmetry_multiplicity
 _atom_site_fract_x
 _atom_site_fract_y
 _atom_site_fract_z
 _atom_site_occupancy
  Sc  Sc0  1  0.390369  0.992829  0.243912  1
  Sc  Sc1  1  0.602461  0.609631  0.243912  1
  Sc  Sc2  1  0.007171  0.397539  0.243912  1
  Sc  Sc3  1  0.389890  0.991799  0.756081  1
  Sc  Sc4  1  0.601908  0.610110  0.756081  1
  Sc  Sc5  1  0.008201  0.398092  0.756081  1
  Sn  Sn6  1  0.282097  0.278932  0.999964  1
  Sn  Sn7  1  0.996836  0.717903  0.999964  1
  Sn  Sn8  1  0.007900  0.737760  0.499891  1
  Sn  Sn9  1  0.729859  0.992100  0.499891  1
  Sn  Sn10  1  0.262240  0.270141  0.499891  1
  Sn  Sn11  1  0.721068  0.003164  0.999964  1
  Rh  Rh12  1  0.000000  0.000000  0.765065  1
  Rh  Rh13  1  0.000000  0.000000  0.234760  1
  Rh  Rh14  1  0.666667  0.333333  0.999355  1
  Rh  Rh15  1  0.333333  0.666667  0.498978  1
  Rh  Rh16  1  0.333333  0.666667  0.001080  1
  Au  Au17  1  0.666667  0.333333  0.501215  1
