# generated using pymatgen
data_YTh3(PdPt2)4
_symmetry_space_group_name_H-M   'P 1'
_cell_length_a   5.94899655
_cell_length_b   5.94311113
_cell_length_c   9.78283712
_cell_angle_alpha   90.00438720
_cell_angle_beta   90.01307575
_cell_angle_gamma   120.13816577
_symmetry_Int_Tables_number   1
_chemical_formula_structural   YTh3(PdPt2)4
_chemical_formula_sum   'Y1 Th3 Pd4 Pt8'
_cell_volume   299.12083836
_cell_formula_units_Z   1
loop_
 _symmetry_equiv_pos_site_id
 _symmetry_equiv_pos_as_xyz
  1  'x, y, z'
loop_
 _atom_site_type_symbol
 _atom_site_label
 _atom_site_symmetry_multiplicity
 _atom_site_fract_x
 _atom_site_fract_y
 _atom_site_fract_z
 _atom_site_occupancy
  Y  Y0  1  0.999567  0.000285  0.499534  1
  Th  Th1  1  0.999837  0.000151  0.000076  1
  Th  Th2  1  0.332879  0.666743  0.253628  1
  Th  Th3  1  0.667741  0.332937  0.746303  1
  Pd  Pd4  1  0.499924  0.500008  0.500884  1
  Pd  Pd5  1  0.500044  0.000052  0.500412  1
  Pd  Pd6  1  0.499930  0.499983  0.999330  1
  Pd  Pd7  1  0.175428  0.825314  0.748667  1
  Pt  Pt8  1  0.999885  0.499839  0.500468  1
  Pt  Pt9  1  0.500040  0.000117  0.999491  1
  Pt  Pt10  1  0.999840  0.500060  0.999440  1
  Pt  Pt11  1  0.824389  0.650107  0.252270  1
  Pt  Pt12  1  0.348204  0.174487  0.251513  1
  Pt  Pt13  1  0.824846  0.174229  0.251766  1
  Pt  Pt14  1  0.175954  0.350328  0.747669  1
  Pt  Pt15  1  0.651493  0.825360  0.748549  1
