# generated using pymatgen
data_Hf6AlGe(As2Ru3)2
_symmetry_space_group_name_H-M   'P 1'
_cell_length_a   7.67135040
_cell_length_b   7.67645096
_cell_length_c   7.67135062
_cell_angle_alpha   128.18686531
_cell_angle_beta   120.22206600
_cell_angle_gamma   82.99760515
_symmetry_Int_Tables_number   1
_chemical_formula_structural   Hf6AlGe(As2Ru3)2
_chemical_formula_sum   'Hf6 Al1 Ge1 As4 Ru6'
_cell_volume   294.66202236
_cell_formula_units_Z   1
loop_
 _symmetry_equiv_pos_site_id
 _symmetry_equiv_pos_as_xyz
  1  'x, y, z'
loop_
 _atom_site_type_symbol
 _atom_site_label
 _atom_site_symmetry_multiplicity
 _atom_site_fract_x
 _atom_site_fract_y
 _atom_site_fract_z
 _atom_site_occupancy
  Hf  Hf0  1  0.474542  0.707815  0.733272  1
  Hf  Hf1  1  0.522665  0.256549  0.233884  1
  Hf  Hf2  1  0.749569  0.833723  0.584154  1
  Hf  Hf3  1  0.249813  0.829815  0.080001  1
  Hf  Hf4  1  0.052819  0.255997  0.703177  1
  Hf  Hf5  1  0.947895  0.650912  0.203017  1
  Al  Al6  1  0.276125  0.276168  0.500044  1
  Ge  Ge7  1  0.723363  0.221859  0.998496  1
  As  As8  1  0.328837  0.586388  0.248492  1
  As  As9  1  0.671892  0.919986  0.258761  1
  As  As10  1  0.161226  0.919986  0.748093  1
  As  As11  1  0.837895  0.586388  0.757549  1
  Ru  Ru12  1  0.503869  0.498295  0.001190  1
  Ru  Ru13  1  0.997105  0.498295  0.494426  1
  Ru  Ru14  1  0.096776  0.253061  0.101609  1
  Ru  Ru15  1  0.905882  0.005652  0.157377  1
  Ru  Ru16  1  0.348277  0.005652  0.599771  1
  Ru  Ru17  1  0.651452  0.253061  0.656285  1
