# generated using pymatgen
data_Sr3H12OsPt
_symmetry_space_group_name_H-M   'P 1'
_cell_length_a   5.32788500
_cell_length_b   5.32788633
_cell_length_c   8.73022900
_cell_angle_alpha   90.00000000
_cell_angle_beta   90.00000000
_cell_angle_gamma   119.99999798
_symmetry_Int_Tables_number   1
_chemical_formula_structural   Sr3H12OsPt
_chemical_formula_sum   'Sr3 H12 Os1 Pt1'
_cell_volume   214.61796307
_cell_formula_units_Z   1
loop_
 _symmetry_equiv_pos_site_id
 _symmetry_equiv_pos_as_xyz
  1  'x, y, z'
loop_
 _atom_site_type_symbol
 _atom_site_label
 _atom_site_symmetry_multiplicity
 _atom_site_fract_x
 _atom_site_fract_y
 _atom_site_fract_z
 _atom_site_occupancy
  Sr  Sr0  1  0.000000  0.000000  0.911339  1
  Sr  Sr1  1  0.666667  0.333333  0.377538  1
  Sr  Sr2  1  0.333333  0.666667  0.649522  1
  H  H3  1  0.182151  0.817849  0.364653  1
  H  H4  1  0.635698  0.817849  0.364653  1
  H  H5  1  0.182151  0.364302  0.364653  1
  H  H6  1  0.821922  0.178078  0.638168  1
  H  H7  1  0.356158  0.178078  0.638168  1
  H  H8  1  0.821922  0.643842  0.638168  1
  H  H9  1  0.516929  0.033857  0.870492  1
  H  H10  1  0.516929  0.483071  0.870492  1
  H  H11  1  0.966143  0.483071  0.870492  1
  H  H12  1  0.472915  0.945831  0.143745  1
  H  H13  1  0.472915  0.527085  0.143745  1
  H  H14  1  0.054169  0.527085  0.143745  1
  Os  Os15  1  0.666667  0.333333  0.751373  1
  Pt  Pt16  1  0.333333  0.666667  0.259049  1
