# generated using pymatgen
data_Ho16In4OsRu2Rh
_symmetry_space_group_name_H-M   'P 1'
_cell_length_a   9.63099979
_cell_length_b   9.63546326
_cell_length_c   9.59215001
_cell_angle_alpha   59.89783568
_cell_angle_beta   59.86593891
_cell_angle_gamma   60.01532692
_symmetry_Int_Tables_number   1
_chemical_formula_structural   Ho16In4OsRu2Rh
_chemical_formula_sum   'Ho16 In4 Os1 Ru2 Rh1'
_cell_volume   628.37272306
_cell_formula_units_Z   1
loop_
 _symmetry_equiv_pos_site_id
 _symmetry_equiv_pos_as_xyz
  1  'x, y, z'
loop_
 _atom_site_type_symbol
 _atom_site_label
 _atom_site_symmetry_multiplicity
 _atom_site_fract_x
 _atom_site_fract_y
 _atom_site_fract_z
 _atom_site_occupancy
  Ho  Ho0  1  0.190186  0.189882  0.807809  1
  Ho  Ho1  1  0.597977  0.598206  0.205841  1
  Ho  Ho2  1  0.443015  0.057650  0.440359  1
  Ho  Ho3  1  0.442152  0.441172  0.059359  1
  Ho  Ho4  1  0.812123  0.189882  0.807809  1
  Ho  Ho5  1  0.193801  0.809017  0.191944  1
  Ho  Ho6  1  0.442071  0.055740  0.060117  1
  Ho  Ho7  1  0.191021  0.813548  0.804410  1
  Ho  Ho8  1  0.057318  0.441172  0.059359  1
  Ho  Ho9  1  0.805238  0.809017  0.191944  1
  Ho  Ho10  1  0.204143  0.598651  0.598195  1
  Ho  Ho11  1  0.058695  0.441559  0.441052  1
  Ho  Ho12  1  0.058976  0.057650  0.440359  1
  Ho  Ho13  1  0.807556  0.193410  0.191478  1
  Ho  Ho14  1  0.598897  0.204168  0.598038  1
  Ho  Ho15  1  0.599012  0.598651  0.598195  1
  In  In16  1  0.832655  0.833216  0.831437  1
  In  In17  1  0.832566  0.833074  0.501796  1
  In  In18  1  0.502695  0.833216  0.831437  1
  In  In19  1  0.833129  0.502066  0.831676  1
  Os  Os20  1  0.388670  0.829053  0.393608  1
  Ru  Ru21  1  0.387047  0.389673  0.391642  1
  Ru  Ru22  1  0.831637  0.389673  0.391642  1
  Rh  Rh23  1  0.389421  0.390659  0.830498  1
