# generated using pymatgen
data_Nd4Sn7GePd12
_symmetry_space_group_name_H-M   'P 1'
_cell_length_a   4.82021500
_cell_length_b   10.33170384
_cell_length_c   9.84794800
_cell_angle_alpha   89.83119640
_cell_angle_beta   90.00000000
_cell_angle_gamma   90.00000000
_symmetry_Int_Tables_number   1
_chemical_formula_structural   Nd4Sn7GePd12
_chemical_formula_sum   'Nd4 Sn7 Ge1 Pd12'
_cell_volume   490.43586294
_cell_formula_units_Z   1
loop_
 _symmetry_equiv_pos_site_id
 _symmetry_equiv_pos_as_xyz
  1  'x, y, z'
loop_
 _atom_site_type_symbol
 _atom_site_label
 _atom_site_symmetry_multiplicity
 _atom_site_fract_x
 _atom_site_fract_y
 _atom_site_fract_z
 _atom_site_occupancy
  Nd  Nd0  1  0.250000  0.433689  0.737788  1
  Nd  Nd1  1  0.250000  0.068508  0.237566  1
  Nd  Nd2  1  0.750000  0.571548  0.268092  1
  Nd  Nd3  1  0.750000  0.923033  0.756609  1
  Sn  Sn4  1  0.250000  0.868642  0.520550  1
  Sn  Sn5  1  0.250000  0.627850  0.020827  1
  Sn  Sn6  1  0.750000  0.130645  0.478450  1
  Sn  Sn7  1  0.750000  0.372050  0.978307  1
  Sn  Sn8  1  0.250000  0.148884  0.884782  1
  Sn  Sn9  1  0.250000  0.351669  0.389337  1
  Sn  Sn10  1  0.750000  0.849988  0.112277  1
  Ge  Ge11  1  0.750000  0.644914  0.617981  1
  Pd  Pd12  1  0.250000  0.136503  0.599835  1
  Pd  Pd13  1  0.250000  0.361965  0.100713  1
  Pd  Pd14  1  0.750000  0.863960  0.398535  1
  Pd  Pd15  1  0.750000  0.636810  0.891155  1
  Pd  Pd16  1  0.250000  0.724112  0.751395  1
  Pd  Pd17  1  0.250000  0.773055  0.252846  1
  Pd  Pd18  1  0.750000  0.275448  0.248224  1
  Pd  Pd19  1  0.750000  0.225643  0.746342  1
  Pd  Pd20  1  0.250000  0.903988  0.978725  1
  Pd  Pd21  1  0.250000  0.596603  0.487476  1
  Pd  Pd22  1  0.750000  0.093817  0.016955  1
  Pd  Pd23  1  0.750000  0.416677  0.525233  1
