# generated using pymatgen
data_AcAuBr6
_symmetry_space_group_name_H-M   'P 1'
_cell_length_a   8.19722586
_cell_length_b   10.96116255
_cell_length_c   15.87152500
_cell_angle_alpha   103.49785737
_cell_angle_beta   95.99040368
_cell_angle_gamma   111.49928042
_symmetry_Int_Tables_number   1
_chemical_formula_structural   AcAuBr6
_chemical_formula_sum   'Ac4 Au4 Br24'
_cell_volume   1261.45900541
_cell_formula_units_Z   4
loop_
 _symmetry_equiv_pos_site_id
 _symmetry_equiv_pos_as_xyz
  1  'x, y, z'
loop_
 _atom_site_type_symbol
 _atom_site_label
 _atom_site_symmetry_multiplicity
 _atom_site_fract_x
 _atom_site_fract_y
 _atom_site_fract_z
 _atom_site_occupancy
  Ac  Ac0  1  0.578556  0.919479  0.622001  1
  Ac  Ac1  1  0.024717  0.687857  0.128512  1
  Ac  Ac2  1  0.421444  0.080521  0.377999  1
  Ac  Ac3  1  0.975283  0.312143  0.871488  1
  Au  Au4  1  0.294937  0.632894  0.764072  1
  Au  Au5  1  0.500000  0.500000  0.500000  1
  Au  Au6  1  0.705063  0.367106  0.235928  1
  Au  Au7  1  0.000000  0.000000  0.000000  1
  Br  Br8  1  0.772083  0.092145  0.970552  1
  Br  Br9  1  0.727904  0.157141  0.258243  1
  Br  Br10  1  0.272096  0.842859  0.741757  1
  Br  Br11  1  0.766086  0.799623  0.025579  1
  Br  Br12  1  0.605790  0.192187  0.743401  1
  Br  Br13  1  0.318818  0.420904  0.782155  1
  Br  Br14  1  0.681182  0.579096  0.217845  1
  Br  Br15  1  0.295935  0.620080  0.497795  1
  Br  Br16  1  0.233914  0.200377  0.974421  1
  Br  Br17  1  0.759131  0.719902  0.520700  1
  Br  Br18  1  0.227917  0.907855  0.029448  1
  Br  Br19  1  0.741251  0.054517  0.483762  1
  Br  Br20  1  0.610908  0.724831  0.747932  1
  Br  Br21  1  0.965682  0.055990  0.730688  1
  Br  Br22  1  0.240869  0.280098  0.479300  1
  Br  Br23  1  0.394210  0.807813  0.256599  1
  Br  Br24  1  0.977441  0.543951  0.778082  1
  Br  Br25  1  0.748367  0.434791  0.978355  1
  Br  Br26  1  0.251633  0.565209  0.021645  1
  Br  Br27  1  0.022559  0.456049  0.221918  1
  Br  Br28  1  0.389092  0.275169  0.252068  1
  Br  Br29  1  0.258749  0.945483  0.516238  1
  Br  Br30  1  0.704065  0.379920  0.502205  1
  Br  Br31  1  0.034318  0.944010  0.269312  1
