# generated using pymatgen
data_Er2Tm4Fe3Si6Rh
_symmetry_space_group_name_H-M   'P 1'
_cell_length_a   5.59214582
_cell_length_b   5.59214675
_cell_length_c   13.52323408
_cell_angle_alpha   89.93280872
_cell_angle_beta   90.06719035
_cell_angle_gamma   137.05148220
_symmetry_Int_Tables_number   1
_chemical_formula_structural   Er2Tm4Fe3Si6Rh
_chemical_formula_sum   'Er2 Tm4 Fe3 Si6 Rh1'
_cell_volume   288.13880655
_cell_formula_units_Z   1
loop_
 _symmetry_equiv_pos_site_id
 _symmetry_equiv_pos_as_xyz
  1  'x, y, z'
loop_
 _atom_site_type_symbol
 _atom_site_label
 _atom_site_symmetry_multiplicity
 _atom_site_fract_x
 _atom_site_fract_y
 _atom_site_fract_z
 _atom_site_occupancy
  Er  Er0  1  0.636851  0.363149  0.248769  1
  Er  Er1  1  0.363026  0.636974  0.750187  1
  Tm  Tm2  1  0.918771  0.081229  0.111437  1
  Tm  Tm3  1  0.078183  0.921817  0.889929  1
  Tm  Tm4  1  0.081836  0.918164  0.614107  1
  Tm  Tm5  1  0.919958  0.080042  0.384010  1
  Fe  Fe6  1  0.214539  0.785461  0.418701  1
  Fe  Fe7  1  0.212705  0.787295  0.080675  1
  Fe  Fe8  1  0.785084  0.214916  0.920640  1
  Si  Si9  1  0.326380  0.673620  0.248246  1
  Si  Si10  1  0.669265  0.330735  0.756155  1
  Si  Si11  1  0.621914  0.378086  0.039526  1
  Si  Si12  1  0.375550  0.624450  0.960899  1
  Si  Si13  1  0.389063  0.610937  0.534354  1
  Si  Si14  1  0.617558  0.382442  0.458411  1
  Rh  Rh15  1  0.789318  0.210682  0.583955  1
