# generated using pymatgen
data_TbDyEr4(Al3Os)8
_symmetry_space_group_name_H-M   'P 1'
_cell_length_a   8.80436000
_cell_length_b   8.80296364
_cell_length_c   9.58336300
_cell_angle_alpha   90.00000000
_cell_angle_beta   90.00000000
_cell_angle_gamma   120.00524739
_symmetry_Int_Tables_number   1
_chemical_formula_structural   TbDyEr4(Al3Os)8
_chemical_formula_sum   'Tb1 Dy1 Er4 Al24 Os8'
_cell_volume   643.20928364
_cell_formula_units_Z   1
loop_
 _symmetry_equiv_pos_site_id
 _symmetry_equiv_pos_as_xyz
  1  'x, y, z'
loop_
 _atom_site_type_symbol
 _atom_site_label
 _atom_site_symmetry_multiplicity
 _atom_site_fract_x
 _atom_site_fract_y
 _atom_site_fract_z
 _atom_site_occupancy
  Tb  Tb0  1  0.192792  0.385586  0.250000  1
  Dy  Dy1  1  0.807032  0.614064  0.750000  1
  Er  Er2  1  0.612383  0.806376  0.250000  1
  Er  Er3  1  0.387628  0.193656  0.750000  1
  Er  Er4  1  0.193992  0.806376  0.250000  1
  Er  Er5  1  0.806028  0.193656  0.750000  1
  Al  Al6  1  0.333477  0.666955  0.017995  1
  Al  Al7  1  0.666599  0.333197  0.981897  1
  Al  Al8  1  0.666599  0.333197  0.518103  1
  Al  Al9  1  0.333477  0.666955  0.482005  1
  Al  Al10  1  0.163450  0.326901  0.576065  1
  Al  Al11  1  0.836555  0.673109  0.424209  1
  Al  Al12  1  0.673050  0.836549  0.574912  1
  Al  Al13  1  0.836555  0.673109  0.075791  1
  Al  Al14  1  0.327051  0.163381  0.425194  1
  Al  Al15  1  0.163450  0.326901  0.923935  1
  Al  Al16  1  0.163498  0.836549  0.574912  1
  Al  Al17  1  0.327051  0.163381  0.074806  1
  Al  Al18  1  0.836330  0.163381  0.425194  1
  Al  Al19  1  0.673050  0.836549  0.925088  1
  Al  Al20  1  0.836330  0.163381  0.074806  1
  Al  Al21  1  0.163498  0.836549  0.925088  1
  Al  Al22  1  0.561104  0.122210  0.250000  1
  Al  Al23  1  0.438874  0.877747  0.750000  1
  Al  Al24  1  0.877393  0.439192  0.250000  1
  Al  Al25  1  0.122370  0.560867  0.750000  1
  Al  Al26  1  0.561800  0.439192  0.250000  1
  Al  Al27  1  0.438496  0.560867  0.750000  1
  Al  Al28  1  0.999193  0.998387  0.250000  1
  Al  Al29  1  0.000630  0.001261  0.750000  1
  Os  Os30  1  0.500076  0.000152  0.999876  1
  Os  Os31  1  0.999801  0.500078  0.999776  1
  Os  Os32  1  0.500076  0.000152  0.500124  1
  Os  Os33  1  0.500277  0.500078  0.999776  1
  Os  Os34  1  0.999801  0.500078  0.500224  1
  Os  Os35  1  0.500277  0.500078  0.500224  1
  Os  Os36  1  0.999977  0.999953  0.999775  1
  Os  Os37  1  0.999977  0.999953  0.500225  1
