# generated using pymatgen
data_ReTc(Ir2W)2
_symmetry_space_group_name_H-M   'P 1'
_cell_length_a   5.58848604
_cell_length_b   5.53956485
_cell_length_c   4.42439700
_cell_angle_alpha   90.00000000
_cell_angle_beta   90.00000000
_cell_angle_gamma   119.71085008
_symmetry_Int_Tables_number   1
_chemical_formula_structural   ReTc(Ir2W)2
_chemical_formula_sum   'Re1 Tc1 Ir4 W2'
_cell_volume   118.96318198
_cell_formula_units_Z   1
loop_
 _symmetry_equiv_pos_site_id
 _symmetry_equiv_pos_as_xyz
  1  'x, y, z'
loop_
 _atom_site_type_symbol
 _atom_site_label
 _atom_site_symmetry_multiplicity
 _atom_site_fract_x
 _atom_site_fract_y
 _atom_site_fract_z
 _atom_site_occupancy
  Re  Re0  1  0.330600  0.165300  0.250000  1
  Tc  Tc1  1  0.667765  0.833882  0.750000  1
  Ir  Ir2  1  0.828553  0.161817  0.250000  1
  Ir  Ir3  1  0.169926  0.333991  0.750000  1
  Ir  Ir4  1  0.169926  0.835935  0.750000  1
  Ir  Ir5  1  0.828553  0.666737  0.250000  1
  W  W6  1  0.667520  0.333759  0.750000  1
  W  W7  1  0.337158  0.668580  0.250000  1
