# generated using pymatgen
data_NdYCd2(Ir2O7)2
_symmetry_space_group_name_H-M   'P 1'
_cell_length_a   7.28474633
_cell_length_b   7.28474635
_cell_length_c   7.41317104
_cell_angle_alpha   59.42446516
_cell_angle_beta   59.42446330
_cell_angle_gamma   59.26180600
_symmetry_Int_Tables_number   1
_chemical_formula_structural   NdYCd2(Ir2O7)2
_chemical_formula_sum   'Nd1 Y1 Cd2 Ir4 O14'
_cell_volume   274.18613555
_cell_formula_units_Z   1
loop_
 _symmetry_equiv_pos_site_id
 _symmetry_equiv_pos_as_xyz
  1  'x, y, z'
loop_
 _atom_site_type_symbol
 _atom_site_label
 _atom_site_symmetry_multiplicity
 _atom_site_fract_x
 _atom_site_fract_y
 _atom_site_fract_z
 _atom_site_occupancy
  Nd  Nd0  1  0.125000  0.125000  0.125000  1
  Y  Y1  1  0.125000  0.125000  0.625000  1
  Cd  Cd2  1  0.625000  0.125000  0.125000  1
  Cd  Cd3  1  0.125000  0.625000  0.125000  1
  Ir  Ir4  1  0.125000  0.625000  0.625000  1
  Ir  Ir5  1  0.625000  0.125000  0.625000  1
  Ir  Ir6  1  0.625000  0.625000  0.125000  1
  Ir  Ir7  1  0.625000  0.625000  0.625000  1
  O  O8  1  0.698610  0.698610  0.302389  1
  O  O9  1  0.290166  0.290166  0.705460  1
  O  O10  1  0.710921  0.296343  0.694440  1
  O  O11  1  0.295902  0.704563  0.299532  1
  O  O12  1  0.296343  0.710921  0.694440  1
  O  O13  1  0.704563  0.295902  0.299532  1
  O  O14  1  0.551390  0.551390  0.947611  1
  O  O15  1  0.959834  0.959834  0.544540  1
  O  O16  1  0.539079  0.953657  0.555560  1
  O  O17  1  0.954098  0.545437  0.950468  1
  O  O18  1  0.953657  0.539079  0.555560  1
  O  O19  1  0.545437  0.954098  0.950468  1
  O  O20  1  0.253490  0.253490  0.254470  1
  O  O21  1  0.996510  0.996510  0.995530  1
