# generated using pymatgen
data_Tm4Lu8Fe3Pb2
_symmetry_space_group_name_H-M   'P 1'
_cell_length_a   8.24528301
_cell_length_b   8.24528352
_cell_length_c   8.24528455
_cell_angle_alpha   108.40269271
_cell_angle_beta   108.40269883
_cell_angle_gamma   111.63008226
_symmetry_Int_Tables_number   1
_chemical_formula_structural   Tm4Lu8Fe3Pb2
_chemical_formula_sum   'Tm4 Lu8 Fe3 Pb2'
_cell_volume   431.05261979
_cell_formula_units_Z   1
loop_
 _symmetry_equiv_pos_site_id
 _symmetry_equiv_pos_as_xyz
  1  'x, y, z'
loop_
 _atom_site_type_symbol
 _atom_site_label
 _atom_site_symmetry_multiplicity
 _atom_site_fract_x
 _atom_site_fract_y
 _atom_site_fract_z
 _atom_site_occupancy
  Tm  Tm0  1  0.307955  0.307955  0.615912  1
  Tm  Tm1  1  0.692045  0.692045  0.384088  1
  Tm  Tm2  1  0.692045  0.307955  0.000000  1
  Tm  Tm3  1  0.307955  0.692045  0.000000  1
  Lu  Lu4  1  0.191918  0.424617  0.232699  1
  Lu  Lu5  1  0.808082  0.575383  0.767301  1
  Lu  Lu6  1  0.191918  0.959218  0.767301  1
  Lu  Lu7  1  0.959218  0.191918  0.767301  1
  Lu  Lu8  1  0.808082  0.040782  0.232699  1
  Lu  Lu9  1  0.040782  0.808082  0.232699  1
  Lu  Lu10  1  0.424617  0.191918  0.232699  1
  Lu  Lu11  1  0.575383  0.808082  0.767301  1
  Fe  Fe12  1  0.384061  0.384061  0.000000  1
  Fe  Fe13  1  0.615939  0.615939  0.000000  1
  Fe  Fe14  1  0.000000  0.000000  0.000000  1
  Pb  Pb15  1  0.000000  0.500000  0.500000  1
  Pb  Pb16  1  0.500000  0.000000  0.500000  1
