# generated using pymatgen
data_Pa2VWC4
_symmetry_space_group_name_H-M   'P 1'
_cell_length_a   3.33757000
_cell_length_b   5.69682400
_cell_length_c   10.89320000
_cell_angle_alpha   90.00000000
_cell_angle_beta   90.00000000
_cell_angle_gamma   90.00000000
_symmetry_Int_Tables_number   1
_chemical_formula_structural   Pa2VWC4
_chemical_formula_sum   'Pa4 V2 W2 C8'
_cell_volume   207.11839063
_cell_formula_units_Z   2
loop_
 _symmetry_equiv_pos_site_id
 _symmetry_equiv_pos_as_xyz
  1  'x, y, z'
loop_
 _atom_site_type_symbol
 _atom_site_label
 _atom_site_symmetry_multiplicity
 _atom_site_fract_x
 _atom_site_fract_y
 _atom_site_fract_z
 _atom_site_occupancy
  Pa  Pa0  1  0.250000  0.082645  0.860972  1
  Pa  Pa1  1  0.750000  0.919330  0.144400  1
  Pa  Pa2  1  0.250000  0.582645  0.639028  1
  Pa  Pa3  1  0.750000  0.419330  0.355600  1
  V  V4  1  0.250000  0.916904  0.397388  1
  V  V5  1  0.250000  0.416904  0.102612  1
  W  W6  1  0.750000  0.080413  0.599748  1
  W  W7  1  0.750000  0.580413  0.900252  1
  C  C8  1  0.250000  0.732854  0.992660  1
  C  C9  1  0.750000  0.267752  0.015179  1
  C  C10  1  0.250000  0.232854  0.507340  1
  C  C11  1  0.750000  0.767752  0.484821  1
  C  C12  1  0.250000  0.164352  0.247763  1
  C  C13  1  0.750000  0.335751  0.746754  1
  C  C14  1  0.250000  0.664352  0.252237  1
  C  C15  1  0.750000  0.835751  0.753246  1
