# generated using pymatgen
data_DyTm15MgCo4Hg3
_symmetry_space_group_name_H-M   'P 1'
_cell_length_a   9.40067942
_cell_length_b   9.37553781
_cell_length_c   9.37553700
_cell_angle_alpha   59.99999935
_cell_angle_beta   60.08842994
_cell_angle_gamma   60.08842122
_symmetry_Int_Tables_number   1
_chemical_formula_structural   DyTm15MgCo4Hg3
_chemical_formula_sum   'Dy1 Tm15 Mg1 Co4 Hg3'
_cell_volume   585.08067099
_cell_formula_units_Z   1
loop_
 _symmetry_equiv_pos_site_id
 _symmetry_equiv_pos_as_xyz
  1  'x, y, z'
loop_
 _atom_site_type_symbol
 _atom_site_label
 _atom_site_symmetry_multiplicity
 _atom_site_fract_x
 _atom_site_fract_y
 _atom_site_fract_z
 _atom_site_occupancy
  Dy  Dy0  1  0.951994  0.349335  0.349335  1
  Tm  Tm1  1  0.810059  0.189088  0.189088  1
  Tm  Tm2  1  0.185355  0.813677  0.813677  1
  Tm  Tm3  1  0.185355  0.813677  0.187291  1
  Tm  Tm4  1  0.810059  0.189088  0.811764  1
  Tm  Tm5  1  0.185355  0.187291  0.813677  1
  Tm  Tm6  1  0.810059  0.811764  0.189088  1
  Tm  Tm7  1  0.936983  0.562209  0.562209  1
  Tm  Tm8  1  0.560900  0.938153  0.938153  1
  Tm  Tm9  1  0.560900  0.938153  0.562793  1
  Tm  Tm10  1  0.936983  0.562209  0.938597  1
  Tm  Tm11  1  0.560900  0.562793  0.938153  1
  Tm  Tm12  1  0.936983  0.938597  0.562209  1
  Tm  Tm13  1  0.347590  0.345516  0.345516  1
  Tm  Tm14  1  0.347590  0.345516  0.961377  1
  Tm  Tm15  1  0.347590  0.961377  0.345516  1
  Mg  Mg16  1  0.284377  0.571875  0.571875  1
  Co  Co17  1  0.139888  0.141717  0.141717  1
  Co  Co18  1  0.139888  0.141717  0.576677  1
  Co  Co19  1  0.139888  0.576677  0.141717  1
  Co  Co20  1  0.575811  0.141396  0.141396  1
  Hg  Hg21  1  0.581829  0.585945  0.585945  1
  Hg  Hg22  1  0.581829  0.585945  0.246281  1
  Hg  Hg23  1  0.581829  0.246281  0.585945  1
