# generated using pymatgen
data_Tb11Dy9Ir11Ru
_symmetry_space_group_name_H-M   'P 1'
_cell_length_a   10.89891300
_cell_length_b   10.89693401
_cell_length_c   6.40997601
_cell_angle_alpha   89.99458376
_cell_angle_beta   90.00301939
_cell_angle_gamma   90.00052582
_symmetry_Int_Tables_number   1
_chemical_formula_structural   Tb11Dy9Ir11Ru
_chemical_formula_sum   'Tb11 Dy9 Ir11 Ru1'
_cell_volume   761.27910281
_cell_formula_units_Z   1
loop_
 _symmetry_equiv_pos_site_id
 _symmetry_equiv_pos_as_xyz
  1  'x, y, z'
loop_
 _atom_site_type_symbol
 _atom_site_label
 _atom_site_symmetry_multiplicity
 _atom_site_fract_x
 _atom_site_fract_y
 _atom_site_fract_z
 _atom_site_occupancy
  Tb  Tb0  1  0.292184  0.087494  0.377302  1
  Tb  Tb1  1  0.292452  0.912457  0.880106  1
  Tb  Tb2  1  0.707545  0.087532  0.880116  1
  Tb  Tb3  1  0.707821  0.912466  0.377337  1
  Tb  Tb4  1  0.587564  0.792445  0.880139  1
  Tb  Tb5  1  0.587447  0.207788  0.377430  1
  Tb  Tb6  1  0.412560  0.792216  0.377397  1
  Tb  Tb7  1  0.412505  0.207506  0.880212  1
  Tb  Tb8  1  0.208999  0.411550  0.621339  1
  Tb  Tb9  1  0.209006  0.588323  0.121050  1
  Tb  Tb10  1  0.790995  0.411737  0.121023  1
  Dy  Dy11  1  0.791193  0.588414  0.621159  1
  Dy  Dy12  1  0.911711  0.708914  0.120855  1
  Dy  Dy13  1  0.911623  0.291114  0.621157  1
  Dy  Dy14  1  0.088246  0.708945  0.621144  1
  Dy  Dy15  1  0.088214  0.291046  0.120868  1
  Dy  Dy16  1  0.999982  0.999991  0.499469  1
  Dy  Dy17  1  0.000002  0.999995  0.999400  1
  Dy  Dy18  1  0.500019  0.500006  0.999373  1
  Dy  Dy19  1  0.500106  0.500049  0.499487  1
  Ir  Ir20  1  0.847461  0.153658  0.250302  1
  Ir  Ir21  1  0.847523  0.846490  0.749975  1
  Ir  Ir22  1  0.152435  0.153335  0.750046  1
  Ir  Ir23  1  0.152533  0.846342  0.250313  1
  Ir  Ir24  1  0.653405  0.347450  0.749623  1
  Ir  Ir25  1  0.653783  0.652721  0.250287  1
  Ir  Ir26  1  0.346330  0.347209  0.249956  1
  Ir  Ir27  1  0.346653  0.652673  0.749712  1
  Ir  Ir28  1  0.500004  0.999994  0.624104  1
  Ir  Ir29  1  0.999862  0.500066  0.877006  1
  Ir  Ir30  1  0.999833  0.500063  0.377466  1
  Ru  Ru31  1  0.500005  0.000010  0.124851  1
