# generated using pymatgen
data_Tb5YAl24(Os3Pt)2
_symmetry_space_group_name_H-M   'P 1'
_cell_length_a   8.84068967
_cell_length_b   8.82048124
_cell_length_c   9.58724216
_cell_angle_alpha   90.05584928
_cell_angle_beta   90.10655197
_cell_angle_gamma   119.60364060
_symmetry_Int_Tables_number   1
_chemical_formula_structural   Tb5YAl24(Os3Pt)2
_chemical_formula_sum   'Tb5 Y1 Al24 Os6 Pt2'
_cell_volume   650.01251649
_cell_formula_units_Z   1
loop_
 _symmetry_equiv_pos_site_id
 _symmetry_equiv_pos_as_xyz
  1  'x, y, z'
loop_
 _atom_site_type_symbol
 _atom_site_label
 _atom_site_symmetry_multiplicity
 _atom_site_fract_x
 _atom_site_fract_y
 _atom_site_fract_z
 _atom_site_occupancy
  Tb  Tb0  1  0.189817  0.386407  0.253085  1
  Tb  Tb1  1  0.810088  0.613577  0.746928  1
  Tb  Tb2  1  0.616103  0.808888  0.252454  1
  Tb  Tb3  1  0.383902  0.191125  0.747574  1
  Tb  Tb4  1  0.190612  0.804762  0.252311  1
  Y  Y5  1  0.809151  0.195452  0.747731  1
  Al  Al6  1  0.328603  0.664805  0.024952  1
  Al  Al7  1  0.671432  0.335110  0.974969  1
  Al  Al8  1  0.666756  0.332711  0.522260  1
  Al  Al9  1  0.333393  0.667235  0.477871  1
  Al  Al10  1  0.164432  0.328246  0.575454  1
  Al  Al11  1  0.835507  0.671751  0.424562  1
  Al  Al12  1  0.672684  0.836598  0.574714  1
  Al  Al13  1  0.841851  0.674639  0.077671  1
  Al  Al14  1  0.327339  0.163491  0.425328  1
  Al  Al15  1  0.158100  0.325330  0.922305  1
  Al  Al16  1  0.164565  0.836762  0.575723  1
  Al  Al17  1  0.323604  0.162008  0.078716  1
  Al  Al18  1  0.835453  0.163278  0.424429  1
  Al  Al19  1  0.676395  0.838007  0.921249  1
  Al  Al20  1  0.841329  0.167658  0.077502  1
  Al  Al21  1  0.158689  0.832320  0.922377  1
  Al  Al22  1  0.561914  0.124883  0.251780  1
  Al  Al23  1  0.438273  0.875299  0.748223  1
  Al  Al24  1  0.876267  0.438936  0.248922  1
  Al  Al25  1  0.123502  0.560836  0.750990  1
  Al  Al26  1  0.562599  0.437281  0.252097  1
  Al  Al27  1  0.437361  0.562748  0.747939  1
  Al  Al28  1  0.997697  0.999515  0.250354  1
  Al  Al29  1  0.002331  0.000390  0.749659  1
  Os  Os30  1  0.999944  0.499890  0.999939  1
  Os  Os31  1  0.500067  0.000046  0.500002  1
  Os  Os32  1  0.000048  0.500057  0.499898  1
  Os  Os33  1  0.500053  0.499960  0.500068  1
  Os  Os34  1  0.999992  0.999998  0.999972  1
  Os  Os35  1  0.999993  0.000016  0.500056  1
  Pt  Pt36  1  0.500107  0.000039  0.999962  1
  Pt  Pt37  1  0.500050  0.499943  0.999972  1
