# generated using pymatgen
data_Ho(MnAl5)2
_symmetry_space_group_name_H-M   'P 1'
_cell_length_a   6.80367432
_cell_length_b   6.80367437
_cell_length_c   9.05906300
_cell_angle_alpha   90.00000000
_cell_angle_beta   90.00000000
_cell_angle_gamma   97.34640398
_symmetry_Int_Tables_number   1
_chemical_formula_structural   Ho(MnAl5)2
_chemical_formula_sum   'Ho2 Mn4 Al20'
_cell_volume   415.90157973
_cell_formula_units_Z   2
loop_
 _symmetry_equiv_pos_site_id
 _symmetry_equiv_pos_as_xyz
  1  'x, y, z'
loop_
 _atom_site_type_symbol
 _atom_site_label
 _atom_site_symmetry_multiplicity
 _atom_site_fract_x
 _atom_site_fract_y
 _atom_site_fract_z
 _atom_site_occupancy
  Ho  Ho0  1  0.873259  0.126741  0.750000  1
  Ho  Ho1  1  0.126741  0.873259  0.250000  1
  Mn  Mn2  1  0.000000  0.500000  0.500000  1
  Mn  Mn3  1  0.000000  0.500000  0.000000  1
  Mn  Mn4  1  0.500000  0.000000  0.000000  1
  Mn  Mn5  1  0.500000  0.000000  0.500000  1
  Al  Al6  1  0.625885  0.374115  0.546188  1
  Al  Al7  1  0.374115  0.625885  0.453812  1
  Al  Al8  1  0.374115  0.625885  0.046188  1
  Al  Al9  1  0.625885  0.374115  0.953812  1
  Al  Al10  1  0.229025  0.229025  0.500000  1
  Al  Al11  1  0.770975  0.770975  0.500000  1
  Al  Al12  1  0.770975  0.770975  0.000000  1
  Al  Al13  1  0.229025  0.229025  0.000000  1
  Al  Al14  1  0.842922  0.157078  0.096568  1
  Al  Al15  1  0.157078  0.842922  0.903432  1
  Al  Al16  1  0.157078  0.842922  0.596568  1
  Al  Al17  1  0.842922  0.157078  0.403432  1
  Al  Al18  1  0.867351  0.587364  0.750000  1
  Al  Al19  1  0.132649  0.412636  0.250000  1
  Al  Al20  1  0.412636  0.132649  0.750000  1
  Al  Al21  1  0.587364  0.867351  0.250000  1
  Al  Al22  1  0.218008  0.475360  0.750000  1
  Al  Al23  1  0.781992  0.524640  0.250000  1
  Al  Al24  1  0.524640  0.781992  0.750000  1
  Al  Al25  1  0.475360  0.218008  0.250000  1
