# generated using pymatgen
data_CaTh3(Si3Pd)2
_symmetry_space_group_name_H-M   'P 1'
_cell_length_a   8.32427653
_cell_length_b   8.26983246
_cell_length_c   5.90013854
_cell_angle_alpha   69.66742626
_cell_angle_beta   68.67911150
_cell_angle_gamma   41.65344965
_symmetry_Int_Tables_number   1
_chemical_formula_structural   CaTh3(Si3Pd)2
_chemical_formula_sum   'Ca1 Th3 Si6 Pd2'
_cell_volume   249.58117336
_cell_formula_units_Z   1
loop_
 _symmetry_equiv_pos_site_id
 _symmetry_equiv_pos_as_xyz
  1  'x, y, z'
loop_
 _atom_site_type_symbol
 _atom_site_label
 _atom_site_symmetry_multiplicity
 _atom_site_fract_x
 _atom_site_fract_y
 _atom_site_fract_z
 _atom_site_occupancy
  Ca  Ca0  1  0.750000  0.749999  0.750000  1
  Th  Th1  1  0.249999  0.250000  0.250000  1
  Th  Th2  1  0.245654  0.754347  0.245652  1
  Th  Th3  1  0.754348  0.245652  0.754347  1
  Si  Si4  1  0.834409  0.834407  0.165592  1
  Si  Si5  1  0.833390  0.331783  0.165170  1
  Si  Si6  1  0.669658  0.165170  0.331783  1
  Si  Si7  1  0.331784  0.833389  0.669657  1
  Si  Si8  1  0.165171  0.669657  0.833389  1
  Si  Si9  1  0.165593  0.165591  0.834408  1
  Pd  Pd10  1  0.666854  0.666852  0.333147  1
  Pd  Pd11  1  0.333148  0.333146  0.666853  1
