# generated using pymatgen
data_SrSbPt2Pb
_symmetry_space_group_name_H-M   'P 1'
_cell_length_a   4.76195500
_cell_length_b   4.76195500
_cell_length_c   10.95389800
_cell_angle_alpha   90.00000000
_cell_angle_beta   90.00000000
_cell_angle_gamma   90.00000000
_symmetry_Int_Tables_number   1
_chemical_formula_structural   SrSbPt2Pb
_chemical_formula_sum   'Sr2 Sb2 Pt4 Pb2'
_cell_volume   248.39295076
_cell_formula_units_Z   2
loop_
 _symmetry_equiv_pos_site_id
 _symmetry_equiv_pos_as_xyz
  1  'x, y, z'
loop_
 _atom_site_type_symbol
 _atom_site_label
 _atom_site_symmetry_multiplicity
 _atom_site_fract_x
 _atom_site_fract_y
 _atom_site_fract_z
 _atom_site_occupancy
  Sr  Sr0  1  0.000000  0.500000  0.761173  1
  Sr  Sr1  1  0.500000  0.000000  0.238827  1
  Sb  Sb2  1  0.000000  0.500000  0.118136  1
  Sb  Sb3  1  0.500000  0.000000  0.881864  1
  Pt  Pt4  1  0.000000  0.000000  0.000000  1
  Pt  Pt5  1  0.500000  0.500000  0.000000  1
  Pt  Pt6  1  0.000000  0.500000  0.356356  1
  Pt  Pt7  1  0.500000  0.000000  0.643644  1
  Pb  Pb8  1  0.000000  0.000000  0.500000  1
  Pb  Pb9  1  0.500000  0.500000  0.500000  1
