# generated using pymatgen
data_Yb2Er(TmRu)2
_symmetry_space_group_name_H-M   'P 1'
_cell_length_a   6.37986208
_cell_length_b   7.18887522
_cell_length_c   8.45666517
_cell_angle_alpha   97.43668766
_cell_angle_beta   112.16092756
_cell_angle_gamma   89.99999948
_symmetry_Int_Tables_number   1
_chemical_formula_structural   Yb2Er(TmRu)2
_chemical_formula_sum   'Yb4 Er2 Tm4 Ru4'
_cell_volume   355.67985240
_cell_formula_units_Z   2
loop_
 _symmetry_equiv_pos_site_id
 _symmetry_equiv_pos_as_xyz
  1  'x, y, z'
loop_
 _atom_site_type_symbol
 _atom_site_label
 _atom_site_symmetry_multiplicity
 _atom_site_fract_x
 _atom_site_fract_y
 _atom_site_fract_z
 _atom_site_occupancy
  Yb  Yb0  1  0.794852  0.078886  0.816361  1
  Yb  Yb1  1  0.978490  0.421114  0.183639  1
  Yb  Yb2  1  0.205197  0.920560  0.183609  1
  Yb  Yb3  1  0.021588  0.579440  0.816391  1
  Er  Er4  1  0.197166  0.184325  0.566070  1
  Er  Er5  1  0.631097  0.315675  0.433930  1
  Tm  Tm6  1  0.802798  0.815570  0.433797  1
  Tm  Tm7  1  0.369000  0.684430  0.566203  1
  Tm  Tm8  1  0.432243  0.250000  0.000000  1
  Tm  Tm9  1  0.567881  0.750000  0.000000  1
  Ru  Ru10  1  0.581763  0.425388  0.768754  1
  Ru  Ru11  1  0.813009  0.074612  0.231246  1
  Ru  Ru12  1  0.418500  0.575816  0.232084  1
  Ru  Ru13  1  0.186416  0.924184  0.767916  1
