# generated using pymatgen
data_Hf3Zr(CrRe3)2
_symmetry_space_group_name_H-M   'P 1'
_cell_length_a   5.17615946
_cell_length_b   5.29957018
_cell_length_c   8.59502127
_cell_angle_alpha   89.99999716
_cell_angle_beta   89.97556555
_cell_angle_gamma   120.79187360
_symmetry_Int_Tables_number   1
_chemical_formula_structural   Hf3Zr(CrRe3)2
_chemical_formula_sum   'Hf3 Zr1 Cr2 Re6'
_cell_volume   202.53719809
_cell_formula_units_Z   1
loop_
 _symmetry_equiv_pos_site_id
 _symmetry_equiv_pos_as_xyz
  1  'x, y, z'
loop_
 _atom_site_type_symbol
 _atom_site_label
 _atom_site_symmetry_multiplicity
 _atom_site_fract_x
 _atom_site_fract_y
 _atom_site_fract_z
 _atom_site_occupancy
  Hf  Hf0  1  0.336115  0.668058  0.438791  1
  Hf  Hf1  1  0.663841  0.331920  0.937943  1
  Hf  Hf2  1  0.663894  0.331947  0.561715  1
  Zr  Zr3  1  0.336071  0.668036  0.061747  1
  Cr  Cr4  1  0.660173  0.830087  0.749598  1
  Cr  Cr5  1  0.340005  0.170002  0.250389  1
  Re  Re6  1  0.826043  0.171981  0.250656  1
  Re  Re7  1  0.173854  0.345666  0.749481  1
  Re  Re8  1  0.173854  0.828188  0.749481  1
  Re  Re9  1  0.826043  0.654063  0.250656  1
  Re  Re10  1  0.999868  0.999934  0.499731  1
  Re  Re11  1  0.000237  0.000119  0.999812  1
