# generated using pymatgen
data_HgPd4Au
_symmetry_space_group_name_H-M   'P 1'
_cell_length_a   3.99076400
_cell_length_b   6.45857274
_cell_length_c   4.10205700
_cell_angle_alpha   90.00000000
_cell_angle_beta   90.00000000
_cell_angle_gamma   107.99602887
_symmetry_Int_Tables_number   1
_chemical_formula_structural   HgPd4Au
_chemical_formula_sum   'Hg1 Pd4 Au1'
_cell_volume   100.55655732
_cell_formula_units_Z   1
loop_
 _symmetry_equiv_pos_site_id
 _symmetry_equiv_pos_as_xyz
  1  'x, y, z'
loop_
 _atom_site_type_symbol
 _atom_site_label
 _atom_site_symmetry_multiplicity
 _atom_site_fract_x
 _atom_site_fract_y
 _atom_site_fract_z
 _atom_site_occupancy
  Hg  Hg0  1  0.997122  0.994243  0.000000  1
  Pd  Pd1  1  0.669668  0.339334  0.000000  1
  Pd  Pd2  1  0.331532  0.663066  0.000000  1
  Pd  Pd3  1  0.499176  0.998353  0.499998  1
  Pd  Pd4  1  0.832034  0.664069  0.499998  1
  Au  Au5  1  0.170469  0.340936  0.499998  1
