# generated using pymatgen
data_Rb2Mg(PS3)2
_symmetry_space_group_name_H-M   'P 1'
_cell_length_a   12.60561300
_cell_length_b   6.20266893
_cell_length_c   9.27572261
_cell_angle_alpha   56.39633331
_cell_angle_beta   90.00000000
_cell_angle_gamma   90.00000000
_symmetry_Int_Tables_number   1
_chemical_formula_structural   Rb2Mg(PS3)2
_chemical_formula_sum   'Rb4 Mg2 P4 S12'
_cell_volume   604.05404078
_cell_formula_units_Z   2
loop_
 _symmetry_equiv_pos_site_id
 _symmetry_equiv_pos_as_xyz
  1  'x, y, z'
loop_
 _atom_site_type_symbol
 _atom_site_label
 _atom_site_symmetry_multiplicity
 _atom_site_fract_x
 _atom_site_fract_y
 _atom_site_fract_z
 _atom_site_occupancy
  Rb  Rb0  1  0.326256  0.203380  0.525660  1
  Rb  Rb1  1  0.673744  0.796620  0.474340  1
  Rb  Rb2  1  0.826256  0.796620  0.974340  1
  Rb  Rb3  1  0.173744  0.203380  0.025660  1
  Mg  Mg4  1  0.500000  0.500000  0.000000  1
  Mg  Mg5  1  0.000000  0.500000  0.500000  1
  P  P6  1  0.460407  0.845751  0.123595  1
  P  P7  1  0.039593  0.845751  0.623595  1
  P  P8  1  0.960407  0.154249  0.376405  1
  P  P9  1  0.539593  0.154249  0.876405  1
  S  S10  1  0.075320  0.031962  0.740775  1
  S  S11  1  0.664497  0.277088  0.951951  1
  S  S12  1  0.067950  0.446773  0.253219  1
  S  S13  1  0.924680  0.968038  0.259225  1
  S  S14  1  0.424680  0.031962  0.240775  1
  S  S15  1  0.335503  0.722912  0.048049  1
  S  S16  1  0.432050  0.446773  0.753219  1
  S  S17  1  0.567950  0.553227  0.246781  1
  S  S18  1  0.575320  0.968038  0.759225  1
  S  S19  1  0.164497  0.722912  0.548049  1
  S  S20  1  0.932050  0.553227  0.746781  1
  S  S21  1  0.835503  0.277088  0.451951  1
