# generated using pymatgen
data_Nd2Cd3In5Ni2
_symmetry_space_group_name_H-M   'P 1'
_cell_length_a   8.78709210
_cell_length_b   8.78709163
_cell_length_c   7.12935500
_cell_angle_alpha   90.00000000
_cell_angle_beta   90.00000000
_cell_angle_gamma   150.65624751
_symmetry_Int_Tables_number   1
_chemical_formula_structural   Nd2Cd3In5Ni2
_chemical_formula_sum   'Nd2 Cd3 In5 Ni2'
_cell_volume   269.76115355
_cell_formula_units_Z   1
loop_
 _symmetry_equiv_pos_site_id
 _symmetry_equiv_pos_as_xyz
  1  'x, y, z'
loop_
 _atom_site_type_symbol
 _atom_site_label
 _atom_site_symmetry_multiplicity
 _atom_site_fract_x
 _atom_site_fract_y
 _atom_site_fract_z
 _atom_site_occupancy
  Nd  Nd0  1  0.874672  0.125328  0.750000  1
  Nd  Nd1  1  0.123142  0.876858  0.250000  1
  Cd  Cd2  1  0.500955  0.499045  0.994347  1
  Cd  Cd3  1  0.500955  0.499045  0.505653  1
  Cd  Cd4  1  0.071511  0.928489  0.750000  1
  In  In5  1  0.928778  0.071222  0.250000  1
  In  In6  1  0.685759  0.314241  0.953733  1
  In  In7  1  0.312942  0.687058  0.046494  1
  In  In8  1  0.685759  0.314241  0.546267  1
  In  In9  1  0.312942  0.687058  0.453506  1
  Ni  Ni10  1  0.225481  0.774519  0.750000  1
  Ni  Ni11  1  0.777104  0.222896  0.250000  1
