# generated using pymatgen
data_K3Rb15(InSb4)2
_symmetry_space_group_name_H-M   'P 1'
_cell_length_a   10.99181440
_cell_length_b   11.04490170
_cell_length_c   11.65355500
_cell_angle_alpha   90.00000000
_cell_angle_beta   90.00000000
_cell_angle_gamma   119.44088096
_symmetry_Int_Tables_number   1
_chemical_formula_structural   K3Rb15(InSb4)2
_chemical_formula_sum   'K3 Rb15 In2 Sb8'
_cell_volume   1232.08217122
_cell_formula_units_Z   1
loop_
 _symmetry_equiv_pos_site_id
 _symmetry_equiv_pos_as_xyz
  1  'x, y, z'
loop_
 _atom_site_type_symbol
 _atom_site_label
 _atom_site_symmetry_multiplicity
 _atom_site_fract_x
 _atom_site_fract_y
 _atom_site_fract_z
 _atom_site_occupancy
  K  K0  1  0.119476  0.881460  0.250000  1
  K  K1  1  0.882136  0.118853  0.750000  1
  K  K2  1  0.238797  0.119613  0.750000  1
  Rb  Rb3  1  0.584027  0.792901  0.544157  1
  Rb  Rb4  1  0.792584  0.583713  0.043953  1
  Rb  Rb5  1  0.207431  0.415019  0.545027  1
  Rb  Rb6  1  0.207832  0.793797  0.542452  1
  Rb  Rb7  1  0.792282  0.207584  0.041196  1
  Rb  Rb8  1  0.414430  0.206388  0.042066  1
  Rb  Rb9  1  0.792584  0.583713  0.456048  1
  Rb  Rb10  1  0.792282  0.207584  0.458804  1
  Rb  Rb11  1  0.414430  0.206388  0.457935  1
  Rb  Rb12  1  0.584027  0.792901  0.955843  1
  Rb  Rb13  1  0.207832  0.793797  0.957548  1
  Rb  Rb14  1  0.207431  0.415019  0.954973  1
  Rb  Rb15  1  0.119787  0.239198  0.250000  1
  Rb  Rb16  1  0.880590  0.761071  0.750000  1
  Rb  Rb17  1  0.763715  0.881868  0.250000  1
  In  In18  1  0.332814  0.666496  0.250000  1
  In  In19  1  0.666364  0.332903  0.750000  1
  Sb  Sb20  1  0.003440  0.001948  0.997528  1
  Sb  Sb21  1  0.003440  0.001948  0.502472  1
  Sb  Sb22  1  0.484491  0.517550  0.250000  1
  Sb  Sb23  1  0.512387  0.479142  0.750000  1
  Sb  Sb24  1  0.477879  0.964198  0.250000  1
  Sb  Sb25  1  0.033845  0.522189  0.250000  1
  Sb  Sb26  1  0.964923  0.477148  0.750000  1
  Sb  Sb27  1  0.518750  0.035610  0.750000  1
