# generated using pymatgen
data_Hf2Zr3Te4
_symmetry_space_group_name_H-M   'P 1'
_cell_length_a   7.90020269
_cell_length_b   7.89981965
_cell_length_c   7.91639980
_cell_angle_alpha   93.40084870
_cell_angle_beta   93.30588794
_cell_angle_gamma   151.97949265
_symmetry_Int_Tables_number   1
_chemical_formula_structural   Hf2Zr3Te4
_chemical_formula_sum   'Hf2 Zr3 Te4'
_cell_volume   225.22823064
_cell_formula_units_Z   1
loop_
 _symmetry_equiv_pos_site_id
 _symmetry_equiv_pos_as_xyz
  1  'x, y, z'
loop_
 _atom_site_type_symbol
 _atom_site_label
 _atom_site_symmetry_multiplicity
 _atom_site_fract_x
 _atom_site_fract_y
 _atom_site_fract_z
 _atom_site_occupancy
  Hf  Hf0  1  0.690028  0.631056  0.321055  1
  Hf  Hf1  1  0.000355  0.000136  0.000491  1
  Zr  Zr2  1  0.308757  0.368073  0.676855  1
  Zr  Zr3  1  0.631174  0.311044  0.942337  1
  Zr  Zr4  1  0.369350  0.689669  0.058904  1
  Te  Te5  1  0.052913  0.282151  0.335022  1
  Te  Te6  1  0.716847  0.052322  0.769102  1
  Te  Te7  1  0.283488  0.949730  0.233274  1
  Te  Te8  1  0.947088  0.715819  0.662957  1
