# generated using pymatgen
data_Tb3Dy3Pa2(ReB6)4
_symmetry_space_group_name_H-M   'P 1'
_cell_length_a   3.71088200
_cell_length_b   9.19206173
_cell_length_c   11.55693004
_cell_angle_alpha   90.37596429
_cell_angle_beta   90.00000000
_cell_angle_gamma   90.00000000
_symmetry_Int_Tables_number   1
_chemical_formula_structural   Tb3Dy3Pa2(ReB6)4
_chemical_formula_sum   'Tb3 Dy3 Pa2 Re4 B24'
_cell_volume   394.20598296
_cell_formula_units_Z   1
loop_
 _symmetry_equiv_pos_site_id
 _symmetry_equiv_pos_as_xyz
  1  'x, y, z'
loop_
 _atom_site_type_symbol
 _atom_site_label
 _atom_site_symmetry_multiplicity
 _atom_site_fract_x
 _atom_site_fract_y
 _atom_site_fract_z
 _atom_site_occupancy
  Tb  Tb0  1  0.000000  0.824189  0.085804  1
  Tb  Tb1  1  0.000000  0.175799  0.914107  1
  Tb  Tb2  1  0.000000  0.944866  0.373064  1
  Dy  Dy3  1  0.000000  0.055179  0.627175  1
  Dy  Dy4  1  0.000000  0.443812  0.126557  1
  Dy  Dy5  1  0.000000  0.556196  0.873394  1
  Pa  Pa6  1  0.000000  0.322161  0.413020  1
  Pa  Pa7  1  0.000000  0.677898  0.587090  1
  Re  Re8  1  0.000000  0.634488  0.325285  1
  Re  Re9  1  0.000000  0.365236  0.674748  1
  Re  Re10  1  0.000000  0.140845  0.181792  1
  Re  Re11  1  0.000000  0.859311  0.818038  1
  B  B12  1  0.500000  0.553091  0.433002  1
  B  B13  1  0.500000  0.446825  0.567041  1
  B  B14  1  0.500000  0.053435  0.067667  1
  B  B15  1  0.500000  0.946602  0.932247  1
  B  B16  1  0.500000  0.747082  0.419879  1
  B  B17  1  0.500000  0.252676  0.580179  1
  B  B18  1  0.500000  0.247488  0.080566  1
  B  B19  1  0.500000  0.752549  0.919406  1
  B  B20  1  0.500000  0.790774  0.266259  1
  B  B21  1  0.500000  0.208959  0.733656  1
  B  B22  1  0.500000  0.292156  0.233717  1
  B  B23  1  0.500000  0.707940  0.766267  1
  B  B24  1  0.500000  0.631464  0.186019  1
  B  B25  1  0.500000  0.368462  0.813936  1
  B  B26  1  0.500000  0.133026  0.313777  1
  B  B27  1  0.500000  0.867199  0.686153  1
  B  B28  1  0.500000  0.982936  0.212370  1
  B  B29  1  0.500000  0.017211  0.787415  1
  B  B30  1  0.500000  0.483060  0.286870  1
  B  B31  1  0.500000  0.516897  0.713119  1
  B  B32  1  0.500000  0.605779  0.029684  1
  B  B33  1  0.500000  0.394219  0.970296  1
  B  B34  1  0.500000  0.113681  0.468794  1
  B  B35  1  0.500000  0.886507  0.531607  1
