# generated using pymatgen
data_La8Y12Si15Rh
_symmetry_space_group_name_H-M   'P 1'
_cell_length_a   7.58986911
_cell_length_b   7.88923708
_cell_length_c   14.95014300
_cell_angle_alpha   90.00000000
_cell_angle_beta   90.00000000
_cell_angle_gamma   90.49162375
_symmetry_Int_Tables_number   1
_chemical_formula_structural   La8Y12Si15Rh
_chemical_formula_sum   'La8 Y12 Si15 Rh1'
_cell_volume   895.15584714
_cell_formula_units_Z   1
loop_
 _symmetry_equiv_pos_site_id
 _symmetry_equiv_pos_as_xyz
  1  'x, y, z'
loop_
 _atom_site_type_symbol
 _atom_site_label
 _atom_site_symmetry_multiplicity
 _atom_site_fract_x
 _atom_site_fract_y
 _atom_site_fract_z
 _atom_site_occupancy
  La  La0  1  0.022938  0.178893  0.401811  1
  La  La1  1  0.521916  0.324811  0.402275  1
  La  La2  1  0.473712  0.677678  0.902429  1
  La  La3  1  0.473712  0.677678  0.597571  1
  La  La4  1  0.983583  0.822936  0.599237  1
  La  La5  1  0.983583  0.822936  0.900763  1
  La  La6  1  0.521916  0.324811  0.097725  1
  La  La7  1  0.022938  0.178893  0.098189  1
  Y  Y8  1  0.319053  0.177985  0.623492  1
  Y  Y9  1  0.680990  0.821646  0.377705  1
  Y  Y10  1  0.640571  0.980125  0.750000  1
  Y  Y11  1  0.180109  0.678669  0.376832  1
  Y  Y12  1  0.820426  0.320978  0.877986  1
  Y  Y13  1  0.820426  0.320978  0.622014  1
  Y  Y14  1  0.847598  0.491341  0.250000  1
  Y  Y15  1  0.347936  0.012478  0.250000  1
  Y  Y16  1  0.319053  0.177985  0.876508  1
  Y  Y17  1  0.180109  0.678669  0.123168  1
  Y  Y18  1  0.680990  0.821646  0.122295  1
  Y  Y19  1  0.156310  0.510481  0.750000  1
  Si  Si20  1  0.472646  0.616004  0.250000  1
  Si  Si21  1  0.023486  0.114399  0.750000  1
  Si  Si22  1  0.531318  0.384749  0.750000  1
  Si  Si23  1  0.144182  0.468832  0.538833  1
  Si  Si24  1  0.973286  0.887199  0.250000  1
  Si  Si25  1  0.728858  0.119947  0.250000  1
  Si  Si26  1  0.857789  0.529348  0.040888  1
  Si  Si27  1  0.357790  0.970163  0.039521  1
  Si  Si28  1  0.144182  0.468832  0.961167  1
  Si  Si29  1  0.644149  0.031915  0.539241  1
  Si  Si30  1  0.357790  0.970163  0.460479  1
  Si  Si31  1  0.857789  0.529348  0.459112  1
  Si  Si32  1  0.769304  0.613054  0.750000  1
  Si  Si33  1  0.230854  0.382341  0.250000  1
  Si  Si34  1  0.644149  0.031915  0.960759  1
  Rh  Rh35  1  0.264561  0.880174  0.750000  1
