# generated using pymatgen
data_KWF7
_symmetry_space_group_name_H-M   'P 1'
_cell_length_a   7.66396100
_cell_length_b   5.19358895
_cell_length_c   7.16931214
_cell_angle_alpha   85.46865843
_cell_angle_beta   90.00000000
_cell_angle_gamma   90.00000000
_symmetry_Int_Tables_number   1
_chemical_formula_structural   KWF7
_chemical_formula_sum   'K2 W2 F14'
_cell_volume   284.47148169
_cell_formula_units_Z   2
loop_
 _symmetry_equiv_pos_site_id
 _symmetry_equiv_pos_as_xyz
  1  'x, y, z'
loop_
 _atom_site_type_symbol
 _atom_site_label
 _atom_site_symmetry_multiplicity
 _atom_site_fract_x
 _atom_site_fract_y
 _atom_site_fract_z
 _atom_site_occupancy
  K  K0  1  0.250000  0.024544  0.691288  1
  K  K1  1  0.750000  0.975456  0.308712  1
  W  W2  1  0.250000  0.456746  0.224821  1
  W  W3  1  0.750000  0.543254  0.775179  1
  F  F4  1  0.250000  0.632184  0.974697  1
  F  F5  1  0.541764  0.338084  0.783904  1
  F  F6  1  0.750000  0.367816  0.025303  1
  F  F7  1  0.041764  0.661916  0.216096  1
  F  F8  1  0.250000  0.184742  0.057674  1
  F  F9  1  0.084227  0.211768  0.346167  1
  F  F10  1  0.415773  0.211768  0.346167  1
  F  F11  1  0.584227  0.788232  0.653833  1
  F  F12  1  0.958236  0.338084  0.783904  1
  F  F13  1  0.750000  0.815258  0.942326  1
  F  F14  1  0.458236  0.661916  0.216096  1
  F  F15  1  0.750000  0.422244  0.525500  1
  F  F16  1  0.915773  0.788232  0.653833  1
  F  F17  1  0.250000  0.577756  0.474500  1
