# generated using pymatgen
data_CoCu4(PtO4)2
_symmetry_space_group_name_H-M   'P 1'
_cell_length_a   6.62086485
_cell_length_b   6.50209353
_cell_length_c   6.50209482
_cell_angle_alpha   61.21222627
_cell_angle_beta   59.39390374
_cell_angle_gamma   59.39389471
_symmetry_Int_Tables_number   1
_chemical_formula_structural   CoCu4(PtO4)2
_chemical_formula_sum   'Co1 Cu4 Pt2 O8'
_cell_volume   197.79303051
_cell_formula_units_Z   1
loop_
 _symmetry_equiv_pos_site_id
 _symmetry_equiv_pos_as_xyz
  1  'x, y, z'
loop_
 _atom_site_type_symbol
 _atom_site_label
 _atom_site_symmetry_multiplicity
 _atom_site_fract_x
 _atom_site_fract_y
 _atom_site_fract_z
 _atom_site_occupancy
  Co  Co0  1  0.000000  0.000000  0.000000  1
  Cu  Cu1  1  0.500000  0.500000  0.000000  1
  Cu  Cu2  1  0.500000  0.000000  0.500000  1
  Cu  Cu3  1  0.000000  0.500000  0.000000  1
  Cu  Cu4  1  0.000000  0.000000  0.500000  1
  Pt  Pt5  1  0.500000  0.000000  0.000000  1
  Pt  Pt6  1  0.000000  0.500000  0.500000  1
  O  O7  1  0.582518  0.144666  0.144666  1
  O  O8  1  0.128148  0.144666  0.144666  1
  O  O9  1  0.144666  0.582518  0.128148  1
  O  O10  1  0.144666  0.128148  0.582518  1
  O  O11  1  0.855334  0.417482  0.871852  1
  O  O12  1  0.855334  0.871852  0.417482  1
  O  O13  1  0.871852  0.855334  0.855334  1
  O  O14  1  0.417482  0.855334  0.855334  1
