# generated using pymatgen
data_RbSrReN3
_symmetry_space_group_name_H-M   'P 1'
_cell_length_a   6.59226719
_cell_length_b   6.59226746
_cell_length_c   13.00732433
_cell_angle_alpha   90.05047415
_cell_angle_beta   90.05047625
_cell_angle_gamma   126.48638240
_symmetry_Int_Tables_number   1
_chemical_formula_structural   RbSrReN3
_chemical_formula_sum   'Rb4 Sr4 Re4 N12'
_cell_volume   454.47692782
_cell_formula_units_Z   4
loop_
 _symmetry_equiv_pos_site_id
 _symmetry_equiv_pos_as_xyz
  1  'x, y, z'
loop_
 _atom_site_type_symbol
 _atom_site_label
 _atom_site_symmetry_multiplicity
 _atom_site_fract_x
 _atom_site_fract_y
 _atom_site_fract_z
 _atom_site_occupancy
  Rb  Rb0  1  0.963446  0.547287  0.361587  1
  Rb  Rb1  1  0.452713  0.036554  0.138413  1
  Rb  Rb2  1  0.036554  0.452713  0.638413  1
  Rb  Rb3  1  0.547287  0.963446  0.861587  1
  Sr  Sr4  1  0.142805  0.342810  0.085035  1
  Sr  Sr5  1  0.657190  0.857195  0.414965  1
  Sr  Sr6  1  0.857195  0.657190  0.914965  1
  Sr  Sr7  1  0.342810  0.142805  0.585035  1
  Re  Re8  1  0.772876  0.724066  0.160151  1
  Re  Re9  1  0.275934  0.227124  0.339849  1
  Re  Re10  1  0.227124  0.275934  0.839849  1
  Re  Re11  1  0.724066  0.772876  0.660151  1
  N  N12  1  0.484106  0.515894  0.250000  1
  N  N13  1  0.515894  0.484106  0.750000  1
  N  N14  1  0.913603  0.573605  0.116462  1
  N  N15  1  0.426395  0.086397  0.383538  1
  N  N16  1  0.086397  0.426395  0.883538  1
  N  N17  1  0.573605  0.913603  0.616462  1
  N  N18  1  0.823729  0.690095  0.547162  1
  N  N19  1  0.309905  0.176271  0.952838  1
  N  N20  1  0.176271  0.309905  0.452838  1
  N  N21  1  0.690095  0.823729  0.047162  1
  N  N22  1  0.990659  0.009341  0.250000  1
  N  N23  1  0.009341  0.990659  0.750000  1
