# generated using pymatgen
data_Tb2PrEr(Mo2O7)2
_symmetry_space_group_name_H-M   'P 1'
_cell_length_a   7.34001181
_cell_length_b   7.41251297
_cell_length_c   7.34001189
_cell_angle_alpha   61.07703008
_cell_angle_beta   60.48926845
_cell_angle_gamma   61.07702090
_symmetry_Int_Tables_number   1
_chemical_formula_structural   Tb2PrEr(Mo2O7)2
_chemical_formula_sum   'Tb2 Pr1 Er1 Mo4 O14'
_cell_volume   287.97590274
_cell_formula_units_Z   1
loop_
 _symmetry_equiv_pos_site_id
 _symmetry_equiv_pos_as_xyz
  1  'x, y, z'
loop_
 _atom_site_type_symbol
 _atom_site_label
 _atom_site_symmetry_multiplicity
 _atom_site_fract_x
 _atom_site_fract_y
 _atom_site_fract_z
 _atom_site_occupancy
  Tb  Tb0  1  0.625000  0.125000  0.125000  1
  Tb  Tb1  1  0.125000  0.125000  0.625000  1
  Pr  Pr2  1  0.125000  0.625000  0.125000  1
  Er  Er3  1  0.125000  0.125000  0.125000  1
  Mo  Mo4  1  0.625000  0.625000  0.625000  1
  Mo  Mo5  1  0.125000  0.625000  0.625000  1
  Mo  Mo6  1  0.625000  0.625000  0.125000  1
  Mo  Mo7  1  0.625000  0.125000  0.625000  1
  O  O8  1  0.997676  0.013775  0.997676  1
  O  O9  1  0.252324  0.236225  0.252324  1
  O  O10  1  0.299877  0.288900  0.712983  1
  O  O11  1  0.540106  0.520281  0.976726  1
  O  O12  1  0.714222  0.277574  0.714222  1
  O  O13  1  0.712983  0.288900  0.299877  1
  O  O14  1  0.273274  0.729719  0.709894  1
  O  O15  1  0.288102  0.731485  0.288102  1
  O  O16  1  0.709894  0.729719  0.273274  1
  O  O17  1  0.976726  0.520281  0.540106  1
  O  O18  1  0.537017  0.961100  0.950123  1
  O  O19  1  0.950123  0.961100  0.537017  1
  O  O20  1  0.961898  0.518515  0.961898  1
  O  O21  1  0.535778  0.972426  0.535778  1
