# generated using pymatgen
data_Nb3Zn2GaIr3
_symmetry_space_group_name_H-M   'P 1'
_cell_length_a   7.48617233
_cell_length_b   7.47593284
_cell_length_c   2.91643000
_cell_angle_alpha   90.00000000
_cell_angle_beta   90.00000000
_cell_angle_gamma   119.95476381
_symmetry_Int_Tables_number   1
_chemical_formula_structural   Nb3Zn2GaIr3
_chemical_formula_sum   'Nb3 Zn2 Ga1 Ir3'
_cell_volume   141.41816067
_cell_formula_units_Z   1
loop_
 _symmetry_equiv_pos_site_id
 _symmetry_equiv_pos_as_xyz
  1  'x, y, z'
loop_
 _atom_site_type_symbol
 _atom_site_label
 _atom_site_symmetry_multiplicity
 _atom_site_fract_x
 _atom_site_fract_y
 _atom_site_fract_z
 _atom_site_occupancy
  Nb  Nb0  1  0.371528  0.004024  0.500001  1
  Nb  Nb1  1  0.000000  0.361786  0.500001  1
  Nb  Nb2  1  0.628472  0.632496  0.500001  1
  Zn  Zn3  1  0.703629  0.999624  0.000000  1
  Zn  Zn4  1  0.296370  0.295995  0.000000  1
  Ga  Ga5  1  0.000000  0.705501  0.000000  1
  Ir  Ir6  1  0.669148  0.336268  0.000000  1
  Ir  Ir7  1  0.330853  0.667120  0.000000  1
  Ir  Ir8  1  0.000000  0.997189  0.500001  1
