# generated using pymatgen
data_Ho6AlSn5Pd6
_symmetry_space_group_name_H-M   'P 1'
_cell_length_a   7.59694700
_cell_length_b   7.65891754
_cell_length_c   7.66107304
_cell_angle_alpha   89.98491525
_cell_angle_beta   90.00000000
_cell_angle_gamma   119.73268828
_symmetry_Int_Tables_number   1
_chemical_formula_structural   Ho6AlSn5Pd6
_chemical_formula_sum   'Ho6 Al1 Sn5 Pd6'
_cell_volume   387.07064346
_cell_formula_units_Z   1
loop_
 _symmetry_equiv_pos_site_id
 _symmetry_equiv_pos_as_xyz
  1  'x, y, z'
loop_
 _atom_site_type_symbol
 _atom_site_label
 _atom_site_symmetry_multiplicity
 _atom_site_fract_x
 _atom_site_fract_y
 _atom_site_fract_z
 _atom_site_occupancy
  Ho  Ho0  1  0.407939  0.002266  0.245779  1
  Ho  Ho1  1  0.598222  0.599861  0.247961  1
  Ho  Ho2  1  0.994282  0.398245  0.247616  1
  Ho  Ho3  1  0.405672  0.997734  0.754221  1
  Ho  Ho4  1  0.596035  0.601755  0.752384  1
  Ho  Ho5  1  0.998361  0.400139  0.752039  1
  Al  Al6  1  0.742204  0.000000  0.000000  1
  Sn  Sn7  1  0.262786  0.261482  0.500054  1
  Sn  Sn8  1  0.001303  0.738518  0.499946  1
  Sn  Sn9  1  0.996533  0.736554  0.999901  1
  Sn  Sn10  1  0.259979  0.263446  0.000099  1
  Sn  Sn11  1  0.736035  0.000000  0.500000  1
  Pd  Pd12  1  0.345532  0.676972  0.003685  1
  Pd  Pd13  1  0.332870  0.665303  0.495594  1
  Pd  Pd14  1  0.668562  0.323028  0.996315  1
  Pd  Pd15  1  0.667569  0.334697  0.504406  1
  Pd  Pd16  1  0.993067  0.000017  0.245574  1
  Pd  Pd17  1  0.993050  0.999983  0.754426  1
