# generated using pymatgen
data_Tb3TmZnRh
_symmetry_space_group_name_H-M   'P 1'
_cell_length_a   9.50929376
_cell_length_b   9.49157782
_cell_length_c   9.49259892
_cell_angle_alpha   59.97476159
_cell_angle_beta   59.87393946
_cell_angle_gamma   59.80584716
_symmetry_Int_Tables_number   1
_chemical_formula_structural   Tb3TmZnRh
_chemical_formula_sum   'Tb12 Tm4 Zn4 Rh4'
_cell_volume   604.25291447
_cell_formula_units_Z   4
loop_
 _symmetry_equiv_pos_site_id
 _symmetry_equiv_pos_as_xyz
  1  'x, y, z'
loop_
 _atom_site_type_symbol
 _atom_site_label
 _atom_site_symmetry_multiplicity
 _atom_site_fract_x
 _atom_site_fract_y
 _atom_site_fract_z
 _atom_site_occupancy
  Tb  Tb0  1  0.062292  0.063644  0.438336  1
  Tb  Tb1  1  0.437039  0.435171  0.062696  1
  Tb  Tb2  1  0.647394  0.646034  0.646190  1
  Tb  Tb3  1  0.809590  0.190595  0.190467  1
  Tb  Tb4  1  0.190756  0.810282  0.809168  1
  Tb  Tb5  1  0.062512  0.644131  0.645612  1
  Tb  Tb6  1  0.438381  0.063448  0.062144  1
  Tb  Tb7  1  0.436834  0.062493  0.436549  1
  Tb  Tb8  1  0.063754  0.436752  0.063768  1
  Tb  Tb9  1  0.645747  0.645297  0.062856  1
  Tb  Tb10  1  0.190190  0.810976  0.190545  1
  Tb  Tb11  1  0.063019  0.435415  0.436919  1
  Tm  Tm12  1  0.808474  0.809737  0.191450  1
  Tm  Tm13  1  0.809050  0.191065  0.809230  1
  Tm  Tm14  1  0.190801  0.191278  0.809278  1
  Tm  Tm15  1  0.644885  0.062471  0.646088  1
  Zn  Zn16  1  0.421401  0.419870  0.421897  1
  Zn  Zn17  1  0.421330  0.419397  0.738540  1
  Zn  Zn18  1  0.421142  0.738551  0.420470  1
  Zn  Zn19  1  0.738596  0.419846  0.421209  1
  Rh  Rh20  1  0.857879  0.427413  0.855223  1
  Rh  Rh21  1  0.854661  0.860178  0.856557  1
  Rh  Rh22  1  0.853658  0.856646  0.430841  1
  Rh  Rh23  1  0.430613  0.859312  0.853967  1
