# generated using pymatgen
data_TmTh7(Si3Rh)4
_symmetry_space_group_name_H-M   'P 1'
_cell_length_a   8.20874800
_cell_length_b   8.22016286
_cell_length_c   8.39310700
_cell_angle_alpha   90.00000000
_cell_angle_beta   90.00000000
_cell_angle_gamma   119.95407472
_symmetry_Int_Tables_number   1
_chemical_formula_structural   TmTh7(Si3Rh)4
_chemical_formula_sum   'Tm1 Th7 Si12 Rh4'
_cell_volume   490.69488523
_cell_formula_units_Z   1
loop_
 _symmetry_equiv_pos_site_id
 _symmetry_equiv_pos_as_xyz
  1  'x, y, z'
loop_
 _atom_site_type_symbol
 _atom_site_label
 _atom_site_symmetry_multiplicity
 _atom_site_fract_x
 _atom_site_fract_y
 _atom_site_fract_z
 _atom_site_occupancy
  Tm  Tm0  1  0.500074  0.000147  0.750000  1
  Th  Th1  1  0.000040  0.000078  0.250000  1
  Th  Th2  1  0.999981  0.999961  0.750000  1
  Th  Th3  1  0.499877  0.500322  0.250000  1
  Th  Th4  1  0.499789  0.999580  0.250000  1
  Th  Th5  1  0.000446  0.500322  0.250000  1
  Th  Th6  1  0.500232  0.499638  0.750000  1
  Th  Th7  1  0.999406  0.499638  0.750000  1
  Si  Si8  1  0.831667  0.165831  0.501317  1
  Si  Si9  1  0.834633  0.669267  0.497051  1
  Si  Si10  1  0.334162  0.165831  0.501317  1
  Si  Si11  1  0.831667  0.165831  0.998683  1
  Si  Si12  1  0.834633  0.669267  0.002949  1
  Si  Si13  1  0.334162  0.165831  0.998683  1
  Si  Si14  1  0.168412  0.834169  0.998560  1
  Si  Si15  1  0.665757  0.834169  0.998560  1
  Si  Si16  1  0.165457  0.330913  0.002881  1
  Si  Si17  1  0.168412  0.834169  0.501440  1
  Si  Si18  1  0.665757  0.834169  0.501440  1
  Si  Si19  1  0.165457  0.330913  0.497119  1
  Rh  Rh20  1  0.667183  0.334365  0.509695  1
  Rh  Rh21  1  0.667183  0.334365  0.990305  1
  Rh  Rh22  1  0.332805  0.665611  0.990721  1
  Rh  Rh23  1  0.332805  0.665611  0.509279  1
