# generated using pymatgen
data_Pr2NdIn3Ga2Pd
_symmetry_space_group_name_H-M   'P 1'
_cell_length_a   7.45213541
_cell_length_b   7.45213697
_cell_length_c   4.54906000
_cell_angle_alpha   90.00000000
_cell_angle_beta   90.00000000
_cell_angle_gamma   119.96195076
_symmetry_Int_Tables_number   1
_chemical_formula_structural   Pr2NdIn3Ga2Pd
_chemical_formula_sum   'Pr2 Nd1 In3 Ga2 Pd1'
_cell_volume   218.86698141
_cell_formula_units_Z   1
loop_
 _symmetry_equiv_pos_site_id
 _symmetry_equiv_pos_as_xyz
  1  'x, y, z'
loop_
 _atom_site_type_symbol
 _atom_site_label
 _atom_site_symmetry_multiplicity
 _atom_site_fract_x
 _atom_site_fract_y
 _atom_site_fract_z
 _atom_site_occupancy
  Pr  Pr0  1  0.588592  0.999847  0.000000  1
  Pr  Pr1  1  0.999847  0.588592  0.000000  1
  Nd  Nd2  1  0.410755  0.410755  0.000000  1
  In  In3  1  0.245568  0.000358  0.500000  1
  In  In4  1  0.000358  0.245568  0.500000  1
  In  In5  1  0.754111  0.754111  0.500000  1
  Ga  Ga6  1  0.333627  0.666070  0.500000  1
  Ga  Ga7  1  0.666070  0.333627  0.500000  1
  Pd  Pd8  1  0.001071  0.001071  0.000000  1
