# generated using pymatgen
data_AcGeH
_symmetry_space_group_name_H-M   'P 1'
_cell_length_a   6.36143300
_cell_length_b   6.36143313
_cell_length_c   4.54666500
_cell_angle_alpha   90.00000000
_cell_angle_beta   90.00000000
_cell_angle_gamma   140.88301821
_symmetry_Int_Tables_number   1
_chemical_formula_structural   AcGeH
_chemical_formula_sum   'Ac2 Ge2 H2'
_cell_volume   116.08267138
_cell_formula_units_Z   2
loop_
 _symmetry_equiv_pos_site_id
 _symmetry_equiv_pos_as_xyz
  1  'x, y, z'
loop_
 _atom_site_type_symbol
 _atom_site_label
 _atom_site_symmetry_multiplicity
 _atom_site_fract_x
 _atom_site_fract_y
 _atom_site_fract_z
 _atom_site_occupancy
  Ac  Ac0  1  0.150034  0.849966  0.750000  1
  Ac  Ac1  1  0.849966  0.150034  0.250000  1
  Ge  Ge2  1  0.441480  0.558520  0.750000  1
  Ge  Ge3  1  0.558520  0.441480  0.250000  1
  H  H4  1  0.752467  0.247533  0.750000  1
  H  H5  1  0.247533  0.752467  0.250000  1
