# generated using pymatgen
data_CeDy3Np6O20
_symmetry_space_group_name_H-M   'P 1'
_cell_length_a   6.54791462
_cell_length_b   7.65111626
_cell_length_c   8.51882259
_cell_angle_alpha   102.93643116
_cell_angle_beta   97.14999276
_cell_angle_gamma   106.99508478
_symmetry_Int_Tables_number   1
_chemical_formula_structural   CeDy3Np6O20
_chemical_formula_sum   'Ce1 Dy3 Np6 O20'
_cell_volume   389.44246351
_cell_formula_units_Z   1
loop_
 _symmetry_equiv_pos_site_id
 _symmetry_equiv_pos_as_xyz
  1  'x, y, z'
loop_
 _atom_site_type_symbol
 _atom_site_label
 _atom_site_symmetry_multiplicity
 _atom_site_fract_x
 _atom_site_fract_y
 _atom_site_fract_z
 _atom_site_occupancy
  Ce  Ce0  1  0.999026  0.500545  0.002123  1
  Dy  Dy1  1  0.201960  0.901178  0.399549  1
  Dy  Dy2  1  0.201553  0.399582  0.400172  1
  Dy  Dy3  1  0.998413  0.999937  0.001909  1
  Np  Np4  1  0.600325  0.700840  0.201241  1
  Np  Np5  1  0.597547  0.199008  0.200875  1
  Np  Np6  1  0.802114  0.099924  0.600272  1
  Np  Np7  1  0.804213  0.602284  0.600484  1
  Np  Np8  1  0.395656  0.296870  0.796490  1
  Np  Np9  1  0.398521  0.799809  0.797759  1
  O  O10  1  0.845298  0.325959  0.458803  1
  O  O11  1  0.150848  0.676870  0.556118  1
  O  O12  1  0.149333  0.175924  0.554737  1
  O  O13  1  0.846731  0.826006  0.457501  1
  O  O14  1  0.567564  0.480751  0.352022  1
  O  O15  1  0.567244  0.978774  0.352694  1
  O  O16  1  0.265914  0.627996  0.247087  1
  O  O17  1  0.933913  0.772645  0.154326  1
  O  O18  1  0.268665  0.128756  0.245650  1
  O  O19  1  0.930606  0.270571  0.154942  1
  O  O20  1  0.351786  0.572657  0.942175  1
  O  O21  1  0.354276  0.074246  0.940235  1
  O  O22  1  0.048593  0.223445  0.845677  1
  O  O23  1  0.631530  0.918463  0.046453  1
  O  O24  1  0.633304  0.421213  0.047062  1
  O  O25  1  0.049968  0.724255  0.846060  1
  O  O26  1  0.457466  0.527193  0.653344  1
  O  O27  1  0.457370  0.027900  0.651399  1
  O  O28  1  0.745082  0.873136  0.745970  1
  O  O29  1  0.745180  0.373265  0.746869  1
