# generated using pymatgen
data_Hf6Zr3FeRe4
_symmetry_space_group_name_H-M   'P 1'
_cell_length_a   8.62263600
_cell_length_b   8.62263529
_cell_length_c   8.47181100
_cell_angle_alpha   90.00000000
_cell_angle_beta   90.00000000
_cell_angle_gamma   120.00000274
_symmetry_Int_Tables_number   1
_chemical_formula_structural   Hf6Zr3FeRe4
_chemical_formula_sum   'Hf12 Zr6 Fe2 Re8'
_cell_volume   545.49019432
_cell_formula_units_Z   2
loop_
 _symmetry_equiv_pos_site_id
 _symmetry_equiv_pos_as_xyz
  1  'x, y, z'
loop_
 _atom_site_type_symbol
 _atom_site_label
 _atom_site_symmetry_multiplicity
 _atom_site_fract_x
 _atom_site_fract_y
 _atom_site_fract_z
 _atom_site_occupancy
  Hf  Hf0  1  0.199468  0.800532  0.440218  1
  Hf  Hf1  1  0.199468  0.398937  0.440218  1
  Hf  Hf2  1  0.601063  0.800532  0.440218  1
  Hf  Hf3  1  0.800532  0.199468  0.559782  1
  Hf  Hf4  1  0.800532  0.601063  0.559782  1
  Hf  Hf5  1  0.398937  0.199468  0.559782  1
  Hf  Hf6  1  0.800532  0.199468  0.940218  1
  Hf  Hf7  1  0.800532  0.601063  0.940218  1
  Hf  Hf8  1  0.398937  0.199468  0.940218  1
  Hf  Hf9  1  0.199468  0.800532  0.059782  1
  Hf  Hf10  1  0.199468  0.398937  0.059782  1
  Hf  Hf11  1  0.601063  0.800532  0.059782  1
  Zr  Zr12  1  0.540188  0.459812  0.250000  1
  Zr  Zr13  1  0.540188  0.080375  0.250000  1
  Zr  Zr14  1  0.919625  0.459812  0.250000  1
  Zr  Zr15  1  0.459812  0.540188  0.750000  1
  Zr  Zr16  1  0.459812  0.919625  0.750000  1
  Zr  Zr17  1  0.080375  0.540188  0.750000  1
  Fe  Fe18  1  0.333333  0.666667  0.250000  1
  Fe  Fe19  1  0.666667  0.333333  0.750000  1
  Re  Re20  1  0.890122  0.109878  0.250000  1
  Re  Re21  1  0.890122  0.780245  0.250000  1
  Re  Re22  1  0.219755  0.109878  0.250000  1
  Re  Re23  1  0.109878  0.890122  0.750000  1
  Re  Re24  1  0.109878  0.219755  0.750000  1
  Re  Re25  1  0.780245  0.890122  0.750000  1
  Re  Re26  1  0.000000  0.000000  0.500000  1
  Re  Re27  1  0.000000  0.000000  0.000000  1
