# generated using pymatgen
data_Rb4Hf6BBr18
_symmetry_space_group_name_H-M   'P 1'
_cell_length_a   10.62701803
_cell_length_b   10.79559333
_cell_length_c   10.91844333
_cell_angle_alpha   118.04671254
_cell_angle_beta   100.32084409
_cell_angle_gamma   103.81923950
_symmetry_Int_Tables_number   1
_chemical_formula_structural   Rb4Hf6BBr18
_chemical_formula_sum   'Rb4 Hf6 B1 Br18'
_cell_volume   1009.52395625
_cell_formula_units_Z   1
loop_
 _symmetry_equiv_pos_site_id
 _symmetry_equiv_pos_as_xyz
  1  'x, y, z'
loop_
 _atom_site_type_symbol
 _atom_site_label
 _atom_site_symmetry_multiplicity
 _atom_site_fract_x
 _atom_site_fract_y
 _atom_site_fract_z
 _atom_site_occupancy
  Rb  Rb0  1  0.189311  0.726214  0.564083  1
  Rb  Rb1  1  0.844652  0.963167  0.772156  1
  Rb  Rb2  1  0.155348  0.036833  0.227844  1
  Rb  Rb3  1  0.810689  0.273786  0.435917  1
  Hf  Hf4  1  0.353645  0.443494  0.778191  1
  Hf  Hf5  1  0.366365  0.620345  0.127115  1
  Hf  Hf6  1  0.642238  0.729670  0.045379  1
  Hf  Hf7  1  0.646355  0.556506  0.221809  1
  Hf  Hf8  1  0.357762  0.270330  0.954621  1
  Hf  Hf9  1  0.633635  0.379655  0.872885  1
  B  B10  1  0.500000  0.500000  0.000000  1
  Br  Br11  1  0.814595  0.425184  0.108316  1
  Br  Br12  1  0.514619  0.698573  0.397300  1
  Br  Br13  1  0.185959  0.991903  0.902059  1
  Br  Br14  1  0.185405  0.574816  0.891684  1
  Br  Br15  1  0.824767  0.826534  0.304897  1
  Br  Br16  1  0.504147  0.301172  0.202783  1
  Br  Br17  1  0.790209  0.235720  0.722471  1
  Br  Br18  1  0.175233  0.173466  0.695103  1
  Br  Br19  1  0.507493  0.898058  0.190492  1
  Br  Br20  1  0.810963  0.625144  0.905790  1
  Br  Br21  1  0.209791  0.764280  0.277529  1
  Br  Br22  1  0.175279  0.381131  0.511897  1
  Br  Br23  1  0.495853  0.698828  0.797217  1
  Br  Br24  1  0.814041  0.008097  0.097941  1
  Br  Br25  1  0.485381  0.301427  0.602700  1
  Br  Br26  1  0.189037  0.374856  0.094210  1
  Br  Br27  1  0.824721  0.618869  0.488103  1
  Br  Br28  1  0.492507  0.101942  0.809508  1
