# generated using pymatgen
data_ErTm4In4PtAu
_symmetry_space_group_name_H-M   'P 1'
_cell_length_a   3.61450800
_cell_length_b   8.11110893
_cell_length_c   18.16623203
_cell_angle_alpha   90.05284969
_cell_angle_beta   90.00000000
_cell_angle_gamma   90.00000000
_symmetry_Int_Tables_number   1
_chemical_formula_structural   ErTm4In4PtAu
_chemical_formula_sum   'Er2 Tm8 In8 Pt2 Au2'
_cell_volume   532.59133511
_cell_formula_units_Z   2
loop_
 _symmetry_equiv_pos_site_id
 _symmetry_equiv_pos_as_xyz
  1  'x, y, z'
loop_
 _atom_site_type_symbol
 _atom_site_label
 _atom_site_symmetry_multiplicity
 _atom_site_fract_x
 _atom_site_fract_y
 _atom_site_fract_z
 _atom_site_occupancy
  Er  Er0  1  0.000000  0.000000  0.000000  1
  Er  Er1  1  0.000000  0.500000  0.500000  1
  Tm  Tm2  1  0.000000  0.119931  0.418595  1
  Tm  Tm3  1  0.000000  0.880069  0.581405  1
  Tm  Tm4  1  0.000000  0.384635  0.915708  1
  Tm  Tm5  1  0.000000  0.615365  0.084292  1
  Tm  Tm6  1  0.000000  0.251916  0.217660  1
  Tm  Tm7  1  0.000000  0.748084  0.782340  1
  Tm  Tm8  1  0.000000  0.267893  0.721308  1
  Tm  Tm9  1  0.000000  0.732107  0.278692  1
  In  In10  1  0.500000  0.422957  0.352659  1
  In  In11  1  0.500000  0.577043  0.647341  1
  In  In12  1  0.500000  0.077652  0.852941  1
  In  In13  1  0.500000  0.922348  0.147059  1
  In  In14  1  0.500000  0.292144  0.065547  1
  In  In15  1  0.500000  0.707856  0.934453  1
  In  In16  1  0.500000  0.209094  0.566363  1
  In  In17  1  0.500000  0.790906  0.433637  1
  Pt  Pt18  1  0.500000  0.473157  0.803660  1
  Pt  Pt19  1  0.500000  0.526843  0.196340  1
  Au  Au20  1  0.500000  0.027699  0.302511  1
  Au  Au21  1  0.500000  0.972301  0.697489  1
