# generated using pymatgen
data_Y3Ho(ZrGa5)2
_symmetry_space_group_name_H-M   'P 1'
_cell_length_a   5.96290400
_cell_length_b   9.42564101
_cell_length_c   11.33250700
_cell_angle_alpha   90.00000000
_cell_angle_beta   90.00000000
_cell_angle_gamma   89.99573932
_symmetry_Int_Tables_number   1
_chemical_formula_structural   Y3Ho(ZrGa5)2
_chemical_formula_sum   'Y6 Ho2 Zr4 Ga20'
_cell_volume   636.93440317
_cell_formula_units_Z   2
loop_
 _symmetry_equiv_pos_site_id
 _symmetry_equiv_pos_as_xyz
  1  'x, y, z'
loop_
 _atom_site_type_symbol
 _atom_site_label
 _atom_site_symmetry_multiplicity
 _atom_site_fract_x
 _atom_site_fract_y
 _atom_site_fract_z
 _atom_site_occupancy
  Y  Y0  1  0.885945  0.506987  0.352412  1
  Y  Y1  1  0.614055  0.993013  0.852412  1
  Y  Y2  1  0.114047  0.006992  0.647441  1
  Y  Y3  1  0.385953  0.493008  0.147441  1
  Y  Y4  1  0.114019  0.492998  0.647621  1
  Y  Y5  1  0.385981  0.007002  0.147621  1
  Ho  Ho6  1  0.885966  0.992991  0.352499  1
  Ho  Ho7  1  0.614034  0.507009  0.852499  1
  Zr  Zr8  1  0.858089  0.749984  0.074941  1
  Zr  Zr9  1  0.641911  0.750016  0.574941  1
  Zr  Zr10  1  0.141991  0.250010  0.925036  1
  Zr  Zr11  1  0.358009  0.249990  0.425036  1
  Ga  Ga12  1  0.875055  0.053012  0.088920  1
  Ga  Ga13  1  0.624945  0.446988  0.588920  1
  Ga  Ga14  1  0.125025  0.553017  0.911202  1
  Ga  Ga15  1  0.374975  0.946983  0.411202  1
  Ga  Ga16  1  0.124946  0.946936  0.911255  1
  Ga  Ga17  1  0.375054  0.553064  0.411255  1
  Ga  Ga18  1  0.874990  0.446973  0.088629  1
  Ga  Ga19  1  0.625010  0.053027  0.588629  1
  Ga  Ga20  1  0.161248  0.750144  0.254431  1
  Ga  Ga21  1  0.338752  0.749856  0.754431  1
  Ga  Ga22  1  0.838419  0.250184  0.745713  1
  Ga  Ga23  1  0.661581  0.249816  0.245713  1
  Ga  Ga24  1  0.390038  0.749902  0.001956  1
  Ga  Ga25  1  0.109962  0.750098  0.501956  1
  Ga  Ga26  1  0.610079  0.250208  0.997837  1
  Ga  Ga27  1  0.889921  0.249792  0.497837  1
  Ga  Ga28  1  0.604935  0.750229  0.293766  1
  Ga  Ga29  1  0.895065  0.749771  0.793766  1
  Ga  Ga30  1  0.395412  0.250071  0.706342  1
  Ga  Ga31  1  0.104588  0.249929  0.206342  1
