# generated using pymatgen
data_Pr10Bi5PbBr2
_symmetry_space_group_name_H-M   'P 1'
_cell_length_a   9.71563500
_cell_length_b   9.69546533
_cell_length_c   6.78367200
_cell_angle_alpha   90.00000000
_cell_angle_beta   90.00000000
_cell_angle_gamma   120.06883692
_symmetry_Int_Tables_number   1
_chemical_formula_structural   Pr10Bi5PbBr2
_chemical_formula_sum   'Pr10 Bi5 Pb1 Br2'
_cell_volume   553.01085492
_cell_formula_units_Z   1
loop_
 _symmetry_equiv_pos_site_id
 _symmetry_equiv_pos_as_xyz
  1  'x, y, z'
loop_
 _atom_site_type_symbol
 _atom_site_label
 _atom_site_symmetry_multiplicity
 _atom_site_fract_x
 _atom_site_fract_y
 _atom_site_fract_z
 _atom_site_occupancy
  Pr  Pr0  1  0.273211  0.000000  0.750000  1
  Pr  Pr1  1  0.726936  0.000000  0.250000  1
  Pr  Pr2  1  0.998599  0.271866  0.750000  1
  Pr  Pr3  1  0.000192  0.727576  0.250000  1
  Pr  Pr4  1  0.726732  0.728134  0.750000  1
  Pr  Pr5  1  0.272615  0.272424  0.250000  1
  Pr  Pr6  1  0.333584  0.666777  0.499882  1
  Pr  Pr7  1  0.666808  0.333223  0.499882  1
  Pr  Pr8  1  0.666808  0.333223  0.000118  1
  Pr  Pr9  1  0.333584  0.666777  0.000118  1
  Bi  Bi10  1  0.385220  0.000000  0.250000  1
  Bi  Bi11  1  0.999690  0.615589  0.750000  1
  Bi  Bi12  1  0.999685  0.384101  0.250000  1
  Bi  Bi13  1  0.384101  0.384411  0.750000  1
  Bi  Bi14  1  0.615584  0.615899  0.250000  1
  Pb  Pb15  1  0.615611  0.000000  0.750000  1
  Br  Br16  1  0.000519  0.000000  0.499686  1
  Br  Br17  1  0.000519  0.000000  0.000314  1
