# generated using pymatgen
data_RbNa2TbDy(InBr4)3
_symmetry_space_group_name_H-M   'P 1'
_cell_length_a   8.21954311
_cell_length_b   7.66015511
_cell_length_c   13.21844500
_cell_angle_alpha   56.55078883
_cell_angle_beta   89.99084053
_cell_angle_gamma   89.99432303
_symmetry_Int_Tables_number   1
_chemical_formula_structural   RbNa2TbDy(InBr4)3
_chemical_formula_sum   'Rb1 Na2 Tb1 Dy1 In3 Br12'
_cell_volume   694.42725287
_cell_formula_units_Z   1
loop_
 _symmetry_equiv_pos_site_id
 _symmetry_equiv_pos_as_xyz
  1  'x, y, z'
loop_
 _atom_site_type_symbol
 _atom_site_label
 _atom_site_symmetry_multiplicity
 _atom_site_fract_x
 _atom_site_fract_y
 _atom_site_fract_z
 _atom_site_occupancy
  Rb  Rb0  1  0.072885  0.717789  0.751831  1
  Na  Na1  1  0.499636  0.499223  0.000571  1
  Na  Na2  1  0.999138  0.501170  0.497759  1
  Tb  Tb3  1  0.999638  0.997904  0.002464  1
  Dy  Dy4  1  0.500341  0.001893  0.499005  1
  In  In5  1  0.922451  0.287977  0.236854  1
  In  In6  1  0.575963  0.288249  0.739343  1
  In  In7  1  0.425763  0.714179  0.260499  1
  Br  Br8  1  0.780918  0.755384  0.554275  1
  Br  Br9  1  0.214480  0.240818  0.441472  1
  Br  Br10  1  0.288776  0.234006  0.944530  1
  Br  Br11  1  0.715193  0.751793  0.061090  1
  Br  Br12  1  0.475491  0.869799  0.743213  1
  Br  Br13  1  0.536363  0.131386  0.256265  1
  Br  Br14  1  0.960417  0.150839  0.754744  1
  Br  Br15  1  0.039335  0.867709  0.246230  1
  Br  Br16  1  0.313738  0.656650  0.544748  1
  Br  Br17  1  0.685653  0.346742  0.453263  1
  Br  Br18  1  0.806406  0.334843  0.962403  1
  Br  Br19  1  0.187416  0.651646  0.049444  1
