# generated using pymatgen
data_La2Dy3P12Ir7Ru12
_symmetry_space_group_name_H-M   'P 1'
_cell_length_a   12.62829896
_cell_length_b   12.62567986
_cell_length_c   3.99427900
_cell_angle_alpha   90.00000000
_cell_angle_beta   90.00000000
_cell_angle_gamma   119.67018342
_symmetry_Int_Tables_number   1
_chemical_formula_structural   La2Dy3P12Ir7Ru12
_chemical_formula_sum   'La2 Dy3 P12 Ir7 Ru12'
_cell_volume   553.35321823
_cell_formula_units_Z   1
loop_
 _symmetry_equiv_pos_site_id
 _symmetry_equiv_pos_as_xyz
  1  'x, y, z'
loop_
 _atom_site_type_symbol
 _atom_site_label
 _atom_site_symmetry_multiplicity
 _atom_site_fract_x
 _atom_site_fract_y
 _atom_site_fract_z
 _atom_site_occupancy
  La  La0  1  0.814034  0.001369  0.500000  1
  La  La1  1  0.185593  0.186438  0.500000  1
  Dy  Dy2  1  0.665447  0.333310  0.000000  1
  Dy  Dy3  1  0.334370  0.668106  0.000000  1
  Dy  Dy4  1  0.000396  0.811496  0.500000  1
  P  P5  1  0.627009  0.002495  0.000000  1
  P  P6  1  0.374531  0.374861  0.000000  1
  P  P7  1  0.005033  0.633035  0.000000  1
  P  P8  1  0.685928  0.515973  0.500000  1
  P  P9  1  0.823971  0.303226  0.500000  1
  P  P10  1  0.311442  0.828234  0.500000  1
  P  P11  1  0.519820  0.689964  0.500000  1
  P  P12  1  0.182546  0.997817  0.000000  1
  P  P13  1  0.817623  0.814279  0.000000  1
  P  P14  1  0.998344  0.188585  0.000000  1
  P  P15  1  0.480027  0.169496  0.500000  1
  P  P16  1  0.173346  0.484875  0.500000  1
  Ir  Ir17  1  0.621401  0.802272  0.000000  1
  Ir  Ir18  1  0.184790  0.382100  0.000000  1
  Ir  Ir19  1  0.378243  0.181417  0.000000  1
  Ir  Ir20  1  0.193269  0.817446  0.000000  1
  Ir  Ir21  1  0.810689  0.623622  0.000000  1
  Ir  Ir22  1  0.867860  0.503672  0.500000  1
  Ir  Ir23  1  0.999439  0.998744  0.000000  1
  Ru  Ru24  1  0.490059  0.361692  0.500000  1
  Ru  Ru25  1  0.632770  0.123960  0.500000  1
  Ru  Ru26  1  0.126886  0.638378  0.500000  1
  Ru  Ru27  1  0.365698  0.492969  0.500000  1
  Ru  Ru28  1  0.508734  0.870937  0.500000  1
  Ru  Ru29  1  0.716141  0.711789  0.500000  1
  Ru  Ru30  1  0.002131  0.291699  0.500000  1
  Ru  Ru31  1  0.444835  0.996399  0.000000  1
  Ru  Ru32  1  0.555401  0.551042  0.000000  1
  Ru  Ru33  1  0.000004  0.451214  0.000000  1
  Ru  Ru34  1  0.817116  0.199301  0.000000  1
  Ru  Ru35  1  0.285075  0.997786  0.500000  1
