# generated using pymatgen
data_YbTm3Sc4(TcB6)4
_symmetry_space_group_name_H-M   'P 1'
_cell_length_a   3.56412600
_cell_length_b   8.99183247
_cell_length_c   11.33036407
_cell_angle_alpha   89.98761109
_cell_angle_beta   90.00000000
_cell_angle_gamma   90.00000000
_symmetry_Int_Tables_number   1
_chemical_formula_structural   YbTm3Sc4(TcB6)4
_chemical_formula_sum   'Yb1 Tm3 Sc4 Tc4 B24'
_cell_volume   363.11577005
_cell_formula_units_Z   1
loop_
 _symmetry_equiv_pos_site_id
 _symmetry_equiv_pos_as_xyz
  1  'x, y, z'
loop_
 _atom_site_type_symbol
 _atom_site_label
 _atom_site_symmetry_multiplicity
 _atom_site_fract_x
 _atom_site_fract_y
 _atom_site_fract_z
 _atom_site_occupancy
  Yb  Yb0  1  0.000000  0.177588  0.913921  1
  Tm  Tm1  1  0.000000  0.322188  0.414619  1
  Tm  Tm2  1  0.000000  0.677665  0.585934  1
  Tm  Tm3  1  0.000000  0.823601  0.085501  1
  Sc  Sc4  1  0.000000  0.944415  0.370163  1
  Sc  Sc5  1  0.000000  0.055881  0.631154  1
  Sc  Sc6  1  0.000000  0.443325  0.131218  1
  Sc  Sc7  1  0.000000  0.556192  0.868175  1
  Tc  Tc8  1  0.000000  0.641830  0.317496  1
  Tc  Tc9  1  0.000000  0.359385  0.681224  1
  Tc  Tc10  1  0.000000  0.141780  0.182567  1
  Tc  Tc11  1  0.000000  0.856488  0.817926  1
  B  B12  1  0.500000  0.554427  0.432868  1
  B  B13  1  0.500000  0.446150  0.566529  1
  B  B14  1  0.500000  0.053868  0.067387  1
  B  B15  1  0.500000  0.945421  0.932794  1
  B  B16  1  0.500000  0.753783  0.419031  1
  B  B17  1  0.500000  0.246296  0.580987  1
  B  B18  1  0.500000  0.253967  0.081148  1
  B  B19  1  0.500000  0.745716  0.919236  1
  B  B20  1  0.500000  0.795591  0.264212  1
  B  B21  1  0.500000  0.204622  0.735390  1
  B  B22  1  0.500000  0.295552  0.236247  1
  B  B23  1  0.500000  0.704019  0.763892  1
  B  B24  1  0.500000  0.629921  0.182522  1
  B  B25  1  0.500000  0.370439  0.816871  1
  B  B26  1  0.500000  0.129643  0.317752  1
  B  B27  1  0.500000  0.869978  0.682906  1
  B  B28  1  0.500000  0.981481  0.213295  1
  B  B29  1  0.500000  0.018093  0.786886  1
  B  B30  1  0.500000  0.481385  0.287022  1
  B  B31  1  0.500000  0.518727  0.712634  1
  B  B32  1  0.500000  0.594661  0.025819  1
  B  B33  1  0.500000  0.405996  0.974301  1
  B  B34  1  0.500000  0.095841  0.474039  1
  B  B35  1  0.500000  0.904080  0.526333  1
