# generated using pymatgen
data_Tb16CdIn3Ir4
_symmetry_space_group_name_H-M   'P 1'
_cell_length_a   9.69723402
_cell_length_b   9.71915526
_cell_length_c   9.71953001
_cell_angle_alpha   59.99466825
_cell_angle_beta   59.92127936
_cell_angle_gamma   59.92055206
_symmetry_Int_Tables_number   1
_chemical_formula_structural   Tb16CdIn3Ir4
_chemical_formula_sum   'Tb16 Cd1 In3 Ir4'
_cell_volume   646.94748533
_cell_formula_units_Z   1
loop_
 _symmetry_equiv_pos_site_id
 _symmetry_equiv_pos_as_xyz
  1  'x, y, z'
loop_
 _atom_site_type_symbol
 _atom_site_label
 _atom_site_symmetry_multiplicity
 _atom_site_fract_x
 _atom_site_fract_y
 _atom_site_fract_z
 _atom_site_occupancy
  Tb  Tb0  1  0.599285  0.599037  0.599029  1
  Tb  Tb1  1  0.599274  0.599046  0.202667  1
  Tb  Tb2  1  0.599282  0.202672  0.599035  1
  Tb  Tb3  1  0.201902  0.599359  0.599364  1
  Tb  Tb4  1  0.059144  0.440923  0.440953  1
  Tb  Tb5  1  0.439848  0.059947  0.059956  1
  Tb  Tb6  1  0.439882  0.059944  0.440215  1
  Tb  Tb7  1  0.059175  0.440896  0.058947  1
  Tb  Tb8  1  0.439896  0.440200  0.059949  1
  Tb  Tb9  1  0.059191  0.058934  0.440909  1
  Tb  Tb10  1  0.189289  0.811993  0.811970  1
  Tb  Tb11  1  0.812232  0.188542  0.188547  1
  Tb  Tb12  1  0.812204  0.188551  0.810680  1
  Tb  Tb13  1  0.189300  0.812001  0.186769  1
  Tb  Tb14  1  0.812197  0.810680  0.188557  1
  Tb  Tb15  1  0.189308  0.186778  0.811981  1
  Cd  Cd16  1  0.503397  0.832205  0.832205  1
  In  In17  1  0.831558  0.832849  0.832849  1
  In  In18  1  0.831562  0.832848  0.502740  1
  In  In19  1  0.831565  0.502742  0.832845  1
  Ir  Ir20  1  0.391635  0.391150  0.391145  1
  Ir  Ir21  1  0.391638  0.391154  0.826070  1
  Ir  Ir22  1  0.391639  0.826065  0.391153  1
  Ir  Ir23  1  0.825599  0.391486  0.391469  1
