# generated using pymatgen
data_Zr6Zn20Ni3B
_symmetry_space_group_name_H-M   'P 1'
_cell_length_a   8.65292007
_cell_length_b   8.65292042
_cell_length_c   8.62437426
_cell_angle_alpha   59.78787292
_cell_angle_beta   59.78786703
_cell_angle_gamma   59.70156709
_symmetry_Int_Tables_number   1
_chemical_formula_structural   Zr6Zn20Ni3B
_chemical_formula_sum   'Zr6 Zn20 Ni3 B1'
_cell_volume   454.10390729
_cell_formula_units_Z   1
loop_
 _symmetry_equiv_pos_site_id
 _symmetry_equiv_pos_as_xyz
  1  'x, y, z'
loop_
 _atom_site_type_symbol
 _atom_site_label
 _atom_site_symmetry_multiplicity
 _atom_site_fract_x
 _atom_site_fract_y
 _atom_site_fract_z
 _atom_site_occupancy
  Zr  Zr0  1  0.694618  0.303040  0.305293  1
  Zr  Zr1  1  0.305382  0.696960  0.694707  1
  Zr  Zr2  1  0.303040  0.694618  0.305293  1
  Zr  Zr3  1  0.696960  0.305382  0.694707  1
  Zr  Zr4  1  0.306485  0.306485  0.690653  1
  Zr  Zr5  1  0.693515  0.693515  0.309347  1
  Zn  Zn6  1  0.116621  0.116621  0.116598  1
  Zn  Zn7  1  0.883379  0.883379  0.883402  1
  Zn  Zn8  1  0.122778  0.122778  0.645447  1
  Zn  Zn9  1  0.112400  0.647315  0.128909  1
  Zn  Zn10  1  0.877222  0.877222  0.354553  1
  Zn  Zn11  1  0.887600  0.352685  0.871091  1
  Zn  Zn12  1  0.647315  0.112400  0.128909  1
  Zn  Zn13  1  0.352685  0.887600  0.871091  1
  Zn  Zn14  1  0.500000  0.000000  0.000000  1
  Zn  Zn15  1  0.000000  0.500000  0.000000  1
  Zn  Zn16  1  0.000000  0.000000  0.500000  1
  Zn  Zn17  1  0.500000  0.500000  0.000000  1
  Zn  Zn18  1  0.329112  0.329112  0.338098  1
  Zn  Zn19  1  0.670888  0.670888  0.661902  1
  Zn  Zn20  1  0.332193  0.332193  0.003481  1
  Zn  Zn21  1  0.335658  0.003812  0.336182  1
  Zn  Zn22  1  0.667807  0.667807  0.996519  1
  Zn  Zn23  1  0.664342  0.996188  0.663818  1
  Zn  Zn24  1  0.003812  0.335658  0.336182  1
  Zn  Zn25  1  0.996188  0.664342  0.663818  1
  Ni  Ni26  1  0.000000  0.500000  0.500000  1
  Ni  Ni27  1  0.500000  0.000000  0.500000  1
  Ni  Ni28  1  0.000000  0.000000  0.000000  1
  B  B29  1  0.500000  0.500000  0.500000  1
