# generated using pymatgen
data_Ce4Pd3RhPb2
_symmetry_space_group_name_H-M   'P 1'
_cell_length_a   7.93586783
_cell_length_b   7.93586783
_cell_length_c   3.74427800
_cell_angle_alpha   90.00000000
_cell_angle_beta   90.00000000
_cell_angle_gamma   89.78606126
_symmetry_Int_Tables_number   1
_chemical_formula_structural   Ce4Pd3RhPb2
_chemical_formula_sum   'Ce4 Pd3 Rh1 Pb2'
_cell_volume   235.80548939
_cell_formula_units_Z   1
loop_
 _symmetry_equiv_pos_site_id
 _symmetry_equiv_pos_as_xyz
  1  'x, y, z'
loop_
 _atom_site_type_symbol
 _atom_site_label
 _atom_site_symmetry_multiplicity
 _atom_site_fract_x
 _atom_site_fract_y
 _atom_site_fract_z
 _atom_site_occupancy
  Ce  Ce0  1  0.667630  0.175119  0.500000  1
  Ce  Ce1  1  0.182729  0.317271  0.500000  1
  Ce  Ce2  1  0.826451  0.673549  0.500000  1
  Ce  Ce3  1  0.324881  0.832370  0.500000  1
  Pd  Pd4  1  0.126408  0.625791  0.000000  1
  Pd  Pd5  1  0.627214  0.872786  0.000000  1
  Pd  Pd6  1  0.874209  0.373592  0.000000  1
  Rh  Rh7  1  0.370446  0.129554  0.000000  1
  Pb  Pb8  1  0.000629  0.000596  0.000000  1
  Pb  Pb9  1  0.499404  0.499371  0.000000  1
