# generated using pymatgen
data_Nd16MgCo4Ag3
_symmetry_space_group_name_H-M   'P 1'
_cell_length_a   9.77231661
_cell_length_b   9.79354152
_cell_length_c   9.79354200
_cell_angle_alpha   60.00000512
_cell_angle_beta   59.92813184
_cell_angle_gamma   59.92812583
_symmetry_Int_Tables_number   1
_chemical_formula_structural   Nd16MgCo4Ag3
_chemical_formula_sum   'Nd16 Mg1 Co4 Ag3'
_cell_volume   662.04797834
_cell_formula_units_Z   1
loop_
 _symmetry_equiv_pos_site_id
 _symmetry_equiv_pos_as_xyz
  1  'x, y, z'
loop_
 _atom_site_type_symbol
 _atom_site_label
 _atom_site_symmetry_multiplicity
 _atom_site_fract_x
 _atom_site_fract_y
 _atom_site_fract_z
 _atom_site_occupancy
  Nd  Nd0  1  0.346383  0.346454  0.346454  1
  Nd  Nd1  1  0.346383  0.346454  0.960709  1
  Nd  Nd2  1  0.346383  0.960709  0.346454  1
  Nd  Nd3  1  0.949757  0.350081  0.350081  1
  Nd  Nd4  1  0.809870  0.189116  0.189116  1
  Nd  Nd5  1  0.185578  0.813221  0.813221  1
  Nd  Nd6  1  0.185578  0.813221  0.187979  1
  Nd  Nd7  1  0.809870  0.189116  0.811898  1
  Nd  Nd8  1  0.185578  0.187979  0.813221  1
  Nd  Nd9  1  0.809870  0.811898  0.189116  1
  Nd  Nd10  1  0.937419  0.562483  0.562483  1
  Nd  Nd11  1  0.561741  0.937835  0.937835  1
  Nd  Nd12  1  0.561741  0.937835  0.562589  1
  Nd  Nd13  1  0.937419  0.562483  0.937614  1
  Nd  Nd14  1  0.561741  0.562589  0.937835  1
  Nd  Nd15  1  0.937419  0.937614  0.562483  1
  Mg  Mg16  1  0.289482  0.570172  0.570172  1
  Co  Co17  1  0.138811  0.141679  0.141679  1
  Co  Co18  1  0.138811  0.141679  0.577831  1
  Co  Co19  1  0.138811  0.577831  0.141679  1
  Co  Co20  1  0.576990  0.141003  0.141003  1
  Ag  Ag21  1  0.581454  0.582901  0.582901  1
  Ag  Ag22  1  0.581454  0.582901  0.252745  1
  Ag  Ag23  1  0.581454  0.252745  0.582901  1
