# generated using pymatgen
data_La2Nd2Al3ZnPt4
_symmetry_space_group_name_H-M   'P 1'
_cell_length_a   4.54266700
_cell_length_b   7.13131287
_cell_length_c   7.95090532
_cell_angle_alpha   89.55910985
_cell_angle_beta   90.00000000
_cell_angle_gamma   90.00000000
_symmetry_Int_Tables_number   1
_chemical_formula_structural   La2Nd2Al3ZnPt4
_chemical_formula_sum   'La2 Nd2 Al3 Zn1 Pt4'
_cell_volume   257.56338058
_cell_formula_units_Z   1
loop_
 _symmetry_equiv_pos_site_id
 _symmetry_equiv_pos_as_xyz
  1  'x, y, z'
loop_
 _atom_site_type_symbol
 _atom_site_label
 _atom_site_symmetry_multiplicity
 _atom_site_fract_x
 _atom_site_fract_y
 _atom_site_fract_z
 _atom_site_occupancy
  La  La0  1  0.250000  0.029234  0.684000  1
  La  La1  1  0.250000  0.534360  0.821458  1
  Nd  Nd2  1  0.750000  0.470125  0.183961  1
  Nd  Nd3  1  0.750000  0.969485  0.310760  1
  Al  Al4  1  0.250000  0.644004  0.433592  1
  Al  Al5  1  0.750000  0.351878  0.563807  1
  Al  Al6  1  0.250000  0.147140  0.068068  1
  Zn  Zn7  1  0.750000  0.847724  0.933226  1
  Pt  Pt8  1  0.750000  0.715084  0.602910  1
  Pt  Pt9  1  0.750000  0.227475  0.887830  1
  Pt  Pt10  1  0.250000  0.281780  0.387284  1
  Pt  Pt11  1  0.250000  0.781712  0.123105  1
