# generated using pymatgen
data_Ho4Cd3In5
_symmetry_space_group_name_H-M   'P 1'
_cell_length_a   4.85808900
_cell_length_b   7.42707000
_cell_length_c   8.40435400
_cell_angle_alpha   90.00099516
_cell_angle_beta   90.00000000
_cell_angle_gamma   90.00000000
_symmetry_Int_Tables_number   1
_chemical_formula_structural   Ho4Cd3In5
_chemical_formula_sum   'Ho4 Cd3 In5'
_cell_volume   303.24058165
_cell_formula_units_Z   1
loop_
 _symmetry_equiv_pos_site_id
 _symmetry_equiv_pos_as_xyz
  1  'x, y, z'
loop_
 _atom_site_type_symbol
 _atom_site_label
 _atom_site_symmetry_multiplicity
 _atom_site_fract_x
 _atom_site_fract_y
 _atom_site_fract_z
 _atom_site_occupancy
  Ho  Ho0  1  0.500000  0.495971  0.748668  1
  Ho  Ho1  1  0.500000  0.989196  0.750219  1
  Ho  Ho2  1  0.000000  0.501083  0.251121  1
  Ho  Ho3  1  0.000000  0.996713  0.250203  1
  Cd  Cd4  1  0.500000  0.788236  0.416483  1
  Cd  Cd5  1  0.000000  0.786735  0.917006  1
  Cd  Cd6  1  0.000000  0.300074  0.580152  1
  In  In7  1  0.500000  0.722615  0.084037  1
  In  In8  1  0.500000  0.209729  0.422550  1
  In  In9  1  0.000000  0.207503  0.908568  1
  In  In10  1  0.000000  0.716930  0.585047  1
  In  In11  1  0.500000  0.285212  0.085947  1
