# generated using pymatgen
data_Pr5Sn2BiSe
_symmetry_space_group_name_H-M   'P 1'
_cell_length_a   9.59727393
_cell_length_b   9.59727276
_cell_length_c   6.96675600
_cell_angle_alpha   90.00000000
_cell_angle_beta   90.00000000
_cell_angle_gamma   120.29565841
_symmetry_Int_Tables_number   1
_chemical_formula_structural   Pr5Sn2BiSe
_chemical_formula_sum   'Pr10 Sn4 Bi2 Se2'
_cell_volume   554.05817041
_cell_formula_units_Z   2
loop_
 _symmetry_equiv_pos_site_id
 _symmetry_equiv_pos_as_xyz
  1  'x, y, z'
loop_
 _atom_site_type_symbol
 _atom_site_label
 _atom_site_symmetry_multiplicity
 _atom_site_fract_x
 _atom_site_fract_y
 _atom_site_fract_z
 _atom_site_occupancy
  Pr  Pr0  1  0.251745  0.996103  0.750000  1
  Pr  Pr1  1  0.748255  0.003897  0.250000  1
  Pr  Pr2  1  0.996103  0.251745  0.750000  1
  Pr  Pr3  1  0.003897  0.748255  0.250000  1
  Pr  Pr4  1  0.749444  0.749444  0.750000  1
  Pr  Pr5  1  0.250556  0.250556  0.250000  1
  Pr  Pr6  1  0.329507  0.670493  0.500000  1
  Pr  Pr7  1  0.670493  0.329507  0.500000  1
  Pr  Pr8  1  0.670493  0.329507  0.000000  1
  Pr  Pr9  1  0.329507  0.670493  0.000000  1
  Sn  Sn10  1  0.606207  0.998759  0.750000  1
  Sn  Sn11  1  0.393793  0.001241  0.250000  1
  Sn  Sn12  1  0.998759  0.606207  0.750000  1
  Sn  Sn13  1  0.001241  0.393793  0.250000  1
  Bi  Bi14  1  0.392561  0.392561  0.750000  1
  Bi  Bi15  1  0.607439  0.607439  0.250000  1
  Se  Se16  1  0.000000  0.000000  0.500000  1
  Se  Se17  1  0.000000  0.000000  0.000000  1
