# generated using pymatgen
data_DyHf3F15
_symmetry_space_group_name_H-M   'P 1'
_cell_length_a   7.34435542
_cell_length_b   7.34435578
_cell_length_c   7.34435464
_cell_angle_alpha   112.76832592
_cell_angle_beta   112.76833144
_cell_angle_gamma   112.76833122
_symmetry_Int_Tables_number   1
_chemical_formula_structural   DyHf3F15
_chemical_formula_sum   'Dy1 Hf3 F15'
_cell_volume   261.20538143
_cell_formula_units_Z   1
loop_
 _symmetry_equiv_pos_site_id
 _symmetry_equiv_pos_as_xyz
  1  'x, y, z'
loop_
 _atom_site_type_symbol
 _atom_site_label
 _atom_site_symmetry_multiplicity
 _atom_site_fract_x
 _atom_site_fract_y
 _atom_site_fract_z
 _atom_site_occupancy
  Dy  Dy0  1  0.995867  0.995867  0.995867  1
  Hf  Hf1  1  0.357992  0.786003  0.357992  1
  Hf  Hf2  1  0.357992  0.357992  0.786003  1
  Hf  Hf3  1  0.786003  0.357992  0.357992  1
  F  F4  1  0.649656  0.436957  0.107088  1
  F  F5  1  0.107088  0.649656  0.436957  1
  F  F6  1  0.107088  0.436957  0.649656  1
  F  F7  1  0.436957  0.107088  0.649656  1
  F  F8  1  0.436957  0.649656  0.107088  1
  F  F9  1  0.649656  0.107088  0.436957  1
  F  F10  1  0.101049  0.763016  0.101049  1
  F  F11  1  0.101049  0.101049  0.763015  1
  F  F12  1  0.763015  0.101049  0.101049  1
  F  F13  1  0.648413  0.869109  0.648413  1
  F  F14  1  0.648413  0.648413  0.869109  1
  F  F15  1  0.869109  0.648413  0.648413  1
  F  F16  1  0.178557  0.409510  0.178557  1
  F  F17  1  0.178557  0.178557  0.409510  1
  F  F18  1  0.409510  0.178557  0.178557  1
