# generated using pymatgen
data_Tb2LuGaSn3Ir2
_symmetry_space_group_name_H-M   'P 1'
_cell_length_a   7.45906535
_cell_length_b   7.44223096
_cell_length_c   4.10754500
_cell_angle_alpha   90.00000000
_cell_angle_beta   90.00000000
_cell_angle_gamma   120.42328479
_symmetry_Int_Tables_number   1
_chemical_formula_structural   Tb2LuGaSn3Ir2
_chemical_formula_sum   'Tb2 Lu1 Ga1 Sn3 Ir2'
_cell_volume   196.62207481
_cell_formula_units_Z   1
loop_
 _symmetry_equiv_pos_site_id
 _symmetry_equiv_pos_as_xyz
  1  'x, y, z'
loop_
 _atom_site_type_symbol
 _atom_site_label
 _atom_site_symmetry_multiplicity
 _atom_site_fract_x
 _atom_site_fract_y
 _atom_site_fract_z
 _atom_site_occupancy
  Tb  Tb0  1  0.986161  0.396543  0.500000  1
  Tb  Tb1  1  0.602591  0.589334  0.500000  1
  Lu  Lu2  1  0.409815  0.019102  0.500000  1
  Ga  Ga3  1  0.334051  0.670092  0.000000  1
  Sn  Sn4  1  0.996806  0.743273  0.000000  1
  Sn  Sn5  1  0.257057  0.252033  0.000000  1
  Sn  Sn6  1  0.747341  0.002913  0.000000  1
  Ir  Ir7  1  0.662269  0.327109  0.000000  1
  Ir  Ir8  1  0.003909  0.999602  0.500000  1
