# generated using pymatgen
data_Dy9Lu(SiB4)4
_symmetry_space_group_name_H-M   'P 1'
_cell_length_a   7.21863200
_cell_length_b   7.21863200
_cell_length_c   8.06547000
_cell_angle_alpha   90.00000000
_cell_angle_beta   90.00000000
_cell_angle_gamma   90.00000000
_symmetry_Int_Tables_number   1
_chemical_formula_structural   Dy9Lu(SiB4)4
_chemical_formula_sum   'Dy9 Lu1 Si4 B16'
_cell_volume   420.28073679
_cell_formula_units_Z   1
loop_
 _symmetry_equiv_pos_site_id
 _symmetry_equiv_pos_as_xyz
  1  'x, y, z'
loop_
 _atom_site_type_symbol
 _atom_site_label
 _atom_site_symmetry_multiplicity
 _atom_site_fract_x
 _atom_site_fract_y
 _atom_site_fract_z
 _atom_site_occupancy
  Dy  Dy0  1  0.680530  0.179970  0.224700  1
  Dy  Dy1  1  0.319470  0.820030  0.775300  1
  Dy  Dy2  1  0.319470  0.820030  0.224700  1
  Dy  Dy3  1  0.820030  0.680530  0.224700  1
  Dy  Dy4  1  0.820030  0.680530  0.775300  1
  Dy  Dy5  1  0.680530  0.179970  0.775300  1
  Dy  Dy6  1  0.179970  0.319470  0.775300  1
  Dy  Dy7  1  0.179970  0.319470  0.224700  1
  Dy  Dy8  1  0.500000  0.500000  0.500000  1
  Lu  Lu9  1  0.000000  0.000000  0.500000  1
  Si  Si10  1  0.113879  0.617049  0.500000  1
  Si  Si11  1  0.886121  0.382951  0.500000  1
  Si  Si12  1  0.382951  0.113879  0.500000  1
  Si  Si13  1  0.617049  0.886121  0.500000  1
  B  B14  1  0.172598  0.039059  0.000000  1
  B  B15  1  0.827402  0.960941  0.000000  1
  B  B16  1  0.960941  0.172598  0.000000  1
  B  B17  1  0.327413  0.539175  0.000000  1
  B  B18  1  0.039059  0.827402  0.000000  1
  B  B19  1  0.672587  0.460825  0.000000  1
  B  B20  1  0.539175  0.672587  0.000000  1
  B  B21  1  0.460825  0.327413  0.000000  1
  B  B22  1  0.089802  0.589679  0.000000  1
  B  B23  1  0.910198  0.410321  0.000000  1
  B  B24  1  0.410321  0.089802  0.000000  1
  B  B25  1  0.589679  0.910198  0.000000  1
  B  B26  1  0.000000  0.000000  0.163363  1
  B  B27  1  0.000000  0.000000  0.836637  1
  B  B28  1  0.500000  0.500000  0.837458  1
  B  B29  1  0.500000  0.500000  0.162542  1
