# generated using pymatgen
data_TbZrNb4(B2Ru5)2
_symmetry_space_group_name_H-M   'P 1'
_cell_length_a   9.54206463
_cell_length_b   9.54206420
_cell_length_c   3.08265000
_cell_angle_alpha   90.00000000
_cell_angle_beta   90.00000000
_cell_angle_gamma   90.42536849
_symmetry_Int_Tables_number   1
_chemical_formula_structural   TbZrNb4(B2Ru5)2
_chemical_formula_sum   'Tb1 Zr1 Nb4 B4 Ru10'
_cell_volume   280.67060940
_cell_formula_units_Z   1
loop_
 _symmetry_equiv_pos_site_id
 _symmetry_equiv_pos_as_xyz
  1  'x, y, z'
loop_
 _atom_site_type_symbol
 _atom_site_label
 _atom_site_symmetry_multiplicity
 _atom_site_fract_x
 _atom_site_fract_y
 _atom_site_fract_z
 _atom_site_occupancy
  Tb  Tb0  1  0.175864  0.324136  0.000000  1
  Zr  Zr1  1  0.822731  0.677269  0.000000  1
  Nb  Nb2  1  0.323902  0.824758  0.000000  1
  Nb  Nb3  1  0.675242  0.176098  0.000000  1
  Nb  Nb4  1  0.500095  0.500082  0.000000  1
  Nb  Nb5  1  0.999918  0.999905  0.000000  1
  B  B6  1  0.621431  0.878569  0.000000  1
  B  B7  1  0.380821  0.119179  0.000000  1
  B  B8  1  0.120783  0.622871  0.000000  1
  B  B9  1  0.877129  0.379217  0.000000  1
  Ru  Ru10  1  0.568209  0.719301  0.500000  1
  Ru  Ru11  1  0.440946  0.276093  0.500000  1
  Ru  Ru12  1  0.074388  0.784396  0.500000  1
  Ru  Ru13  1  0.918055  0.216265  0.500000  1
  Ru  Ru14  1  0.283735  0.581945  0.500000  1
  Ru  Ru15  1  0.715604  0.425612  0.500000  1
  Ru  Ru16  1  0.223907  0.059054  0.500000  1
  Ru  Ru17  1  0.780699  0.931791  0.500000  1
  Ru  Ru18  1  0.502339  0.997661  0.500000  1
  Ru  Ru19  1  0.994203  0.505797  0.500000  1
