# generated using pymatgen
data_Ac3Tl2Sn3
_symmetry_space_group_name_H-M   'P 1'
_cell_length_a   6.94111218
_cell_length_b   6.94111072
_cell_length_c   11.03264500
_cell_angle_alpha   90.00000000
_cell_angle_beta   90.00000000
_cell_angle_gamma   102.23443558
_symmetry_Int_Tables_number   1
_chemical_formula_structural   Ac3Tl2Sn3
_chemical_formula_sum   'Ac6 Tl4 Sn6'
_cell_volume   519.47010621
_cell_formula_units_Z   2
loop_
 _symmetry_equiv_pos_site_id
 _symmetry_equiv_pos_as_xyz
  1  'x, y, z'
loop_
 _atom_site_type_symbol
 _atom_site_label
 _atom_site_symmetry_multiplicity
 _atom_site_fract_x
 _atom_site_fract_y
 _atom_site_fract_z
 _atom_site_occupancy
  Ac  Ac0  1  0.796934  0.203066  0.000000  1
  Ac  Ac1  1  0.203066  0.796934  0.000000  1
  Ac  Ac2  1  0.203066  0.796934  0.500000  1
  Ac  Ac3  1  0.796934  0.203066  0.500000  1
  Ac  Ac4  1  0.635379  0.635379  0.250000  1
  Ac  Ac5  1  0.364621  0.364621  0.750000  1
  Tl  Tl6  1  0.307922  0.307922  0.046284  1
  Tl  Tl7  1  0.692078  0.692078  0.953716  1
  Tl  Tl8  1  0.692078  0.692078  0.546284  1
  Tl  Tl9  1  0.307922  0.307922  0.453716  1
  Sn  Sn10  1  0.074139  0.486518  0.250000  1
  Sn  Sn11  1  0.925862  0.513482  0.750000  1
  Sn  Sn12  1  0.486518  0.074138  0.250000  1
  Sn  Sn13  1  0.513482  0.925862  0.750000  1
  Sn  Sn14  1  0.028236  0.028236  0.250000  1
  Sn  Sn15  1  0.971764  0.971764  0.750000  1
