# generated using pymatgen
data_YAlGaCu3
_symmetry_space_group_name_H-M   'P 1'
_cell_length_a   5.16936740
_cell_length_b   5.06827801
_cell_length_c   4.15487100
_cell_angle_alpha   90.00000000
_cell_angle_beta   90.00000000
_cell_angle_gamma   118.20316135
_symmetry_Int_Tables_number   1
_chemical_formula_structural   YAlGaCu3
_chemical_formula_sum   'Y1 Al1 Ga1 Cu3'
_cell_volume   95.93299315
_cell_formula_units_Z   1
loop_
 _symmetry_equiv_pos_site_id
 _symmetry_equiv_pos_as_xyz
  1  'x, y, z'
loop_
 _atom_site_type_symbol
 _atom_site_label
 _atom_site_symmetry_multiplicity
 _atom_site_fract_x
 _atom_site_fract_y
 _atom_site_fract_z
 _atom_site_occupancy
  Y  Y0  1  0.500000  0.500000  0.000000  1
  Al  Al1  1  0.000000  0.500000  0.500000  1
  Ga  Ga2  1  0.500000  0.000000  0.500000  1
  Cu  Cu3  1  0.157089  0.830672  0.000000  1
  Cu  Cu4  1  0.842911  0.169328  0.000000  1
  Cu  Cu5  1  0.000000  0.000000  0.500000  1
