# generated using pymatgen
data_YbY(LuOs4)2
_symmetry_space_group_name_H-M   'P 1'
_cell_length_a   5.29822400
_cell_length_b   5.29822523
_cell_length_c   8.79807800
_cell_angle_alpha   90.00000000
_cell_angle_beta   90.00000000
_cell_angle_gamma   119.99999232
_symmetry_Int_Tables_number   1
_chemical_formula_structural   YbY(LuOs4)2
_chemical_formula_sum   'Yb1 Y1 Lu2 Os8'
_cell_volume   213.88444705
_cell_formula_units_Z   1
loop_
 _symmetry_equiv_pos_site_id
 _symmetry_equiv_pos_as_xyz
  1  'x, y, z'
loop_
 _atom_site_type_symbol
 _atom_site_label
 _atom_site_symmetry_multiplicity
 _atom_site_fract_x
 _atom_site_fract_y
 _atom_site_fract_z
 _atom_site_occupancy
  Yb  Yb0  1  0.666667  0.333333  0.562907  1
  Y  Y1  1  0.333333  0.666667  0.438874  1
  Lu  Lu2  1  0.666667  0.333333  0.929551  1
  Lu  Lu3  1  0.333333  0.666667  0.065667  1
  Os  Os4  1  0.172135  0.344269  0.752960  1
  Os  Os5  1  0.172135  0.827865  0.752960  1
  Os  Os6  1  0.345977  0.172989  0.247333  1
  Os  Os7  1  0.827011  0.654023  0.247333  1
  Os  Os8  1  0.655731  0.827865  0.752960  1
  Os  Os9  1  0.000000  0.000000  0.001067  1
  Os  Os10  1  0.827011  0.172989  0.247333  1
  Os  Os11  1  0.000000  0.000000  0.501056  1
