# generated using pymatgen
data_Ho5Er5In8(CoPd)2
_symmetry_space_group_name_H-M   'P 1'
_cell_length_a   3.57979700
_cell_length_b   8.05383684
_cell_length_c   18.03122715
_cell_angle_alpha   90.12600142
_cell_angle_beta   90.00000000
_cell_angle_gamma   90.00000000
_symmetry_Int_Tables_number   1
_chemical_formula_structural   Ho5Er5In8(CoPd)2
_chemical_formula_sum   'Ho5 Er5 In8 Co2 Pd2'
_cell_volume   519.85887300
_cell_formula_units_Z   1
loop_
 _symmetry_equiv_pos_site_id
 _symmetry_equiv_pos_as_xyz
  1  'x, y, z'
loop_
 _atom_site_type_symbol
 _atom_site_label
 _atom_site_symmetry_multiplicity
 _atom_site_fract_x
 _atom_site_fract_y
 _atom_site_fract_z
 _atom_site_occupancy
  Ho  Ho0  1  0.000000  0.499973  0.499986  1
  Ho  Ho1  1  0.000000  0.999979  0.999996  1
  Ho  Ho2  1  0.000000  0.725124  0.275691  1
  Ho  Ho3  1  0.000000  0.274811  0.724318  1
  Ho  Ho4  1  0.000000  0.741649  0.781028  1
  Er  Er5  1  0.000000  0.258538  0.219042  1
  Er  Er6  1  0.000000  0.611043  0.088986  1
  Er  Er7  1  0.000000  0.388800  0.911075  1
  Er  Er8  1  0.000000  0.882791  0.585016  1
  Er  Er9  1  0.000000  0.117199  0.414906  1
  In  In10  1  0.500000  0.706527  0.931638  1
  In  In11  1  0.500000  0.293433  0.068645  1
  In  In12  1  0.500000  0.790715  0.431002  1
  In  In13  1  0.500000  0.209287  0.568964  1
  In  In14  1  0.500000  0.575896  0.651470  1
  In  In15  1  0.500000  0.423731  0.348335  1
  In  In16  1  0.500000  0.921365  0.149351  1
  In  In17  1  0.500000  0.078895  0.850690  1
  Co  Co18  1  0.500000  0.517403  0.194306  1
  Co  Co19  1  0.500000  0.482195  0.805751  1
  Pd  Pd20  1  0.500000  0.979664  0.696707  1
  Pd  Pd21  1  0.500000  0.020982  0.303097  1
