# generated using pymatgen
data_Dy5Y3(LuRu2)2
_symmetry_space_group_name_H-M   'P 1'
_cell_length_a   6.32253393
_cell_length_b   7.25586614
_cell_length_c   8.44646968
_cell_angle_alpha   96.80961949
_cell_angle_beta   112.04035096
_cell_angle_gamma   89.87690965
_symmetry_Int_Tables_number   1
_chemical_formula_structural   Dy5Y3(LuRu2)2
_chemical_formula_sum   'Dy5 Y3 Lu2 Ru4'
_cell_volume   356.25676271
_cell_formula_units_Z   1
loop_
 _symmetry_equiv_pos_site_id
 _symmetry_equiv_pos_as_xyz
  1  'x, y, z'
loop_
 _atom_site_type_symbol
 _atom_site_label
 _atom_site_symmetry_multiplicity
 _atom_site_fract_x
 _atom_site_fract_y
 _atom_site_fract_z
 _atom_site_occupancy
  Dy  Dy0  1  0.291806  0.583499  0.813975  1
  Dy  Dy1  1  0.297385  0.312753  0.432004  1
  Dy  Dy2  1  0.702609  0.687309  0.568028  1
  Dy  Dy3  1  0.865300  0.187401  0.568043  1
  Dy  Dy4  1  0.134844  0.812616  0.432133  1
  Y  Y5  1  0.523671  0.082885  0.814264  1
  Y  Y6  1  0.476369  0.916973  0.185608  1
  Y  Y7  1  0.708598  0.417125  0.185951  1
  Lu  Lu8  1  0.077426  0.250339  0.000007  1
  Lu  Lu9  1  0.922543  0.749649  0.999827  1
  Ru  Ru10  1  0.317581  0.575231  0.217902  1
  Ru  Ru11  1  0.681022  0.425365  0.782153  1
  Ru  Ru12  1  0.100103  0.924308  0.781981  1
  Ru  Ru13  1  0.900743  0.074547  0.218124  1
