# generated using pymatgen
data_LiSm3Hg3Pd2
_symmetry_space_group_name_H-M   'P 1'
_cell_length_a   7.80370700
_cell_length_b   7.80370768
_cell_length_c   3.86776100
_cell_angle_alpha   90.00000000
_cell_angle_beta   90.00000000
_cell_angle_gamma   120.00000136
_symmetry_Int_Tables_number   1
_chemical_formula_structural   LiSm3Hg3Pd2
_chemical_formula_sum   'Li1 Sm3 Hg3 Pd2'
_cell_volume   203.98216794
_cell_formula_units_Z   1
loop_
 _symmetry_equiv_pos_site_id
 _symmetry_equiv_pos_as_xyz
  1  'x, y, z'
loop_
 _atom_site_type_symbol
 _atom_site_label
 _atom_site_symmetry_multiplicity
 _atom_site_fract_x
 _atom_site_fract_y
 _atom_site_fract_z
 _atom_site_occupancy
  Li  Li0  1  0.000000  0.000000  0.500000  1
  Sm  Sm1  1  0.577298  0.000000  0.500000  1
  Sm  Sm2  1  0.000000  0.577298  0.500000  1
  Sm  Sm3  1  0.422702  0.422702  0.500000  1
  Hg  Hg4  1  0.248335  0.000000  0.000000  1
  Hg  Hg5  1  0.751665  0.751665  0.000000  1
  Hg  Hg6  1  0.000000  0.248335  0.000000  1
  Pd  Pd7  1  0.666667  0.333333  0.000000  1
  Pd  Pd8  1  0.333333  0.666667  0.000000  1
