# generated using pymatgen
data_KThTlCl6
_symmetry_space_group_name_H-M   'P 1'
_cell_length_a   8.03376400
_cell_length_b   7.44526953
_cell_length_c   12.86434300
_cell_angle_alpha   55.18454768
_cell_angle_beta   90.00000000
_cell_angle_gamma   90.00000000
_symmetry_Int_Tables_number   1
_chemical_formula_structural   KThTlCl6
_chemical_formula_sum   'K2 Th2 Tl2 Cl12'
_cell_volume   631.72455115
_cell_formula_units_Z   2
loop_
 _symmetry_equiv_pos_site_id
 _symmetry_equiv_pos_as_xyz
  1  'x, y, z'
loop_
 _atom_site_type_symbol
 _atom_site_label
 _atom_site_symmetry_multiplicity
 _atom_site_fract_x
 _atom_site_fract_y
 _atom_site_fract_z
 _atom_site_occupancy
  K  K0  1  0.414931  0.271944  0.750482  1
  K  K1  1  0.914931  0.728056  0.749518  1
  Th  Th2  1  0.998691  0.001354  0.998310  1
  Th  Th3  1  0.498691  0.998646  0.501690  1
  Tl  Tl4  1  0.584015  0.724024  0.252591  1
  Tl  Tl5  1  0.084015  0.275976  0.247409  1
  Cl  Cl6  1  0.970651  0.868273  0.241841  1
  Cl  Cl7  1  0.470651  0.131727  0.258159  1
  Cl  Cl8  1  0.035820  0.128148  0.757965  1
  Cl  Cl9  1  0.535820  0.871852  0.742035  1
  Cl  Cl10  1  0.671172  0.642593  0.559692  1
  Cl  Cl11  1  0.171172  0.357407  0.940308  1
  Cl  Cl12  1  0.324728  0.352496  0.447713  1
  Cl  Cl13  1  0.824728  0.647504  0.052287  1
  Cl  Cl14  1  0.712815  0.228374  0.939559  1
  Cl  Cl15  1  0.212815  0.771626  0.560441  1
  Cl  Cl16  1  0.287177  0.780025  0.053216  1
  Cl  Cl17  1  0.787177  0.219975  0.446784  1
