# generated using pymatgen
data_YbCo2F12
_symmetry_space_group_name_H-M   'P 1'
_cell_length_a   9.56453877
_cell_length_b   9.56453867
_cell_length_c   9.56453800
_cell_angle_alpha   131.52485515
_cell_angle_beta   131.52484662
_cell_angle_gamma   70.98051774
_symmetry_Int_Tables_number   1
_chemical_formula_structural   YbCo2F12
_chemical_formula_sum   'Yb2 Co4 F24'
_cell_volume   480.24376561
_cell_formula_units_Z   2
loop_
 _symmetry_equiv_pos_site_id
 _symmetry_equiv_pos_as_xyz
  1  'x, y, z'
loop_
 _atom_site_type_symbol
 _atom_site_label
 _atom_site_symmetry_multiplicity
 _atom_site_fract_x
 _atom_site_fract_y
 _atom_site_fract_z
 _atom_site_occupancy
  Yb  Yb0  1  0.750000  0.250000  0.500000  1
  Yb  Yb1  1  0.000000  0.000000  0.000000  1
  Co  Co2  1  0.780611  0.780611  0.000000  1
  Co  Co3  1  0.219389  0.219389  0.000000  1
  Co  Co4  1  0.969389  0.469389  0.500000  1
  Co  Co5  1  0.530611  0.030611  0.500000  1
  F  F6  1  0.863405  0.743490  0.195741  1
  F  F7  1  0.547748  0.667664  0.804259  1
  F  F8  1  0.417664  0.797748  0.304259  1
  F  F9  1  0.332336  0.136595  0.880086  1
  F  F10  1  0.256510  0.452252  0.119914  1
  F  F11  1  0.202252  0.506510  0.619914  1
  F  F12  1  0.651184  0.265845  0.683822  1
  F  F13  1  0.734155  0.417977  0.385338  1
  F  F14  1  0.032641  0.348816  0.614662  1
  F  F15  1  0.098816  0.282641  0.114662  1
  F  F16  1  0.167977  0.984155  0.885338  1
  F  F17  1  0.582023  0.967359  0.316178  1
  F  F18  1  0.717359  0.832023  0.816178  1
  F  F19  1  0.015845  0.901184  0.183822  1
  F  F20  1  0.307750  0.084170  0.330028  1
  F  F21  1  0.915830  0.245858  0.223579  1
  F  F22  1  0.022279  0.692250  0.776421  1
  F  F23  1  0.442250  0.272279  0.276421  1
  F  F24  1  0.995858  0.165830  0.723579  1
  F  F25  1  0.754142  0.977721  0.669972  1
  F  F26  1  0.727721  0.004142  0.169972  1
  F  F27  1  0.834170  0.557750  0.830028  1
  F  F28  1  0.493490  0.113405  0.695741  1
  F  F29  1  0.886595  0.582336  0.380086  1
