# generated using pymatgen
data_Th3In3RuAu2
_symmetry_space_group_name_H-M   'P 1'
_cell_length_a   7.75316100
_cell_length_b   7.75316092
_cell_length_c   4.18398400
_cell_angle_alpha   90.00000000
_cell_angle_beta   90.00000000
_cell_angle_gamma   120.00000462
_symmetry_Int_Tables_number   1
_chemical_formula_structural   Th3In3RuAu2
_chemical_formula_sum   'Th3 In3 Ru1 Au2'
_cell_volume   217.81020653
_cell_formula_units_Z   1
loop_
 _symmetry_equiv_pos_site_id
 _symmetry_equiv_pos_as_xyz
  1  'x, y, z'
loop_
 _atom_site_type_symbol
 _atom_site_label
 _atom_site_symmetry_multiplicity
 _atom_site_fract_x
 _atom_site_fract_y
 _atom_site_fract_z
 _atom_site_occupancy
  Th  Th0  1  0.425740  0.018035  0.500000  1
  Th  Th1  1  0.981965  0.407705  0.500000  1
  Th  Th2  1  0.592295  0.574260  0.500000  1
  In  In3  1  0.750122  0.004899  0.000000  1
  In  In4  1  0.995101  0.745222  0.000000  1
  In  In5  1  0.254778  0.249878  0.000000  1
  Ru  Ru6  1  0.666667  0.333333  0.000000  1
  Au  Au7  1  0.333333  0.666667  0.000000  1
  Au  Au8  1  0.000000  0.000000  0.500000  1
