# generated using pymatgen
data_Nd10Ga2Bi5Pb
_symmetry_space_group_name_H-M   'P 1'
_cell_length_a   9.71031359
_cell_length_b   9.71031552
_cell_length_c   6.63471400
_cell_angle_alpha   90.00000000
_cell_angle_beta   90.00000000
_cell_angle_gamma   120.06563181
_symmetry_Int_Tables_number   1
_chemical_formula_structural   Nd10Ga2Bi5Pb
_chemical_formula_sum   'Nd10 Ga2 Bi5 Pb1'
_cell_volume   541.41693397
_cell_formula_units_Z   1
loop_
 _symmetry_equiv_pos_site_id
 _symmetry_equiv_pos_as_xyz
  1  'x, y, z'
loop_
 _atom_site_type_symbol
 _atom_site_label
 _atom_site_symmetry_multiplicity
 _atom_site_fract_x
 _atom_site_fract_y
 _atom_site_fract_z
 _atom_site_occupancy
  Nd  Nd0  1  0.666251  0.333101  0.999301  1
  Nd  Nd1  1  0.333101  0.666251  0.999301  1
  Nd  Nd2  1  0.333101  0.666251  0.500699  1
  Nd  Nd3  1  0.666251  0.333101  0.500699  1
  Nd  Nd4  1  0.742504  0.742504  0.750000  1
  Nd  Nd5  1  0.257743  0.000354  0.750000  1
  Nd  Nd6  1  0.000354  0.257743  0.750000  1
  Nd  Nd7  1  0.256744  0.256744  0.250000  1
  Nd  Nd8  1  0.742922  0.000413  0.250000  1
  Nd  Nd9  1  0.000413  0.742922  0.250000  1
  Ga  Ga10  1  0.000441  0.000441  0.999458  1
  Ga  Ga11  1  0.000441  0.000441  0.500542  1
  Bi  Bi12  1  0.613951  0.999904  0.750000  1
  Bi  Bi13  1  0.999904  0.613951  0.750000  1
  Bi  Bi14  1  0.613085  0.613085  0.250000  1
  Bi  Bi15  1  0.386181  0.000040  0.250000  1
  Bi  Bi16  1  0.000040  0.386181  0.250000  1
  Pb  Pb17  1  0.386571  0.386571  0.750000  1
