# generated using pymatgen
data_Er10InSn5Se2
_symmetry_space_group_name_H-M   'P 1'
_cell_length_a   9.02613162
_cell_length_b   9.02612999
_cell_length_c   6.67852000
_cell_angle_alpha   90.00000000
_cell_angle_beta   90.00000000
_cell_angle_gamma   120.06861263
_symmetry_Int_Tables_number   1
_chemical_formula_structural   Er10InSn5Se2
_chemical_formula_sum   'Er10 In1 Sn5 Se2'
_cell_volume   470.88345116
_cell_formula_units_Z   1
loop_
 _symmetry_equiv_pos_site_id
 _symmetry_equiv_pos_as_xyz
  1  'x, y, z'
loop_
 _atom_site_type_symbol
 _atom_site_label
 _atom_site_symmetry_multiplicity
 _atom_site_fract_x
 _atom_site_fract_y
 _atom_site_fract_z
 _atom_site_occupancy
  Er  Er0  1  0.666340  0.333252  0.999443  1
  Er  Er1  1  0.333252  0.666340  0.999443  1
  Er  Er2  1  0.333252  0.666340  0.500557  1
  Er  Er3  1  0.666340  0.333252  0.500557  1
  Er  Er4  1  0.746939  0.746939  0.750000  1
  Er  Er5  1  0.253491  0.000248  0.750000  1
  Er  Er6  1  0.000248  0.253491  0.750000  1
  Er  Er7  1  0.252911  0.252911  0.250000  1
  Er  Er8  1  0.747328  0.000489  0.250000  1
  Er  Er9  1  0.000489  0.747328  0.250000  1
  In  In10  1  0.397841  0.397841  0.750000  1
  Sn  Sn11  1  0.604075  0.999884  0.750000  1
  Sn  Sn12  1  0.999884  0.604075  0.750000  1
  Sn  Sn13  1  0.602159  0.602159  0.250000  1
  Sn  Sn14  1  0.395910  0.999711  0.250000  1
  Sn  Sn15  1  0.999711  0.395910  0.250000  1
  Se  Se16  1  0.999915  0.999915  0.000254  1
  Se  Se17  1  0.999915  0.999915  0.499746  1
