# generated using pymatgen
data_Ta2TiCr3Si2P
_symmetry_space_group_name_H-M   'P 1'
_cell_length_a   6.61067393
_cell_length_b   6.59865464
_cell_length_c   3.24256800
_cell_angle_alpha   90.00000000
_cell_angle_beta   90.00000000
_cell_angle_gamma   119.93986550
_symmetry_Int_Tables_number   1
_chemical_formula_structural   Ta2TiCr3Si2P
_chemical_formula_sum   'Ta2 Ti1 Cr3 Si2 P1'
_cell_volume   122.56986373
_cell_formula_units_Z   1
loop_
 _symmetry_equiv_pos_site_id
 _symmetry_equiv_pos_as_xyz
  1  'x, y, z'
loop_
 _atom_site_type_symbol
 _atom_site_label
 _atom_site_symmetry_multiplicity
 _atom_site_fract_x
 _atom_site_fract_y
 _atom_site_fract_z
 _atom_site_occupancy
  Ta  Ta0  1  0.401074  0.399455  0.500000  1
  Ta  Ta1  1  0.598926  0.998381  0.500000  1
  Ti  Ti2  1  0.000000  0.601860  0.500000  1
  Cr  Cr3  1  0.000000  0.248134  0.000000  1
  Cr  Cr4  1  0.251107  0.001195  0.000000  1
  Cr  Cr5  1  0.748893  0.750088  0.000000  1
  Si  Si6  1  0.674722  0.339069  0.000000  1
  Si  Si7  1  0.325278  0.664349  0.000000  1
  P  P8  1  0.000000  0.997468  0.500000  1
