# generated using pymatgen
data_Th4AlCdNi4
_symmetry_space_group_name_H-M   'P 1'
_cell_length_a   7.52304800
_cell_length_b   7.52304800
_cell_length_c   3.70047800
_cell_angle_alpha   90.00000000
_cell_angle_beta   90.00000000
_cell_angle_gamma   90.00000000
_symmetry_Int_Tables_number   1
_chemical_formula_structural   Th4AlCdNi4
_chemical_formula_sum   'Th4 Al1 Cd1 Ni4'
_cell_volume   209.43318249
_cell_formula_units_Z   1
loop_
 _symmetry_equiv_pos_site_id
 _symmetry_equiv_pos_as_xyz
  1  'x, y, z'
loop_
 _atom_site_type_symbol
 _atom_site_label
 _atom_site_symmetry_multiplicity
 _atom_site_fract_x
 _atom_site_fract_y
 _atom_site_fract_z
 _atom_site_occupancy
  Th  Th0  1  0.315111  0.831659  0.500000  1
  Th  Th1  1  0.831659  0.684889  0.500000  1
  Th  Th2  1  0.168341  0.315111  0.500000  1
  Th  Th3  1  0.684889  0.168341  0.500000  1
  Al  Al4  1  0.000000  0.000000  0.000000  1
  Cd  Cd5  1  0.500000  0.500000  0.000000  1
  Ni  Ni6  1  0.364704  0.115492  0.000000  1
  Ni  Ni7  1  0.884508  0.364704  0.000000  1
  Ni  Ni8  1  0.115492  0.635296  0.000000  1
  Ni  Ni9  1  0.635296  0.884508  0.000000  1
