# generated using pymatgen
data_Cs2RbTa2Br10N
_symmetry_space_group_name_H-M   'P 1'
_cell_length_a   7.73491800
_cell_length_b   7.73491800
_cell_length_c   20.12988800
_cell_angle_alpha   90.00000000
_cell_angle_beta   90.00000000
_cell_angle_gamma   90.00000000
_symmetry_Int_Tables_number   1
_chemical_formula_structural   Cs2RbTa2Br10N
_chemical_formula_sum   'Cs4 Rb2 Ta4 Br20 N2'
_cell_volume   1204.35019283
_cell_formula_units_Z   2
loop_
 _symmetry_equiv_pos_site_id
 _symmetry_equiv_pos_as_xyz
  1  'x, y, z'
loop_
 _atom_site_type_symbol
 _atom_site_label
 _atom_site_symmetry_multiplicity
 _atom_site_fract_x
 _atom_site_fract_y
 _atom_site_fract_z
 _atom_site_occupancy
  Cs  Cs0  1  0.000000  0.500000  0.250000  1
  Cs  Cs1  1  0.500000  0.000000  0.750000  1
  Cs  Cs2  1  0.500000  0.000000  0.250000  1
  Cs  Cs3  1  0.000000  0.500000  0.750000  1
  Rb  Rb4  1  0.500000  0.500000  0.000000  1
  Rb  Rb5  1  0.000000  0.000000  0.500000  1
  Ta  Ta6  1  0.500000  0.500000  0.406842  1
  Ta  Ta7  1  0.000000  0.000000  0.906842  1
  Ta  Ta8  1  0.500000  0.500000  0.593158  1
  Ta  Ta9  1  0.000000  0.000000  0.093158  1
  Br  Br10  1  0.774242  0.684106  0.397414  1
  Br  Br11  1  0.225758  0.315894  0.397414  1
  Br  Br12  1  0.725758  0.184106  0.897414  1
  Br  Br13  1  0.274242  0.815894  0.897414  1
  Br  Br14  1  0.684106  0.225758  0.397414  1
  Br  Br15  1  0.315894  0.774242  0.397414  1
  Br  Br16  1  0.184106  0.274242  0.897414  1
  Br  Br17  1  0.815894  0.725758  0.897414  1
  Br  Br18  1  0.225758  0.315894  0.602586  1
  Br  Br19  1  0.774242  0.684106  0.602586  1
  Br  Br20  1  0.274242  0.815894  0.102586  1
  Br  Br21  1  0.725758  0.184106  0.102586  1
  Br  Br22  1  0.315894  0.774242  0.602586  1
  Br  Br23  1  0.684106  0.225758  0.602586  1
  Br  Br24  1  0.815894  0.725758  0.102586  1
  Br  Br25  1  0.184106  0.274242  0.102586  1
  Br  Br26  1  0.500000  0.500000  0.267318  1
  Br  Br27  1  0.000000  0.000000  0.767318  1
  Br  Br28  1  0.500000  0.500000  0.732682  1
  Br  Br29  1  0.000000  0.000000  0.232682  1
  N  N30  1  0.500000  0.500000  0.500000  1
  N  N31  1  0.000000  0.000000  0.000000  1
