# generated using pymatgen
data_SbIrBr18
_symmetry_space_group_name_H-M   'P 1'
_cell_length_a   9.32934468
_cell_length_b   9.29848323
_cell_length_c   9.31510008
_cell_angle_alpha   90.28954665
_cell_angle_beta   90.28830580
_cell_angle_gamma   90.33817583
_symmetry_Int_Tables_number   1
_chemical_formula_structural   SbIrBr18
_chemical_formula_sum   'Sb1 Ir1 Br18'
_cell_volume   808.03858958
_cell_formula_units_Z   1
loop_
 _symmetry_equiv_pos_site_id
 _symmetry_equiv_pos_as_xyz
  1  'x, y, z'
loop_
 _atom_site_type_symbol
 _atom_site_label
 _atom_site_symmetry_multiplicity
 _atom_site_fract_x
 _atom_site_fract_y
 _atom_site_fract_z
 _atom_site_occupancy
  Sb  Sb0  1  0.500000  0.500000  0.500000  1
  Ir  Ir1  1  0.000000  0.000000  0.000000  1
  Br  Br2  1  0.802078  0.465699  0.519488  1
  Br  Br3  1  0.521361  0.803015  0.465305  1
  Br  Br4  1  0.466451  0.521095  0.802503  1
  Br  Br5  1  0.197922  0.534301  0.480512  1
  Br  Br6  1  0.478639  0.196985  0.534695  1
  Br  Br7  1  0.533549  0.478905  0.197497  1
  Br  Br8  1  0.901401  0.361917  0.756008  1
  Br  Br9  1  0.758034  0.902686  0.361971  1
  Br  Br10  1  0.362106  0.758102  0.901586  1
  Br  Br11  1  0.098599  0.638083  0.243992  1
  Br  Br12  1  0.241966  0.097314  0.638029  1
  Br  Br13  1  0.637894  0.241898  0.098414  1
  Br  Br14  1  0.016461  0.971925  0.733468  1
  Br  Br15  1  0.733708  0.015689  0.973692  1
  Br  Br16  1  0.973590  0.732861  0.017840  1
  Br  Br17  1  0.983539  0.028075  0.266532  1
  Br  Br18  1  0.266292  0.984311  0.026308  1
  Br  Br19  1  0.026410  0.267139  0.982160  1
