# generated using pymatgen
data_Er7(CuTe)2
_symmetry_space_group_name_H-M   'P 1'
_cell_length_a   9.19946842
_cell_length_b   9.19946783
_cell_length_c   9.19946826
_cell_angle_alpha   154.84941425
_cell_angle_beta   118.25449212
_cell_angle_gamma   67.75407537
_symmetry_Int_Tables_number   1
_chemical_formula_structural   Er7(CuTe)2
_chemical_formula_sum   'Er7 Cu2 Te2'
_cell_volume   288.85689786
_cell_formula_units_Z   1
loop_
 _symmetry_equiv_pos_site_id
 _symmetry_equiv_pos_as_xyz
  1  'x, y, z'
loop_
 _atom_site_type_symbol
 _atom_site_label
 _atom_site_symmetry_multiplicity
 _atom_site_fract_x
 _atom_site_fract_y
 _atom_site_fract_z
 _atom_site_occupancy
  Er  Er0  1  0.715737  0.130147  0.585589  1
  Er  Er1  1  0.455442  0.869853  0.585589  1
  Er  Er2  1  0.691161  0.313324  0.377837  1
  Er  Er3  1  0.064512  0.686676  0.377837  1
  Er  Er4  1  0.092473  0.358266  0.734207  1
  Er  Er5  1  0.375942  0.641734  0.734207  1
  Er  Er6  1  0.994391  0.000000  0.994391  1
  Cu  Cu7  1  0.309360  0.234725  0.074635  1
  Cu  Cu8  1  0.839910  0.765275  0.074635  1
  Te  Te9  1  0.733462  0.500000  0.233462  1
  Te  Te10  1  0.336750  0.000000  0.336750  1
