# generated using pymatgen
data_Tb4Zr3RuF28
_symmetry_space_group_name_H-M   'P 1'
_cell_length_a   5.71378343
_cell_length_b   9.08136909
_cell_length_c   12.21206098
_cell_angle_alpha   62.61626568
_cell_angle_beta   90.02987001
_cell_angle_gamma   90.09639894
_symmetry_Int_Tables_number   1
_chemical_formula_structural   Tb4Zr3RuF28
_chemical_formula_sum   'Tb4 Zr3 Ru1 F28'
_cell_volume   562.66511085
_cell_formula_units_Z   1
loop_
 _symmetry_equiv_pos_site_id
 _symmetry_equiv_pos_as_xyz
  1  'x, y, z'
loop_
 _atom_site_type_symbol
 _atom_site_label
 _atom_site_symmetry_multiplicity
 _atom_site_fract_x
 _atom_site_fract_y
 _atom_site_fract_z
 _atom_site_occupancy
  Tb  Tb0  1  0.256317  0.813478  0.271681  1
  Tb  Tb1  1  0.743944  0.183161  0.733275  1
  Tb  Tb2  1  0.757994  0.185330  0.232914  1
  Tb  Tb3  1  0.241907  0.812999  0.760741  1
  Zr  Zr4  1  0.755475  0.726751  0.043958  1
  Zr  Zr5  1  0.245560  0.273454  0.954888  1
  Zr  Zr6  1  0.256128  0.274382  0.456308  1
  Ru  Ru7  1  0.741389  0.726518  0.545072  1
  F  F8  1  0.942178  0.709884  0.419906  1
  F  F9  1  0.038894  0.290361  0.581833  1
  F  F10  1  0.463029  0.291403  0.080269  1
  F  F11  1  0.535576  0.710530  0.918883  1
  F  F12  1  0.482753  0.732863  0.149552  1
  F  F13  1  0.520962  0.270063  0.850027  1
  F  F14  1  0.977218  0.264575  0.355094  1
  F  F15  1  0.020160  0.730440  0.639173  1
  F  F16  1  0.966852  0.747639  0.172685  1
  F  F17  1  0.037645  0.252589  0.825574  1
  F  F18  1  0.465566  0.252492  0.327645  1
  F  F19  1  0.544714  0.743080  0.672868  1
  F  F20  1  0.775448  0.474813  0.140432  1
  F  F21  1  0.222909  0.524722  0.857868  1
  F  F22  1  0.267727  0.525766  0.360307  1
  F  F23  1  0.731835  0.489998  0.638357  1
  F  F24  1  0.948300  0.276043  0.048697  1
  F  F25  1  0.049457  0.725117  0.948059  1
  F  F26  1  0.454007  0.720861  0.455548  1
  F  F27  1  0.553524  0.282338  0.547991  1
  F  F28  1  0.741442  0.962647  0.453057  1
  F  F29  1  0.261608  0.023690  0.555803  1
  F  F30  1  0.241904  0.023959  0.060411  1
  F  F31  1  0.758275  0.977858  0.940922  1
  F  F32  1  0.573726  0.972448  0.236095  1
  F  F33  1  0.424961  0.027041  0.763106  1
  F  F34  1  0.075350  0.028471  0.269897  1
  F  F35  1  0.925270  0.972238  0.731100  1
