# generated using pymatgen
data_La5Ge9P3Ir19
_symmetry_space_group_name_H-M   'P 1'
_cell_length_a   13.18994400
_cell_length_b   13.18994350
_cell_length_c   4.05976600
_cell_angle_alpha   90.00000000
_cell_angle_beta   90.00000000
_cell_angle_gamma   120.00000126
_symmetry_Int_Tables_number   1
_chemical_formula_structural   La5Ge9P3Ir19
_chemical_formula_sum   'La5 Ge9 P3 Ir19'
_cell_volume   611.67047122
_cell_formula_units_Z   1
loop_
 _symmetry_equiv_pos_site_id
 _symmetry_equiv_pos_as_xyz
  1  'x, y, z'
loop_
 _atom_site_type_symbol
 _atom_site_label
 _atom_site_symmetry_multiplicity
 _atom_site_fract_x
 _atom_site_fract_y
 _atom_site_fract_z
 _atom_site_occupancy
  La  La0  1  0.666667  0.333333  0.000000  1
  La  La1  1  0.333333  0.666667  0.000000  1
  La  La2  1  0.816772  0.816772  0.500000  1
  La  La3  1  0.183228  0.000000  0.500000  1
  La  La4  1  0.000000  0.183228  0.500000  1
  Ge  Ge5  1  0.683271  0.163594  0.500000  1
  Ge  Ge6  1  0.836406  0.519676  0.500000  1
  Ge  Ge7  1  0.480324  0.316729  0.500000  1
  Ge  Ge8  1  0.163594  0.683271  0.500000  1
  Ge  Ge9  1  0.519676  0.836406  0.500000  1
  Ge  Ge10  1  0.316729  0.480324  0.500000  1
  Ge  Ge11  1  0.633498  0.633498  0.000000  1
  Ge  Ge12  1  0.366502  0.000000  0.000000  1
  Ge  Ge13  1  0.000000  0.366502  0.000000  1
  P  P14  1  0.180240  0.180240  0.000000  1
  P  P15  1  0.819760  0.000000  0.000000  1
  P  P16  1  0.000000  0.819760  0.000000  1
  Ir  Ir17  1  0.805483  0.176048  0.000000  1
  Ir  Ir18  1  0.823952  0.629435  0.000000  1
  Ir  Ir19  1  0.370565  0.194517  0.000000  1
  Ir  Ir20  1  0.176048  0.805483  0.000000  1
  Ir  Ir21  1  0.629435  0.823952  0.000000  1
  Ir  Ir22  1  0.194517  0.370565  0.000000  1
  Ir  Ir23  1  0.444491  0.444491  0.000000  1
  Ir  Ir24  1  0.555509  0.000000  0.000000  1
  Ir  Ir25  1  0.000000  0.555509  0.000000  1
  Ir  Ir26  1  0.274412  0.274412  0.500000  1
  Ir  Ir27  1  0.725588  0.000000  0.500000  1
  Ir  Ir28  1  0.000000  0.725588  0.500000  1
  Ir  Ir29  1  0.873784  0.356571  0.500000  1
  Ir  Ir30  1  0.643429  0.517214  0.500000  1
  Ir  Ir31  1  0.482786  0.126216  0.500000  1
  Ir  Ir32  1  0.356571  0.873784  0.500000  1
  Ir  Ir33  1  0.517214  0.643429  0.500000  1
  Ir  Ir34  1  0.126216  0.482786  0.500000  1
  Ir  Ir35  1  0.000000  0.000000  0.000000  1
