# generated using pymatgen
data_TlAgRh2S8(O3F)8
_symmetry_space_group_name_H-M   'P 1'
_cell_length_a   8.28990851
_cell_length_b   9.68583411
_cell_length_c   10.10605200
_cell_angle_alpha   64.57348611
_cell_angle_beta   88.99450349
_cell_angle_gamma   88.58352321
_symmetry_Int_Tables_number   1
_chemical_formula_structural   TlAgRh2S8(O3F)8
_chemical_formula_sum   'Tl1 Ag1 Rh2 S8 O24 F8'
_cell_volume   732.61573686
_cell_formula_units_Z   1
loop_
 _symmetry_equiv_pos_site_id
 _symmetry_equiv_pos_as_xyz
  1  'x, y, z'
loop_
 _atom_site_type_symbol
 _atom_site_label
 _atom_site_symmetry_multiplicity
 _atom_site_fract_x
 _atom_site_fract_y
 _atom_site_fract_z
 _atom_site_occupancy
  Tl  Tl0  1  0.500000  0.000000  0.000000  1
  Ag  Ag1  1  0.000000  0.500000  0.000000  1
  Rh  Rh2  1  0.500000  0.500000  0.500000  1
  Rh  Rh3  1  0.000000  0.000000  0.500000  1
  S  S4  1  0.302121  0.619835  0.190184  1
  S  S5  1  0.820625  0.854938  0.818526  1
  S  S6  1  0.697879  0.380165  0.809816  1
  S  S7  1  0.179375  0.145062  0.181474  1
  S  S8  1  0.226554  0.221384  0.621730  1
  S  S9  1  0.735205  0.289767  0.367695  1
  S  S10  1  0.773446  0.778616  0.378270  1
  S  S11  1  0.264795  0.710233  0.632305  1
  O  O12  1  0.269088  0.766501  0.070101  1
  O  O13  1  0.820196  0.706560  0.943240  1
  O  O14  1  0.730912  0.233499  0.929899  1
  O  O15  1  0.179804  0.293440  0.056760  1
  O  O16  1  0.174096  0.511787  0.243140  1
  O  O17  1  0.669762  0.937692  0.777226  1
  O  O18  1  0.825904  0.488213  0.756860  1
  O  O19  1  0.330238  0.062308  0.222774  1
  O  O20  1  0.396168  0.645454  0.304275  1
  O  O21  1  0.916798  0.842968  0.697151  1
  O  O22  1  0.603832  0.354546  0.695725  1
  O  O23  1  0.083202  0.157032  0.302849  1
  O  O24  1  0.349782  0.316920  0.514183  1
  O  O25  1  0.835581  0.176957  0.488951  1
  O  O26  1  0.650218  0.683080  0.485817  1
  O  O27  1  0.164419  0.823043  0.511049  1
  O  O28  1  0.178945  0.093860  0.587492  1
  O  O29  1  0.680873  0.416414  0.403803  1
  O  O30  1  0.821055  0.906140  0.412508  1
  O  O31  1  0.319127  0.583586  0.596197  1
  O  O32  1  0.262121  0.176787  0.772648  1
  O  O33  1  0.796924  0.340534  0.221924  1
  O  O34  1  0.737879  0.823213  0.227352  1
  O  O35  1  0.203076  0.659466  0.778076  1
  F  F36  1  0.437343  0.539735  0.128866  1
  F  F37  1  0.932041  0.958409  0.865866  1
  F  F38  1  0.562657  0.460265  0.871134  1
  F  F39  1  0.067959  0.041591  0.134134  1
  F  F40  1  0.072079  0.330224  0.586207  1
  F  F41  1  0.577168  0.198041  0.375638  1
  F  F42  1  0.927921  0.669776  0.413793  1
  F  F43  1  0.422832  0.801959  0.624362  1
