# generated using pymatgen
data_Y4Ga18(PdRh)3
_symmetry_space_group_name_H-M   'P 1'
_cell_length_a   7.63238517
_cell_length_b   7.63238469
_cell_length_c   9.53744949
_cell_angle_alpha   89.98164402
_cell_angle_beta   89.98164631
_cell_angle_gamma   119.86861751
_symmetry_Int_Tables_number   1
_chemical_formula_structural   Y4Ga18(PdRh)3
_chemical_formula_sum   'Y4 Ga18 Pd3 Rh3'
_cell_volume   481.78887213
_cell_formula_units_Z   1
loop_
 _symmetry_equiv_pos_site_id
 _symmetry_equiv_pos_as_xyz
  1  'x, y, z'
loop_
 _atom_site_type_symbol
 _atom_site_label
 _atom_site_symmetry_multiplicity
 _atom_site_fract_x
 _atom_site_fract_y
 _atom_site_fract_z
 _atom_site_occupancy
  Y  Y0  1  0.998315  0.667599  0.249900  1
  Y  Y1  1  0.002173  0.332888  0.750109  1
  Y  Y2  1  0.667112  0.997827  0.249891  1
  Y  Y3  1  0.332401  0.001685  0.750100  1
  Ga  Ga4  1  0.331387  0.328281  0.564228  1
  Ga  Ga5  1  0.671719  0.668613  0.435772  1
  Ga  Ga6  1  0.670838  0.670841  0.066148  1
  Ga  Ga7  1  0.329159  0.329162  0.933852  1
  Ga  Ga8  1  0.340601  0.543144  0.250447  1
  Ga  Ga9  1  0.659233  0.454923  0.747009  1
  Ga  Ga10  1  0.545077  0.340767  0.252991  1
  Ga  Ga11  1  0.456856  0.659399  0.749553  1
  Ga  Ga12  1  0.000061  0.331050  0.080358  1
  Ga  Ga13  1  0.000033  0.669077  0.919238  1
  Ga  Ga14  1  0.997256  0.665747  0.578932  1
  Ga  Ga15  1  0.334253  0.002744  0.421068  1
  Ga  Ga16  1  0.995736  0.330720  0.421591  1
  Ga  Ga17  1  0.669280  0.004264  0.578409  1
  Ga  Ga18  1  0.668950  0.999939  0.919642  1
  Ga  Ga19  1  0.330923  0.999967  0.080762  1
  Ga  Ga20  1  0.122286  0.123027  0.250421  1
  Ga  Ga21  1  0.876973  0.877714  0.749579  1
  Pd  Pd22  1  0.670941  0.329059  0.000000  1
  Pd  Pd23  1  0.328789  0.671211  0.000000  1
  Pd  Pd24  1  0.328306  0.671694  0.500000  1
  Rh  Rh25  1  0.000218  0.999782  0.000000  1
  Rh  Rh26  1  0.999958  0.000042  0.500000  1
  Rh  Rh27  1  0.671164  0.328836  0.500000  1
