# generated using pymatgen
data_Tm5Lu3Re3B24Ru
_symmetry_space_group_name_H-M   'P 1'
_cell_length_a   3.62602500
_cell_length_b   9.07507538
_cell_length_c   11.44225800
_cell_angle_alpha   90.10422731
_cell_angle_beta   90.00000000
_cell_angle_gamma   90.00000000
_symmetry_Int_Tables_number   1
_chemical_formula_structural   Tm5Lu3Re3B24Ru
_chemical_formula_sum   'Tm5 Lu3 Re3 B24 Ru1'
_cell_volume   376.52347038
_cell_formula_units_Z   1
loop_
 _symmetry_equiv_pos_site_id
 _symmetry_equiv_pos_as_xyz
  1  'x, y, z'
loop_
 _atom_site_type_symbol
 _atom_site_label
 _atom_site_symmetry_multiplicity
 _atom_site_fract_x
 _atom_site_fract_y
 _atom_site_fract_z
 _atom_site_occupancy
  Tm  Tm0  1  0.000000  0.321382  0.414237  1
  Tm  Tm1  1  0.000000  0.677768  0.587805  1
  Tm  Tm2  1  0.000000  0.824251  0.084070  1
  Tm  Tm3  1  0.000000  0.177225  0.913568  1
  Tm  Tm4  1  0.000000  0.942169  0.370266  1
  Lu  Lu5  1  0.000000  0.056228  0.629272  1
  Lu  Lu6  1  0.000000  0.443344  0.129861  1
  Lu  Lu7  1  0.000000  0.556762  0.871234  1
  Re  Re8  1  0.000000  0.361469  0.678613  1
  Re  Re9  1  0.000000  0.139434  0.179705  1
  Re  Re10  1  0.000000  0.860968  0.820529  1
  B  B11  1  0.500000  0.553785  0.433120  1
  B  B12  1  0.500000  0.447016  0.566289  1
  B  B13  1  0.500000  0.053363  0.066318  1
  B  B14  1  0.500000  0.947044  0.933318  1
  B  B15  1  0.500000  0.749163  0.419049  1
  B  B16  1  0.500000  0.249158  0.580584  1
  B  B17  1  0.500000  0.251004  0.080762  1
  B  B18  1  0.500000  0.749814  0.919359  1
  B  B19  1  0.500000  0.791500  0.264935  1
  B  B20  1  0.500000  0.206854  0.734605  1
  B  B21  1  0.500000  0.293366  0.235367  1
  B  B22  1  0.500000  0.706767  0.765517  1
  B  B23  1  0.500000  0.630922  0.184702  1
  B  B24  1  0.500000  0.369816  0.815116  1
  B  B25  1  0.500000  0.131050  0.315733  1
  B  B26  1  0.500000  0.869123  0.684664  1
  B  B27  1  0.500000  0.981480  0.211887  1
  B  B28  1  0.500000  0.018715  0.787364  1
  B  B29  1  0.500000  0.482449  0.287839  1
  B  B30  1  0.500000  0.519155  0.712322  1
  B  B31  1  0.500000  0.600601  0.028420  1
  B  B32  1  0.500000  0.400048  0.972530  1
  B  B33  1  0.500000  0.099814  0.472263  1
  B  B34  1  0.500000  0.898482  0.528247  1
  Ru  Ru35  1  0.000000  0.638513  0.320528  1
