# generated using pymatgen
data_Ti6Co9TcB4
_symmetry_space_group_name_H-M   'P 1'
_cell_length_a   8.50529096
_cell_length_b   8.62405119
_cell_length_c   3.05263600
_cell_angle_alpha   90.00000000
_cell_angle_beta   90.00000000
_cell_angle_gamma   89.68394027
_symmetry_Int_Tables_number   1
_chemical_formula_structural   Ti6Co9TcB4
_chemical_formula_sum   'Ti6 Co9 Tc1 B4'
_cell_volume   223.90764119
_cell_formula_units_Z   1
loop_
 _symmetry_equiv_pos_site_id
 _symmetry_equiv_pos_as_xyz
  1  'x, y, z'
loop_
 _atom_site_type_symbol
 _atom_site_label
 _atom_site_symmetry_multiplicity
 _atom_site_fract_x
 _atom_site_fract_y
 _atom_site_fract_z
 _atom_site_occupancy
  Ti  Ti0  1  0.995529  0.988910  0.000000  1
  Ti  Ti1  1  0.502783  0.500202  0.000000  1
  Ti  Ti2  1  0.827445  0.323520  0.000000  1
  Ti  Ti3  1  0.324347  0.174236  0.000000  1
  Ti  Ti4  1  0.671338  0.824831  0.000000  1
  Ti  Ti5  1  0.177083  0.674544  0.000000  1
  Co  Co6  1  0.496867  0.999535  0.500000  1
  Co  Co7  1  0.001727  0.510334  0.500000  1
  Co  Co8  1  0.220622  0.920262  0.500000  1
  Co  Co9  1  0.773432  0.065098  0.500000  1
  Co  Co10  1  0.923672  0.779306  0.500000  1
  Co  Co11  1  0.433780  0.721944  0.500000  1
  Co  Co12  1  0.570668  0.277008  0.500000  1
  Co  Co13  1  0.720792  0.571121  0.500000  1
  Co  Co14  1  0.285902  0.439685  0.500000  1
  Tc  Tc15  1  0.069986  0.219715  0.500000  1
  B  B16  1  0.620401  0.119241  0.000000  1
  B  B17  1  0.126272  0.390897  0.000000  1
  B  B18  1  0.878815  0.621109  0.000000  1
  B  B19  1  0.378537  0.878502  0.000000  1
