# generated using pymatgen
data_Tb4Al18IrPd4Ru
_symmetry_space_group_name_H-M   'P 1'
_cell_length_a   7.60888118
_cell_length_b   7.60888087
_cell_length_c   9.46700003
_cell_angle_alpha   89.95385197
_cell_angle_beta   89.95385299
_cell_angle_gamma   119.52758583
_symmetry_Int_Tables_number   1
_chemical_formula_structural   Tb4Al18IrPd4Ru
_chemical_formula_sum   'Tb4 Al18 Ir1 Pd4 Ru1'
_cell_volume   476.90493640
_cell_formula_units_Z   1
loop_
 _symmetry_equiv_pos_site_id
 _symmetry_equiv_pos_as_xyz
  1  'x, y, z'
loop_
 _atom_site_type_symbol
 _atom_site_label
 _atom_site_symmetry_multiplicity
 _atom_site_fract_x
 _atom_site_fract_y
 _atom_site_fract_z
 _atom_site_occupancy
  Tb  Tb0  1  0.995184  0.670169  0.249945  1
  Tb  Tb1  1  0.004816  0.329831  0.750055  1
  Tb  Tb2  1  0.670169  0.995184  0.249945  1
  Tb  Tb3  1  0.329831  0.004816  0.750055  1
  Al  Al4  1  0.126890  0.126890  0.248301  1
  Al  Al5  1  0.873110  0.873110  0.751699  1
  Al  Al6  1  0.000055  0.329237  0.075432  1
  Al  Al7  1  0.999945  0.670763  0.924568  1
  Al  Al8  1  0.999520  0.668221  0.576289  1
  Al  Al9  1  0.331779  0.000480  0.423711  1
  Al  Al10  1  0.000480  0.331779  0.423711  1
  Al  Al11  1  0.668221  0.999520  0.576289  1
  Al  Al12  1  0.670763  0.999945  0.924568  1
  Al  Al13  1  0.329237  0.000055  0.075432  1
  Al  Al14  1  0.330577  0.330577  0.554744  1
  Al  Al15  1  0.669423  0.669423  0.445256  1
  Al  Al16  1  0.671282  0.671282  0.054229  1
  Al  Al17  1  0.328718  0.328718  0.945771  1
  Al  Al18  1  0.340997  0.547064  0.249848  1
  Al  Al19  1  0.659003  0.452936  0.750152  1
  Al  Al20  1  0.547064  0.340997  0.249848  1
  Al  Al21  1  0.452936  0.659003  0.750152  1
  Ir  Ir22  1  0.000000  0.000000  0.500000  1
  Pd  Pd23  1  0.672276  0.327724  0.000000  1
  Pd  Pd24  1  0.327724  0.672276  0.000000  1
  Pd  Pd25  1  0.327817  0.672183  0.500000  1
  Pd  Pd26  1  0.672183  0.327817  0.500000  1
  Ru  Ru27  1  0.000000  0.000000  0.000000  1
