# generated using pymatgen
data_Bi3(Ru2O7)2
_symmetry_space_group_name_H-M   'P 1'
_cell_length_a   7.20406153
_cell_length_b   7.20406167
_cell_length_c   7.20406110
_cell_angle_alpha   61.18786245
_cell_angle_beta   61.18786248
_cell_angle_gamma   61.18786766
_symmetry_Int_Tables_number   1
_chemical_formula_structural   Bi3(Ru2O7)2
_chemical_formula_sum   'Bi3 Ru4 O14'
_cell_volume   271.43772468
_cell_formula_units_Z   1
loop_
 _symmetry_equiv_pos_site_id
 _symmetry_equiv_pos_as_xyz
  1  'x, y, z'
loop_
 _atom_site_type_symbol
 _atom_site_label
 _atom_site_symmetry_multiplicity
 _atom_site_fract_x
 _atom_site_fract_y
 _atom_site_fract_z
 _atom_site_occupancy
  Bi  Bi0  1  0.000000  0.500000  0.500000  1
  Bi  Bi1  1  0.500000  0.500000  0.000000  1
  Bi  Bi2  1  0.500000  0.000000  0.500000  1
  Ru  Ru3  1  0.000000  0.000000  0.000000  1
  Ru  Ru4  1  0.500000  0.000000  0.000000  1
  Ru  Ru5  1  0.000000  0.000000  0.500000  1
  Ru  Ru6  1  0.000000  0.500000  0.000000  1
  O  O7  1  0.945312  0.319068  0.319068  1
  O  O8  1  0.326322  0.920472  0.920472  1
  O  O9  1  0.319068  0.319068  0.945312  1
  O  O10  1  0.920472  0.920472  0.326322  1
  O  O11  1  0.920472  0.326322  0.920472  1
  O  O12  1  0.319068  0.945312  0.319068  1
  O  O13  1  0.054688  0.680932  0.680932  1
  O  O14  1  0.673678  0.079528  0.079528  1
  O  O15  1  0.680932  0.680932  0.054688  1
  O  O16  1  0.079528  0.079528  0.673678  1
  O  O17  1  0.079528  0.673678  0.079528  1
  O  O18  1  0.680932  0.054688  0.680932  1
  O  O19  1  0.374180  0.374180  0.374180  1
  O  O20  1  0.625820  0.625820  0.625820  1
