# generated using pymatgen
data_Dy8Ti4Nb7Si16Rh
_symmetry_space_group_name_H-M   'P 1'
_cell_length_a   7.04670145
_cell_length_b   7.04670118
_cell_length_c   12.92347995
_cell_angle_alpha   89.82719357
_cell_angle_beta   90.17280782
_cell_angle_gamma   89.64331370
_symmetry_Int_Tables_number   1
_chemical_formula_structural   Dy8Ti4Nb7Si16Rh
_chemical_formula_sum   'Dy8 Ti4 Nb7 Si16 Rh1'
_cell_volume   641.71000393
_cell_formula_units_Z   1
loop_
 _symmetry_equiv_pos_site_id
 _symmetry_equiv_pos_as_xyz
  1  'x, y, z'
loop_
 _atom_site_type_symbol
 _atom_site_label
 _atom_site_symmetry_multiplicity
 _atom_site_fract_x
 _atom_site_fract_y
 _atom_site_fract_z
 _atom_site_occupancy
  Dy  Dy0  1  0.997701  0.657151  0.032574  1
  Dy  Dy1  1  0.001559  0.343960  0.531989  1
  Dy  Dy2  1  0.657151  0.997701  0.967426  1
  Dy  Dy3  1  0.158933  0.504296  0.782027  1
  Dy  Dy4  1  0.841703  0.497834  0.284224  1
  Dy  Dy5  1  0.504296  0.158933  0.217973  1
  Dy  Dy6  1  0.497834  0.841703  0.715776  1
  Dy  Dy7  1  0.343960  0.001559  0.468011  1
  Ti  Ti8  1  0.826478  0.170209  0.748368  1
  Ti  Ti9  1  0.170209  0.826478  0.251632  1
  Ti  Ti10  1  0.492756  0.650654  0.126281  1
  Ti  Ti11  1  0.650654  0.492756  0.873719  1
  Nb  Nb12  1  0.343753  0.506072  0.375377  1
  Nb  Nb13  1  0.851924  0.997949  0.375720  1
  Nb  Nb14  1  0.007278  0.151988  0.126034  1
  Nb  Nb15  1  0.997949  0.851924  0.624280  1
  Nb  Nb16  1  0.506072  0.343753  0.624623  1
  Nb  Nb17  1  0.151988  0.007278  0.873966  1
  Nb  Nb18  1  0.326536  0.326536  0.000000  1
  Si  Si19  1  0.047742  0.711081  0.437115  1
  Si  Si20  1  0.950461  0.293814  0.934355  1
  Si  Si21  1  0.711081  0.047742  0.562885  1
  Si  Si22  1  0.206820  0.455448  0.186123  1
  Si  Si23  1  0.790121  0.550758  0.683680  1
  Si  Si24  1  0.455448  0.206820  0.813877  1
  Si  Si25  1  0.550758  0.790121  0.316320  1
  Si  Si26  1  0.293814  0.950461  0.065645  1
  Si  Si27  1  0.796443  0.863581  0.184299  1
  Si  Si28  1  0.296866  0.629883  0.566288  1
  Si  Si29  1  0.702356  0.369049  0.065656  1
  Si  Si30  1  0.629883  0.296866  0.433712  1
  Si  Si31  1  0.369049  0.702356  0.934344  1
  Si  Si32  1  0.134037  0.203946  0.316673  1
  Si  Si33  1  0.203946  0.134037  0.683327  1
  Si  Si34  1  0.863581  0.796443  0.815701  1
  Rh  Rh35  1  0.668858  0.668858  0.500000  1
