# generated using pymatgen
data_MnZnCo(PO4)2
_symmetry_space_group_name_H-M   'P 1'
_cell_length_a   5.11160903
_cell_length_b   7.79939873
_cell_length_c   8.64070948
_cell_angle_alpha   90.03666895
_cell_angle_beta   89.61026313
_cell_angle_gamma   94.37544963
_symmetry_Int_Tables_number   1
_chemical_formula_structural   MnZnCo(PO4)2
_chemical_formula_sum   'Mn2 Zn2 Co2 P4 O16'
_cell_volume   343.47135223
_cell_formula_units_Z   2
loop_
 _symmetry_equiv_pos_site_id
 _symmetry_equiv_pos_as_xyz
  1  'x, y, z'
loop_
 _atom_site_type_symbol
 _atom_site_label
 _atom_site_symmetry_multiplicity
 _atom_site_fract_x
 _atom_site_fract_y
 _atom_site_fract_z
 _atom_site_occupancy
  Mn  Mn0  1  0.000381  0.500590  0.500499  1
  Mn  Mn1  1  0.499710  0.999959  0.999900  1
  Zn  Zn2  1  0.915092  0.383573  0.863627  1
  Zn  Zn3  1  0.084965  0.616273  0.136385  1
  Co  Co4  1  0.413196  0.886069  0.638172  1
  Co  Co5  1  0.586797  0.113939  0.361742  1
  P  P6  1  0.467140  0.296618  0.695970  1
  P  P7  1  0.966330  0.795861  0.803826  1
  P  P8  1  0.532978  0.703311  0.303980  1
  P  P9  1  0.033515  0.204117  0.196216  1
  O  O10  1  0.462803  0.139126  0.583020  1
  O  O11  1  0.960236  0.639506  0.917764  1
  O  O12  1  0.537226  0.860817  0.416958  1
  O  O13  1  0.039845  0.360439  0.082145  1
  O  O14  1  0.566531  0.241653  0.859013  1
  O  O15  1  0.065482  0.739408  0.640892  1
  O  O16  1  0.433457  0.758272  0.140949  1
  O  O17  1  0.934491  0.260672  0.359045  1
  O  O18  1  0.186243  0.358488  0.702694  1
  O  O19  1  0.687701  0.860498  0.799257  1
  O  O20  1  0.813903  0.641528  0.297268  1
  O  O21  1  0.312098  0.139321  0.200725  1
  O  O22  1  0.665717  0.441876  0.640507  1
  O  O23  1  0.170326  0.940394  0.855186  1
  O  O24  1  0.334402  0.558082  0.359512  1
  O  O25  1  0.829438  0.059608  0.144747  1
