# generated using pymatgen
data_TaTi10Nb3P8
_symmetry_space_group_name_H-M   'P 1'
_cell_length_a   7.59636472
_cell_length_b   7.59636462
_cell_length_c   13.66433882
_cell_angle_alpha   75.69264998
_cell_angle_beta   75.69265097
_cell_angle_gamma   25.94314260
_symmetry_Int_Tables_number   1
_chemical_formula_structural   TaTi10Nb3P8
_chemical_formula_sum   'Ta1 Ti10 Nb3 P8'
_cell_volume   333.67478868
_cell_formula_units_Z   1
loop_
 _symmetry_equiv_pos_site_id
 _symmetry_equiv_pos_as_xyz
  1  'x, y, z'
loop_
 _atom_site_type_symbol
 _atom_site_label
 _atom_site_symmetry_multiplicity
 _atom_site_fract_x
 _atom_site_fract_y
 _atom_site_fract_z
 _atom_site_occupancy
  Ta  Ta0  1  0.000000  0.000000  0.000000  1
  Ti  Ti1  1  0.197484  0.197484  0.690269  1
  Ti  Ti2  1  0.802516  0.802516  0.309731  1
  Ti  Ti3  1  0.207466  0.207466  0.205745  1
  Ti  Ti4  1  0.792534  0.792534  0.794255  1
  Ti  Ti5  1  0.339477  0.339477  0.968607  1
  Ti  Ti6  1  0.660523  0.660523  0.031393  1
  Ti  Ti7  1  0.003552  0.003552  0.337921  1
  Ti  Ti8  1  0.996448  0.996448  0.662079  1
  Ti  Ti9  1  0.177460  0.177460  0.459052  1
  Ti  Ti10  1  0.822540  0.822540  0.540948  1
  Nb  Nb11  1  0.500000  0.500000  0.500000  1
  Nb  Nb12  1  0.427484  0.427484  0.173591  1
  Nb  Nb13  1  0.572516  0.572516  0.826409  1
  P  P14  1  0.180830  0.180830  0.890373  1
  P  P15  1  0.819170  0.819170  0.109627  1
  P  P16  1  0.372394  0.372394  0.394418  1
  P  P17  1  0.627606  0.627606  0.605582  1
  P  P18  1  0.368136  0.368136  0.660575  1
  P  P19  1  0.631864  0.631864  0.339425  1
  P  P20  1  0.064574  0.064574  0.153458  1
  P  P21  1  0.935426  0.935426  0.846542  1
