# generated using pymatgen
data_Er2B(PtRh)3
_symmetry_space_group_name_H-M   'P 1'
_cell_length_a   4.20681400
_cell_length_b   4.20681400
_cell_length_c   8.06823100
_cell_angle_alpha   90.00000000
_cell_angle_beta   90.00000000
_cell_angle_gamma   90.00000000
_symmetry_Int_Tables_number   1
_chemical_formula_structural   Er2B(PtRh)3
_chemical_formula_sum   'Er2 B1 Pt3 Rh3'
_cell_volume   142.78577563
_cell_formula_units_Z   1
loop_
 _symmetry_equiv_pos_site_id
 _symmetry_equiv_pos_as_xyz
  1  'x, y, z'
loop_
 _atom_site_type_symbol
 _atom_site_label
 _atom_site_symmetry_multiplicity
 _atom_site_fract_x
 _atom_site_fract_y
 _atom_site_fract_z
 _atom_site_occupancy
  Er  Er0  1  0.000000  0.000000  0.999781  1
  Er  Er1  1  0.000000  0.000000  0.502888  1
  B  B2  1  0.500000  0.500000  0.243204  1
  Pt  Pt3  1  0.500000  0.500000  0.508709  1
  Pt  Pt4  1  0.500000  0.000000  0.752088  1
  Pt  Pt5  1  0.000000  0.500000  0.752088  1
  Rh  Rh6  1  0.500000  0.500000  0.989566  1
  Rh  Rh7  1  0.500000  0.000000  0.250838  1
  Rh  Rh8  1  0.000000  0.500000  0.250838  1
