# generated using pymatgen
data_Pr2HoEr(ReB6)2
_symmetry_space_group_name_H-M   'P 1'
_cell_length_a   3.73441600
_cell_length_b   9.25507402
_cell_length_c   11.73450502
_cell_angle_alpha   90.00708593
_cell_angle_beta   90.00000000
_cell_angle_gamma   90.00000000
_symmetry_Int_Tables_number   1
_chemical_formula_structural   Pr2HoEr(ReB6)2
_chemical_formula_sum   'Pr4 Ho2 Er2 Re4 B24'
_cell_volume   405.57143868
_cell_formula_units_Z   2
loop_
 _symmetry_equiv_pos_site_id
 _symmetry_equiv_pos_as_xyz
  1  'x, y, z'
loop_
 _atom_site_type_symbol
 _atom_site_label
 _atom_site_symmetry_multiplicity
 _atom_site_fract_x
 _atom_site_fract_y
 _atom_site_fract_z
 _atom_site_occupancy
  Pr  Pr0  1  0.000000  0.322589  0.414370  1
  Pr  Pr1  1  0.000000  0.677411  0.585630  1
  Pr  Pr2  1  0.000000  0.822438  0.085560  1
  Pr  Pr3  1  0.000000  0.177562  0.914440  1
  Ho  Ho4  1  0.000000  0.942851  0.369061  1
  Ho  Ho5  1  0.000000  0.057149  0.630939  1
  Er  Er6  1  0.000000  0.442883  0.130781  1
  Er  Er7  1  0.000000  0.557117  0.869219  1
  Re  Re8  1  0.000000  0.639448  0.318671  1
  Re  Re9  1  0.000000  0.360552  0.681329  1
  Re  Re10  1  0.000000  0.139974  0.181036  1
  Re  Re11  1  0.000000  0.860026  0.818964  1
  B  B12  1  0.500000  0.555558  0.429694  1
  B  B13  1  0.500000  0.444442  0.570306  1
  B  B14  1  0.500000  0.055678  0.070215  1
  B  B15  1  0.500000  0.944322  0.929785  1
  B  B16  1  0.500000  0.749949  0.415065  1
  B  B17  1  0.500000  0.250051  0.584935  1
  B  B18  1  0.500000  0.250467  0.084822  1
  B  B19  1  0.500000  0.749533  0.915178  1
  B  B20  1  0.500000  0.791248  0.265955  1
  B  B21  1  0.500000  0.208752  0.734045  1
  B  B22  1  0.500000  0.291794  0.233910  1
  B  B23  1  0.500000  0.708206  0.766090  1
  B  B24  1  0.500000  0.629128  0.186234  1
  B  B25  1  0.500000  0.370872  0.813766  1
  B  B26  1  0.500000  0.129546  0.313423  1
  B  B27  1  0.500000  0.870454  0.686577  1
  B  B28  1  0.500000  0.984456  0.213313  1
  B  B29  1  0.500000  0.015544  0.786687  1
  B  B30  1  0.500000  0.484109  0.286389  1
  B  B31  1  0.500000  0.515891  0.713611  1
  B  B32  1  0.500000  0.594939  0.026152  1
  B  B33  1  0.500000  0.405061  0.973848  1
  B  B34  1  0.500000  0.095353  0.473777  1
  B  B35  1  0.500000  0.904647  0.526223  1
