# generated using pymatgen
data_Ta3NbSn2(B2Ru5)2
_symmetry_space_group_name_H-M   'P 1'
_cell_length_a   9.47670823
_cell_length_b   9.47670823
_cell_length_c   3.03835200
_cell_angle_alpha   90.00000000
_cell_angle_beta   90.00000000
_cell_angle_gamma   90.10821057
_symmetry_Int_Tables_number   1
_chemical_formula_structural   Ta3NbSn2(B2Ru5)2
_chemical_formula_sum   'Ta3 Nb1 Sn2 B4 Ru10'
_cell_volume   272.86782608
_cell_formula_units_Z   1
loop_
 _symmetry_equiv_pos_site_id
 _symmetry_equiv_pos_as_xyz
  1  'x, y, z'
loop_
 _atom_site_type_symbol
 _atom_site_label
 _atom_site_symmetry_multiplicity
 _atom_site_fract_x
 _atom_site_fract_y
 _atom_site_fract_z
 _atom_site_occupancy
  Ta  Ta0  1  0.176887  0.323113  0.000000  1
  Ta  Ta1  1  0.323407  0.823520  0.000000  1
  Ta  Ta2  1  0.676480  0.176593  0.000000  1
  Nb  Nb3  1  0.823358  0.676642  0.000000  1
  Sn  Sn4  1  0.500704  0.500453  0.000000  1
  Sn  Sn5  1  0.999547  0.999296  0.000000  1
  B  B6  1  0.621856  0.878144  0.000000  1
  B  B7  1  0.377837  0.122163  0.000000  1
  B  B8  1  0.122327  0.621591  0.000000  1
  B  B9  1  0.878409  0.377673  0.000000  1
  Ru  Ru10  1  0.568565  0.722456  0.500000  1
  Ru  Ru11  1  0.429407  0.278807  0.500000  1
  Ru  Ru12  1  0.071942  0.778452  0.500000  1
  Ru  Ru13  1  0.930014  0.221106  0.500000  1
  Ru  Ru14  1  0.278894  0.569986  0.500000  1
  Ru  Ru15  1  0.721548  0.428058  0.500000  1
  Ru  Ru16  1  0.221193  0.070593  0.500000  1
  Ru  Ru17  1  0.777544  0.931435  0.500000  1
  Ru  Ru18  1  0.499424  0.000576  0.500000  1
  Ru  Ru19  1  0.000655  0.499345  0.500000  1
