# generated using pymatgen
data_ZrTa6Nb5Tc12
_symmetry_space_group_name_H-M   'P 1'
_cell_length_a   4.50831400
_cell_length_b   6.39665600
_cell_length_c   13.62234600
_cell_angle_alpha   90.00000000
_cell_angle_beta   90.00002112
_cell_angle_gamma   90.00000000
_symmetry_Int_Tables_number   1
_chemical_formula_structural   ZrTa6Nb5Tc12
_chemical_formula_sum   'Zr1 Ta6 Nb5 Tc12'
_cell_volume   392.84303659
_cell_formula_units_Z   1
loop_
 _symmetry_equiv_pos_site_id
 _symmetry_equiv_pos_as_xyz
  1  'x, y, z'
loop_
 _atom_site_type_symbol
 _atom_site_label
 _atom_site_symmetry_multiplicity
 _atom_site_fract_x
 _atom_site_fract_y
 _atom_site_fract_z
 _atom_site_occupancy
  Zr  Zr0  1  0.500005  0.000000  0.833337  1
  Ta  Ta1  1  0.000001  0.000000  0.001262  1
  Ta  Ta2  1  0.499994  0.500000  0.166381  1
  Ta  Ta3  1  0.999993  0.000000  0.333322  1
  Ta  Ta4  1  0.500001  0.500000  0.500272  1
  Ta  Ta5  1  0.000005  0.000000  0.665416  1
  Ta  Ta6  1  0.500006  0.500000  0.833350  1
  Nb  Nb7  1  0.000002  0.500000  0.999794  1
  Nb  Nb8  1  0.499993  0.000000  0.167293  1
  Nb  Nb9  1  0.999994  0.500000  0.333315  1
  Nb  Nb10  1  0.499999  0.000000  0.499351  1
  Nb  Nb11  1  0.000006  0.500000  0.666890  1
  Tc  Tc12  1  0.500000  0.251943  0.002596  1
  Tc  Tc13  1  0.500000  0.748058  0.002596  1
  Tc  Tc14  1  0.999994  0.250061  0.167564  1
  Tc  Tc15  1  0.999994  0.749938  0.167564  1
  Tc  Tc16  1  0.499993  0.249939  0.333347  1
  Tc  Tc17  1  0.499993  0.750061  0.333347  1
  Tc  Tc18  1  0.000000  0.250056  0.499117  1
  Tc  Tc19  1  0.000000  0.749945  0.499117  1
  Tc  Tc20  1  0.500006  0.251938  0.664061  1
  Tc  Tc21  1  0.500006  0.748062  0.664061  1
  Tc  Tc22  1  0.000006  0.253972  0.833321  1
  Tc  Tc23  1  0.000006  0.746027  0.833321  1
