# generated using pymatgen
data_Nd12ZnGaCo4
_symmetry_space_group_name_H-M   'P 1'
_cell_length_a   8.52680107
_cell_length_b   8.52680173
_cell_length_c   8.52680104
_cell_angle_alpha   112.34339543
_cell_angle_beta   108.86674905
_cell_angle_gamma   107.24600345
_symmetry_Int_Tables_number   1
_chemical_formula_structural   Nd12ZnGaCo4
_chemical_formula_sum   'Nd12 Zn1 Ga1 Co4'
_cell_volume   476.24484762
_cell_formula_units_Z   1
loop_
 _symmetry_equiv_pos_site_id
 _symmetry_equiv_pos_as_xyz
  1  'x, y, z'
loop_
 _atom_site_type_symbol
 _atom_site_label
 _atom_site_symmetry_multiplicity
 _atom_site_fract_x
 _atom_site_fract_y
 _atom_site_fract_z
 _atom_site_occupancy
  Nd  Nd0  1  0.041315  0.736147  0.305167  1
  Nd  Nd1  1  0.958685  0.263853  0.694833  1
  Nd  Nd2  1  0.569018  0.263853  0.305167  1
  Nd  Nd3  1  0.430982  0.736147  0.694833  1
  Nd  Nd4  1  0.673978  0.861647  0.187669  1
  Nd  Nd5  1  0.326022  0.513691  0.187669  1
  Nd  Nd6  1  0.326022  0.138353  0.812331  1
  Nd  Nd7  1  0.673978  0.486309  0.812331  1
  Nd  Nd8  1  0.179144  0.218053  0.397197  1
  Nd  Nd9  1  0.820856  0.218053  0.038909  1
  Nd  Nd10  1  0.179144  0.781947  0.961091  1
  Nd  Nd11  1  0.820856  0.781947  0.602803  1
  Zn  Zn12  1  0.000000  0.500000  0.500000  1
  Ga  Ga13  1  0.500000  0.000000  0.500000  1
  Co  Co14  1  0.664714  0.500000  0.164714  1
  Co  Co15  1  0.335286  0.500000  0.835286  1
  Co  Co16  1  0.887308  0.887308  0.000000  1
  Co  Co17  1  0.112692  0.112692  0.000000  1
