# generated using pymatgen
data_Pr3Al12(RuPt)2
_symmetry_space_group_name_H-M   'P 1'
_cell_length_a   8.95964300
_cell_length_b   8.95964124
_cell_length_c   9.65711584
_cell_angle_alpha   90.09907858
_cell_angle_beta   89.90092361
_cell_angle_gamma   119.81510951
_symmetry_Int_Tables_number   1
_chemical_formula_structural   Pr3Al12(RuPt)2
_chemical_formula_sum   'Pr6 Al24 Ru4 Pt4'
_cell_volume   672.61205159
_cell_formula_units_Z   2
loop_
 _symmetry_equiv_pos_site_id
 _symmetry_equiv_pos_as_xyz
  1  'x, y, z'
loop_
 _atom_site_type_symbol
 _atom_site_label
 _atom_site_symmetry_multiplicity
 _atom_site_fract_x
 _atom_site_fract_y
 _atom_site_fract_z
 _atom_site_occupancy
  Pr  Pr0  1  0.188733  0.379670  0.251350  1
  Pr  Pr1  1  0.811267  0.620330  0.748650  1
  Pr  Pr2  1  0.620330  0.811267  0.251350  1
  Pr  Pr3  1  0.379670  0.188733  0.748650  1
  Pr  Pr4  1  0.189439  0.810561  0.249713  1
  Pr  Pr5  1  0.810561  0.189439  0.750287  1
  Al  Al6  1  0.333271  0.666729  0.023272  1
  Al  Al7  1  0.666729  0.333271  0.976728  1
  Al  Al8  1  0.669638  0.330362  0.521100  1
  Al  Al9  1  0.330362  0.669638  0.478900  1
  Al  Al10  1  0.157862  0.325627  0.572534  1
  Al  Al11  1  0.842138  0.674373  0.427466  1
  Al  Al12  1  0.674373  0.842138  0.572534  1
  Al  Al13  1  0.838320  0.677240  0.076794  1
  Al  Al14  1  0.325627  0.157862  0.427466  1
  Al  Al15  1  0.161680  0.322760  0.923206  1
  Al  Al16  1  0.163736  0.836264  0.573613  1
  Al  Al17  1  0.322760  0.161680  0.076794  1
  Al  Al18  1  0.836264  0.163736  0.426387  1
  Al  Al19  1  0.677240  0.838320  0.923206  1
  Al  Al20  1  0.838063  0.161937  0.078159  1
  Al  Al21  1  0.161937  0.838063  0.921841  1
  Al  Al22  1  0.563486  0.127754  0.254125  1
  Al  Al23  1  0.436514  0.872246  0.745875  1
  Al  Al24  1  0.872246  0.436514  0.254125  1
  Al  Al25  1  0.127754  0.563486  0.745875  1
  Al  Al26  1  0.564876  0.435124  0.249818  1
  Al  Al27  1  0.435124  0.564876  0.750182  1
  Al  Al28  1  0.998727  0.001273  0.250716  1
  Al  Al29  1  0.001273  0.998727  0.749284  1
  Ru  Ru30  1  0.500000  0.000000  0.500000  1
  Ru  Ru31  1  0.000000  0.500000  0.500000  1
  Ru  Ru32  1  0.000000  0.000000  0.000000  1
  Ru  Ru33  1  0.000000  0.000000  0.500000  1
  Pt  Pt34  1  0.500000  0.000000  0.000000  1
  Pt  Pt35  1  0.000000  0.500000  0.000000  1
  Pt  Pt36  1  0.500000  0.500000  0.000000  1
  Pt  Pt37  1  0.500000  0.500000  0.500000  1
