# generated using pymatgen
data_Pr10TlSi4Pd
_symmetry_space_group_name_H-M   'P 1'
_cell_length_a   7.77688800
_cell_length_b   9.37534156
_cell_length_c   7.77688800
_cell_angle_alpha   114.50372213
_cell_angle_beta   90.00000000
_cell_angle_gamma   114.50372213
_symmetry_Int_Tables_number   1
_chemical_formula_structural   Pr10TlSi4Pd
_chemical_formula_sum   'Pr10 Tl1 Si4 Pd1'
_cell_volume   459.23796758
_cell_formula_units_Z   1
loop_
 _symmetry_equiv_pos_site_id
 _symmetry_equiv_pos_as_xyz
  1  'x, y, z'
loop_
 _atom_site_type_symbol
 _atom_site_label
 _atom_site_symmetry_multiplicity
 _atom_site_fract_x
 _atom_site_fract_y
 _atom_site_fract_z
 _atom_site_occupancy
  Pr  Pr0  1  0.973555  0.947110  0.973555  1
  Pr  Pr1  1  0.526445  0.052890  0.526445  1
  Pr  Pr2  1  0.521034  0.722545  0.669203  1
  Pr  Pr3  1  0.201513  0.722545  0.053343  1
  Pr  Pr4  1  0.669203  0.722545  0.201513  1
  Pr  Pr5  1  0.053343  0.722545  0.521034  1
  Pr  Pr6  1  0.446657  0.277455  0.298487  1
  Pr  Pr7  1  0.830797  0.277455  0.978966  1
  Pr  Pr8  1  0.298487  0.277455  0.830797  1
  Pr  Pr9  1  0.978966  0.277455  0.446657  1
  Tl  Tl10  1  0.750000  0.500000  0.750000  1
  Si  Si11  1  0.884572  0.000000  0.615428  1
  Si  Si12  1  0.115428  0.000000  0.384572  1
  Si  Si13  1  0.615428  0.000000  0.115428  1
  Si  Si14  1  0.384572  0.000000  0.884572  1
  Pd  Pd15  1  0.250000  0.500000  0.250000  1
