# generated using pymatgen
data_Y3Tm(Si4Tc3)2
_symmetry_space_group_name_H-M   'P 1'
_cell_length_a   6.78959430
_cell_length_b   6.77342019
_cell_length_c   6.77620097
_cell_angle_alpha   69.80750813
_cell_angle_beta   90.01480409
_cell_angle_gamma   89.87154561
_symmetry_Int_Tables_number   1
_chemical_formula_structural   Y3Tm(Si4Tc3)2
_chemical_formula_sum   'Y3 Tm1 Si8 Tc6'
_cell_volume   292.47499991
_cell_formula_units_Z   1
loop_
 _symmetry_equiv_pos_site_id
 _symmetry_equiv_pos_as_xyz
  1  'x, y, z'
loop_
 _atom_site_type_symbol
 _atom_site_label
 _atom_site_symmetry_multiplicity
 _atom_site_fract_x
 _atom_site_fract_y
 _atom_site_fract_z
 _atom_site_occupancy
  Y  Y0  1  0.332065  0.557807  0.808669  1
  Y  Y1  1  0.832547  0.942169  0.191153  1
  Y  Y2  1  0.667742  0.441730  0.191687  1
  Tm  Tm3  1  0.168657  0.057222  0.807596  1
  Si  Si4  1  0.550519  0.878827  0.896336  1
  Si  Si5  1  0.052092  0.622227  0.102585  1
  Si  Si6  1  0.447464  0.121511  0.102136  1
  Si  Si7  1  0.948685  0.377551  0.895905  1
  Si  Si8  1  0.141987  0.869327  0.487516  1
  Si  Si9  1  0.642137  0.631491  0.514481  1
  Si  Si10  1  0.859292  0.131595  0.514610  1
  Si  Si11  1  0.357211  0.367422  0.487201  1
  Tc  Tc12  1  0.498696  0.000000  0.500926  1
  Tc  Tc13  1  0.000671  0.498383  0.501014  1
  Tc  Tc14  1  0.851521  0.759451  0.760192  1
  Tc  Tc15  1  0.348828  0.743644  0.239397  1
  Tc  Tc16  1  0.150092  0.242545  0.238736  1
  Tc  Tc17  1  0.649795  0.257096  0.759861  1
