# generated using pymatgen
data_Ta2Be2Os
_symmetry_space_group_name_H-M   'P 1'
_cell_length_a   6.28400500
_cell_length_b   6.28400500
_cell_length_c   6.59140400
_cell_angle_alpha   90.00000000
_cell_angle_beta   90.00000000
_cell_angle_gamma   90.00000000
_symmetry_Int_Tables_number   1
_chemical_formula_structural   Ta2Be2Os
_chemical_formula_sum   'Ta8 Be8 Os4'
_cell_volume   260.28609932
_cell_formula_units_Z   4
loop_
 _symmetry_equiv_pos_site_id
 _symmetry_equiv_pos_as_xyz
  1  'x, y, z'
loop_
 _atom_site_type_symbol
 _atom_site_label
 _atom_site_symmetry_multiplicity
 _atom_site_fract_x
 _atom_site_fract_y
 _atom_site_fract_z
 _atom_site_occupancy
  Ta  Ta0  1  0.673372  0.826295  0.500000  1
  Ta  Ta1  1  0.326628  0.173705  0.500000  1
  Ta  Ta2  1  0.826628  0.326295  0.000000  1
  Ta  Ta3  1  0.173372  0.673705  0.000000  1
  Ta  Ta4  1  0.826295  0.326628  0.500000  1
  Ta  Ta5  1  0.173705  0.673372  0.500000  1
  Ta  Ta6  1  0.326295  0.173372  0.000000  1
  Ta  Ta7  1  0.673705  0.826628  0.000000  1
  Be  Be8  1  0.378272  0.878272  0.250000  1
  Be  Be9  1  0.621728  0.121728  0.250000  1
  Be  Be10  1  0.121728  0.378272  0.750000  1
  Be  Be11  1  0.878272  0.621728  0.750000  1
  Be  Be12  1  0.878272  0.621728  0.250000  1
  Be  Be13  1  0.121728  0.378272  0.250000  1
  Be  Be14  1  0.378272  0.878272  0.750000  1
  Be  Be15  1  0.621728  0.121728  0.750000  1
  Os  Os16  1  0.500000  0.500000  0.249419  1
  Os  Os17  1  0.000000  0.000000  0.749419  1
  Os  Os18  1  0.500000  0.500000  0.750581  1
  Os  Os19  1  0.000000  0.000000  0.250581  1
