# generated using pymatgen
data_Ti4GaAsRh10
_symmetry_space_group_name_H-M   'P 1'
_cell_length_a   3.98265300
_cell_length_b   5.44584945
_cell_length_c   10.65465480
_cell_angle_alpha   90.21440420
_cell_angle_beta   90.00000000
_cell_angle_gamma   90.00000000
_symmetry_Int_Tables_number   1
_chemical_formula_structural   Ti4GaAsRh10
_chemical_formula_sum   'Ti4 Ga1 As1 Rh10'
_cell_volume   231.08643003
_cell_formula_units_Z   1
loop_
 _symmetry_equiv_pos_site_id
 _symmetry_equiv_pos_as_xyz
  1  'x, y, z'
loop_
 _atom_site_type_symbol
 _atom_site_label
 _atom_site_symmetry_multiplicity
 _atom_site_fract_x
 _atom_site_fract_y
 _atom_site_fract_z
 _atom_site_occupancy
  Ti  Ti0  1  0.500000  0.321274  0.137806  1
  Ti  Ti1  1  0.500000  0.678726  0.862194  1
  Ti  Ti2  1  0.500000  0.830374  0.355390  1
  Ti  Ti3  1  0.500000  0.169626  0.644610  1
  Ga  Ga4  1  0.000000  0.000000  0.000000  1
  As  As5  1  0.000000  0.500000  0.500000  1
  Rh  Rh6  1  0.000000  0.000000  0.500000  1
  Rh  Rh7  1  0.000000  0.500000  0.000000  1
  Rh  Rh8  1  0.000000  0.071545  0.245293  1
  Rh  Rh9  1  0.000000  0.928455  0.754707  1
  Rh  Rh10  1  0.000000  0.571572  0.257171  1
  Rh  Rh11  1  0.000000  0.428428  0.742829  1
  Rh  Rh12  1  0.500000  0.311259  0.392565  1
  Rh  Rh13  1  0.500000  0.688741  0.607435  1
  Rh  Rh14  1  0.500000  0.804347  0.112388  1
  Rh  Rh15  1  0.500000  0.195653  0.887612  1
