# generated using pymatgen
data_Yb3Ho3Si24IrRu7
_symmetry_space_group_name_H-M   'P 1'
_cell_length_a   10.13194242
_cell_length_b   10.13194361
_cell_length_c   8.14216100
_cell_angle_alpha   90.00601972
_cell_angle_beta   90.00602301
_cell_angle_gamma   132.64938742
_symmetry_Int_Tables_number   1
_chemical_formula_structural   Yb3Ho3Si24IrRu7
_chemical_formula_sum   'Yb3 Ho3 Si24 Ir1 Ru7'
_cell_volume   614.77431810
_cell_formula_units_Z   1
loop_
 _symmetry_equiv_pos_site_id
 _symmetry_equiv_pos_as_xyz
  1  'x, y, z'
loop_
 _atom_site_type_symbol
 _atom_site_label
 _atom_site_symmetry_multiplicity
 _atom_site_fract_x
 _atom_site_fract_y
 _atom_site_fract_z
 _atom_site_occupancy
  Yb  Yb0  1  0.499420  0.500580  0.500000  1
  Yb  Yb1  1  0.501049  0.000537  0.750173  1
  Yb  Yb2  1  0.999463  0.498951  0.249827  1
  Ho  Ho3  1  0.999792  0.000208  0.000000  1
  Ho  Ho4  1  0.496676  0.995932  0.249242  1
  Ho  Ho5  1  0.004068  0.503324  0.750758  1
  Si  Si6  1  0.796720  0.203280  0.500000  1
  Si  Si7  1  0.295196  0.704804  0.000000  1
  Si  Si8  1  0.205387  0.794613  0.500000  1
  Si  Si9  1  0.705475  0.294525  0.000000  1
  Si  Si10  1  0.331364  0.337454  0.831580  1
  Si  Si11  1  0.662546  0.668636  0.168420  1
  Si  Si12  1  0.170035  0.166198  0.333831  1
  Si  Si13  1  0.833802  0.829965  0.666169  1
  Si  Si14  1  0.122502  0.888810  0.729084  1
  Si  Si15  1  0.111190  0.877498  0.270916  1
  Si  Si16  1  0.609872  0.377602  0.225711  1
  Si  Si17  1  0.622398  0.390128  0.774289  1
  Si  Si18  1  0.875700  0.109322  0.271178  1
  Si  Si19  1  0.890678  0.124300  0.728822  1
  Si  Si20  1  0.388983  0.622458  0.770519  1
  Si  Si21  1  0.377542  0.611017  0.229481  1
  Si  Si22  1  0.341616  0.109840  0.503855  1
  Si  Si23  1  0.890160  0.658384  0.496145  1
  Si  Si24  1  0.387213  0.153929  0.006237  1
  Si  Si25  1  0.846071  0.612787  0.993763  1
  Si  Si26  1  0.653077  0.885284  0.493555  1
  Si  Si27  1  0.114716  0.346923  0.506445  1
  Si  Si28  1  0.611075  0.844558  0.995739  1
  Si  Si29  1  0.155442  0.388925  0.004261  1
  Ir  Ir30  1  0.670324  0.329676  0.500000  1
  Ru  Ru31  1  0.169553  0.830447  0.000000  1
  Ru  Ru32  1  0.329651  0.670349  0.500000  1
  Ru  Ru33  1  0.830087  0.169913  0.000000  1
  Ru  Ru34  1  0.125145  0.125653  0.627531  1
  Ru  Ru35  1  0.874347  0.874855  0.372469  1
  Ru  Ru36  1  0.373017  0.371352  0.124882  1
  Ru  Ru37  1  0.628648  0.626983  0.875118  1
