# generated using pymatgen
data_Lu2Al3(Ga2Ir)3
_symmetry_space_group_name_H-M   'P 1'
_cell_length_a   7.54854001
_cell_length_b   7.53943895
_cell_length_c   9.45911890
_cell_angle_alpha   90.15717322
_cell_angle_beta   89.91609711
_cell_angle_gamma   119.99241582
_symmetry_Int_Tables_number   1
_chemical_formula_structural   Lu2Al3(Ga2Ir)3
_chemical_formula_sum   'Lu4 Al6 Ga12 Ir6'
_cell_volume   466.24571640
_cell_formula_units_Z   2
loop_
 _symmetry_equiv_pos_site_id
 _symmetry_equiv_pos_as_xyz
  1  'x, y, z'
loop_
 _atom_site_type_symbol
 _atom_site_label
 _atom_site_symmetry_multiplicity
 _atom_site_fract_x
 _atom_site_fract_y
 _atom_site_fract_z
 _atom_site_occupancy
  Lu  Lu0  1  0.998120  0.667058  0.251151  1
  Lu  Lu1  1  0.001880  0.332942  0.748849  1
  Lu  Lu2  1  0.670718  0.999754  0.254060  1
  Lu  Lu3  1  0.329282  0.000246  0.745940  1
  Al  Al4  1  0.665093  0.998777  0.926855  1
  Al  Al5  1  0.334907  0.001223  0.073145  1
  Al  Al6  1  0.332820  0.332725  0.556952  1
  Al  Al7  1  0.667180  0.667275  0.443048  1
  Al  Al8  1  0.667490  0.667221  0.057667  1
  Al  Al9  1  0.332510  0.332779  0.942333  1
  Ga  Ga10  1  0.127411  0.124950  0.249586  1
  Ga  Ga11  1  0.872589  0.875050  0.750414  1
  Ga  Ga12  1  0.997699  0.332878  0.078225  1
  Ga  Ga13  1  0.002301  0.667122  0.921775  1
  Ga  Ga14  1  0.000310  0.665633  0.579753  1
  Ga  Ga15  1  0.334318  0.999109  0.418620  1
  Ga  Ga16  1  0.999690  0.334367  0.420247  1
  Ga  Ga17  1  0.665682  0.000891  0.581380  1
  Ga  Ga18  1  0.343324  0.549726  0.250034  1
  Ga  Ga19  1  0.656676  0.450274  0.749966  1
  Ga  Ga20  1  0.548290  0.342589  0.249485  1
  Ga  Ga21  1  0.451710  0.657411  0.750515  1
  Ir  Ir22  1  0.668177  0.325766  0.999304  1
  Ir  Ir23  1  0.331823  0.674234  0.000696  1
  Ir  Ir24  1  0.329624  0.669887  0.500294  1
  Ir  Ir25  1  0.670376  0.330113  0.499706  1
  Ir  Ir26  1  0.000000  0.000000  0.000000  1
  Ir  Ir27  1  0.000000  0.000000  0.500000  1
