# generated using pymatgen
data_Zr2Si2IrRh
_symmetry_space_group_name_H-M   'P 1'
_cell_length_a   3.96686700
_cell_length_b   6.59279300
_cell_length_c   7.47271800
_cell_angle_alpha   90.00000000
_cell_angle_beta   90.00000000
_cell_angle_gamma   90.00000000
_symmetry_Int_Tables_number   1
_chemical_formula_structural   Zr2Si2IrRh
_chemical_formula_sum   'Zr4 Si4 Ir2 Rh2'
_cell_volume   195.43199856
_cell_formula_units_Z   2
loop_
 _symmetry_equiv_pos_site_id
 _symmetry_equiv_pos_as_xyz
  1  'x, y, z'
loop_
 _atom_site_type_symbol
 _atom_site_label
 _atom_site_symmetry_multiplicity
 _atom_site_fract_x
 _atom_site_fract_y
 _atom_site_fract_z
 _atom_site_occupancy
  Zr  Zr0  1  0.250000  0.018506  0.317631  1
  Zr  Zr1  1  0.250000  0.518506  0.182369  1
  Zr  Zr2  1  0.750000  0.981716  0.681940  1
  Zr  Zr3  1  0.750000  0.481716  0.818060  1
  Si  Si4  1  0.250000  0.278096  0.618465  1
  Si  Si5  1  0.250000  0.778096  0.881535  1
  Si  Si6  1  0.750000  0.721458  0.381562  1
  Si  Si7  1  0.750000  0.221458  0.118438  1
  Ir  Ir8  1  0.750000  0.849347  0.064307  1
  Ir  Ir9  1  0.750000  0.349347  0.435693  1
  Rh  Rh10  1  0.250000  0.150877  0.935457  1
  Rh  Rh11  1  0.250000  0.650877  0.564543  1
