# generated using pymatgen
data_LaFeSb12Os2Pd
_symmetry_space_group_name_H-M   'P 1'
_cell_length_a   8.13964330
_cell_length_b   8.13568575
_cell_length_c   8.15794120
_cell_angle_alpha   109.49015737
_cell_angle_beta   109.48409158
_cell_angle_gamma   109.50231178
_symmetry_Int_Tables_number   1
_chemical_formula_structural   LaFeSb12Os2Pd
_chemical_formula_sum   'La1 Fe1 Sb12 Os2 Pd1'
_cell_volume   415.54745568
_cell_formula_units_Z   1
loop_
 _symmetry_equiv_pos_site_id
 _symmetry_equiv_pos_as_xyz
  1  'x, y, z'
loop_
 _atom_site_type_symbol
 _atom_site_label
 _atom_site_symmetry_multiplicity
 _atom_site_fract_x
 _atom_site_fract_y
 _atom_site_fract_z
 _atom_site_occupancy
  La  La0  1  0.000000  0.000000  0.000000  1
  Fe  Fe1  1  0.000000  0.000000  0.500000  1
  Sb  Sb2  1  0.327628  0.179615  0.831108  1
  Sb  Sb3  1  0.672372  0.820385  0.168892  1
  Sb  Sb4  1  0.660357  0.503187  0.843283  1
  Sb  Sb5  1  0.339643  0.496813  0.156717  1
  Sb  Sb6  1  0.173783  0.844945  0.341155  1
  Sb  Sb7  1  0.826217  0.155055  0.658845  1
  Sb  Sb8  1  0.503266  0.842422  0.654649  1
  Sb  Sb9  1  0.496734  0.157578  0.345351  1
  Sb  Sb10  1  0.849403  0.345672  0.188538  1
  Sb  Sb11  1  0.150597  0.654328  0.811462  1
  Sb  Sb12  1  0.845052  0.671733  0.505580  1
  Sb  Sb13  1  0.154948  0.328267  0.494420  1
  Os  Os14  1  0.000000  0.500000  0.000000  1
  Os  Os15  1  0.500000  0.500000  0.500000  1
  Pd  Pd16  1  0.500000  0.000000  0.000000  1
