# generated using pymatgen
data_Nd5Pd2Pt17
_symmetry_space_group_name_H-M   'P 1'
_cell_length_a   5.41721831
_cell_length_b   5.41721827
_cell_length_c   18.29971681
_cell_angle_alpha   81.48816423
_cell_angle_beta   81.48816468
_cell_angle_gamma   59.99999485
_symmetry_Int_Tables_number   1
_chemical_formula_structural   Nd5Pd2Pt17
_chemical_formula_sum   'Nd5 Pd2 Pt17'
_cell_volume   458.23697789
_cell_formula_units_Z   1
loop_
 _symmetry_equiv_pos_site_id
 _symmetry_equiv_pos_as_xyz
  1  'x, y, z'
loop_
 _atom_site_type_symbol
 _atom_site_label
 _atom_site_symmetry_multiplicity
 _atom_site_fract_x
 _atom_site_fract_y
 _atom_site_fract_z
 _atom_site_occupancy
  Nd  Nd0  1  0.000000  0.000000  0.000000  1
  Nd  Nd1  1  0.077114  0.077114  0.768656  1
  Nd  Nd2  1  0.922886  0.922886  0.231344  1
  Nd  Nd3  1  0.152030  0.152030  0.543910  1
  Nd  Nd4  1  0.847970  0.847970  0.456090  1
  Pd  Pd5  1  0.249884  0.249884  0.250346  1
  Pd  Pd6  1  0.750116  0.750116  0.749654  1
  Pt  Pt7  1  0.500000  0.500000  0.500000  1
  Pt  Pt8  1  0.333249  0.333249  0.000254  1
  Pt  Pt9  1  0.666751  0.666751  0.999746  1
  Pt  Pt10  1  0.416459  0.416459  0.750623  1
  Pt  Pt11  1  0.583541  0.583541  0.249377  1
  Pt  Pt12  1  0.122410  0.626599  0.624392  1
  Pt  Pt13  1  0.626599  0.626599  0.624392  1
  Pt  Pt14  1  0.626599  0.122410  0.624392  1
  Pt  Pt15  1  0.877590  0.373401  0.375608  1
  Pt  Pt16  1  0.373401  0.373401  0.375608  1
  Pt  Pt17  1  0.373401  0.877590  0.375608  1
  Pt  Pt18  1  0.040940  0.541329  0.876400  1
  Pt  Pt19  1  0.541329  0.541329  0.876400  1
  Pt  Pt20  1  0.541329  0.040940  0.876400  1
  Pt  Pt21  1  0.959060  0.458671  0.123600  1
  Pt  Pt22  1  0.458671  0.458671  0.123600  1
  Pt  Pt23  1  0.458671  0.959060  0.123600  1
