# generated using pymatgen
data_Pu8Si13Pt3
_symmetry_space_group_name_H-M   'P 1'
_cell_length_a   8.17791300
_cell_length_b   8.17791376
_cell_length_c   8.09054200
_cell_angle_alpha   90.00000000
_cell_angle_beta   90.00000000
_cell_angle_gamma   120.00000096
_symmetry_Int_Tables_number   1
_chemical_formula_structural   Pu8Si13Pt3
_chemical_formula_sum   'Pu8 Si13 Pt3'
_cell_volume   468.59025959
_cell_formula_units_Z   1
loop_
 _symmetry_equiv_pos_site_id
 _symmetry_equiv_pos_as_xyz
  1  'x, y, z'
loop_
 _atom_site_type_symbol
 _atom_site_label
 _atom_site_symmetry_multiplicity
 _atom_site_fract_x
 _atom_site_fract_y
 _atom_site_fract_z
 _atom_site_occupancy
  Pu  Pu0  1  0.000000  0.000000  0.248212  1
  Pu  Pu1  1  0.000000  0.000000  0.751571  1
  Pu  Pu2  1  0.498859  0.501141  0.247004  1
  Pu  Pu3  1  0.498859  0.997718  0.247004  1
  Pu  Pu4  1  0.002282  0.501141  0.247004  1
  Pu  Pu5  1  0.498106  0.501894  0.753130  1
  Pu  Pu6  1  0.498106  0.996212  0.753130  1
  Pu  Pu7  1  0.003788  0.501894  0.753130  1
  Si  Si8  1  0.164393  0.835607  0.498508  1
  Si  Si9  1  0.164393  0.328784  0.498508  1
  Si  Si10  1  0.671216  0.835607  0.498508  1
  Si  Si11  1  0.835305  0.164695  0.501127  1
  Si  Si12  1  0.835305  0.670611  0.501127  1
  Si  Si13  1  0.329389  0.164695  0.501127  1
  Si  Si14  1  0.835801  0.164199  0.000040  1
  Si  Si15  1  0.835801  0.671601  0.000040  1
  Si  Si16  1  0.328399  0.164199  0.000040  1
  Si  Si17  1  0.165342  0.834658  0.999832  1
  Si  Si18  1  0.165342  0.330685  0.999832  1
  Si  Si19  1  0.669315  0.834658  0.999832  1
  Si  Si20  1  0.333333  0.666667  0.001859  1
  Pt  Pt21  1  0.333333  0.666667  0.499699  1
  Pt  Pt22  1  0.666667  0.333333  0.500267  1
  Pt  Pt23  1  0.666667  0.333333  0.999470  1
