# generated using pymatgen
data_TbPr5(CI5)2
_symmetry_space_group_name_H-M   'P 1'
_cell_length_a   7.94540046
_cell_length_b   9.76217799
_cell_length_c   9.84753069
_cell_angle_alpha   107.06485807
_cell_angle_beta   96.39669115
_cell_angle_gamma   104.36560345
_symmetry_Int_Tables_number   1
_chemical_formula_structural   TbPr5(CI5)2
_chemical_formula_sum   'Tb1 Pr5 C2 I10'
_cell_volume   693.22150450
_cell_formula_units_Z   1
loop_
 _symmetry_equiv_pos_site_id
 _symmetry_equiv_pos_as_xyz
  1  'x, y, z'
loop_
 _atom_site_type_symbol
 _atom_site_label
 _atom_site_symmetry_multiplicity
 _atom_site_fract_x
 _atom_site_fract_y
 _atom_site_fract_z
 _atom_site_occupancy
  Tb  Tb0  1  0.633283  0.869331  0.824336  1
  Pr  Pr1  1  0.106422  0.039450  0.774919  1
  Pr  Pr2  1  0.373313  0.133139  0.179283  1
  Pr  Pr3  1  0.890609  0.959152  0.224097  1
  Pr  Pr4  1  0.030677  0.733915  0.922539  1
  Pr  Pr5  1  0.967246  0.265836  0.076583  1
  C  C6  1  0.909727  0.969798  0.958702  1
  C  C7  1  0.083861  0.028624  0.039400  1
  I  I8  1  0.206837  0.737445  0.648762  1
  I  I9  1  0.088459  0.370219  0.818531  1
  I  I10  1  0.459441  0.807476  0.084762  1
  I  I11  1  0.252433  0.083503  0.461254  1
  I  I12  1  0.544928  0.183206  0.902488  1
  I  I13  1  0.807129  0.266599  0.357765  1
  I  I14  1  0.344354  0.457292  0.272541  1
  I  I15  1  0.911677  0.629694  0.181122  1
  I  I16  1  0.650964  0.552099  0.727493  1
  I  I17  1  0.738640  0.913221  0.545424  1
