# generated using pymatgen
data_Zr2PdBr12
_symmetry_space_group_name_H-M   'P 1'
_cell_length_a   9.60149531
_cell_length_b   9.60149411
_cell_length_c   7.17113121
_cell_angle_alpha   73.37078549
_cell_angle_beta   73.37078841
_cell_angle_gamma   83.45784050
_symmetry_Int_Tables_number   1
_chemical_formula_structural   Zr2PdBr12
_chemical_formula_sum   'Zr2 Pd1 Br12'
_cell_volume   606.58558283
_cell_formula_units_Z   1
loop_
 _symmetry_equiv_pos_site_id
 _symmetry_equiv_pos_as_xyz
  1  'x, y, z'
loop_
 _atom_site_type_symbol
 _atom_site_label
 _atom_site_symmetry_multiplicity
 _atom_site_fract_x
 _atom_site_fract_y
 _atom_site_fract_z
 _atom_site_occupancy
  Zr  Zr0  1  0.268913  0.268913  0.729205  1
  Zr  Zr1  1  0.731087  0.731087  0.270795  1
  Pd  Pd2  1  0.000000  0.000000  0.000000  1
  Br  Br3  1  0.969586  0.239093  0.754717  1
  Br  Br4  1  0.239093  0.969586  0.754717  1
  Br  Br5  1  0.030414  0.760907  0.245283  1
  Br  Br6  1  0.760907  0.030414  0.245283  1
  Br  Br7  1  0.214476  0.517240  0.785513  1
  Br  Br8  1  0.517240  0.214476  0.785513  1
  Br  Br9  1  0.785524  0.482760  0.214487  1
  Br  Br10  1  0.482760  0.785524  0.214487  1
  Br  Br11  1  0.134807  0.134807  0.144301  1
  Br  Br12  1  0.865193  0.865193  0.855699  1
  Br  Br13  1  0.669143  0.669143  0.651109  1
  Br  Br14  1  0.330857  0.330857  0.348891  1
