# generated using pymatgen
data_Zr10CdBi4Sb
_symmetry_space_group_name_H-M   'P 1'
_cell_length_a   5.68797560
_cell_length_b   8.58451145
_cell_length_c   8.58451126
_cell_angle_alpha   83.69880250
_cell_angle_beta   70.65272516
_cell_angle_gamma   70.65272002
_symmetry_Int_Tables_number   1
_chemical_formula_structural   Zr10CdBi4Sb
_chemical_formula_sum   'Zr10 Cd1 Bi4 Sb1'
_cell_volume   373.16283523
_cell_formula_units_Z   1
loop_
 _symmetry_equiv_pos_site_id
 _symmetry_equiv_pos_as_xyz
  1  'x, y, z'
loop_
 _atom_site_type_symbol
 _atom_site_label
 _atom_site_symmetry_multiplicity
 _atom_site_fract_x
 _atom_site_fract_y
 _atom_site_fract_z
 _atom_site_occupancy
  Zr  Zr0  1  0.250000  0.500000  0.500000  1
  Zr  Zr1  1  0.750000  0.500000  0.500000  1
  Zr  Zr2  1  0.077175  0.144114  0.704942  1
  Zr  Zr3  1  0.926232  0.855886  0.295058  1
  Zr  Zr4  1  0.782117  0.295058  0.144114  1
  Zr  Zr5  1  0.422825  0.295058  0.855886  1
  Zr  Zr6  1  0.221289  0.704942  0.855886  1
  Zr  Zr7  1  0.573768  0.704942  0.144114  1
  Zr  Zr8  1  0.717883  0.855886  0.704942  1
  Zr  Zr9  1  0.278711  0.144114  0.295058  1
  Cd  Cd10  1  0.750000  0.000000  0.000000  1
  Bi  Bi11  1  0.165054  0.500000  0.169891  1
  Bi  Bi12  1  0.834946  0.500000  0.830109  1
  Bi  Bi13  1  0.334946  0.830109  0.500000  1
  Bi  Bi14  1  0.665054  0.169891  0.500000  1
  Sb  Sb15  1  0.250000  0.000000  0.000000  1
