# generated using pymatgen
data_Sr4LuU7Se20
_symmetry_space_group_name_H-M   'P 1'
_cell_length_a   7.81855007
_cell_length_b   8.57309174
_cell_length_c   12.31267200
_cell_angle_alpha   90.42285059
_cell_angle_beta   90.05078433
_cell_angle_gamma   89.86612800
_symmetry_Int_Tables_number   1
_chemical_formula_structural   Sr4LuU7Se20
_chemical_formula_sum   'Sr4 Lu1 U7 Se20'
_cell_volume   825.28286204
_cell_formula_units_Z   1
loop_
 _symmetry_equiv_pos_site_id
 _symmetry_equiv_pos_as_xyz
  1  'x, y, z'
loop_
 _atom_site_type_symbol
 _atom_site_label
 _atom_site_symmetry_multiplicity
 _atom_site_fract_x
 _atom_site_fract_y
 _atom_site_fract_z
 _atom_site_occupancy
  Sr  Sr0  1  0.040807  0.008377  0.326988  1
  Sr  Sr1  1  0.542407  0.996853  0.173572  1
  Sr  Sr2  1  0.959034  0.994845  0.671461  1
  Sr  Sr3  1  0.457698  0.004706  0.828056  1
  Lu  Lu4  1  0.019246  0.503913  0.318369  1
  U  U5  1  0.520759  0.500153  0.180670  1
  U  U6  1  0.978789  0.498250  0.680421  1
  U  U7  1  0.480106  0.500524  0.819776  1
  U  U8  1  0.072570  0.745231  0.010993  1
  U  U9  1  0.570840  0.251177  0.491675  1
  U  U10  1  0.927035  0.251730  0.990721  1
  U  U11  1  0.427109  0.745432  0.506360  1
  Se  Se12  1  0.163390  0.452271  0.097802  1
  Se  Se13  1  0.663204  0.542149  0.401848  1
  Se  Se14  1  0.835780  0.546718  0.902441  1
  Se  Se15  1  0.337347  0.453753  0.599529  1
  Se  Se16  1  0.455682  0.720328  0.001217  1
  Se  Se17  1  0.953631  0.283828  0.498935  1
  Se  Se18  1  0.545471  0.281258  0.998311  1
  Se  Se19  1  0.046942  0.717367  0.500556  1
  Se  Se20  1  0.334883  0.273816  0.314208  1
  Se  Se21  1  0.832790  0.724169  0.185837  1
  Se  Se22  1  0.665064  0.724441  0.686292  1
  Se  Se23  1  0.165801  0.273796  0.812467  1
  Se  Se24  1  0.673500  0.957560  0.418761  1
  Se  Se25  1  0.173396  0.042769  0.080153  1
  Se  Se26  1  0.329262  0.040808  0.583197  1
  Se  Se27  1  0.827605  0.958826  0.917866  1
  Se  Se28  1  0.305431  0.735068  0.282535  1
  Se  Se29  1  0.809708  0.270105  0.215274  1
  Se  Se30  1  0.693216  0.265633  0.717022  1
  Se  Se31  1  0.191495  0.734147  0.786689  1
