# generated using pymatgen
data_U5Ta(Sb4Pt3)2
_symmetry_space_group_name_H-M   'P 1'
_cell_length_a   8.41275230
_cell_length_b   8.42313117
_cell_length_c   8.41742540
_cell_angle_alpha   110.06083857
_cell_angle_beta   108.53821398
_cell_angle_gamma   109.82853064
_symmetry_Int_Tables_number   1
_chemical_formula_structural   U5Ta(Sb4Pt3)2
_chemical_formula_sum   'U5 Ta1 Sb8 Pt6'
_cell_volume   459.01606519
_cell_formula_units_Z   1
loop_
 _symmetry_equiv_pos_site_id
 _symmetry_equiv_pos_as_xyz
  1  'x, y, z'
loop_
 _atom_site_type_symbol
 _atom_site_label
 _atom_site_symmetry_multiplicity
 _atom_site_fract_x
 _atom_site_fract_y
 _atom_site_fract_z
 _atom_site_occupancy
  U  U0  1  0.625320  0.748588  0.369971  1
  U  U1  1  0.254170  0.125504  0.876426  1
  U  U2  1  0.750459  0.375844  0.629928  1
  U  U3  1  0.125831  0.878163  0.250069  1
  U  U4  1  0.368855  0.620956  0.744178  1
  Ta  Ta5  1  0.874342  0.249023  0.124923  1
  Sb  Sb6  1  0.683834  0.516789  0.002425  1
  Sb  Sb7  1  0.487990  0.984495  0.667353  1
  Sb  Sb8  1  0.993065  0.676371  0.498151  1
  Sb  Sb9  1  0.820615  0.823354  0.816299  1
  Sb  Sb10  1  0.500937  0.994598  0.176287  1
  Sb  Sb11  1  0.182793  0.505036  0.006367  1
  Sb  Sb12  1  0.999177  0.182728  0.516105  1
  Sb  Sb13  1  0.332000  0.318896  0.318303  1
  Pt  Pt14  1  0.373019  0.247061  0.626467  1
  Pt  Pt15  1  0.123548  0.749735  0.874974  1
  Pt  Pt16  1  0.217115  0.591002  0.360965  1
  Pt  Pt17  1  0.775540  0.912046  0.130780  1
  Pt  Pt18  1  0.636920  0.355396  0.227050  1
  Pt  Pt19  1  0.874470  0.144416  0.782977  1
