# generated using pymatgen
data_Li4Zr6Ni9As10Pd
_symmetry_space_group_name_H-M   'P 1'
_cell_length_a   3.86935600
_cell_length_b   6.38154117
_cell_length_c   18.52072502
_cell_angle_alpha   91.47103182
_cell_angle_beta   90.00000000
_cell_angle_gamma   90.00000000
_symmetry_Int_Tables_number   1
_chemical_formula_structural   Li4Zr6Ni9As10Pd
_chemical_formula_sum   'Li4 Zr6 Ni9 As10 Pd1'
_cell_volume   457.17144318
_cell_formula_units_Z   1
loop_
 _symmetry_equiv_pos_site_id
 _symmetry_equiv_pos_as_xyz
  1  'x, y, z'
loop_
 _atom_site_type_symbol
 _atom_site_label
 _atom_site_symmetry_multiplicity
 _atom_site_fract_x
 _atom_site_fract_y
 _atom_site_fract_z
 _atom_site_occupancy
  Li  Li0  1  0.500000  0.979419  0.678125  1
  Li  Li1  1  0.000000  0.159252  0.990329  1
  Li  Li2  1  0.000000  0.533502  0.874041  1
  Li  Li3  1  0.500000  0.472666  0.375700  1
  Zr  Zr4  1  0.500000  0.475379  0.625706  1
  Zr  Zr5  1  0.000000  0.513281  0.125846  1
  Zr  Zr6  1  0.000000  0.024399  0.175109  1
  Zr  Zr7  1  0.500000  0.846528  0.501944  1
  Zr  Zr8  1  0.000000  0.033897  0.822035  1
  Zr  Zr9  1  0.500000  0.978633  0.326765  1
  Ni  Ni10  1  0.000000  0.138784  0.424518  1
  Ni  Ni11  1  0.500000  0.351249  0.229878  1
  Ni  Ni12  1  0.500000  0.488015  0.003306  1
  Ni  Ni13  1  0.500000  0.355934  0.773055  1
  Ni  Ni14  1  0.000000  0.648024  0.276790  1
  Ni  Ni15  1  0.000000  0.643268  0.724664  1
  Ni  Ni16  1  0.500000  0.850152  0.076939  1
  Ni  Ni17  1  0.000000  0.141567  0.574402  1
  Ni  Ni18  1  0.000000  0.508904  0.501110  1
  As  As19  1  0.000000  0.753731  0.400825  1
  As  As20  1  0.500000  0.267879  0.496115  1
  As  As21  1  0.500000  0.223917  0.095371  1
  As  As22  1  0.000000  0.273828  0.300499  1
  As  As23  1  0.500000  0.727923  0.203805  1
  As  As24  1  0.500000  0.732215  0.789410  1
  As  As25  1  0.500000  0.258300  0.898097  1
  As  As26  1  0.000000  0.732773  0.006676  1
  As  As27  1  0.000000  0.257063  0.700526  1
  As  As28  1  0.000000  0.773536  0.603241  1
  Pd  Pd29  1  0.500000  0.855982  0.925171  1
