# generated using pymatgen
data_Zr10AlGe2Sb5
_symmetry_space_group_name_H-M   'P 1'
_cell_length_a   8.67936211
_cell_length_b   8.67936260
_cell_length_c   5.86578300
_cell_angle_alpha   90.00000000
_cell_angle_beta   90.00000000
_cell_angle_gamma   120.33960845
_symmetry_Int_Tables_number   1
_chemical_formula_structural   Zr10AlGe2Sb5
_chemical_formula_sum   'Zr10 Al1 Ge2 Sb5'
_cell_volume   381.36063477
_cell_formula_units_Z   1
loop_
 _symmetry_equiv_pos_site_id
 _symmetry_equiv_pos_as_xyz
  1  'x, y, z'
loop_
 _atom_site_type_symbol
 _atom_site_label
 _atom_site_symmetry_multiplicity
 _atom_site_fract_x
 _atom_site_fract_y
 _atom_site_fract_z
 _atom_site_occupancy
  Zr  Zr0  1  0.663598  0.334591  0.997446  1
  Zr  Zr1  1  0.334591  0.663598  0.997446  1
  Zr  Zr2  1  0.334591  0.663598  0.502554  1
  Zr  Zr3  1  0.663598  0.334591  0.502554  1
  Zr  Zr4  1  0.729050  0.729050  0.750000  1
  Zr  Zr5  1  0.270099  0.006175  0.750000  1
  Zr  Zr6  1  0.006175  0.270099  0.750000  1
  Zr  Zr7  1  0.264039  0.264039  0.250000  1
  Zr  Zr8  1  0.735902  0.999689  0.250000  1
  Zr  Zr9  1  0.999689  0.735902  0.250000  1
  Al  Al10  1  0.392305  0.392305  0.750000  1
  Ge  Ge11  1  0.000214  0.000214  0.996396  1
  Ge  Ge12  1  0.000214  0.000214  0.503604  1
  Sb  Sb13  1  0.609551  0.000902  0.750000  1
  Sb  Sb14  1  0.000902  0.609551  0.750000  1
  Sb  Sb15  1  0.601800  0.601800  0.250000  1
  Sb  Sb16  1  0.393542  0.000140  0.250000  1
  Sb  Sb17  1  0.000140  0.393542  0.250000  1
