# generated using pymatgen
data_Mg(Ga3Rh2)3
_symmetry_space_group_name_H-M   'P 1'
_cell_length_a   5.06439750
_cell_length_b   6.77741112
_cell_length_c   7.94660163
_cell_angle_alpha   100.56962842
_cell_angle_beta   104.87720530
_cell_angle_gamma   101.74721475
_symmetry_Int_Tables_number   1
_chemical_formula_structural   Mg(Ga3Rh2)3
_chemical_formula_sum   'Mg1 Ga9 Rh6'
_cell_volume   249.95546490
_cell_formula_units_Z   1
loop_
 _symmetry_equiv_pos_site_id
 _symmetry_equiv_pos_as_xyz
  1  'x, y, z'
loop_
 _atom_site_type_symbol
 _atom_site_label
 _atom_site_symmetry_multiplicity
 _atom_site_fract_x
 _atom_site_fract_y
 _atom_site_fract_z
 _atom_site_occupancy
  Mg  Mg0  1  0.915355  0.175934  0.043912  1
  Ga  Ga1  1  0.320263  0.524525  0.129267  1
  Ga  Ga2  1  0.553904  0.144585  0.271090  1
  Ga  Ga3  1  0.041752  0.910629  0.344754  1
  Ga  Ga4  1  0.221540  0.450838  0.459256  1
  Ga  Ga5  1  0.775391  0.547519  0.539082  1
  Ga  Ga6  1  0.959182  0.091999  0.653645  1
  Ga  Ga7  1  0.450934  0.857714  0.727948  1
  Ga  Ga8  1  0.679695  0.474926  0.874437  1
  Ga  Ga9  1  0.086116  0.822630  0.954086  1
  Rh  Rh10  1  0.627115  0.818677  0.049570  1
  Rh  Rh11  1  0.851086  0.522504  0.228397  1
  Rh  Rh12  1  0.543560  0.806675  0.421713  1
  Rh  Rh13  1  0.457412  0.195350  0.578935  1
  Rh  Rh14  1  0.145927  0.483049  0.776152  1
  Rh  Rh15  1  0.370770  0.172446  0.947757  1
