# generated using pymatgen
data_Tb5CoSeO12
_symmetry_space_group_name_H-M   'P 1'
_cell_length_a   6.82184993
_cell_length_b   6.82185118
_cell_length_c   7.25251932
_cell_angle_alpha   74.50122933
_cell_angle_beta   74.50124725
_cell_angle_gamma   50.07396980
_symmetry_Int_Tables_number   1
_chemical_formula_structural   Tb5CoSeO12
_chemical_formula_sum   'Tb5 Co1 Se1 O12'
_cell_volume   247.31830956
_cell_formula_units_Z   1
loop_
 _symmetry_equiv_pos_site_id
 _symmetry_equiv_pos_as_xyz
  1  'x, y, z'
loop_
 _atom_site_type_symbol
 _atom_site_label
 _atom_site_symmetry_multiplicity
 _atom_site_fract_x
 _atom_site_fract_y
 _atom_site_fract_z
 _atom_site_occupancy
  Tb  Tb0  1  0.693718  0.696625  0.663593  1
  Tb  Tb1  1  0.682510  0.711199  0.142431  1
  Tb  Tb2  1  0.987743  0.012257  0.000000  1
  Tb  Tb3  1  0.288801  0.317490  0.857569  1
  Tb  Tb4  1  0.303375  0.306282  0.336407  1
  Co  Co5  1  0.256831  0.743169  0.500000  1
  Se  Se6  1  0.767767  0.232233  0.500000  1
  O  O7  1  0.395391  0.913063  0.919963  1
  O  O8  1  0.593368  0.100615  0.577870  1
  O  O9  1  0.899385  0.406632  0.422130  1
  O  O10  1  0.086937  0.604609  0.080037  1
  O  O11  1  0.995913  0.004595  0.327604  1
  O  O12  1  0.520927  0.479511  0.672854  1
  O  O13  1  0.892702  0.408820  0.928293  1
  O  O14  1  0.099885  0.572325  0.578764  1
  O  O15  1  0.427675  0.900115  0.421236  1
  O  O16  1  0.591180  0.107298  0.071707  1
  O  O17  1  0.520489  0.479073  0.327146  1
  O  O18  1  0.995405  0.004087  0.672396  1
