# generated using pymatgen
data_Pr8Zn8Pt3Rh5
_symmetry_space_group_name_H-M   'P 1'
_cell_length_a   4.05497700
_cell_length_b   7.43835668
_cell_length_c   16.74559129
_cell_angle_alpha   90.04924712
_cell_angle_beta   90.00000000
_cell_angle_gamma   90.00000000
_symmetry_Int_Tables_number   1
_chemical_formula_structural   Pr8Zn8Pt3Rh5
_chemical_formula_sum   'Pr8 Zn8 Pt3 Rh5'
_cell_volume   505.08645448
_cell_formula_units_Z   1
loop_
 _symmetry_equiv_pos_site_id
 _symmetry_equiv_pos_as_xyz
  1  'x, y, z'
loop_
 _atom_site_type_symbol
 _atom_site_label
 _atom_site_symmetry_multiplicity
 _atom_site_fract_x
 _atom_site_fract_y
 _atom_site_fract_z
 _atom_site_occupancy
  Pr  Pr0  1  0.250000  0.169029  0.942308  1
  Pr  Pr1  1  0.250000  0.670135  0.563446  1
  Pr  Pr2  1  0.750000  0.330256  0.442803  1
  Pr  Pr3  1  0.750000  0.948259  0.281029  1
  Pr  Pr4  1  0.750000  0.828171  0.060093  1
  Pr  Pr5  1  0.750000  0.451546  0.213417  1
  Pr  Pr6  1  0.250000  0.047701  0.714563  1
  Pr  Pr7  1  0.250000  0.553953  0.785125  1
  Zn  Zn8  1  0.750000  0.003021  0.562429  1
  Zn  Zn9  1  0.250000  0.621550  0.346389  1
  Zn  Zn10  1  0.750000  0.380246  0.650645  1
  Zn  Zn11  1  0.250000  0.498610  0.059521  1
  Zn  Zn12  1  0.750000  0.503350  0.940645  1
  Zn  Zn13  1  0.250000  0.999207  0.440341  1
  Zn  Zn14  1  0.250000  0.120835  0.149104  1
  Zn  Zn15  1  0.750000  0.876083  0.849336  1
  Pt  Pt16  1  0.750000  0.753872  0.434108  1
  Pt  Pt17  1  0.250000  0.246096  0.314023  1
  Pt  Pt18  1  0.750000  0.254035  0.813805  1
  Rh  Rh19  1  0.750000  0.752845  0.685416  1
  Rh  Rh20  1  0.250000  0.242915  0.565418  1
  Rh  Rh21  1  0.250000  0.746951  0.185770  1
  Rh  Rh22  1  0.750000  0.255843  0.065483  1
  Rh  Rh23  1  0.250000  0.745492  0.934783  1
