# generated using pymatgen
data_Y2AlZnRh2
_symmetry_space_group_name_H-M   'P 1'
_cell_length_a   4.11068100
_cell_length_b   6.97203525
_cell_length_c   8.07679753
_cell_angle_alpha   90.17613699
_cell_angle_beta   90.00000000
_cell_angle_gamma   90.00000000
_symmetry_Int_Tables_number   1
_chemical_formula_structural   Y2AlZnRh2
_chemical_formula_sum   'Y4 Al2 Zn2 Rh4'
_cell_volume   231.47841157
_cell_formula_units_Z   2
loop_
 _symmetry_equiv_pos_site_id
 _symmetry_equiv_pos_as_xyz
  1  'x, y, z'
loop_
 _atom_site_type_symbol
 _atom_site_label
 _atom_site_symmetry_multiplicity
 _atom_site_fract_x
 _atom_site_fract_y
 _atom_site_fract_z
 _atom_site_occupancy
  Y  Y0  1  0.250000  0.535439  0.181155  1
  Y  Y1  1  0.750000  0.464561  0.818845  1
  Y  Y2  1  0.750000  0.964713  0.687267  1
  Y  Y3  1  0.250000  0.035287  0.312733  1
  Al  Al4  1  0.250000  0.640139  0.562513  1
  Al  Al5  1  0.750000  0.359861  0.437487  1
  Zn  Zn6  1  0.750000  0.857656  0.065399  1
  Zn  Zn7  1  0.250000  0.142344  0.934601  1
  Rh  Rh8  1  0.250000  0.757466  0.873116  1
  Rh  Rh9  1  0.750000  0.242534  0.126884  1
  Rh  Rh10  1  0.750000  0.731365  0.390834  1
  Rh  Rh11  1  0.250000  0.268635  0.609166  1
