# generated using pymatgen
data_Dy2Er(CdGa)3
_symmetry_space_group_name_H-M   'P 1'
_cell_length_a   7.25571370
_cell_length_b   7.27000710
_cell_length_c   4.40759300
_cell_angle_alpha   90.00000000
_cell_angle_beta   90.00000000
_cell_angle_gamma   120.06519998
_symmetry_Int_Tables_number   1
_chemical_formula_structural   Dy2Er(CdGa)3
_chemical_formula_sum   'Dy2 Er1 Cd3 Ga3'
_cell_volume   201.21547731
_cell_formula_units_Z   1
loop_
 _symmetry_equiv_pos_site_id
 _symmetry_equiv_pos_as_xyz
  1  'x, y, z'
loop_
 _atom_site_type_symbol
 _atom_site_label
 _atom_site_symmetry_multiplicity
 _atom_site_fract_x
 _atom_site_fract_y
 _atom_site_fract_z
 _atom_site_occupancy
  Dy  Dy0  1  0.424118  0.424349  0.500000  1
  Dy  Dy1  1  0.575882  0.000231  0.500000  1
  Er  Er2  1  0.000000  0.576000  0.500000  1
  Cd  Cd3  1  0.751185  0.750959  0.000000  1
  Cd  Cd4  1  0.248815  0.999774  0.000000  1
  Cd  Cd5  1  0.000000  0.249378  0.000000  1
  Ga  Ga6  1  0.667437  0.333688  0.000000  1
  Ga  Ga7  1  0.332563  0.666252  0.000000  1
  Ga  Ga8  1  0.000000  0.999368  0.500000  1
