# generated using pymatgen
data_Dy2CoSi5Rh2
_symmetry_space_group_name_H-M   'P 1'
_cell_length_a   8.05183153
_cell_length_b   8.02794158
_cell_length_c   8.02794177
_cell_angle_alpha   138.33649186
_cell_angle_beta   105.29775789
_cell_angle_gamma   89.33263943
_symmetry_Int_Tables_number   1
_chemical_formula_structural   Dy2CoSi5Rh2
_chemical_formula_sum   'Dy4 Co2 Si10 Rh4'
_cell_volume   318.51297249
_cell_formula_units_Z   2
loop_
 _symmetry_equiv_pos_site_id
 _symmetry_equiv_pos_as_xyz
  1  'x, y, z'
loop_
 _atom_site_type_symbol
 _atom_site_label
 _atom_site_symmetry_multiplicity
 _atom_site_fract_x
 _atom_site_fract_y
 _atom_site_fract_z
 _atom_site_occupancy
  Dy  Dy0  1  0.363277  0.632110  0.731167  1
  Dy  Dy1  1  0.899944  0.133697  0.766247  1
  Dy  Dy2  1  0.100056  0.866303  0.233753  1
  Dy  Dy3  1  0.636723  0.367890  0.268833  1
  Co  Co4  1  0.251280  0.139709  0.111573  1
  Co  Co5  1  0.748720  0.860291  0.888427  1
  Si  Si6  1  0.277751  0.511956  0.243862  1
  Si  Si7  1  0.722249  0.966111  0.234205  1
  Si  Si8  1  0.000000  0.777277  0.777277  1
  Si  Si9  1  0.235204  0.393543  0.841660  1
  Si  Si10  1  0.764796  0.606457  0.158340  1
  Si  Si11  1  0.443755  0.107230  0.336525  1
  Si  Si12  1  0.000000  0.222723  0.222723  1
  Si  Si13  1  0.556245  0.892770  0.663475  1
  Si  Si14  1  0.722249  0.488044  0.756138  1
  Si  Si15  1  0.277751  0.033889  0.765795  1
  Rh  Rh16  1  0.031783  0.636427  0.395356  1
  Rh  Rh17  1  0.968217  0.363573  0.604644  1
  Rh  Rh18  1  0.500000  0.750227  0.250227  1
  Rh  Rh19  1  0.500000  0.249773  0.749773  1
