# generated using pymatgen
data_Tb5Er(BiO7)2
_symmetry_space_group_name_H-M   'P 1'
_cell_length_a   6.57771744
_cell_length_b   6.56196386
_cell_length_c   7.72962728
_cell_angle_alpha   106.89251111
_cell_angle_beta   89.71657046
_cell_angle_gamma   98.74010694
_symmetry_Int_Tables_number   1
_chemical_formula_structural   Tb5Er(BiO7)2
_chemical_formula_sum   'Tb5 Er1 Bi2 O14'
_cell_volume   315.25792508
_cell_formula_units_Z   1
loop_
 _symmetry_equiv_pos_site_id
 _symmetry_equiv_pos_as_xyz
  1  'x, y, z'
loop_
 _atom_site_type_symbol
 _atom_site_label
 _atom_site_symmetry_multiplicity
 _atom_site_fract_x
 _atom_site_fract_y
 _atom_site_fract_z
 _atom_site_occupancy
  Tb  Tb0  1  0.538349  0.994448  0.748030  1
  Tb  Tb1  1  0.271689  0.538761  0.883452  1
  Tb  Tb2  1  0.727571  0.462283  0.117625  1
  Tb  Tb3  1  0.732996  0.474340  0.611359  1
  Tb  Tb4  1  0.266243  0.524572  0.386244  1
  Er  Er5  1  0.462042  0.005742  0.251887  1
  Bi  Bi6  1  0.000147  0.000117  0.499294  1
  Bi  Bi7  1  0.000079  0.000084  0.001004  1
  O  O8  1  0.446433  0.652118  0.168729  1
  O  O9  1  0.554492  0.352482  0.833040  1
  O  O10  1  0.303007  0.923240  0.953668  1
  O  O11  1  0.697733  0.076530  0.051134  1
  O  O12  1  0.299592  0.925554  0.510967  1
  O  O13  1  0.700699  0.073875  0.483717  1
  O  O14  1  0.543572  0.359626  0.343673  1
  O  O15  1  0.453457  0.636379  0.654089  1
  O  O16  1  0.926808  0.667523  0.961965  1
  O  O17  1  0.073544  0.332767  0.038883  1
  O  O18  1  0.067574  0.348965  0.621250  1
  O  O19  1  0.930222  0.650087  0.379776  1
  O  O20  1  0.875200  0.900688  0.724718  1
  O  O21  1  0.128551  0.099819  0.275495  1
