# generated using pymatgen
data_Dy3Er2Mn2P12Ir17
_symmetry_space_group_name_H-M   'P 1'
_cell_length_a   12.63117900
_cell_length_b   12.72126235
_cell_length_c   3.96644400
_cell_angle_alpha   90.00000000
_cell_angle_beta   90.00000000
_cell_angle_gamma   119.76602433
_symmetry_Int_Tables_number   1
_chemical_formula_structural   Dy3Er2Mn2P12Ir17
_chemical_formula_sum   'Dy3 Er2 Mn2 P12 Ir17'
_cell_volume   553.25477463
_cell_formula_units_Z   1
loop_
 _symmetry_equiv_pos_site_id
 _symmetry_equiv_pos_as_xyz
  1  'x, y, z'
loop_
 _atom_site_type_symbol
 _atom_site_label
 _atom_site_symmetry_multiplicity
 _atom_site_fract_x
 _atom_site_fract_y
 _atom_site_fract_z
 _atom_site_occupancy
  Dy  Dy0  1  0.000005  0.811370  0.000000  1
  Dy  Dy1  1  0.188635  0.188630  0.000000  1
  Dy  Dy2  1  0.813554  0.000000  0.000000  1
  Er  Er3  1  0.332433  0.663603  0.500000  1
  Er  Er4  1  0.668830  0.336397  0.500000  1
  Mn  Mn5  1  0.999643  0.457924  0.500000  1
  Mn  Mn6  1  0.541718  0.542076  0.500000  1
  P  P7  1  0.999821  0.635046  0.500000  1
  P  P8  1  0.364775  0.364954  0.500000  1
  P  P9  1  0.643673  0.000000  0.500000  1
  P  P10  1  0.515320  0.684054  0.000000  1
  P  P11  1  0.309194  0.824386  0.000000  1
  P  P12  1  0.167053  0.481472  0.000000  1
  P  P13  1  0.484807  0.175614  0.000000  1
  P  P14  1  0.685580  0.518528  0.000000  1
  P  P15  1  0.831267  0.315946  0.000000  1
  P  P16  1  0.999824  0.178046  0.500000  1
  P  P17  1  0.821778  0.821954  0.500000  1
  P  P18  1  0.179131  0.000000  0.500000  1
  Ir  Ir19  1  0.505429  0.865526  0.000000  1
  Ir  Ir20  1  0.129829  0.638379  0.000000  1
  Ir  Ir21  1  0.358415  0.492149  0.000000  1
  Ir  Ir22  1  0.491451  0.361621  0.000000  1
  Ir  Ir23  1  0.866267  0.507851  0.000000  1
  Ir  Ir24  1  0.639904  0.134474  0.000000  1
  Ir  Ir25  1  0.462248  0.000000  0.500000  1
  Ir  Ir26  1  0.998138  0.282615  0.000000  1
  Ir  Ir27  1  0.715523  0.717385  0.000000  1
  Ir  Ir28  1  0.287187  0.000000  0.000000  1
  Ir  Ir29  1  0.621920  0.803950  0.500000  1
  Ir  Ir30  1  0.198353  0.821368  0.500000  1
  Ir  Ir31  1  0.178222  0.373649  0.500000  1
  Ir  Ir32  1  0.376985  0.178632  0.500000  1
  Ir  Ir33  1  0.804573  0.626351  0.500000  1
  Ir  Ir34  1  0.817969  0.196050  0.500000  1
  Ir  Ir35  1  0.000543  0.000000  0.500000  1
