# generated using pymatgen
data_Hf5FeAs2P
_symmetry_space_group_name_H-M   'P 1'
_cell_length_a   3.66758600
_cell_length_b   10.38030900
_cell_length_c   17.24907000
_cell_angle_alpha   90.00000000
_cell_angle_beta   90.00000000
_cell_angle_gamma   90.00000000
_symmetry_Int_Tables_number   1
_chemical_formula_structural   Hf5FeAs2P
_chemical_formula_sum   'Hf20 Fe4 As8 P4'
_cell_volume   656.68375465
_cell_formula_units_Z   4
loop_
 _symmetry_equiv_pos_site_id
 _symmetry_equiv_pos_as_xyz
  1  'x, y, z'
loop_
 _atom_site_type_symbol
 _atom_site_label
 _atom_site_symmetry_multiplicity
 _atom_site_fract_x
 _atom_site_fract_y
 _atom_site_fract_z
 _atom_site_occupancy
  Hf  Hf0  1  0.250000  0.129215  0.477825  1
  Hf  Hf1  1  0.750000  0.870785  0.522175  1
  Hf  Hf2  1  0.750000  0.629215  0.022175  1
  Hf  Hf3  1  0.250000  0.370785  0.977825  1
  Hf  Hf4  1  0.250000  0.056153  0.073160  1
  Hf  Hf5  1  0.750000  0.943847  0.926840  1
  Hf  Hf6  1  0.750000  0.556153  0.426840  1
  Hf  Hf7  1  0.250000  0.443847  0.573160  1
  Hf  Hf8  1  0.250000  0.479267  0.275983  1
  Hf  Hf9  1  0.750000  0.520733  0.724017  1
  Hf  Hf10  1  0.750000  0.979267  0.224017  1
  Hf  Hf11  1  0.250000  0.020733  0.775983  1
  Hf  Hf12  1  0.250000  0.813614  0.370761  1
  Hf  Hf13  1  0.750000  0.186386  0.629239  1
  Hf  Hf14  1  0.750000  0.313614  0.129239  1
  Hf  Hf15  1  0.250000  0.686386  0.870761  1
  Hf  Hf16  1  0.250000  0.758686  0.165065  1
  Hf  Hf17  1  0.750000  0.241314  0.834935  1
  Hf  Hf18  1  0.750000  0.258686  0.334935  1
  Hf  Hf19  1  0.250000  0.741314  0.665065  1
  Fe  Fe20  1  0.250000  0.368271  0.411143  1
  Fe  Fe21  1  0.750000  0.631729  0.588857  1
  Fe  Fe22  1  0.750000  0.868271  0.088857  1
  Fe  Fe23  1  0.250000  0.131729  0.911143  1
  As  As24  1  0.250000  0.506567  0.117198  1
  As  As25  1  0.750000  0.493433  0.882802  1
  As  As26  1  0.750000  0.006567  0.382802  1
  As  As27  1  0.250000  0.993433  0.617198  1
  As  As28  1  0.250000  0.184557  0.218295  1
  As  As29  1  0.750000  0.815443  0.781705  1
  As  As30  1  0.750000  0.684557  0.281705  1
  As  As31  1  0.250000  0.315443  0.718295  1
  P  P32  1  0.250000  0.811983  0.008148  1
  P  P33  1  0.750000  0.188017  0.991852  1
  P  P34  1  0.750000  0.311983  0.491852  1
  P  P35  1  0.250000  0.688017  0.508148  1
