# generated using pymatgen
data_Cs6Na4GdTaP6
_symmetry_space_group_name_H-M   'P 1'
_cell_length_a   11.00197720
_cell_length_b   11.00197848
_cell_length_c   16.57225200
_cell_angle_alpha   90.00000000
_cell_angle_beta   90.00000000
_cell_angle_gamma   143.04666888
_symmetry_Int_Tables_number   1
_chemical_formula_structural   Cs6Na4GdTaP6
_chemical_formula_sum   'Cs12 Na8 Gd2 Ta2 P12'
_cell_volume   1205.91376666
_cell_formula_units_Z   2
loop_
 _symmetry_equiv_pos_site_id
 _symmetry_equiv_pos_as_xyz
  1  'x, y, z'
loop_
 _atom_site_type_symbol
 _atom_site_label
 _atom_site_symmetry_multiplicity
 _atom_site_fract_x
 _atom_site_fract_y
 _atom_site_fract_z
 _atom_site_occupancy
  Cs  Cs0  1  0.949403  0.607545  0.825843  1
  Cs  Cs1  1  0.550597  0.892455  0.325843  1
  Cs  Cs2  1  0.392455  0.050597  0.174157  1
  Cs  Cs3  1  0.053033  0.391512  0.174924  1
  Cs  Cs4  1  0.891512  0.553033  0.325076  1
  Cs  Cs5  1  0.446967  0.108488  0.674924  1
  Cs  Cs6  1  0.608488  0.946967  0.825076  1
  Cs  Cs7  1  0.283667  0.280406  0.317303  1
  Cs  Cs8  1  0.780406  0.783667  0.182697  1
  Cs  Cs9  1  0.216333  0.219594  0.817303  1
  Cs  Cs10  1  0.719594  0.716333  0.682697  1
  Cs  Cs11  1  0.107545  0.449403  0.674157  1
  Na  Na12  1  0.919231  0.080769  0.000000  1
  Na  Na13  1  0.580769  0.419231  0.500000  1
  Na  Na14  1  0.080556  0.919444  0.000000  1
  Na  Na15  1  0.419444  0.580556  0.500000  1
  Na  Na16  1  0.753771  0.246229  0.000000  1
  Na  Na17  1  0.746229  0.253771  0.500000  1
  Na  Na18  1  0.246062  0.753938  0.000000  1
  Na  Na19  1  0.253938  0.746062  0.500000  1
  Gd  Gd20  1  0.412398  0.587602  0.000000  1
  Gd  Gd21  1  0.087602  0.912398  0.500000  1
  Ta  Ta22  1  0.584788  0.415212  0.000000  1
  Ta  Ta23  1  0.915212  0.084788  0.500000  1
  P  P24  1  0.853134  0.551881  0.084426  1
  P  P25  1  0.448119  0.146866  0.915574  1
  P  P26  1  0.646866  0.948119  0.584426  1
  P  P27  1  0.928481  0.606574  0.594709  1
  P  P28  1  0.106574  0.428481  0.905291  1
  P  P29  1  0.571519  0.893426  0.094709  1
  P  P30  1  0.393426  0.071519  0.405291  1
  P  P31  1  0.184117  0.206317  0.581314  1
  P  P32  1  0.706317  0.684117  0.918686  1
  P  P33  1  0.315883  0.293683  0.081314  1
  P  P34  1  0.051881  0.353134  0.415574  1
  P  P35  1  0.793683  0.815883  0.418686  1
