# generated using pymatgen
data_Tb12Tl2Tc3
_symmetry_space_group_name_H-M   'P 1'
_cell_length_a   8.52746719
_cell_length_b   8.52630374
_cell_length_c   8.52746781
_cell_angle_alpha   108.95869798
_cell_angle_beta   108.97343646
_cell_angle_gamma   110.49194512
_symmetry_Int_Tables_number   1
_chemical_formula_structural   Tb12Tl2Tc3
_chemical_formula_sum   'Tb12 Tl2 Tc3'
_cell_volume   477.14004726
_cell_formula_units_Z   1
loop_
 _symmetry_equiv_pos_site_id
 _symmetry_equiv_pos_as_xyz
  1  'x, y, z'
loop_
 _atom_site_type_symbol
 _atom_site_label
 _atom_site_symmetry_multiplicity
 _atom_site_fract_x
 _atom_site_fract_y
 _atom_site_fract_z
 _atom_site_occupancy
  Tb  Tb0  1  0.190144  0.429887  0.239742  1
  Tb  Tb1  1  0.809856  0.570113  0.760258  1
  Tb  Tb2  1  0.190095  0.950321  0.760226  1
  Tb  Tb3  1  0.950312  0.190083  0.760234  1
  Tb  Tb4  1  0.809905  0.049679  0.239774  1
  Tb  Tb5  1  0.049688  0.809917  0.239766  1
  Tb  Tb6  1  0.429848  0.190083  0.239771  1
  Tb  Tb7  1  0.570152  0.809917  0.760229  1
  Tb  Tb8  1  0.306697  0.306688  0.613371  1
  Tb  Tb9  1  0.693303  0.693312  0.386629  1
  Tb  Tb10  1  0.693318  0.306688  0.999991  1
  Tb  Tb11  1  0.306682  0.693312  0.000009  1
  Tl  Tl12  1  0.000000  0.500000  0.500000  1
  Tl  Tl13  1  0.500000  0.000000  0.500000  1
  Tc  Tc14  1  0.371747  0.371718  0.999971  1
  Tc  Tc15  1  0.628253  0.628282  0.000029  1
  Tc  Tc16  1  0.000000  0.000000  0.000000  1
