# generated using pymatgen
data_Sr3Yb3(SmSn2)4
_symmetry_space_group_name_H-M   'P 1'
_cell_length_a   8.08381100
_cell_length_b   8.62013336
_cell_length_c   16.50052962
_cell_angle_alpha   90.03217610
_cell_angle_beta   90.00000000
_cell_angle_gamma   90.00000000
_symmetry_Int_Tables_number   1
_chemical_formula_structural   Sr3Yb3(SmSn2)4
_chemical_formula_sum   'Sr6 Yb6 Sm8 Sn16'
_cell_volume   1149.81495044
_cell_formula_units_Z   2
loop_
 _symmetry_equiv_pos_site_id
 _symmetry_equiv_pos_as_xyz
  1  'x, y, z'
loop_
 _atom_site_type_symbol
 _atom_site_label
 _atom_site_symmetry_multiplicity
 _atom_site_fract_x
 _atom_site_fract_y
 _atom_site_fract_z
 _atom_site_occupancy
  Sr  Sr0  1  0.506941  0.684056  0.593852  1
  Sr  Sr1  1  0.006941  0.815944  0.906148  1
  Sr  Sr2  1  0.492892  0.316986  0.092717  1
  Sr  Sr3  1  0.992892  0.183014  0.407283  1
  Sr  Sr4  1  0.492223  0.316727  0.406812  1
  Sr  Sr5  1  0.992223  0.183273  0.093188  1
  Yb  Yb6  1  0.508431  0.689265  0.905115  1
  Yb  Yb7  1  0.008431  0.810735  0.594885  1
  Yb  Yb8  1  0.840052  0.510275  0.750081  1
  Yb  Yb9  1  0.340052  0.989725  0.749919  1
  Yb  Yb10  1  0.159888  0.491897  0.250056  1
  Yb  Yb11  1  0.659888  0.008103  0.249944  1
  Sm  Sm12  1  0.675482  0.167214  0.622725  1
  Sm  Sm13  1  0.175482  0.332786  0.877275  1
  Sm  Sm14  1  0.326687  0.830584  0.121857  1
  Sm  Sm15  1  0.826687  0.669416  0.378143  1
  Sm  Sm16  1  0.324887  0.832104  0.377799  1
  Sm  Sm17  1  0.824887  0.667896  0.122201  1
  Sm  Sm18  1  0.674484  0.167288  0.876548  1
  Sm  Sm19  1  0.174484  0.332712  0.623452  1
  Sn  Sn20  1  0.662918  0.961396  0.460083  1
  Sn  Sn21  1  0.162918  0.538604  0.039917  1
  Sn  Sn22  1  0.338692  0.034128  0.957376  1
  Sn  Sn23  1  0.838692  0.465872  0.542624  1
  Sn  Sn24  1  0.332272  0.035102  0.542573  1
  Sn  Sn25  1  0.832272  0.464898  0.957427  1
  Sn  Sn26  1  0.661992  0.958959  0.039370  1
  Sn  Sn27  1  0.161992  0.541041  0.460630  1
  Sn  Sn28  1  0.473595  0.378713  0.750626  1
  Sn  Sn29  1  0.973595  0.121287  0.749374  1
  Sn  Sn30  1  0.527559  0.623475  0.250185  1
  Sn  Sn31  1  0.027559  0.876525  0.249815  1
  Sn  Sn32  1  0.720268  0.875285  0.749481  1
  Sn  Sn33  1  0.220268  0.624715  0.750519  1
  Sn  Sn34  1  0.280738  0.121865  0.249915  1
  Sn  Sn35  1  0.780738  0.378135  0.250085  1
