# generated using pymatgen
data_Ho12In2Si3Pd
_symmetry_space_group_name_H-M   'P 1'
_cell_length_a   8.51843323
_cell_length_b   8.51843352
_cell_length_c   8.51843411
_cell_angle_alpha   113.15480927
_cell_angle_beta   111.44827763
_cell_angle_gamma   103.95277216
_symmetry_Int_Tables_number   1
_chemical_formula_structural   Ho12In2Si3Pd
_chemical_formula_sum   'Ho12 In2 Si3 Pd1'
_cell_volume   472.45191579
_cell_formula_units_Z   1
loop_
 _symmetry_equiv_pos_site_id
 _symmetry_equiv_pos_as_xyz
  1  'x, y, z'
loop_
 _atom_site_type_symbol
 _atom_site_label
 _atom_site_symmetry_multiplicity
 _atom_site_fract_x
 _atom_site_fract_y
 _atom_site_fract_z
 _atom_site_occupancy
  Ho  Ho0  1  0.319166  0.621033  0.301866  1
  Ho  Ho1  1  0.678414  0.382504  0.704091  1
  Ho  Ho2  1  0.319166  0.017299  0.698134  1
  Ho  Ho3  1  0.678414  0.974324  0.295909  1
  Ho  Ho4  1  0.184809  0.282771  0.467500  1
  Ho  Ho5  1  0.815270  0.717308  0.532500  1
  Ho  Ho6  1  0.184809  0.717308  0.902038  1
  Ho  Ho7  1  0.815270  0.282771  0.097962  1
  Ho  Ho8  1  0.446270  0.240831  0.205440  1
  Ho  Ho9  1  0.557252  0.762703  0.794548  1
  Ho  Ho10  1  0.035391  0.240831  0.794560  1
  Ho  Ho11  1  0.968155  0.762703  0.205452  1
  In  In12  1  0.500615  0.500615  0.000000  1
  In  In13  1  0.000304  0.000304  0.000000  1
  Si  Si14  1  0.874870  0.374870  0.500000  1
  Si  Si15  1  0.363905  0.002225  0.361680  1
  Si  Si16  1  0.640546  0.002225  0.638320  1
  Pd  Pd17  1  0.117375  0.617375  0.500000  1
