# generated using pymatgen
data_Ho7Er3(Sn3P)2
_symmetry_space_group_name_H-M   'P 1'
_cell_length_a   9.02170800
_cell_length_b   9.02170859
_cell_length_c   6.64539100
_cell_angle_alpha   90.00000000
_cell_angle_beta   90.00000000
_cell_angle_gamma   119.99999782
_symmetry_Int_Tables_number   1
_chemical_formula_structural   Ho7Er3(Sn3P)2
_chemical_formula_sum   'Ho7 Er3 Sn6 P2'
_cell_volume   468.41278649
_cell_formula_units_Z   1
loop_
 _symmetry_equiv_pos_site_id
 _symmetry_equiv_pos_as_xyz
  1  'x, y, z'
loop_
 _atom_site_type_symbol
 _atom_site_label
 _atom_site_symmetry_multiplicity
 _atom_site_fract_x
 _atom_site_fract_y
 _atom_site_fract_z
 _atom_site_occupancy
  Ho  Ho0  1  0.666667  0.333333  0.000000  1
  Ho  Ho1  1  0.758078  0.758103  0.749985  1
  Ho  Ho2  1  0.241897  0.999975  0.749985  1
  Ho  Ho3  1  0.000025  0.241922  0.749985  1
  Ho  Ho4  1  0.241897  0.241922  0.250015  1
  Ho  Ho5  1  0.758078  0.999975  0.250015  1
  Ho  Ho6  1  0.000025  0.758103  0.250015  1
  Er  Er7  1  0.333333  0.666667  0.000000  1
  Er  Er8  1  0.333333  0.666667  0.500000  1
  Er  Er9  1  0.666667  0.333333  0.500000  1
  Sn  Sn10  1  0.398754  0.398817  0.749952  1
  Sn  Sn11  1  0.601183  0.999937  0.749952  1
  Sn  Sn12  1  0.000063  0.601246  0.749952  1
  Sn  Sn13  1  0.601183  0.601246  0.250048  1
  Sn  Sn14  1  0.398754  0.999937  0.250048  1
  Sn  Sn15  1  0.000063  0.398817  0.250048  1
  P  P16  1  0.000000  0.000000  0.000000  1
  P  P17  1  0.000000  0.000000  0.500000  1
