# generated using pymatgen
data_Yb7NpGePd24
_symmetry_space_group_name_H-M   'P 1'
_cell_length_a   8.32918434
_cell_length_b   8.32918434
_cell_length_c   8.32918434
_cell_angle_alpha   89.53374022
_cell_angle_beta   89.53374022
_cell_angle_gamma   89.53374022
_symmetry_Int_Tables_number   1
_chemical_formula_structural   Yb7NpGePd24
_chemical_formula_sum   'Yb7 Np1 Ge1 Pd24'
_cell_volume   577.78267073
_cell_formula_units_Z   1
loop_
 _symmetry_equiv_pos_site_id
 _symmetry_equiv_pos_as_xyz
  1  'x, y, z'
loop_
 _atom_site_type_symbol
 _atom_site_label
 _atom_site_symmetry_multiplicity
 _atom_site_fract_x
 _atom_site_fract_y
 _atom_site_fract_z
 _atom_site_occupancy
  Yb  Yb0  1  0.746401  0.746401  0.746401  1
  Yb  Yb1  1  0.748632  0.748632  0.250722  1
  Yb  Yb2  1  0.748632  0.250722  0.748632  1
  Yb  Yb3  1  0.252413  0.252413  0.751878  1
  Yb  Yb4  1  0.252413  0.751878  0.252413  1
  Yb  Yb5  1  0.250722  0.748632  0.748632  1
  Yb  Yb6  1  0.751878  0.252413  0.252413  1
  Np  Np7  1  0.258213  0.258213  0.258213  1
  Ge  Ge8  1  0.993181  0.993181  0.993181  1
  Pd  Pd9  1  0.260284  0.495808  0.009633  1
  Pd  Pd10  1  0.739707  0.497060  0.999617  1
  Pd  Pd11  1  0.009633  0.260284  0.495808  1
  Pd  Pd12  1  0.495808  0.260284  0.009633  1
  Pd  Pd13  1  0.999617  0.739707  0.497060  1
  Pd  Pd14  1  0.497060  0.739707  0.999617  1
  Pd  Pd15  1  0.495808  0.009633  0.260284  1
  Pd  Pd16  1  0.260284  0.009633  0.495808  1
  Pd  Pd17  1  0.497060  0.999617  0.739707  1
  Pd  Pd18  1  0.739707  0.999617  0.497060  1
  Pd  Pd19  1  0.009633  0.495808  0.260284  1
  Pd  Pd20  1  0.999617  0.497060  0.739707  1
  Pd  Pd21  1  0.254719  0.496563  0.496563  1
  Pd  Pd22  1  0.747927  0.498865  0.498865  1
  Pd  Pd23  1  0.496563  0.254719  0.496563  1
  Pd  Pd24  1  0.498865  0.747927  0.498865  1
  Pd  Pd25  1  0.496563  0.496563  0.254719  1
  Pd  Pd26  1  0.498865  0.498865  0.747927  1
  Pd  Pd27  1  0.285220  0.005978  0.005978  1
  Pd  Pd28  1  0.704768  0.998925  0.998925  1
  Pd  Pd29  1  0.005978  0.285220  0.005978  1
  Pd  Pd30  1  0.998925  0.704768  0.998925  1
  Pd  Pd31  1  0.005978  0.005978  0.285220  1
  Pd  Pd32  1  0.998925  0.998925  0.704768  1
