# generated using pymatgen
data_Ti8Ru3
_symmetry_space_group_name_H-M   'P 1'
_cell_length_a   5.29817642
_cell_length_b   5.29817702
_cell_length_c   11.40673849
_cell_angle_alpha   104.83841149
_cell_angle_beta   104.83841266
_cell_angle_gamma   34.07225246
_symmetry_Int_Tables_number   1
_chemical_formula_structural   Ti8Ru3
_chemical_formula_sum   'Ti8 Ru3'
_cell_volume   172.83082912
_cell_formula_units_Z   1
loop_
 _symmetry_equiv_pos_site_id
 _symmetry_equiv_pos_as_xyz
  1  'x, y, z'
loop_
 _atom_site_type_symbol
 _atom_site_label
 _atom_site_symmetry_multiplicity
 _atom_site_fract_x
 _atom_site_fract_y
 _atom_site_fract_z
 _atom_site_occupancy
  Ti  Ti0  1  0.708474  0.708474  0.083734  1
  Ti  Ti1  1  0.457443  0.457443  0.183744  1
  Ti  Ti2  1  0.202721  0.202721  0.282421  1
  Ti  Ti3  1  0.628929  0.628929  0.458585  1
  Ti  Ti4  1  0.371072  0.371072  0.541414  1
  Ti  Ti5  1  0.797279  0.797279  0.717579  1
  Ti  Ti6  1  0.542557  0.542557  0.816256  1
  Ti  Ti7  1  0.291527  0.291527  0.916267  1
  Ru  Ru8  1  0.000000  0.000000  0.000000  1
  Ru  Ru9  1  0.913211  0.913211  0.362054  1
  Ru  Ru10  1  0.086789  0.086789  0.637947  1
