# generated using pymatgen
data_Sc12Si12IrRuRh2
_symmetry_space_group_name_H-M   'P 1'
_cell_length_a   4.03063800
_cell_length_b   10.24019002
_cell_length_c   11.69348909
_cell_angle_alpha   90.06367402
_cell_angle_beta   90.00000000
_cell_angle_gamma   90.00000000
_symmetry_Int_Tables_number   1
_chemical_formula_structural   Sc12Si12IrRuRh2
_chemical_formula_sum   'Sc12 Si12 Ir1 Ru1 Rh2'
_cell_volume   482.64260585
_cell_formula_units_Z   1
loop_
 _symmetry_equiv_pos_site_id
 _symmetry_equiv_pos_as_xyz
  1  'x, y, z'
loop_
 _atom_site_type_symbol
 _atom_site_label
 _atom_site_symmetry_multiplicity
 _atom_site_fract_x
 _atom_site_fract_y
 _atom_site_fract_z
 _atom_site_occupancy
  Sc  Sc0  1  0.250000  0.876520  0.019966  1
  Sc  Sc1  1  0.250000  0.622031  0.520696  1
  Sc  Sc2  1  0.750000  0.122666  0.979982  1
  Sc  Sc3  1  0.750000  0.376718  0.481003  1
  Sc  Sc4  1  0.250000  0.920556  0.601635  1
  Sc  Sc5  1  0.250000  0.579625  0.102317  1
  Sc  Sc6  1  0.750000  0.079050  0.398039  1
  Sc  Sc7  1  0.750000  0.420528  0.897253  1
  Sc  Sc8  1  0.250000  0.658944  0.798450  1
  Sc  Sc9  1  0.250000  0.841326  0.299349  1
  Sc  Sc10  1  0.750000  0.341708  0.200564  1
  Sc  Sc11  1  0.750000  0.158514  0.700950  1
  Si  Si12  1  0.250000  0.015191  0.823072  1
  Si  Si13  1  0.250000  0.485143  0.322440  1
  Si  Si14  1  0.750000  0.984774  0.177354  1
  Si  Si15  1  0.750000  0.513885  0.678688  1
  Si  Si16  1  0.250000  0.251183  0.841223  1
  Si  Si17  1  0.250000  0.249325  0.342176  1
  Si  Si18  1  0.750000  0.749840  0.157777  1
  Si  Si19  1  0.750000  0.751178  0.657509  1
  Si  Si20  1  0.250000  0.194556  0.545483  1
  Si  Si21  1  0.250000  0.306442  0.044650  1
  Si  Si22  1  0.750000  0.806303  0.454932  1
  Si  Si23  1  0.750000  0.692719  0.954915  1
  Ir  Ir24  1  0.750000  0.610559  0.322815  1
  Ru  Ru25  1  0.250000  0.390886  0.676653  1
  Rh  Rh26  1  0.250000  0.110322  0.177455  1
  Rh  Rh27  1  0.750000  0.889507  0.822650  1
