# generated using pymatgen
data_SmTh3(PdPt2)4
_symmetry_space_group_name_H-M   'P 1'
_cell_length_a   5.93360400
_cell_length_b   5.93523238
_cell_length_c   9.74943100
_cell_angle_alpha   90.00000000
_cell_angle_beta   90.00000000
_cell_angle_gamma   119.99092474
_symmetry_Int_Tables_number   1
_chemical_formula_structural   SmTh3(PdPt2)4
_chemical_formula_sum   'Sm1 Th3 Pd4 Pt8'
_cell_volume   297.37598649
_cell_formula_units_Z   1
loop_
 _symmetry_equiv_pos_site_id
 _symmetry_equiv_pos_as_xyz
  1  'x, y, z'
loop_
 _atom_site_type_symbol
 _atom_site_label
 _atom_site_symmetry_multiplicity
 _atom_site_fract_x
 _atom_site_fract_y
 _atom_site_fract_z
 _atom_site_occupancy
  Sm  Sm0  1  0.333929  0.667859  0.250000  1
  Th  Th1  1  0.000135  0.000271  0.495872  1
  Th  Th2  1  0.000135  0.000271  0.004128  1
  Th  Th3  1  0.665890  0.331779  0.750000  1
  Pd  Pd4  1  0.349154  0.173797  0.250000  1
  Pd  Pd5  1  0.824643  0.173797  0.250000  1
  Pd  Pd6  1  0.652622  0.826640  0.750000  1
  Pd  Pd7  1  0.174019  0.826640  0.750000  1
  Pt  Pt8  1  0.500473  0.500197  0.499829  1
  Pt  Pt9  1  0.500250  0.000498  0.500106  1
  Pt  Pt10  1  0.999726  0.500197  0.499829  1
  Pt  Pt11  1  0.500473  0.500197  0.000171  1
  Pt  Pt12  1  0.500250  0.000498  0.999894  1
  Pt  Pt13  1  0.999726  0.500197  0.000171  1
  Pt  Pt14  1  0.822721  0.645442  0.250000  1
  Pt  Pt15  1  0.175859  0.351716  0.750000  1
