# generated using pymatgen
data_Tb5Ho(Er2Pb3)2
_symmetry_space_group_name_H-M   'P 1'
_cell_length_a   9.04966572
_cell_length_b   9.04966510
_cell_length_c   6.62529800
_cell_angle_alpha   90.00000000
_cell_angle_beta   90.00000000
_cell_angle_gamma   119.95432311
_symmetry_Int_Tables_number   1
_chemical_formula_structural   Tb5Ho(Er2Pb3)2
_chemical_formula_sum   'Tb5 Ho1 Er4 Pb6'
_cell_volume   470.11142172
_cell_formula_units_Z   1
loop_
 _symmetry_equiv_pos_site_id
 _symmetry_equiv_pos_as_xyz
  1  'x, y, z'
loop_
 _atom_site_type_symbol
 _atom_site_label
 _atom_site_symmetry_multiplicity
 _atom_site_fract_x
 _atom_site_fract_y
 _atom_site_fract_z
 _atom_site_occupancy
  Tb  Tb0  1  0.238897  0.999889  0.750000  1
  Tb  Tb1  1  0.999889  0.238897  0.750000  1
  Tb  Tb2  1  0.239303  0.239303  0.250000  1
  Tb  Tb3  1  0.760938  0.999861  0.250000  1
  Tb  Tb4  1  0.999861  0.760938  0.250000  1
  Ho  Ho5  1  0.760848  0.760848  0.750000  1
  Er  Er6  1  0.666682  0.333400  0.999961  1
  Er  Er7  1  0.333400  0.666682  0.999961  1
  Er  Er8  1  0.333400  0.666682  0.500039  1
  Er  Er9  1  0.666682  0.333400  0.500039  1
  Pb  Pb10  1  0.395448  0.395448  0.750000  1
  Pb  Pb11  1  0.605149  0.999620  0.750000  1
  Pb  Pb12  1  0.999620  0.605149  0.750000  1
  Pb  Pb13  1  0.604832  0.604832  0.250000  1
  Pb  Pb14  1  0.395079  0.999973  0.250000  1
  Pb  Pb15  1  0.999973  0.395079  0.250000  1
