# generated using pymatgen
data_Y16Er3TmSn16
_symmetry_space_group_name_H-M   'P 1'
_cell_length_a   8.02925100
_cell_length_b   8.18588402
_cell_length_c   15.48583700
_cell_angle_alpha   90.00000000
_cell_angle_beta   90.00000000
_cell_angle_gamma   90.00380764
_symmetry_Int_Tables_number   1
_chemical_formula_structural   Y16Er3TmSn16
_chemical_formula_sum   'Y16 Er3 Tm1 Sn16'
_cell_volume   1017.83013338
_cell_formula_units_Z   1
loop_
 _symmetry_equiv_pos_site_id
 _symmetry_equiv_pos_as_xyz
  1  'x, y, z'
loop_
 _atom_site_type_symbol
 _atom_site_label
 _atom_site_symmetry_multiplicity
 _atom_site_fract_x
 _atom_site_fract_y
 _atom_site_fract_z
 _atom_site_occupancy
  Y  Y0  1  0.367009  0.837149  0.877764  1
  Y  Y1  1  0.866809  0.662785  0.622200  1
  Y  Y2  1  0.633003  0.162771  0.377949  1
  Y  Y3  1  0.133213  0.337263  0.122040  1
  Y  Y4  1  0.633003  0.162771  0.122051  1
  Y  Y5  1  0.133213  0.337263  0.377960  1
  Y  Y6  1  0.367009  0.837149  0.622236  1
  Y  Y7  1  0.866809  0.662785  0.877800  1
  Y  Y8  1  0.519923  0.320400  0.902581  1
  Y  Y9  1  0.019773  0.179638  0.597418  1
  Y  Y10  1  0.480031  0.679571  0.402689  1
  Y  Y11  1  0.980200  0.820416  0.097315  1
  Y  Y12  1  0.480031  0.679571  0.097311  1
  Y  Y13  1  0.980200  0.820416  0.402685  1
  Y  Y14  1  0.519923  0.320400  0.597419  1
  Y  Y15  1  0.019773  0.179638  0.902582  1
  Er  Er16  1  0.198127  0.502826  0.750000  1
  Er  Er17  1  0.698191  0.997214  0.750000  1
  Er  Er18  1  0.801886  0.497294  0.250000  1
  Tm  Tm19  1  0.301843  0.002774  0.250000  1
  Sn  Sn20  1  0.293242  0.036120  0.042599  1
  Sn  Sn21  1  0.793270  0.463822  0.457547  1
  Sn  Sn22  1  0.706742  0.963869  0.542143  1
  Sn  Sn23  1  0.206736  0.536132  0.957856  1
  Sn  Sn24  1  0.706742  0.963869  0.957857  1
  Sn  Sn25  1  0.206736  0.536132  0.542144  1
  Sn  Sn26  1  0.293242  0.036120  0.457401  1
  Sn  Sn27  1  0.793270  0.463822  0.042453  1
  Sn  Sn28  1  0.563453  0.618216  0.750000  1
  Sn  Sn29  1  0.063826  0.881622  0.750000  1
  Sn  Sn30  1  0.436264  0.381145  0.250000  1
  Sn  Sn31  1  0.936688  0.118537  0.250000  1
  Sn  Sn32  1  0.329475  0.148295  0.750000  1
  Sn  Sn33  1  0.829499  0.351657  0.750000  1
  Sn  Sn34  1  0.670322  0.851596  0.250000  1
  Sn  Sn35  1  0.170521  0.648953  0.250000  1
