# generated using pymatgen
data_Er8GaPdPt23
_symmetry_space_group_name_H-M   'P 1'
_cell_length_a   8.33872100
_cell_length_b   8.32395000
_cell_length_c   8.32395000
_cell_angle_alpha   90.00000000
_cell_angle_beta   90.00000000
_cell_angle_gamma   90.00000000
_symmetry_Int_Tables_number   1
_chemical_formula_structural   Er8GaPdPt23
_chemical_formula_sum   'Er8 Ga1 Pd1 Pt23'
_cell_volume   577.77449811
_cell_formula_units_Z   1
loop_
 _symmetry_equiv_pos_site_id
 _symmetry_equiv_pos_as_xyz
  1  'x, y, z'
loop_
 _atom_site_type_symbol
 _atom_site_label
 _atom_site_symmetry_multiplicity
 _atom_site_fract_x
 _atom_site_fract_y
 _atom_site_fract_z
 _atom_site_occupancy
  Er  Er0  1  0.251565  0.251224  0.748776  1
  Er  Er1  1  0.251565  0.748776  0.251224  1
  Er  Er2  1  0.748386  0.251539  0.251539  1
  Er  Er3  1  0.748386  0.748461  0.748461  1
  Er  Er4  1  0.748386  0.748461  0.251539  1
  Er  Er5  1  0.748386  0.251539  0.748461  1
  Er  Er6  1  0.251565  0.748776  0.748776  1
  Er  Er7  1  0.251565  0.251224  0.251224  1
  Ga  Ga8  1  0.000103  0.000000  0.000000  1
  Pd  Pd9  1  0.707112  0.000000  0.000000  1
  Pt  Pt10  1  0.500058  0.500000  0.746930  1
  Pt  Pt11  1  0.500058  0.253070  0.500000  1
  Pt  Pt12  1  0.253472  0.500000  0.500000  1
  Pt  Pt13  1  0.500058  0.500000  0.253070  1
  Pt  Pt14  1  0.500058  0.746930  0.500000  1
  Pt  Pt15  1  0.746645  0.500000  0.500000  1
  Pt  Pt16  1  0.999563  0.000000  0.706653  1
  Pt  Pt17  1  0.999563  0.293347  0.000000  1
  Pt  Pt18  1  0.295072  0.000000  0.000000  1
  Pt  Pt19  1  0.999563  0.000000  0.293347  1
  Pt  Pt20  1  0.999563  0.706653  0.000000  1
  Pt  Pt21  1  0.999973  0.500000  0.739040  1
  Pt  Pt22  1  0.500035  0.260520  0.000000  1
  Pt  Pt23  1  0.261127  0.000000  0.500000  1
  Pt  Pt24  1  0.999973  0.260960  0.500000  1
  Pt  Pt25  1  0.500035  0.000000  0.739480  1
  Pt  Pt26  1  0.261127  0.500000  0.000000  1
  Pt  Pt27  1  0.999973  0.500000  0.260960  1
  Pt  Pt28  1  0.500035  0.739480  0.000000  1
  Pt  Pt29  1  0.999973  0.739040  0.500000  1
  Pt  Pt30  1  0.500035  0.000000  0.260520  1
  Pt  Pt31  1  0.738511  0.000000  0.500000  1
  Pt  Pt32  1  0.738511  0.500000  0.000000  1
