# generated using pymatgen
data_KGaSiS4
_symmetry_space_group_name_H-M   'P 1'
_cell_length_a   16.03576900
_cell_length_b   6.87846201
_cell_length_c   7.32822355
_cell_angle_alpha   70.01309152
_cell_angle_beta   90.00000000
_cell_angle_gamma   90.00000000
_symmetry_Int_Tables_number   1
_chemical_formula_structural   KGaSiS4
_chemical_formula_sum   'K4 Ga4 Si4 S16'
_cell_volume   759.62939956
_cell_formula_units_Z   4
loop_
 _symmetry_equiv_pos_site_id
 _symmetry_equiv_pos_as_xyz
  1  'x, y, z'
loop_
 _atom_site_type_symbol
 _atom_site_label
 _atom_site_symmetry_multiplicity
 _atom_site_fract_x
 _atom_site_fract_y
 _atom_site_fract_z
 _atom_site_occupancy
  K  K0  1  0.393967  0.966428  0.184960  1
  K  K1  1  0.893967  0.033572  0.815040  1
  K  K2  1  0.603892  0.518161  0.820104  1
  K  K3  1  0.103892  0.481839  0.179896  1
  Ga  Ga4  1  0.584517  0.159114  0.480514  1
  Ga  Ga5  1  0.084517  0.840886  0.519486  1
  Ga  Ga6  1  0.273808  0.593868  0.704634  1
  Ga  Ga7  1  0.773808  0.406132  0.295366  1
  Si  Si8  1  0.420656  0.321434  0.537027  1
  Si  Si9  1  0.920656  0.678566  0.462973  1
  Si  Si10  1  0.726138  0.908986  0.269934  1
  Si  Si11  1  0.226138  0.091014  0.730066  1
  S  S12  1  0.600483  0.882788  0.374799  1
  S  S13  1  0.100483  0.117212  0.625201  1
  S  S14  1  0.411890  0.592652  0.616040  1
  S  S15  1  0.911890  0.407348  0.383960  1
  S  S16  1  0.801034  0.783688  0.531464  1
  S  S17  1  0.301034  0.216312  0.468536  1
  S  S18  1  0.200937  0.720970  0.426578  1
  S  S19  1  0.700937  0.279030  0.573422  1
  S  S20  1  0.762460  0.214107  0.091394  1
  S  S21  1  0.262460  0.785893  0.908606  1
  S  S22  1  0.237923  0.268115  0.917821  1
  S  S23  1  0.737923  0.731885  0.082179  1
  S  S24  1  0.992968  0.911441  0.255027  1
  S  S25  1  0.492968  0.088559  0.744973  1
  S  S26  1  0.989323  0.612780  0.727957  1
  S  S27  1  0.489323  0.387220  0.272043  1
