# generated using pymatgen
data_BaFeAs2Rh
_symmetry_space_group_name_H-M   'P 1'
_cell_length_a   5.72734900
_cell_length_b   7.00230818
_cell_length_c   5.75290067
_cell_angle_alpha   65.78891950
_cell_angle_beta   90.00076944
_cell_angle_gamma   89.99996662
_symmetry_Int_Tables_number   1
_chemical_formula_structural   BaFeAs2Rh
_chemical_formula_sum   'Ba2 Fe2 As4 Rh2'
_cell_volume   210.42436366
_cell_formula_units_Z   2
loop_
 _symmetry_equiv_pos_site_id
 _symmetry_equiv_pos_as_xyz
  1  'x, y, z'
loop_
 _atom_site_type_symbol
 _atom_site_label
 _atom_site_symmetry_multiplicity
 _atom_site_fract_x
 _atom_site_fract_y
 _atom_site_fract_z
 _atom_site_occupancy
  Ba  Ba0  1  0.999999  0.000002  0.000004  1
  Ba  Ba1  1  0.500000  0.000001  0.499999  1
  Fe  Fe2  1  0.750441  0.499997  0.500002  1
  Fe  Fe3  1  0.249556  0.500001  0.499998  1
  As  As4  1  0.499984  0.698880  0.172449  1
  As  As5  1  0.000010  0.699597  0.628828  1
  As  As6  1  0.000007  0.300402  0.371172  1
  As  As7  1  0.499994  0.301118  0.827549  1
  Rh  Rh8  1  0.249989  0.500000  0.999999  1
  Rh  Rh9  1  0.750022  0.500001  0.000000  1
