# generated using pymatgen
data_Tb9ErCd3Ni
_symmetry_space_group_name_H-M   'P 1'
_cell_length_a   9.61531900
_cell_length_b   9.61531917
_cell_length_c   9.84055200
_cell_angle_alpha   90.00000000
_cell_angle_beta   90.00000000
_cell_angle_gamma   119.99999599
_symmetry_Int_Tables_number   1
_chemical_formula_structural   Tb9ErCd3Ni
_chemical_formula_sum   'Tb18 Er2 Cd6 Ni2'
_cell_volume   787.91163100
_cell_formula_units_Z   2
loop_
 _symmetry_equiv_pos_site_id
 _symmetry_equiv_pos_as_xyz
  1  'x, y, z'
loop_
 _atom_site_type_symbol
 _atom_site_label
 _atom_site_symmetry_multiplicity
 _atom_site_fract_x
 _atom_site_fract_y
 _atom_site_fract_z
 _atom_site_occupancy
  Tb  Tb0  1  0.543712  0.456288  0.250000  1
  Tb  Tb1  1  0.543712  0.087424  0.250000  1
  Tb  Tb2  1  0.912576  0.456288  0.250000  1
  Tb  Tb3  1  0.456288  0.543712  0.750000  1
  Tb  Tb4  1  0.456288  0.912576  0.750000  1
  Tb  Tb5  1  0.087424  0.543712  0.750000  1
  Tb  Tb6  1  0.209709  0.790291  0.436418  1
  Tb  Tb7  1  0.209709  0.419419  0.436418  1
  Tb  Tb8  1  0.580581  0.790291  0.436418  1
  Tb  Tb9  1  0.790291  0.209709  0.563582  1
  Tb  Tb10  1  0.790291  0.580581  0.563582  1
  Tb  Tb11  1  0.419419  0.209709  0.563582  1
  Tb  Tb12  1  0.790291  0.209709  0.936418  1
  Tb  Tb13  1  0.790291  0.580581  0.936418  1
  Tb  Tb14  1  0.419419  0.209709  0.936418  1
  Tb  Tb15  1  0.209709  0.790291  0.063582  1
  Tb  Tb16  1  0.209709  0.419419  0.063582  1
  Tb  Tb17  1  0.580581  0.790291  0.063582  1
  Er  Er18  1  0.000000  0.000000  0.500000  1
  Er  Er19  1  0.000000  0.000000  0.000000  1
  Cd  Cd20  1  0.886010  0.113990  0.250000  1
  Cd  Cd21  1  0.886010  0.772019  0.250000  1
  Cd  Cd22  1  0.227981  0.113990  0.250000  1
  Cd  Cd23  1  0.113990  0.886010  0.750000  1
  Cd  Cd24  1  0.113990  0.227981  0.750000  1
  Cd  Cd25  1  0.772019  0.886010  0.750000  1
  Ni  Ni26  1  0.333333  0.666667  0.250000  1
  Ni  Ni27  1  0.666667  0.333333  0.750000  1
