# generated using pymatgen
data_K4CuAg3S4
_symmetry_space_group_name_H-M   'P 1'
_cell_length_a   5.71271892
_cell_length_b   6.40288319
_cell_length_c   10.72549296
_cell_angle_alpha   90.98767295
_cell_angle_beta   88.22588212
_cell_angle_gamma   88.52789988
_symmetry_Int_Tables_number   1
_chemical_formula_structural   K4CuAg3S4
_chemical_formula_sum   'K4 Cu1 Ag3 S4'
_cell_volume   391.93438708
_cell_formula_units_Z   1
loop_
 _symmetry_equiv_pos_site_id
 _symmetry_equiv_pos_as_xyz
  1  'x, y, z'
loop_
 _atom_site_type_symbol
 _atom_site_label
 _atom_site_symmetry_multiplicity
 _atom_site_fract_x
 _atom_site_fract_y
 _atom_site_fract_z
 _atom_site_occupancy
  K  K0  1  0.750285  0.523302  0.849572  1
  K  K1  1  0.249496  0.022805  0.654842  1
  K  K2  1  0.750504  0.977195  0.345158  1
  K  K3  1  0.249715  0.476698  0.150428  1
  Cu  Cu4  1  0.000000  0.000000  0.000000  1
  Ag  Ag5  1  0.500000  0.000000  0.000000  1
  Ag  Ag6  1  0.500000  0.500000  0.500000  1
  Ag  Ag7  1  0.000000  0.500000  0.500000  1
  S  S8  1  0.769102  0.232388  0.091299  1
  S  S9  1  0.750194  0.253056  0.598189  1
  S  S10  1  0.230898  0.767612  0.908701  1
  S  S11  1  0.249806  0.746944  0.401811  1
