# generated using pymatgen
data_Pr2Cr2(Re5C)3
_symmetry_space_group_name_H-M   'P 1'
_cell_length_a   7.00594243
_cell_length_b   7.00594385
_cell_length_c   7.00898543
_cell_angle_alpha   82.81898950
_cell_angle_beta   82.81898549
_cell_angle_gamma   83.16966755
_symmetry_Int_Tables_number   1
_chemical_formula_structural   Pr2Cr2(Re5C)3
_chemical_formula_sum   'Pr2 Cr2 Re15 C3'
_cell_volume   336.77800920
_cell_formula_units_Z   1
loop_
 _symmetry_equiv_pos_site_id
 _symmetry_equiv_pos_as_xyz
  1  'x, y, z'
loop_
 _atom_site_type_symbol
 _atom_site_label
 _atom_site_symmetry_multiplicity
 _atom_site_fract_x
 _atom_site_fract_y
 _atom_site_fract_z
 _atom_site_occupancy
  Pr  Pr0  1  0.648323  0.648323  0.648085  1
  Pr  Pr1  1  0.351677  0.351677  0.351915  1
  Cr  Cr2  1  0.500000  0.000000  0.000000  1
  Cr  Cr3  1  0.000000  0.500000  0.000000  1
  Re  Re4  1  0.000000  0.000000  0.500000  1
  Re  Re5  1  0.720947  0.279053  0.000000  1
  Re  Re6  1  0.000649  0.718616  0.275435  1
  Re  Re7  1  0.281384  0.999351  0.724565  1
  Re  Re8  1  0.999351  0.281384  0.724565  1
  Re  Re9  1  0.718616  0.000649  0.275435  1
  Re  Re10  1  0.279053  0.720947  0.000000  1
  Re  Re11  1  0.349514  0.863459  0.341971  1
  Re  Re12  1  0.342896  0.342896  0.867974  1
  Re  Re13  1  0.863459  0.349514  0.341971  1
  Re  Re14  1  0.650486  0.136541  0.658029  1
  Re  Re15  1  0.657104  0.657104  0.132026  1
  Re  Re16  1  0.136541  0.650486  0.658029  1
  Re  Re17  1  0.900909  0.900909  0.902565  1
  Re  Re18  1  0.099091  0.099091  0.097435  1
  C  C19  1  0.500000  0.500000  0.000000  1
  C  C20  1  0.000000  0.500000  0.500000  1
  C  C21  1  0.500000  0.000000  0.500000  1
