# generated using pymatgen
data_Nd2Y4RuBr10
_symmetry_space_group_name_H-M   'P 1'
_cell_length_a   7.45903654
_cell_length_b   9.39929558
_cell_length_c   9.34927431
_cell_angle_alpha   107.69856434
_cell_angle_beta   95.83154055
_cell_angle_gamma   106.35560601
_symmetry_Int_Tables_number   1
_chemical_formula_structural   Nd2Y4RuBr10
_chemical_formula_sum   'Nd2 Y4 Ru1 Br10'
_cell_volume   586.48003409
_cell_formula_units_Z   1
loop_
 _symmetry_equiv_pos_site_id
 _symmetry_equiv_pos_as_xyz
  1  'x, y, z'
loop_
 _atom_site_type_symbol
 _atom_site_label
 _atom_site_symmetry_multiplicity
 _atom_site_fract_x
 _atom_site_fract_y
 _atom_site_fract_z
 _atom_site_occupancy
  Nd  Nd0  1  0.122673  0.046161  0.761809  1
  Nd  Nd1  1  0.877327  0.953839  0.238191  1
  Y  Y2  1  0.976668  0.304727  0.097265  1
  Y  Y3  1  0.023332  0.695273  0.902735  1
  Y  Y4  1  0.367930  0.140251  0.180763  1
  Y  Y5  1  0.632070  0.859749  0.819237  1
  Ru  Ru6  1  0.000000  0.000000  0.000000  1
  Br  Br7  1  0.551003  0.174921  0.919158  1
  Br  Br8  1  0.448997  0.825079  0.080842  1
  Br  Br9  1  0.355113  0.453225  0.272222  1
  Br  Br10  1  0.644887  0.546775  0.727778  1
  Br  Br11  1  0.261544  0.086568  0.451204  1
  Br  Br12  1  0.738456  0.913432  0.548796  1
  Br  Br13  1  0.787592  0.262943  0.343927  1
  Br  Br14  1  0.212408  0.737057  0.656073  1
  Br  Br15  1  0.086241  0.376074  0.833428  1
  Br  Br16  1  0.913759  0.623926  0.166572  1
