# generated using pymatgen
data_Lu12Fe2RuPb2
_symmetry_space_group_name_H-M   'P 1'
_cell_length_a   8.23343418
_cell_length_b   8.23625994
_cell_length_c   8.23343498
_cell_angle_alpha   108.50067168
_cell_angle_beta   108.48586531
_cell_angle_gamma   111.43092922
_symmetry_Int_Tables_number   1
_chemical_formula_structural   Lu12Fe2RuPb2
_chemical_formula_sum   'Lu12 Fe2 Ru1 Pb2'
_cell_volume   429.49885908
_cell_formula_units_Z   1
loop_
 _symmetry_equiv_pos_site_id
 _symmetry_equiv_pos_as_xyz
  1  'x, y, z'
loop_
 _atom_site_type_symbol
 _atom_site_label
 _atom_site_symmetry_multiplicity
 _atom_site_fract_x
 _atom_site_fract_y
 _atom_site_fract_z
 _atom_site_occupancy
  Lu  Lu0  1  0.308833  0.308844  0.617801  1
  Lu  Lu1  1  0.691167  0.691156  0.382199  1
  Lu  Lu2  1  0.691043  0.308844  0.000011  1
  Lu  Lu3  1  0.308957  0.691156  0.999989  1
  Lu  Lu4  1  0.194068  0.428575  0.234506  1
  Lu  Lu5  1  0.805932  0.571425  0.765494  1
  Lu  Lu6  1  0.194152  0.959528  0.765377  1
  Lu  Lu7  1  0.959529  0.194100  0.765411  1
  Lu  Lu8  1  0.805848  0.040472  0.234623  1
  Lu  Lu9  1  0.040471  0.805900  0.234589  1
  Lu  Lu10  1  0.428690  0.194100  0.234571  1
  Lu  Lu11  1  0.571310  0.805900  0.765429  1
  Fe  Fe12  1  0.383519  0.383081  0.999562  1
  Fe  Fe13  1  0.616481  0.616919  0.000438  1
  Ru  Ru14  1  0.000000  0.000000  0.000000  1
  Pb  Pb15  1  0.000000  0.500000  0.500000  1
  Pb  Pb16  1  0.500000  0.000000  0.500000  1
