# generated using pymatgen
data_Nd2ThIn4Te
_symmetry_space_group_name_H-M   'P 1'
_cell_length_a   8.62611794
_cell_length_b   8.62611763
_cell_length_c   8.62611872
_cell_angle_alpha   119.63234053
_cell_angle_beta   119.63233697
_cell_angle_gamma   90.63800201
_symmetry_Int_Tables_number   1
_chemical_formula_structural   Nd2ThIn4Te
_chemical_formula_sum   'Nd4 Th2 In8 Te2'
_cell_volume   456.36129791
_cell_formula_units_Z   2
loop_
 _symmetry_equiv_pos_site_id
 _symmetry_equiv_pos_as_xyz
  1  'x, y, z'
loop_
 _atom_site_type_symbol
 _atom_site_label
 _atom_site_symmetry_multiplicity
 _atom_site_fract_x
 _atom_site_fract_y
 _atom_site_fract_z
 _atom_site_occupancy
  Nd  Nd0  1  0.659222  0.159222  0.818444  1
  Nd  Nd1  1  0.340778  0.840778  0.181556  1
  Nd  Nd2  1  0.159222  0.340778  0.500000  1
  Nd  Nd3  1  0.840778  0.659222  0.500000  1
  Th  Th4  1  0.750000  0.750000  0.000000  1
  Th  Th5  1  0.250000  0.250000  0.000000  1
  In  In6  1  0.330840  0.830840  0.790415  1
  In  In7  1  0.669160  0.169160  0.209585  1
  In  In8  1  0.040424  0.540424  0.209585  1
  In  In9  1  0.830840  0.040424  0.500000  1
  In  In10  1  0.459576  0.669160  0.500000  1
  In  In11  1  0.959576  0.459576  0.790415  1
  In  In12  1  0.169160  0.959576  0.500000  1
  In  In13  1  0.540424  0.330840  0.500000  1
  Te  Te14  1  0.500000  0.500000  0.000000  1
  Te  Te15  1  0.000000  0.000000  0.000000  1
