# generated using pymatgen
data_Ac2Co7(NiAs2)3
_symmetry_space_group_name_H-M   'P 1'
_cell_length_a   6.35389353
_cell_length_b   6.35389365
_cell_length_c   11.90399095
_cell_angle_alpha   89.69404436
_cell_angle_beta   90.30595622
_cell_angle_gamma   145.22637454
_symmetry_Int_Tables_number   1
_chemical_formula_structural   Ac2Co7(NiAs2)3
_chemical_formula_sum   'Ac2 Co7 Ni3 As6'
_cell_volume   274.09182276
_cell_formula_units_Z   1
loop_
 _symmetry_equiv_pos_site_id
 _symmetry_equiv_pos_as_xyz
  1  'x, y, z'
loop_
 _atom_site_type_symbol
 _atom_site_label
 _atom_site_symmetry_multiplicity
 _atom_site_fract_x
 _atom_site_fract_y
 _atom_site_fract_z
 _atom_site_occupancy
  Ac  Ac0  1  0.167171  0.832829  0.250290  1
  Ac  Ac1  1  0.834641  0.165359  0.749474  1
  Co  Co2  1  0.191399  0.808601  0.933647  1
  Co  Co3  1  0.806716  0.193284  0.433008  1
  Co  Co4  1  0.551494  0.448506  0.641616  1
  Co  Co5  1  0.449802  0.550198  0.359665  1
  Co  Co6  1  0.450765  0.549235  0.141931  1
  Co  Co7  1  0.193967  0.806033  0.565086  1
  Co  Co8  1  0.806338  0.193662  0.067746  1
  Ni  Ni9  1  0.998250  0.001750  0.999522  1
  Ni  Ni10  1  0.999704  0.000296  0.500958  1
  Ni  Ni11  1  0.547194  0.452806  0.856905  1
  As  As12  1  0.621550  0.378450  0.461220  1
  As  As13  1  0.110327  0.889673  0.747076  1
  As  As14  1  0.621066  0.378934  0.038761  1
  As  As15  1  0.375761  0.624239  0.964004  1
  As  As16  1  0.894829  0.105171  0.250778  1
  As  As17  1  0.379025  0.620975  0.538313  1
