# generated using pymatgen
data_Sc12Tc2PbBr16
_symmetry_space_group_name_H-M   'P 1'
_cell_length_a   9.14784439
_cell_length_b   11.25664969
_cell_length_c   11.97520079
_cell_angle_alpha   117.42307395
_cell_angle_beta   102.02265076
_cell_angle_gamma   101.32843488
_symmetry_Int_Tables_number   1
_chemical_formula_structural   Sc12Tc2PbBr16
_chemical_formula_sum   'Sc12 Tc2 Pb1 Br16'
_cell_volume   1008.02608488
_cell_formula_units_Z   1
loop_
 _symmetry_equiv_pos_site_id
 _symmetry_equiv_pos_as_xyz
  1  'x, y, z'
loop_
 _atom_site_type_symbol
 _atom_site_label
 _atom_site_symmetry_multiplicity
 _atom_site_fract_x
 _atom_site_fract_y
 _atom_site_fract_z
 _atom_site_occupancy
  Sc  Sc0  1  0.100215  0.245810  0.343640  1
  Sc  Sc1  1  0.899785  0.754190  0.656360  1
  Sc  Sc2  1  0.751260  0.539749  0.308465  1
  Sc  Sc3  1  0.248740  0.460251  0.691535  1
  Sc  Sc4  1  0.311886  0.756918  0.657952  1
  Sc  Sc5  1  0.688114  0.243082  0.342048  1
  Sc  Sc6  1  0.161497  0.539046  0.311574  1
  Sc  Sc7  1  0.838503  0.460954  0.688426  1
  Sc  Sc8  1  0.404049  0.356951  0.270063  1
  Sc  Sc9  1  0.595951  0.643049  0.729937  1
  Sc  Sc10  1  0.457939  0.305127  0.521919  1
  Sc  Sc11  1  0.542061  0.694873  0.478081  1
  Tc  Tc12  1  0.337262  0.500137  0.499482  1
  Tc  Tc13  1  0.662739  0.499863  0.500518  1
  Pb  Pb14  1  0.000000  0.500000  0.500000  1
  Br  Br15  1  0.401134  0.744370  0.887877  1
  Br  Br16  1  0.598866  0.255630  0.112123  1
  Br  Br17  1  0.187888  0.960046  0.781109  1
  Br  Br18  1  0.812112  0.039954  0.218891  1
  Br  Br19  1  0.339541  0.089241  0.247980  1
  Br  Br20  1  0.660459  0.910759  0.752020  1
  Br  Br21  1  0.551326  0.436765  0.801939  1
  Br  Br22  1  0.448674  0.563235  0.198061  1
  Br  Br23  1  0.310330  0.829072  0.461638  1
  Br  Br24  1  0.689670  0.170928  0.538362  1
  Br  Br25  1  0.166281  0.167969  0.531604  1
  Br  Br26  1  0.833719  0.832031  0.468396  1
  Br  Br27  1  0.926210  0.573643  0.164178  1
  Br  Br28  1  0.073790  0.426357  0.835822  1
  Br  Br29  1  0.923558  0.742237  0.887827  1
  Br  Br30  1  0.076442  0.257763  0.112173  1
