# generated using pymatgen
data_Hf2Ti3Ge4
_symmetry_space_group_name_H-M   'P 1'
_cell_length_a   6.78941000
_cell_length_b   6.89412900
_cell_length_c   13.10934700
_cell_angle_alpha   90.00000000
_cell_angle_beta   90.00000000
_cell_angle_gamma   90.00000000
_symmetry_Int_Tables_number   1
_chemical_formula_structural   Hf2Ti3Ge4
_chemical_formula_sum   'Hf8 Ti12 Ge16'
_cell_volume   613.61010137
_cell_formula_units_Z   4
loop_
 _symmetry_equiv_pos_site_id
 _symmetry_equiv_pos_as_xyz
  1  'x, y, z'
loop_
 _atom_site_type_symbol
 _atom_site_label
 _atom_site_symmetry_multiplicity
 _atom_site_fract_x
 _atom_site_fract_y
 _atom_site_fract_z
 _atom_site_occupancy
  Hf  Hf0  1  0.489586  0.676147  0.593372  1
  Hf  Hf1  1  0.989586  0.823853  0.906628  1
  Hf  Hf2  1  0.510414  0.323853  0.093372  1
  Hf  Hf3  1  0.010414  0.176147  0.406628  1
  Hf  Hf4  1  0.510414  0.323853  0.406628  1
  Hf  Hf5  1  0.010414  0.176147  0.093372  1
  Hf  Hf6  1  0.489586  0.676147  0.906628  1
  Hf  Hf7  1  0.989586  0.823853  0.593372  1
  Ti  Ti8  1  0.657322  0.166428  0.626034  1
  Ti  Ti9  1  0.157322  0.333572  0.873966  1
  Ti  Ti10  1  0.342678  0.833572  0.126034  1
  Ti  Ti11  1  0.842678  0.666428  0.373966  1
  Ti  Ti12  1  0.342678  0.833572  0.373966  1
  Ti  Ti13  1  0.842678  0.666428  0.126034  1
  Ti  Ti14  1  0.657322  0.166428  0.873966  1
  Ti  Ti15  1  0.157322  0.333572  0.626034  1
  Ti  Ti16  1  0.831531  0.494778  0.750000  1
  Ti  Ti17  1  0.331531  0.005222  0.750000  1
  Ti  Ti18  1  0.168469  0.505222  0.250000  1
  Ti  Ti19  1  0.668469  0.994778  0.250000  1
  Ge  Ge20  1  0.683475  0.959817  0.458954  1
  Ge  Ge21  1  0.183475  0.540183  0.041046  1
  Ge  Ge22  1  0.316525  0.040183  0.958954  1
  Ge  Ge23  1  0.816525  0.459817  0.541046  1
  Ge  Ge24  1  0.316525  0.040183  0.541046  1
  Ge  Ge25  1  0.816525  0.459817  0.958954  1
  Ge  Ge26  1  0.683475  0.959817  0.041046  1
  Ge  Ge27  1  0.183475  0.540183  0.458954  1
  Ge  Ge28  1  0.460416  0.380769  0.750000  1
  Ge  Ge29  1  0.960416  0.119231  0.750000  1
  Ge  Ge30  1  0.539584  0.619231  0.250000  1
  Ge  Ge31  1  0.039584  0.880769  0.250000  1
  Ge  Ge32  1  0.689594  0.853370  0.750000  1
  Ge  Ge33  1  0.189594  0.646630  0.750000  1
  Ge  Ge34  1  0.310406  0.146630  0.250000  1
  Ge  Ge35  1  0.810406  0.353370  0.250000  1
