# generated using pymatgen
data_PrEu3Mg4IrRh3
_symmetry_space_group_name_H-M   'P 1'
_cell_length_a   4.25220700
_cell_length_b   7.25127421
_cell_length_c   8.55423577
_cell_angle_alpha   89.72839563
_cell_angle_beta   90.00000000
_cell_angle_gamma   90.00000000
_symmetry_Int_Tables_number   1
_chemical_formula_structural   PrEu3Mg4IrRh3
_chemical_formula_sum   'Pr1 Eu3 Mg4 Ir1 Rh3'
_cell_volume   263.75764904
_cell_formula_units_Z   1
loop_
 _symmetry_equiv_pos_site_id
 _symmetry_equiv_pos_as_xyz
  1  'x, y, z'
loop_
 _atom_site_type_symbol
 _atom_site_label
 _atom_site_symmetry_multiplicity
 _atom_site_fract_x
 _atom_site_fract_y
 _atom_site_fract_z
 _atom_site_occupancy
  Pr  Pr0  1  0.750000  0.464362  0.826769  1
  Eu  Eu1  1  0.250000  0.034438  0.323054  1
  Eu  Eu2  1  0.750000  0.968101  0.675393  1
  Eu  Eu3  1  0.250000  0.529508  0.176846  1
  Mg  Mg4  1  0.250000  0.133409  0.943921  1
  Mg  Mg5  1  0.750000  0.864096  0.058359  1
  Mg  Mg6  1  0.250000  0.638149  0.555974  1
  Mg  Mg7  1  0.750000  0.365061  0.440314  1
  Ir  Ir8  1  0.750000  0.237532  0.126619  1
  Rh  Rh9  1  0.250000  0.757588  0.869380  1
  Rh  Rh10  1  0.750000  0.737508  0.370227  1
  Rh  Rh11  1  0.250000  0.270249  0.633143  1
