# generated using pymatgen
data_CaYb5DyErSb6
_symmetry_space_group_name_H-M   'P 1'
_cell_length_a   8.17092205
_cell_length_b   7.99522248
_cell_length_c   8.16672077
_cell_angle_alpha   70.96839813
_cell_angle_beta   70.09633563
_cell_angle_gamma   109.05566718
_symmetry_Int_Tables_number   1
_chemical_formula_structural   CaYb5DyErSb6
_chemical_formula_sum   'Ca1 Yb5 Dy1 Er1 Sb6'
_cell_volume   412.80796980
_cell_formula_units_Z   1
loop_
 _symmetry_equiv_pos_site_id
 _symmetry_equiv_pos_as_xyz
  1  'x, y, z'
loop_
 _atom_site_type_symbol
 _atom_site_label
 _atom_site_symmetry_multiplicity
 _atom_site_fract_x
 _atom_site_fract_y
 _atom_site_fract_z
 _atom_site_occupancy
  Ca  Ca0  1  0.852038  0.999009  0.001156  1
  Yb  Yb1  1  0.501065  0.498927  0.146520  1
  Yb  Yb2  1  0.645744  0.146470  0.353332  1
  Yb  Yb3  1  0.357929  0.001379  0.995725  1
  Yb  Yb4  1  0.495584  0.496805  0.647101  1
  Yb  Yb5  1  0.146928  0.644025  0.857564  1
  Dy  Dy6  1  0.000129  0.856853  0.499859  1
  Er  Er7  1  0.000599  0.359156  0.498732  1
  Sb  Sb8  1  0.634453  0.879518  0.742041  1
  Sb  Sb9  1  0.877389  0.622950  0.258132  1
  Sb  Sb10  1  0.242247  0.122520  0.622920  1
  Sb  Sb11  1  0.758510  0.381573  0.863976  1
  Sb  Sb12  1  0.364155  0.745361  0.378046  1
  Sb  Sb13  1  0.123230  0.245454  0.134895  1
