# generated using pymatgen
data_Sr4ZnCu(ReN4)2
_symmetry_space_group_name_H-M   'P 1'
_cell_length_a   5.90110500
_cell_length_b   6.29269919
_cell_length_c   6.93581592
_cell_angle_alpha   72.94319958
_cell_angle_beta   90.00000000
_cell_angle_gamma   90.00000000
_symmetry_Int_Tables_number   1
_chemical_formula_structural   Sr4ZnCu(ReN4)2
_chemical_formula_sum   'Sr4 Zn1 Cu1 Re2 N8'
_cell_volume   246.22510142
_cell_formula_units_Z   1
loop_
 _symmetry_equiv_pos_site_id
 _symmetry_equiv_pos_as_xyz
  1  'x, y, z'
loop_
 _atom_site_type_symbol
 _atom_site_label
 _atom_site_symmetry_multiplicity
 _atom_site_fract_x
 _atom_site_fract_y
 _atom_site_fract_z
 _atom_site_occupancy
  Sr  Sr0  1  0.250000  0.257590  0.065596  1
  Sr  Sr1  1  0.750000  0.756475  0.934951  1
  Sr  Sr2  1  0.750000  0.787848  0.429107  1
  Sr  Sr3  1  0.250000  0.192578  0.584042  1
  Zn  Zn4  1  0.750000  0.299657  0.308057  1
  Cu  Cu5  1  0.250000  0.673171  0.648866  1
  Re  Re6  1  0.250000  0.715557  0.203844  1
  Re  Re7  1  0.750000  0.289154  0.802628  1
  N  N8  1  0.500733  0.468347  0.754837  1
  N  N9  1  0.998788  0.533573  0.246699  1
  N  N10  1  0.501212  0.533573  0.246699  1
  N  N11  1  0.999267  0.468347  0.754837  1
  N  N12  1  0.750000  0.113948  0.619090  1
  N  N13  1  0.250000  0.894067  0.379516  1
  N  N14  1  0.750000  0.122421  0.077913  1
  N  N15  1  0.250000  0.893693  0.943317  1
