# generated using pymatgen
data_Nd5Pa(Al3Os)8
_symmetry_space_group_name_H-M   'P 1'
_cell_length_a   8.84648900
_cell_length_b   8.92455262
_cell_length_c   9.65950600
_cell_angle_alpha   90.00000000
_cell_angle_beta   90.00000000
_cell_angle_gamma   119.71107257
_symmetry_Int_Tables_number   1
_chemical_formula_structural   Nd5Pa(Al3Os)8
_chemical_formula_sum   'Nd5 Pa1 Al24 Os8'
_cell_volume   662.36902056
_cell_formula_units_Z   1
loop_
 _symmetry_equiv_pos_site_id
 _symmetry_equiv_pos_as_xyz
  1  'x, y, z'
loop_
 _atom_site_type_symbol
 _atom_site_label
 _atom_site_symmetry_multiplicity
 _atom_site_fract_x
 _atom_site_fract_y
 _atom_site_fract_z
 _atom_site_occupancy
  Nd  Nd0  1  0.808000  0.615998  0.750000  1
  Nd  Nd1  1  0.618474  0.808916  0.250000  1
  Nd  Nd2  1  0.382548  0.188417  0.750000  1
  Nd  Nd3  1  0.190440  0.808916  0.250000  1
  Nd  Nd4  1  0.805870  0.188417  0.750000  1
  Pa  Pa5  1  0.199397  0.398796  0.250000  1
  Al  Al6  1  0.336076  0.672153  0.014634  1
  Al  Al7  1  0.666834  0.333666  0.985221  1
  Al  Al8  1  0.666834  0.333666  0.514779  1
  Al  Al9  1  0.336076  0.672153  0.485366  1
  Al  Al10  1  0.162766  0.325532  0.572765  1
  Al  Al11  1  0.835911  0.671822  0.426193  1
  Al  Al12  1  0.671497  0.834434  0.573220  1
  Al  Al13  1  0.835911  0.671822  0.073807  1
  Al  Al14  1  0.325961  0.163466  0.424039  1
  Al  Al15  1  0.162766  0.325532  0.927235  1
  Al  Al16  1  0.162937  0.834434  0.573220  1
  Al  Al17  1  0.325961  0.163466  0.075961  1
  Al  Al18  1  0.837504  0.163466  0.424039  1
  Al  Al19  1  0.671497  0.834434  0.926780  1
  Al  Al20  1  0.837504  0.163466  0.075961  1
  Al  Al21  1  0.162937  0.834434  0.926780  1
  Al  Al22  1  0.561448  0.122896  0.250000  1
  Al  Al23  1  0.436552  0.873104  0.750000  1
  Al  Al24  1  0.873089  0.437520  0.250000  1
  Al  Al25  1  0.122541  0.559359  0.750000  1
  Al  Al26  1  0.564431  0.437520  0.250000  1
  Al  Al27  1  0.436818  0.559359  0.750000  1
  Al  Al28  1  0.007851  0.015702  0.250000  1
  Al  Al29  1  0.998272  0.996544  0.750000  1
  Os  Os30  1  0.500675  0.001349  0.999546  1
  Os  Os31  1  0.004286  0.498234  0.006075  1
  Os  Os32  1  0.500675  0.001349  0.500454  1
  Os  Os33  1  0.493947  0.498234  0.006075  1
  Os  Os34  1  0.004286  0.498234  0.493925  1
  Os  Os35  1  0.493947  0.498234  0.493925  1
  Os  Os36  1  0.998740  0.997480  0.999642  1
  Os  Os37  1  0.998740  0.997480  0.500358  1
