# generated using pymatgen
data_Pr3YHo2(RuI3)2
_symmetry_space_group_name_H-M   'P 1'
_cell_length_a   4.32857200
_cell_length_b   9.00229288
_cell_length_c   12.49916265
_cell_angle_alpha   85.56876907
_cell_angle_beta   90.00000000
_cell_angle_gamma   90.00000000
_symmetry_Int_Tables_number   1
_chemical_formula_structural   Pr3YHo2(RuI3)2
_chemical_formula_sum   'Pr3 Y1 Ho2 Ru2 I6'
_cell_volume   485.59986786
_cell_formula_units_Z   1
loop_
 _symmetry_equiv_pos_site_id
 _symmetry_equiv_pos_as_xyz
  1  'x, y, z'
loop_
 _atom_site_type_symbol
 _atom_site_label
 _atom_site_symmetry_multiplicity
 _atom_site_fract_x
 _atom_site_fract_y
 _atom_site_fract_z
 _atom_site_occupancy
  Pr  Pr0  1  0.750000  0.093912  0.679949  1
  Pr  Pr1  1  0.250000  0.901444  0.318536  1
  Pr  Pr2  1  0.250000  0.272763  0.900519  1
  Y  Y3  1  0.750000  0.734503  0.101017  1
  Ho  Ho4  1  0.750000  0.121581  0.120923  1
  Ho  Ho5  1  0.250000  0.874265  0.881126  1
  Ru  Ru6  1  0.750000  0.053688  0.908235  1
  Ru  Ru7  1  0.250000  0.943723  0.092397  1
  I  I8  1  0.250000  0.357383  0.637411  1
  I  I9  1  0.750000  0.639661  0.356407  1
  I  I10  1  0.750000  0.152431  0.385597  1
  I  I11  1  0.250000  0.844164  0.612904  1
  I  I12  1  0.250000  0.426052  0.135480  1
  I  I13  1  0.750000  0.584432  0.869501  1
