# generated using pymatgen
data_Li3Tb2YHgGe2
_symmetry_space_group_name_H-M   'P 1'
_cell_length_a   7.27000015
_cell_length_b   7.26999981
_cell_length_c   4.23039100
_cell_angle_alpha   90.00000000
_cell_angle_beta   90.00000000
_cell_angle_gamma   119.93545398
_symmetry_Int_Tables_number   1
_chemical_formula_structural   Li3Tb2YHgGe2
_chemical_formula_sum   'Li3 Tb2 Y1 Hg1 Ge2'
_cell_volume   193.75907946
_cell_formula_units_Z   1
loop_
 _symmetry_equiv_pos_site_id
 _symmetry_equiv_pos_as_xyz
  1  'x, y, z'
loop_
 _atom_site_type_symbol
 _atom_site_label
 _atom_site_symmetry_multiplicity
 _atom_site_fract_x
 _atom_site_fract_y
 _atom_site_fract_z
 _atom_site_occupancy
  Li  Li0  1  0.247676  0.000075  0.500000  1
  Li  Li1  1  0.752260  0.752260  0.500000  1
  Li  Li2  1  0.000075  0.247676  0.500000  1
  Tb  Tb3  1  0.000085  0.568898  0.000000  1
  Tb  Tb4  1  0.568898  0.000085  0.000000  1
  Y  Y5  1  0.431293  0.431293  0.000000  1
  Hg  Hg6  1  0.999902  0.999902  0.000000  1
  Ge  Ge7  1  0.333261  0.666549  0.500000  1
  Ge  Ge8  1  0.666549  0.333261  0.500000  1
