# generated using pymatgen
data_Pr8Y12AgSn15
_symmetry_space_group_name_H-M   'P 1'
_cell_length_a   8.09698840
_cell_length_b   8.37264639
_cell_length_c   15.70133000
_cell_angle_alpha   90.00000000
_cell_angle_beta   90.00000000
_cell_angle_gamma   90.19066993
_symmetry_Int_Tables_number   1
_chemical_formula_structural   Pr8Y12AgSn15
_chemical_formula_sum   'Pr8 Y12 Ag1 Sn15'
_cell_volume   1064.43783643
_cell_formula_units_Z   1
loop_
 _symmetry_equiv_pos_site_id
 _symmetry_equiv_pos_as_xyz
  1  'x, y, z'
loop_
 _atom_site_type_symbol
 _atom_site_label
 _atom_site_symmetry_multiplicity
 _atom_site_fract_x
 _atom_site_fract_y
 _atom_site_fract_z
 _atom_site_occupancy
  Pr  Pr0  1  0.509160  0.312389  0.908749  1
  Pr  Pr1  1  0.010692  0.180367  0.597313  1
  Pr  Pr2  1  0.489705  0.679387  0.403570  1
  Pr  Pr3  1  0.987032  0.821692  0.096907  1
  Pr  Pr4  1  0.489705  0.679387  0.096430  1
  Pr  Pr5  1  0.987032  0.821692  0.403093  1
  Pr  Pr6  1  0.509160  0.312389  0.591251  1
  Pr  Pr7  1  0.010692  0.180367  0.902687  1
  Y  Y8  1  0.355385  0.837354  0.876867  1
  Y  Y9  1  0.850914  0.663729  0.623788  1
  Y  Y10  1  0.646311  0.162530  0.376581  1
  Y  Y11  1  0.146991  0.336727  0.124274  1
  Y  Y12  1  0.646311  0.162530  0.123419  1
  Y  Y13  1  0.146991  0.336727  0.375726  1
  Y  Y14  1  0.355385  0.837354  0.623133  1
  Y  Y15  1  0.850914  0.663729  0.876212  1
  Y  Y16  1  0.196047  0.507251  0.750000  1
  Y  Y17  1  0.687893  0.999585  0.750000  1
  Y  Y18  1  0.811455  0.499415  0.250000  1
  Y  Y19  1  0.310520  0.999746  0.250000  1
  Ag  Ag20  1  0.556814  0.622883  0.750000  1
  Sn  Sn21  1  0.303664  0.040264  0.041851  1
  Sn  Sn22  1  0.811135  0.458784  0.458913  1
  Sn  Sn23  1  0.695288  0.959495  0.542509  1
  Sn  Sn24  1  0.195371  0.538390  0.955909  1
  Sn  Sn25  1  0.695288  0.959495  0.957491  1
  Sn  Sn26  1  0.195371  0.538390  0.544091  1
  Sn  Sn27  1  0.303664  0.040264  0.458149  1
  Sn  Sn28  1  0.811135  0.458784  0.041087  1
  Sn  Sn29  1  0.054378  0.879596  0.750000  1
  Sn  Sn30  1  0.448768  0.375684  0.250000  1
  Sn  Sn31  1  0.946380  0.123573  0.250000  1
  Sn  Sn32  1  0.317504  0.143799  0.750000  1
  Sn  Sn33  1  0.807214  0.365457  0.750000  1
  Sn  Sn34  1  0.679202  0.856719  0.250000  1
  Sn  Sn35  1  0.180530  0.644070  0.250000  1
