# generated using pymatgen
data_La2Pr3Tm3(CdIr)2
_symmetry_space_group_name_H-M   'P 1'
_cell_length_a   9.84969467
_cell_length_b   9.84969369
_cell_length_c   9.84969300
_cell_angle_alpha   59.99999895
_cell_angle_beta   60.00000226
_cell_angle_gamma   59.99999820
_symmetry_Int_Tables_number   1
_chemical_formula_structural   La2Pr3Tm3(CdIr)2
_chemical_formula_sum   'La4 Pr6 Tm6 Cd4 Ir4'
_cell_volume   675.69886201
_cell_formula_units_Z   2
loop_
 _symmetry_equiv_pos_site_id
 _symmetry_equiv_pos_as_xyz
  1  'x, y, z'
loop_
 _atom_site_type_symbol
 _atom_site_label
 _atom_site_symmetry_multiplicity
 _atom_site_fract_x
 _atom_site_fract_y
 _atom_site_fract_z
 _atom_site_occupancy
  La  La0  1  0.349772  0.349772  0.349772  1
  La  La1  1  0.349772  0.349772  0.950682  1
  La  La2  1  0.349772  0.950682  0.349772  1
  La  La3  1  0.950682  0.349772  0.349772  1
  Pr  Pr4  1  0.939623  0.560377  0.560377  1
  Pr  Pr5  1  0.560377  0.939623  0.939623  1
  Pr  Pr6  1  0.560377  0.939623  0.560377  1
  Pr  Pr7  1  0.939623  0.560377  0.939623  1
  Pr  Pr8  1  0.560377  0.560377  0.939623  1
  Pr  Pr9  1  0.939623  0.939623  0.560377  1
  Tm  Tm10  1  0.816881  0.183119  0.183119  1
  Tm  Tm11  1  0.183119  0.816881  0.816881  1
  Tm  Tm12  1  0.183119  0.816881  0.183119  1
  Tm  Tm13  1  0.816881  0.183119  0.816881  1
  Tm  Tm14  1  0.183119  0.183119  0.816881  1
  Tm  Tm15  1  0.816881  0.816881  0.183119  1
  Cd  Cd16  1  0.579573  0.579573  0.579573  1
  Cd  Cd17  1  0.579573  0.579573  0.261279  1
  Cd  Cd18  1  0.579573  0.261279  0.579573  1
  Cd  Cd19  1  0.261279  0.579573  0.579573  1
  Ir  Ir20  1  0.138913  0.138913  0.138913  1
  Ir  Ir21  1  0.138913  0.138913  0.583261  1
  Ir  Ir22  1  0.138913  0.583261  0.138913  1
  Ir  Ir23  1  0.583261  0.138913  0.138913  1
