# generated using pymatgen
data_Sm2Dy2TmSn4
_symmetry_space_group_name_H-M   'P 1'
_cell_length_a   8.07721600
_cell_length_b   8.23460000
_cell_length_c   15.56220700
_cell_angle_alpha   90.00000000
_cell_angle_beta   90.00000000
_cell_angle_gamma   90.00000000
_symmetry_Int_Tables_number   1
_chemical_formula_structural   Sm2Dy2TmSn4
_chemical_formula_sum   'Sm8 Dy8 Tm4 Sn16'
_cell_volume   1035.08351652
_cell_formula_units_Z   4
loop_
 _symmetry_equiv_pos_site_id
 _symmetry_equiv_pos_as_xyz
  1  'x, y, z'
loop_
 _atom_site_type_symbol
 _atom_site_label
 _atom_site_symmetry_multiplicity
 _atom_site_fract_x
 _atom_site_fract_y
 _atom_site_fract_z
 _atom_site_occupancy
  Sm  Sm0  1  0.519315  0.320775  0.902316  1
  Sm  Sm1  1  0.019315  0.179225  0.597684  1
  Sm  Sm2  1  0.480685  0.679225  0.402316  1
  Sm  Sm3  1  0.980685  0.820775  0.097684  1
  Sm  Sm4  1  0.480685  0.679225  0.097684  1
  Sm  Sm5  1  0.980685  0.820775  0.402316  1
  Sm  Sm6  1  0.519315  0.320775  0.597684  1
  Sm  Sm7  1  0.019315  0.179225  0.902316  1
  Dy  Dy8  1  0.365979  0.835529  0.877703  1
  Dy  Dy9  1  0.865979  0.664471  0.622297  1
  Dy  Dy10  1  0.634021  0.164471  0.377703  1
  Dy  Dy11  1  0.134021  0.335529  0.122297  1
  Dy  Dy12  1  0.634021  0.164471  0.122297  1
  Dy  Dy13  1  0.134021  0.335529  0.377703  1
  Dy  Dy14  1  0.365979  0.835529  0.622297  1
  Dy  Dy15  1  0.865979  0.664471  0.877703  1
  Tm  Tm16  1  0.197614  0.503739  0.750000  1
  Tm  Tm17  1  0.697614  0.996261  0.750000  1
  Tm  Tm18  1  0.802386  0.496261  0.250000  1
  Tm  Tm19  1  0.302386  0.003739  0.250000  1
  Sn  Sn20  1  0.296773  0.037616  0.042090  1
  Sn  Sn21  1  0.796773  0.462384  0.457910  1
  Sn  Sn22  1  0.703227  0.962384  0.542090  1
  Sn  Sn23  1  0.203227  0.537616  0.957910  1
  Sn  Sn24  1  0.703227  0.962384  0.957910  1
  Sn  Sn25  1  0.203227  0.537616  0.542090  1
  Sn  Sn26  1  0.296773  0.037616  0.457910  1
  Sn  Sn27  1  0.796773  0.462384  0.042090  1
  Sn  Sn28  1  0.563853  0.621956  0.750000  1
  Sn  Sn29  1  0.063853  0.878044  0.750000  1
  Sn  Sn30  1  0.436147  0.378044  0.250000  1
  Sn  Sn31  1  0.936147  0.121956  0.250000  1
  Sn  Sn32  1  0.327482  0.144856  0.750000  1
  Sn  Sn33  1  0.827482  0.355144  0.750000  1
  Sn  Sn34  1  0.672518  0.855144  0.250000  1
  Sn  Sn35  1  0.172518  0.644856  0.250000  1
