# generated using pymatgen
data_AcFe3CoAs12
_symmetry_space_group_name_H-M   'P 1'
_cell_length_a   7.25905979
_cell_length_b   7.25905985
_cell_length_c   7.25906033
_cell_angle_alpha   109.44991036
_cell_angle_beta   109.44991295
_cell_angle_gamma   109.44989846
_symmetry_Int_Tables_number   1
_chemical_formula_structural   AcFe3CoAs12
_chemical_formula_sum   'Ac1 Fe3 Co1 As12'
_cell_volume   294.68735281
_cell_formula_units_Z   1
loop_
 _symmetry_equiv_pos_site_id
 _symmetry_equiv_pos_as_xyz
  1  'x, y, z'
loop_
 _atom_site_type_symbol
 _atom_site_label
 _atom_site_symmetry_multiplicity
 _atom_site_fract_x
 _atom_site_fract_y
 _atom_site_fract_z
 _atom_site_occupancy
  Ac  Ac0  1  0.000000  0.000000  0.000000  1
  Fe  Fe1  1  0.500000  0.000000  0.000000  1
  Fe  Fe2  1  0.000000  0.500000  0.000000  1
  Fe  Fe3  1  0.000000  0.000000  0.500000  1
  Co  Co4  1  0.500000  0.500000  0.500000  1
  As  As5  1  0.845224  0.655569  0.497689  1
  As  As6  1  0.154776  0.344431  0.502311  1
  As  As7  1  0.157814  0.655534  0.812901  1
  As  As8  1  0.842186  0.344466  0.187099  1
  As  As9  1  0.655569  0.497689  0.845224  1
  As  As10  1  0.344431  0.502311  0.154776  1
  As  As11  1  0.655534  0.812901  0.157814  1
  As  As12  1  0.344466  0.187099  0.842186  1
  As  As13  1  0.497689  0.845224  0.655569  1
  As  As14  1  0.502311  0.154776  0.344431  1
  As  As15  1  0.187099  0.842186  0.344466  1
  As  As16  1  0.812901  0.157814  0.655534  1
