# generated using pymatgen
data_SrErIr2O7
_symmetry_space_group_name_H-M   'P 1'
_cell_length_a   7.30751251
_cell_length_b   7.33359991
_cell_length_c   7.33359991
_cell_angle_alpha   59.83405229
_cell_angle_beta   60.11760062
_cell_angle_gamma   60.11760423
_symmetry_Int_Tables_number   1
_chemical_formula_structural   SrErIr2O7
_chemical_formula_sum   'Sr2 Er2 Ir4 O14'
_cell_volume   278.04119410
_cell_formula_units_Z   2
loop_
 _symmetry_equiv_pos_site_id
 _symmetry_equiv_pos_as_xyz
  1  'x, y, z'
loop_
 _atom_site_type_symbol
 _atom_site_label
 _atom_site_symmetry_multiplicity
 _atom_site_fract_x
 _atom_site_fract_y
 _atom_site_fract_z
 _atom_site_occupancy
  Sr  Sr0  1  0.125000  0.625000  0.125000  1
  Sr  Sr1  1  0.125000  0.125000  0.625000  1
  Er  Er2  1  0.625000  0.125000  0.125000  1
  Er  Er3  1  0.125000  0.125000  0.125000  1
  Ir  Ir4  1  0.125000  0.625000  0.625000  1
  Ir  Ir5  1  0.625000  0.125000  0.625000  1
  Ir  Ir6  1  0.625000  0.625000  0.125000  1
  Ir  Ir7  1  0.625000  0.625000  0.625000  1
  O  O8  1  0.689170  0.718175  0.295082  1
  O  O9  1  0.297572  0.295082  0.718175  1
  O  O10  1  0.689170  0.295082  0.718175  1
  O  O11  1  0.297572  0.718175  0.295082  1
  O  O12  1  0.301770  0.698230  0.698230  1
  O  O13  1  0.703405  0.296595  0.296595  1
  O  O14  1  0.560830  0.531825  0.954918  1
  O  O15  1  0.952428  0.954918  0.531825  1
  O  O16  1  0.560830  0.954918  0.531825  1
  O  O17  1  0.952428  0.531825  0.954918  1
  O  O18  1  0.948230  0.551770  0.551770  1
  O  O19  1  0.546595  0.953405  0.953405  1
  O  O20  1  0.268156  0.231844  0.231844  1
  O  O21  1  0.981844  0.018156  0.018156  1
