# generated using pymatgen
data_Yb6Eu3DyGe8
_symmetry_space_group_name_H-M   'P 1'
_cell_length_a   7.62918200
_cell_length_b   8.00635200
_cell_length_c   15.53891000
_cell_angle_alpha   90.00092316
_cell_angle_beta   90.00000000
_cell_angle_gamma   90.00000000
_symmetry_Int_Tables_number   1
_chemical_formula_structural   Yb6Eu3DyGe8
_chemical_formula_sum   'Yb12 Eu6 Dy2 Ge16'
_cell_volume   949.14640412
_cell_formula_units_Z   2
loop_
 _symmetry_equiv_pos_site_id
 _symmetry_equiv_pos_as_xyz
  1  'x, y, z'
loop_
 _atom_site_type_symbol
 _atom_site_label
 _atom_site_symmetry_multiplicity
 _atom_site_fract_x
 _atom_site_fract_y
 _atom_site_fract_z
 _atom_site_occupancy
  Yb  Yb0  1  0.970924  0.817110  0.403910  1
  Yb  Yb1  1  0.470300  0.683133  0.096541  1
  Yb  Yb2  1  0.526868  0.315319  0.596529  1
  Yb  Yb3  1  0.027777  0.185395  0.902842  1
  Yb  Yb4  1  0.028155  0.183860  0.599180  1
  Yb  Yb5  1  0.528687  0.315783  0.900456  1
  Yb  Yb6  1  0.470522  0.684312  0.403954  1
  Yb  Yb7  1  0.969857  0.815516  0.096739  1
  Yb  Yb8  1  0.354250  0.015289  0.749665  1
  Yb  Yb9  1  0.854555  0.484661  0.750194  1
  Yb  Yb10  1  0.143127  0.512842  0.250266  1
  Yb  Yb11  1  0.643017  0.987360  0.250146  1
  Eu  Eu12  1  0.315709  0.171843  0.120036  1
  Eu  Eu13  1  0.816458  0.328167  0.379977  1
  Eu  Eu14  1  0.185331  0.673868  0.877295  1
  Eu  Eu15  1  0.684619  0.826025  0.621980  1
  Eu  Eu16  1  0.313580  0.173449  0.379132  1
  Eu  Eu17  1  0.813788  0.326757  0.120647  1
  Dy  Dy18  1  0.186880  0.671927  0.624628  1
  Dy  Dy19  1  0.686829  0.828113  0.875377  1
  Ge  Ge20  1  0.862842  0.531285  0.544366  1
  Ge  Ge21  1  0.362728  0.968361  0.955575  1
  Ge  Ge22  1  0.641634  0.027063  0.459481  1
  Ge  Ge23  1  0.141899  0.473165  0.040382  1
  Ge  Ge24  1  0.151034  0.477016  0.462914  1
  Ge  Ge25  1  0.650495  0.022458  0.037066  1
  Ge  Ge26  1  0.346729  0.963581  0.542057  1
  Ge  Ge27  1  0.847354  0.536955  0.957927  1
  Ge  Ge28  1  0.982842  0.891290  0.750990  1
  Ge  Ge29  1  0.483098  0.608700  0.749139  1
  Ge  Ge30  1  0.518162  0.403840  0.250243  1
  Ge  Ge31  1  0.017932  0.095582  0.249983  1
  Ge  Ge32  1  0.245523  0.378009  0.747483  1
  Ge  Ge33  1  0.745796  0.121847  0.752659  1
  Ge  Ge34  1  0.255406  0.872275  0.249872  1
  Ge  Ge35  1  0.755289  0.627844  0.250368  1
