# generated using pymatgen
data_Gd2Cu9Ru
_symmetry_space_group_name_H-M   'P 1'
_cell_length_a   5.21989200
_cell_length_b   5.21989108
_cell_length_c   8.17681300
_cell_angle_alpha   90.00000000
_cell_angle_beta   90.00000000
_cell_angle_gamma   122.72081202
_symmetry_Int_Tables_number   1
_chemical_formula_structural   Gd2Cu9Ru
_chemical_formula_sum   'Gd2 Cu9 Ru1'
_cell_volume   187.44134542
_cell_formula_units_Z   1
loop_
 _symmetry_equiv_pos_site_id
 _symmetry_equiv_pos_as_xyz
  1  'x, y, z'
loop_
 _atom_site_type_symbol
 _atom_site_label
 _atom_site_symmetry_multiplicity
 _atom_site_fract_x
 _atom_site_fract_y
 _atom_site_fract_z
 _atom_site_occupancy
  Gd  Gd0  1  0.000000  0.000000  0.728881  1
  Gd  Gd1  1  0.000000  0.000000  0.271119  1
  Cu  Cu2  1  0.670815  0.329185  0.752907  1
  Cu  Cu3  1  0.670815  0.329185  0.247093  1
  Cu  Cu4  1  0.500000  0.500000  0.000000  1
  Cu  Cu5  1  0.329185  0.670815  0.752907  1
  Cu  Cu6  1  0.500000  0.000000  0.500000  1
  Cu  Cu7  1  0.000000  0.500000  0.000000  1
  Cu  Cu8  1  0.500000  0.000000  0.000000  1
  Cu  Cu9  1  0.329185  0.670815  0.247093  1
  Cu  Cu10  1  0.000000  0.500000  0.500000  1
  Ru  Ru11  1  0.500000  0.500000  0.500000  1
