# generated using pymatgen
data_HoEr3OsBr4
_symmetry_space_group_name_H-M   'P 1'
_cell_length_a   8.94095111
_cell_length_b   8.91128310
_cell_length_c   6.51362748
_cell_angle_alpha   89.59369088
_cell_angle_beta   89.35706102
_cell_angle_gamma   89.26923314
_symmetry_Int_Tables_number   1
_chemical_formula_structural   HoEr3OsBr4
_chemical_formula_sum   'Ho2 Er6 Os2 Br8'
_cell_volume   518.88811459
_cell_formula_units_Z   2
loop_
 _symmetry_equiv_pos_site_id
 _symmetry_equiv_pos_as_xyz
  1  'x, y, z'
loop_
 _atom_site_type_symbol
 _atom_site_label
 _atom_site_symmetry_multiplicity
 _atom_site_fract_x
 _atom_site_fract_y
 _atom_site_fract_z
 _atom_site_occupancy
  Ho  Ho0  1  0.249624  0.900777  0.008914  1
  Ho  Ho1  1  0.750376  0.099223  0.991086  1
  Er  Er2  1  0.098239  0.752113  0.488936  1
  Er  Er3  1  0.901761  0.247887  0.511064  1
  Er  Er4  1  0.753786  0.902949  0.508861  1
  Er  Er5  1  0.246214  0.097051  0.491139  1
  Er  Er6  1  0.096029  0.246987  0.991632  1
  Er  Er7  1  0.903971  0.753013  0.008368  1
  Os  Os8  1  0.995281  0.004861  0.249868  1
  Os  Os9  1  0.004719  0.995139  0.750132  1
  Br  Br10  1  0.418847  0.817253  0.411526  1
  Br  Br11  1  0.581153  0.182747  0.588474  1
  Br  Br12  1  0.182150  0.579749  0.091747  1
  Br  Br13  1  0.817850  0.420251  0.908253  1
  Br  Br14  1  0.412454  0.192083  0.092580  1
  Br  Br15  1  0.587546  0.807917  0.907420  1
  Br  Br16  1  0.810882  0.585628  0.406614  1
  Br  Br17  1  0.189118  0.414372  0.593386  1
