# generated using pymatgen
data_La3Ho5(CdIr)2
_symmetry_space_group_name_H-M   'P 1'
_cell_length_a   9.78570961
_cell_length_b   9.78571015
_cell_length_c   9.78571000
_cell_angle_alpha   60.00000052
_cell_angle_beta   59.99999867
_cell_angle_gamma   60.00000097
_symmetry_Int_Tables_number   1
_chemical_formula_structural   La3Ho5(CdIr)2
_chemical_formula_sum   'La6 Ho10 Cd4 Ir4'
_cell_volume   662.61614873
_cell_formula_units_Z   2
loop_
 _symmetry_equiv_pos_site_id
 _symmetry_equiv_pos_as_xyz
  1  'x, y, z'
loop_
 _atom_site_type_symbol
 _atom_site_label
 _atom_site_symmetry_multiplicity
 _atom_site_fract_x
 _atom_site_fract_y
 _atom_site_fract_z
 _atom_site_occupancy
  La  La0  1  0.193171  0.806829  0.806829  1
  La  La1  1  0.806829  0.193171  0.193171  1
  La  La2  1  0.806829  0.193171  0.806829  1
  La  La3  1  0.193171  0.806829  0.193171  1
  La  La4  1  0.806829  0.806829  0.193171  1
  La  La5  1  0.193171  0.193171  0.806829  1
  Ho  Ho6  1  0.596663  0.596663  0.596663  1
  Ho  Ho7  1  0.596663  0.596663  0.210010  1
  Ho  Ho8  1  0.596663  0.210010  0.596663  1
  Ho  Ho9  1  0.210010  0.596663  0.596663  1
  Ho  Ho10  1  0.063248  0.436752  0.436752  1
  Ho  Ho11  1  0.436752  0.063248  0.063248  1
  Ho  Ho12  1  0.436752  0.063248  0.436752  1
  Ho  Ho13  1  0.063248  0.436752  0.063248  1
  Ho  Ho14  1  0.436752  0.436752  0.063248  1
  Ho  Ho15  1  0.063248  0.063248  0.436752  1
  Cd  Cd16  1  0.828697  0.828697  0.828697  1
  Cd  Cd17  1  0.828697  0.828697  0.513909  1
  Cd  Cd18  1  0.828697  0.513909  0.828697  1
  Cd  Cd19  1  0.513909  0.828697  0.828697  1
  Ir  Ir20  1  0.391059  0.391059  0.391059  1
  Ir  Ir21  1  0.391059  0.391059  0.826824  1
  Ir  Ir22  1  0.391059  0.826824  0.391059  1
  Ir  Ir23  1  0.826824  0.391059  0.391059  1
