# generated using pymatgen
data_Ho6Sc4In8IrRh3
_symmetry_space_group_name_H-M   'P 1'
_cell_length_a   3.54092000
_cell_length_b   7.88135305
_cell_length_c   17.92388740
_cell_angle_alpha   89.94076046
_cell_angle_beta   90.00000000
_cell_angle_gamma   90.00000000
_symmetry_Int_Tables_number   1
_chemical_formula_structural   Ho6Sc4In8IrRh3
_chemical_formula_sum   'Ho6 Sc4 In8 Ir1 Rh3'
_cell_volume   500.20597161
_cell_formula_units_Z   1
loop_
 _symmetry_equiv_pos_site_id
 _symmetry_equiv_pos_as_xyz
  1  'x, y, z'
loop_
 _atom_site_type_symbol
 _atom_site_label
 _atom_site_symmetry_multiplicity
 _atom_site_fract_x
 _atom_site_fract_y
 _atom_site_fract_z
 _atom_site_occupancy
  Ho  Ho0  1  0.000000  0.999830  0.999779  1
  Ho  Ho1  1  0.000000  0.499746  0.500037  1
  Ho  Ho2  1  0.000000  0.749800  0.781207  1
  Ho  Ho3  1  0.000000  0.251714  0.218405  1
  Ho  Ho4  1  0.000000  0.247256  0.718126  1
  Ho  Ho5  1  0.000000  0.751804  0.281654  1
  Sc  Sc6  1  0.000000  0.877933  0.588520  1
  Sc  Sc7  1  0.000000  0.121693  0.411466  1
  Sc  Sc8  1  0.000000  0.378041  0.911317  1
  Sc  Sc9  1  0.000000  0.622019  0.088656  1
  In  In10  1  0.500000  0.808652  0.437924  1
  In  In11  1  0.500000  0.191370  0.561730  1
  In  In12  1  0.500000  0.308768  0.061985  1
  In  In13  1  0.500000  0.690880  0.938220  1
  In  In14  1  0.500000  0.925957  0.149512  1
  In  In15  1  0.500000  0.074561  0.850837  1
  In  In16  1  0.500000  0.425878  0.350576  1
  In  In17  1  0.500000  0.573979  0.649398  1
  Ir  Ir18  1  0.500000  0.963453  0.692669  1
  Rh  Rh19  1  0.500000  0.037082  0.307694  1
  Rh  Rh20  1  0.500000  0.462679  0.808061  1
  Rh  Rh21  1  0.500000  0.536904  0.192226  1
