# generated using pymatgen
data_Y2ErCd3Si2Au
_symmetry_space_group_name_H-M   'P 1'
_cell_length_a   7.26076000
_cell_length_b   7.25859884
_cell_length_c   4.31710400
_cell_angle_alpha   90.00000000
_cell_angle_beta   90.00000000
_cell_angle_gamma   120.00984956
_symmetry_Int_Tables_number   1
_chemical_formula_structural   Y2ErCd3Si2Au
_chemical_formula_sum   'Y2 Er1 Cd3 Si2 Au1'
_cell_volume   197.02208335
_cell_formula_units_Z   1
loop_
 _symmetry_equiv_pos_site_id
 _symmetry_equiv_pos_as_xyz
  1  'x, y, z'
loop_
 _atom_site_type_symbol
 _atom_site_label
 _atom_site_symmetry_multiplicity
 _atom_site_fract_x
 _atom_site_fract_y
 _atom_site_fract_z
 _atom_site_occupancy
  Y  Y0  1  0.000204  0.583502  0.000000  1
  Y  Y1  1  0.416703  0.416498  0.000000  1
  Er  Er2  1  0.584004  0.000000  0.000000  1
  Cd  Cd3  1  0.256135  0.000000  0.500000  1
  Cd  Cd4  1  0.999656  0.255489  0.500000  1
  Cd  Cd5  1  0.744167  0.744511  0.500000  1
  Si  Si6  1  0.334004  0.667672  0.500000  1
  Si  Si7  1  0.666333  0.332328  0.500000  1
  Au  Au8  1  0.998794  0.000000  0.000000  1
