# generated using pymatgen
data_La6CoCl10
_symmetry_space_group_name_H-M   'P 1'
_cell_length_a   7.59352443
_cell_length_b   9.19054808
_cell_length_c   9.40831112
_cell_angle_alpha   110.62152202
_cell_angle_beta   108.07645766
_cell_angle_gamma   96.44014535
_symmetry_Int_Tables_number   1
_chemical_formula_structural   La6CoCl10
_chemical_formula_sum   'La6 Co1 Cl10'
_cell_volume   565.80924433
_cell_formula_units_Z   1
loop_
 _symmetry_equiv_pos_site_id
 _symmetry_equiv_pos_as_xyz
  1  'x, y, z'
loop_
 _atom_site_type_symbol
 _atom_site_label
 _atom_site_symmetry_multiplicity
 _atom_site_fract_x
 _atom_site_fract_y
 _atom_site_fract_z
 _atom_site_occupancy
  La  La0  1  0.867190  0.236856  0.948810  1
  La  La1  1  0.132810  0.763144  0.051190  1
  La  La2  1  0.021468  0.888061  0.682709  1
  La  La3  1  0.978532  0.111939  0.317291  1
  La  La4  1  0.378097  0.203503  0.152825  1
  La  La5  1  0.621903  0.796497  0.847175  1
  Co  Co6  1  0.000000  0.000000  0.000000  1
  Cl  Cl7  1  0.907903  0.160399  0.632616  1
  Cl  Cl8  1  0.092097  0.839601  0.367384  1
  Cl  Cl9  1  0.448479  0.072302  0.831326  1
  Cl  Cl10  1  0.551521  0.927698  0.168674  1
  Cl  Cl11  1  0.198504  0.645598  0.743102  1
  Cl  Cl12  1  0.801496  0.354402  0.256898  1
  Cl  Cl13  1  0.242642  0.455043  0.079511  1
  Cl  Cl14  1  0.757358  0.544957  0.920489  1
  Cl  Cl15  1  0.636330  0.717909  0.536054  1
  Cl  Cl16  1  0.363670  0.282091  0.463946  1
