# generated using pymatgen
data_Cs6In3AsBr18
_symmetry_space_group_name_H-M   'P 1'
_cell_length_a   7.92188600
_cell_length_b   7.92188528
_cell_length_c   20.08859000
_cell_angle_alpha   90.00001238
_cell_angle_beta   89.99991667
_cell_angle_gamma   119.99994790
_symmetry_Int_Tables_number   1
_chemical_formula_structural   Cs6In3AsBr18
_chemical_formula_sum   'Cs6 In3 As1 Br18'
_cell_volume   1091.78582666
_cell_formula_units_Z   1
loop_
 _symmetry_equiv_pos_site_id
 _symmetry_equiv_pos_as_xyz
  1  'x, y, z'
loop_
 _atom_site_type_symbol
 _atom_site_label
 _atom_site_symmetry_multiplicity
 _atom_site_fract_x
 _atom_site_fract_y
 _atom_site_fract_z
 _atom_site_occupancy
  Cs  Cs0  1  0.333333  0.666667  0.073397  1
  Cs  Cs1  1  0.666666  0.333333  0.926930  1
  Cs  Cs2  1  0.666667  0.333333  0.573685  1
  Cs  Cs3  1  0.333333  0.666667  0.433416  1
  Cs  Cs4  1  0.000000  0.000000  0.250852  1
  Cs  Cs5  1  0.000000  0.000000  0.744383  1
  In  In6  1  0.333333  0.666667  0.659214  1
  In  In7  1  0.666667  0.333333  0.344506  1
  In  In8  1  0.666667  0.333333  0.155408  1
  As  As9  1  0.333333  0.666667  0.843442  1
  Br  Br10  1  0.169277  0.338555  0.590806  1
  Br  Br11  1  0.831915  0.663831  0.409519  1
  Br  Br12  1  0.661446  0.830723  0.590806  1
  Br  Br13  1  0.831608  0.663216  0.088046  1
  Br  Br14  1  0.336169  0.168085  0.409519  1
  Br  Br15  1  0.177754  0.355508  0.911171  1
  Br  Br16  1  0.169278  0.830722  0.590807  1
  Br  Br17  1  0.336785  0.168393  0.088046  1
  Br  Br18  1  0.831916  0.168085  0.409519  1
  Br  Br19  1  0.644492  0.822246  0.911170  1
  Br  Br20  1  0.831608  0.168392  0.088046  1
  Br  Br21  1  0.177754  0.822246  0.911171  1
  Br  Br22  1  0.512224  0.024449  0.249010  1
  Br  Br23  1  0.491697  0.983397  0.749703  1
  Br  Br24  1  0.975552  0.487776  0.249010  1
  Br  Br25  1  0.016603  0.508303  0.749703  1
  Br  Br26  1  0.512224  0.487776  0.249010  1
  Br  Br27  1  0.491698  0.508300  0.749702  1
