# generated using pymatgen
data_Ce3P2S
_symmetry_space_group_name_H-M   'P 1'
_cell_length_a   7.05692443
_cell_length_b   7.05692547
_cell_length_c   7.05692525
_cell_angle_alpha   146.40275368
_cell_angle_beta   131.82239125
_cell_angle_gamma   60.01511797
_symmetry_Int_Tables_number   1
_chemical_formula_structural   Ce3P2S
_chemical_formula_sum   'Ce3 P2 S1'
_cell_volume   143.59427529
_cell_formula_units_Z   1
loop_
 _symmetry_equiv_pos_site_id
 _symmetry_equiv_pos_as_xyz
  1  'x, y, z'
loop_
 _atom_site_type_symbol
 _atom_site_label
 _atom_site_symmetry_multiplicity
 _atom_site_fract_x
 _atom_site_fract_y
 _atom_site_fract_z
 _atom_site_occupancy
  Ce  Ce0  1  0.500000  0.000000  0.500000  1
  Ce  Ce1  1  0.167744  0.667744  0.500000  1
  Ce  Ce2  1  0.832256  0.332256  0.500000  1
  P  P3  1  0.665998  0.665998  0.000000  1
  P  P4  1  0.334002  0.334002  0.000000  1
  S  S5  1  0.000000  0.000000  0.000000  1
