# generated using pymatgen
data_Dy5Ho11Mg2(CdPt2)2
_symmetry_space_group_name_H-M   'P 1'
_cell_length_a   9.69914941
_cell_length_b   9.69729296
_cell_length_c   9.71303005
_cell_angle_alpha   59.95374738
_cell_angle_beta   59.94681090
_cell_angle_gamma   59.85327555
_symmetry_Int_Tables_number   1
_chemical_formula_structural   Dy5Ho11Mg2(CdPt2)2
_chemical_formula_sum   'Dy5 Ho11 Mg2 Cd2 Pt4'
_cell_volume   644.78352825
_cell_formula_units_Z   1
loop_
 _symmetry_equiv_pos_site_id
 _symmetry_equiv_pos_as_xyz
  1  'x, y, z'
loop_
 _atom_site_type_symbol
 _atom_site_label
 _atom_site_symmetry_multiplicity
 _atom_site_fract_x
 _atom_site_fract_y
 _atom_site_fract_z
 _atom_site_occupancy
  Dy  Dy0  1  0.564988  0.936949  0.933341  1
  Dy  Dy1  1  0.565137  0.936789  0.564743  1
  Dy  Dy2  1  0.936930  0.564987  0.933166  1
  Dy  Dy3  1  0.567089  0.566927  0.932921  1
  Dy  Dy4  1  0.936491  0.936311  0.563528  1
  Ho  Ho5  1  0.350955  0.351083  0.349898  1
  Ho  Ho6  1  0.351043  0.351045  0.948038  1
  Ho  Ho7  1  0.351435  0.947275  0.350630  1
  Ho  Ho8  1  0.947305  0.351473  0.350669  1
  Ho  Ho9  1  0.811168  0.189096  0.189118  1
  Ho  Ho10  1  0.189049  0.811216  0.810687  1
  Ho  Ho11  1  0.188966  0.811179  0.189188  1
  Ho  Ho12  1  0.811196  0.189200  0.810631  1
  Ho  Ho13  1  0.191156  0.191409  0.808714  1
  Ho  Ho14  1  0.812625  0.812549  0.187525  1
  Ho  Ho15  1  0.937041  0.564932  0.564673  1
  Mg  Mg16  1  0.576308  0.576200  0.581126  1
  Mg  Mg17  1  0.576204  0.576208  0.266463  1
  Cd  Cd18  1  0.582154  0.253287  0.582276  1
  Cd  Cd19  1  0.253151  0.582168  0.582270  1
  Pt  Pt20  1  0.143005  0.142995  0.143163  1
  Pt  Pt21  1  0.142959  0.143086  0.570809  1
  Pt  Pt22  1  0.142156  0.571454  0.143268  1
  Pt  Pt23  1  0.571493  0.142183  0.143156  1
