# generated using pymatgen
data_Sr6GdSc(BO3)6
_symmetry_space_group_name_H-M   'P 1'
_cell_length_a   7.82299156
_cell_length_b   7.82299273
_cell_length_c   7.82299302
_cell_angle_alpha   105.14514909
_cell_angle_beta   105.14515036
_cell_angle_gamma   105.14514722
_symmetry_Int_Tables_number   1
_chemical_formula_structural   Sr6GdSc(BO3)6
_chemical_formula_sum   'Sr6 Gd1 Sc1 B6 O18'
_cell_volume   417.25158740
_cell_formula_units_Z   1
loop_
 _symmetry_equiv_pos_site_id
 _symmetry_equiv_pos_as_xyz
  1  'x, y, z'
loop_
 _atom_site_type_symbol
 _atom_site_label
 _atom_site_symmetry_multiplicity
 _atom_site_fract_x
 _atom_site_fract_y
 _atom_site_fract_z
 _atom_site_occupancy
  Sr  Sr0  1  0.647684  0.265013  0.159107  1
  Sr  Sr1  1  0.159107  0.647684  0.265012  1
  Sr  Sr2  1  0.734987  0.840893  0.352316  1
  Sr  Sr3  1  0.265013  0.159107  0.647684  1
  Sr  Sr4  1  0.840893  0.352316  0.734987  1
  Sr  Sr5  1  0.352316  0.734987  0.840893  1
  Gd  Gd6  1  0.000000  0.000000  0.000000  1
  Sc  Sc7  1  0.500000  0.500000  0.500000  1
  B  B8  1  0.296672  0.380036  0.042510  1
  B  B9  1  0.380036  0.042511  0.296672  1
  B  B10  1  0.042511  0.296672  0.380036  1
  B  B11  1  0.957489  0.703328  0.619964  1
  B  B12  1  0.619964  0.957489  0.703328  1
  B  B13  1  0.703328  0.619964  0.957489  1
  O  O14  1  0.724873  0.811803  0.018281  1
  O  O15  1  0.807385  0.548193  0.070428  1
  O  O16  1  0.981719  0.275127  0.188197  1
  O  O17  1  0.451806  0.929571  0.192615  1
  O  O18  1  0.431936  0.497897  0.220206  1
  O  O19  1  0.188197  0.981719  0.275127  1
  O  O20  1  0.497897  0.220206  0.431935  1
  O  O21  1  0.929571  0.192616  0.451806  1
  O  O22  1  0.220206  0.431936  0.497897  1
  O  O23  1  0.779794  0.568064  0.502103  1
  O  O24  1  0.070429  0.807384  0.548194  1
  O  O25  1  0.502103  0.779794  0.568065  1
  O  O26  1  0.811803  0.018281  0.724873  1
  O  O27  1  0.568064  0.502103  0.779794  1
  O  O28  1  0.548194  0.070429  0.807385  1
  O  O29  1  0.018281  0.724873  0.811803  1
  O  O30  1  0.192615  0.451807  0.929572  1
  O  O31  1  0.275127  0.188197  0.981719  1
