# generated using pymatgen
data_Sm3Y(RuO4)4
_symmetry_space_group_name_H-M   'P 1'
_cell_length_a   5.43824634
_cell_length_b   7.76667922
_cell_length_c   7.51917500
_cell_angle_alpha   79.08911130
_cell_angle_beta   91.15887001
_cell_angle_gamma   94.08836093
_symmetry_Int_Tables_number   1
_chemical_formula_structural   Sm3Y(RuO4)4
_chemical_formula_sum   'Sm3 Y1 Ru4 O16'
_cell_volume   311.04623344
_cell_formula_units_Z   1
loop_
 _symmetry_equiv_pos_site_id
 _symmetry_equiv_pos_as_xyz
  1  'x, y, z'
loop_
 _atom_site_type_symbol
 _atom_site_label
 _atom_site_symmetry_multiplicity
 _atom_site_fract_x
 _atom_site_fract_y
 _atom_site_fract_z
 _atom_site_occupancy
  Sm  Sm0  1  0.265213  0.122017  0.605856  1
  Sm  Sm1  1  0.736291  0.875925  0.393759  1
  Sm  Sm2  1  0.192406  0.176814  0.097698  1
  Y  Y3  1  0.808718  0.825230  0.899167  1
  Ru  Ru4  1  0.247675  0.663815  0.205563  1
  Ru  Ru5  1  0.754202  0.336781  0.793179  1
  Ru  Ru6  1  0.716003  0.337497  0.298061  1
  Ru  Ru7  1  0.285619  0.662745  0.703167  1
  O  O8  1  0.063643  0.461618  0.709670  1
  O  O9  1  0.939006  0.537459  0.291821  1
  O  O10  1  0.626275  0.330853  0.548658  1
  O  O11  1  0.372761  0.672861  0.450740  1
  O  O12  1  0.834887  0.327730  0.052358  1
  O  O13  1  0.156251  0.671856  0.947893  1
  O  O14  1  0.408022  0.441850  0.203404  1
  O  O15  1  0.594616  0.560109  0.798516  1
  O  O16  1  0.052956  0.882469  0.173238  1
  O  O17  1  0.943521  0.114836  0.824914  1
  O  O18  1  0.491512  0.112151  0.323608  1
  O  O19  1  0.510262  0.886184  0.681837  1
  O  O20  1  0.456489  0.200090  0.864486  1
  O  O21  1  0.545903  0.799858  0.128922  1
  O  O22  1  0.969702  0.164381  0.376710  1
  O  O23  1  0.028066  0.834871  0.626773  1
