# generated using pymatgen
data_Hf11Ga8Sn4Mo
_symmetry_space_group_name_H-M   'P 1'
_cell_length_a   5.66116523
_cell_length_b   8.73676599
_cell_length_c   9.32913300
_cell_angle_alpha   90.00000000
_cell_angle_beta   90.00000000
_cell_angle_gamma   90.12244002
_symmetry_Int_Tables_number   1
_chemical_formula_structural   Hf11Ga8Sn4Mo
_chemical_formula_sum   'Hf11 Ga8 Sn4 Mo1'
_cell_volume   461.42043798
_cell_formula_units_Z   1
loop_
 _symmetry_equiv_pos_site_id
 _symmetry_equiv_pos_as_xyz
  1  'x, y, z'
loop_
 _atom_site_type_symbol
 _atom_site_label
 _atom_site_symmetry_multiplicity
 _atom_site_fract_x
 _atom_site_fract_y
 _atom_site_fract_z
 _atom_site_occupancy
  Hf  Hf0  1  0.500000  0.250000  0.882069  1
  Hf  Hf1  1  0.000000  0.250000  0.876775  1
  Hf  Hf2  1  0.500000  0.750000  0.121881  1
  Hf  Hf3  1  0.753508  0.470843  0.610012  1
  Hf  Hf4  1  0.253824  0.531777  0.389368  1
  Hf  Hf5  1  0.746176  0.968223  0.389368  1
  Hf  Hf6  1  0.246492  0.029157  0.610012  1
  Hf  Hf7  1  0.746857  0.374341  0.198058  1
  Hf  Hf8  1  0.253995  0.625769  0.802993  1
  Hf  Hf9  1  0.746005  0.874231  0.802993  1
  Hf  Hf10  1  0.253143  0.125659  0.198058  1
  Ga  Ga11  1  0.000000  0.750000  0.573882  1
  Ga  Ga12  1  0.500000  0.250000  0.430439  1
  Ga  Ga13  1  0.000000  0.250000  0.427626  1
  Ga  Ga14  1  0.500000  0.750000  0.568694  1
  Ga  Ga15  1  0.747553  0.137392  0.645050  1
  Ga  Ga16  1  0.237657  0.861182  0.350947  1
  Ga  Ga17  1  0.762343  0.638818  0.350947  1
  Ga  Ga18  1  0.252447  0.362608  0.645050  1
  Sn  Sn19  1  0.757394  0.047739  0.085524  1
  Sn  Sn20  1  0.244123  0.946293  0.917441  1
  Sn  Sn21  1  0.755877  0.553707  0.917441  1
  Sn  Sn22  1  0.242606  0.452261  0.085524  1
  Mo  Mo23  1  0.000000  0.750000  0.119846  1
