# generated using pymatgen
data_NdHo3(Ni5Sn)4
_symmetry_space_group_name_H-M   'P 1'
_cell_length_a   4.86018100
_cell_length_b   4.86018020
_cell_length_c   19.62973300
_cell_angle_alpha   90.00000000
_cell_angle_beta   90.00000000
_cell_angle_gamma   120.00001225
_symmetry_Int_Tables_number   1
_chemical_formula_structural   NdHo3(Ni5Sn)4
_chemical_formula_sum   'Nd1 Ho3 Ni20 Sn4'
_cell_volume   401.55938978
_cell_formula_units_Z   1
loop_
 _symmetry_equiv_pos_site_id
 _symmetry_equiv_pos_as_xyz
  1  'x, y, z'
loop_
 _atom_site_type_symbol
 _atom_site_label
 _atom_site_symmetry_multiplicity
 _atom_site_fract_x
 _atom_site_fract_y
 _atom_site_fract_z
 _atom_site_occupancy
  Nd  Nd0  1  0.000000  0.000000  0.000000  1
  Ho  Ho1  1  0.333333  0.666667  0.251002  1
  Ho  Ho2  1  0.666667  0.333333  0.748998  1
  Ho  Ho3  1  0.000000  0.000000  0.500000  1
  Ni  Ni4  1  0.000000  0.000000  0.250798  1
  Ni  Ni5  1  0.000000  0.000000  0.749202  1
  Ni  Ni6  1  0.333333  0.666667  0.748997  1
  Ni  Ni7  1  0.666667  0.333333  0.251003  1
  Ni  Ni8  1  0.333333  0.666667  0.956588  1
  Ni  Ni9  1  0.666667  0.333333  0.043412  1
  Ni  Ni10  1  0.666667  0.333333  0.457930  1
  Ni  Ni11  1  0.333333  0.666667  0.542070  1
  Ni  Ni12  1  0.834147  0.165853  0.354065  1
  Ni  Ni13  1  0.834147  0.668293  0.354065  1
  Ni  Ni14  1  0.331707  0.165853  0.354065  1
  Ni  Ni15  1  0.165853  0.834147  0.645935  1
  Ni  Ni16  1  0.165853  0.331707  0.645935  1
  Ni  Ni17  1  0.668293  0.834147  0.645935  1
  Ni  Ni18  1  0.166257  0.833743  0.852107  1
  Ni  Ni19  1  0.166257  0.332514  0.852107  1
  Ni  Ni20  1  0.667486  0.833743  0.852107  1
  Ni  Ni21  1  0.833743  0.166257  0.147893  1
  Ni  Ni22  1  0.833743  0.667486  0.147893  1
  Ni  Ni23  1  0.332514  0.166257  0.147893  1
  Sn  Sn24  1  0.333333  0.666667  0.413166  1
  Sn  Sn25  1  0.666667  0.333333  0.586834  1
  Sn  Sn26  1  0.666667  0.333333  0.911329  1
  Sn  Sn27  1  0.333333  0.666667  0.088671  1
