# generated using pymatgen
data_Nd4Y12Cd4TcNi3
_symmetry_space_group_name_H-M   'P 1'
_cell_length_a   9.74983423
_cell_length_b   9.74983529
_cell_length_c   9.74983435
_cell_angle_alpha   59.23816510
_cell_angle_beta   59.23815808
_cell_angle_gamma   59.23815552
_symmetry_Int_Tables_number   1
_chemical_formula_structural   Nd4Y12Cd4TcNi3
_chemical_formula_sum   'Nd4 Y12 Cd4 Tc1 Ni3'
_cell_volume   643.98244931
_cell_formula_units_Z   1
loop_
 _symmetry_equiv_pos_site_id
 _symmetry_equiv_pos_as_xyz
  1  'x, y, z'
loop_
 _atom_site_type_symbol
 _atom_site_label
 _atom_site_symmetry_multiplicity
 _atom_site_fract_x
 _atom_site_fract_y
 _atom_site_fract_z
 _atom_site_occupancy
  Nd  Nd0  1  0.599601  0.599601  0.599601  1
  Nd  Nd1  1  0.601688  0.601688  0.200716  1
  Nd  Nd2  1  0.601688  0.200716  0.601688  1
  Nd  Nd3  1  0.200716  0.601688  0.601688  1
  Y  Y4  1  0.062973  0.436768  0.436768  1
  Y  Y5  1  0.436029  0.061652  0.061652  1
  Y  Y6  1  0.436768  0.062973  0.436768  1
  Y  Y7  1  0.061652  0.436029  0.061652  1
  Y  Y8  1  0.436768  0.436768  0.062973  1
  Y  Y9  1  0.061652  0.061652  0.436029  1
  Y  Y10  1  0.185647  0.815230  0.815230  1
  Y  Y11  1  0.807094  0.187440  0.187440  1
  Y  Y12  1  0.815230  0.185647  0.815230  1
  Y  Y13  1  0.187440  0.807094  0.187440  1
  Y  Y14  1  0.815230  0.815230  0.185647  1
  Y  Y15  1  0.187440  0.187440  0.807094  1
  Cd  Cd16  1  0.830298  0.830298  0.830298  1
  Cd  Cd17  1  0.830388  0.830388  0.504214  1
  Cd  Cd18  1  0.830388  0.504214  0.830388  1
  Cd  Cd19  1  0.504214  0.830388  0.830388  1
  Tc  Tc20  1  0.393614  0.393614  0.393614  1
  Ni  Ni21  1  0.392341  0.392341  0.828799  1
  Ni  Ni22  1  0.392341  0.828799  0.392341  1
  Ni  Ni23  1  0.828799  0.392341  0.392341  1
