# generated using pymatgen
data_Pd3Pt5W
_symmetry_space_group_name_H-M   'P 1'
_cell_length_a   6.28556832
_cell_length_b   6.28556877
_cell_length_c   6.25197610
_cell_angle_alpha   95.62027150
_cell_angle_beta   95.62026228
_cell_angle_gamma   143.62733236
_symmetry_Int_Tables_number   1
_chemical_formula_structural   Pd3Pt5W
_chemical_formula_sum   'Pd3 Pt5 W1'
_cell_volume   139.08455471
_cell_formula_units_Z   1
loop_
 _symmetry_equiv_pos_site_id
 _symmetry_equiv_pos_as_xyz
  1  'x, y, z'
loop_
 _atom_site_type_symbol
 _atom_site_label
 _atom_site_symmetry_multiplicity
 _atom_site_fract_x
 _atom_site_fract_y
 _atom_site_fract_z
 _atom_site_occupancy
  Pd  Pd0  1  0.338771  0.336867  0.675638  1
  Pd  Pd1  1  0.663133  0.661229  0.324362  1
  Pd  Pd2  1  0.661100  0.338900  0.000000  1
  Pt  Pt3  1  0.340847  0.659153  0.000000  1
  Pt  Pt4  1  0.999882  0.328751  0.328633  1
  Pt  Pt5  1  0.000414  0.673527  0.673941  1
  Pt  Pt6  1  0.671249  0.000118  0.671367  1
  Pt  Pt7  1  0.326473  0.999586  0.326059  1
  W  W8  1  0.998131  0.001869  0.000000  1
