# generated using pymatgen
data_Tb2NdSm(Mo2O7)2
_symmetry_space_group_name_H-M   'P 1'
_cell_length_a   7.40823695
_cell_length_b   7.51798175
_cell_length_c   7.40813679
_cell_angle_alpha   60.08627121
_cell_angle_beta   59.53388656
_cell_angle_gamma   60.08083271
_symmetry_Int_Tables_number   1
_chemical_formula_structural   Tb2NdSm(Mo2O7)2
_chemical_formula_sum   'Tb2 Nd1 Sm1 Mo4 O14'
_cell_volume   291.07195734
_cell_formula_units_Z   1
loop_
 _symmetry_equiv_pos_site_id
 _symmetry_equiv_pos_as_xyz
  1  'x, y, z'
loop_
 _atom_site_type_symbol
 _atom_site_label
 _atom_site_symmetry_multiplicity
 _atom_site_fract_x
 _atom_site_fract_y
 _atom_site_fract_z
 _atom_site_occupancy
  Tb  Tb0  1  0.625000  0.125000  0.125000  1
  Tb  Tb1  1  0.125000  0.125000  0.625000  1
  Nd  Nd2  1  0.125000  0.625000  0.125000  1
  Sm  Sm3  1  0.125000  0.125000  0.125000  1
  Mo  Mo4  1  0.625000  0.625000  0.625000  1
  Mo  Mo5  1  0.125000  0.625000  0.625000  1
  Mo  Mo6  1  0.625000  0.625000  0.125000  1
  Mo  Mo7  1  0.625000  0.125000  0.625000  1
  O  O8  1  0.998053  0.001968  0.998050  1
  O  O9  1  0.251947  0.248032  0.251950  1
  O  O10  1  0.288361  0.286985  0.707133  1
  O  O11  1  0.545581  0.534049  0.961680  1
  O  O12  1  0.715748  0.287044  0.715964  1
  O  O13  1  0.707351  0.286914  0.288452  1
  O  O14  1  0.288578  0.715866  0.704489  1
  O  O15  1  0.288641  0.717129  0.288825  1
  O  O16  1  0.704419  0.715951  0.288320  1
  O  O17  1  0.961422  0.534134  0.545511  1
  O  O18  1  0.542649  0.963086  0.961548  1
  O  O19  1  0.961639  0.963015  0.542867  1
  O  O20  1  0.961359  0.532871  0.961175  1
  O  O21  1  0.534252  0.962956  0.534036  1
