# generated using pymatgen
data_Tm15Lu5(Ir3Au)3
_symmetry_space_group_name_H-M   'P 1'
_cell_length_a   10.91193742
_cell_length_b   10.91067680
_cell_length_c   6.29080608
_cell_angle_alpha   89.99962087
_cell_angle_beta   90.01180815
_cell_angle_gamma   90.43350591
_symmetry_Int_Tables_number   1
_chemical_formula_structural   Tm15Lu5(Ir3Au)3
_chemical_formula_sum   'Tm15 Lu5 Ir9 Au3'
_cell_volume   748.94067134
_cell_formula_units_Z   1
loop_
 _symmetry_equiv_pos_site_id
 _symmetry_equiv_pos_as_xyz
  1  'x, y, z'
loop_
 _atom_site_type_symbol
 _atom_site_label
 _atom_site_symmetry_multiplicity
 _atom_site_fract_x
 _atom_site_fract_y
 _atom_site_fract_z
 _atom_site_occupancy
  Tm  Tm0  1  0.295133  0.905228  0.876006  1
  Tm  Tm1  1  0.699446  0.091135  0.866133  1
  Tm  Tm2  1  0.696160  0.907250  0.367129  1
  Tm  Tm3  1  0.577860  0.789158  0.879047  1
  Tm  Tm4  1  0.578603  0.209606  0.379023  1
  Tm  Tm5  1  0.409932  0.789903  0.379382  1
  Tm  Tm6  1  0.417690  0.211361  0.877558  1
  Tm  Tm7  1  0.210816  0.422195  0.621108  1
  Tm  Tm8  1  0.210155  0.590048  0.120802  1
  Tm  Tm9  1  0.790362  0.420718  0.121025  1
  Tm  Tm10  1  0.788707  0.582028  0.622600  1
  Tm  Tm11  1  0.917840  0.704083  0.138743  1
  Tm  Tm12  1  0.908714  0.300213  0.633689  1
  Tm  Tm13  1  0.094987  0.704845  0.623650  1
  Tm  Tm14  1  0.093360  0.303292  0.132994  1
  Lu  Lu15  1  0.296763  0.081832  0.361603  1
  Lu  Lu16  1  0.004080  0.993389  0.497855  1
  Lu  Lu17  1  0.007361  0.996820  0.001507  1
  Lu  Lu18  1  0.499231  0.499360  0.001404  1
  Lu  Lu19  1  0.500503  0.500447  0.498883  1
  Ir  Ir20  1  0.152400  0.848913  0.250702  1
  Ir  Ir21  1  0.653034  0.346960  0.750168  1
  Ir  Ir22  1  0.655364  0.652126  0.247361  1
  Ir  Ir23  1  0.347683  0.343498  0.253652  1
  Ir  Ir24  1  0.348116  0.651752  0.750223  1
  Ir  Ir25  1  0.499109  0.999938  0.116364  1
  Ir  Ir26  1  0.498096  0.999393  0.620244  1
  Ir  Ir27  1  0.000779  0.501415  0.879608  1
  Ir  Ir28  1  0.000067  0.500097  0.383413  1
  Au  Au29  1  0.846736  0.152746  0.249805  1
  Au  Au30  1  0.843789  0.843890  0.752269  1
  Au  Au31  1  0.157125  0.156361  0.746048  1
