# generated using pymatgen
data_LiY6Cr(Co4P3)4
_symmetry_space_group_name_H-M   'P 1'
_cell_length_a   3.70685500
_cell_length_b   10.55981400
_cell_length_c   12.21434900
_cell_angle_alpha   90.00000000
_cell_angle_beta   90.00000000
_cell_angle_gamma   90.00000000
_symmetry_Int_Tables_number   1
_chemical_formula_structural   LiY6Cr(Co4P3)4
_chemical_formula_sum   'Li1 Y6 Cr1 Co16 P12'
_cell_volume   478.11480471
_cell_formula_units_Z   1
loop_
 _symmetry_equiv_pos_site_id
 _symmetry_equiv_pos_as_xyz
  1  'x, y, z'
loop_
 _atom_site_type_symbol
 _atom_site_label
 _atom_site_symmetry_multiplicity
 _atom_site_fract_x
 _atom_site_fract_y
 _atom_site_fract_z
 _atom_site_occupancy
  Li  Li0  1  0.000000  0.000000  0.847421  1
  Y  Y1  1  0.000000  0.500000  0.522274  1
  Y  Y2  1  0.500000  0.000000  0.477942  1
  Y  Y3  1  0.500000  0.817743  0.206010  1
  Y  Y4  1  0.500000  0.182257  0.206010  1
  Y  Y5  1  0.000000  0.680796  0.794995  1
  Y  Y6  1  0.000000  0.319204  0.794995  1
  Cr  Cr7  1  0.500000  0.500000  0.156345  1
  Co  Co8  1  0.500000  0.500000  0.702830  1
  Co  Co9  1  0.000000  0.000000  0.295448  1
  Co  Co10  1  0.000000  0.500000  0.988663  1
  Co  Co11  1  0.500000  0.000000  0.013865  1
  Co  Co12  1  0.500000  0.334409  0.995396  1
  Co  Co13  1  0.500000  0.665591  0.995396  1
  Co  Co14  1  0.000000  0.168902  0.005263  1
  Co  Co15  1  0.000000  0.831098  0.005263  1
  Co  Co16  1  0.500000  0.297294  0.429559  1
  Co  Co17  1  0.500000  0.702706  0.429559  1
  Co  Co18  1  0.000000  0.204160  0.567931  1
  Co  Co19  1  0.000000  0.795840  0.567931  1
  Co  Co20  1  0.500000  0.877767  0.706834  1
  Co  Co21  1  0.500000  0.122233  0.706834  1
  Co  Co22  1  0.000000  0.619883  0.290998  1
  Co  Co23  1  0.000000  0.380117  0.290998  1
  P  P24  1  0.500000  0.500000  0.883070  1
  P  P25  1  0.000000  0.000000  0.115286  1
  P  P26  1  0.500000  0.500000  0.346045  1
  P  P27  1  0.000000  0.000000  0.654879  1
  P  P28  1  0.500000  0.310186  0.615181  1
  P  P29  1  0.500000  0.689814  0.615181  1
  P  P30  1  0.000000  0.189743  0.383840  1
  P  P31  1  0.000000  0.810257  0.383840  1
  P  P32  1  0.500000  0.844055  0.893901  1
  P  P33  1  0.500000  0.155945  0.893901  1
  P  P34  1  0.000000  0.653234  0.108058  1
  P  P35  1  0.000000  0.346766  0.108058  1
