# generated using pymatgen
data_Ta3Ag4RuF28
_symmetry_space_group_name_H-M   'P 1'
_cell_length_a   5.71925150
_cell_length_b   8.68031176
_cell_length_c   12.99928036
_cell_angle_alpha   68.34141118
_cell_angle_beta   90.02294094
_cell_angle_gamma   90.08225306
_symmetry_Int_Tables_number   1
_chemical_formula_structural   Ta3Ag4RuF28
_chemical_formula_sum   'Ta3 Ag4 Ru1 F28'
_cell_volume   599.78533462
_cell_formula_units_Z   1
loop_
 _symmetry_equiv_pos_site_id
 _symmetry_equiv_pos_as_xyz
  1  'x, y, z'
loop_
 _atom_site_type_symbol
 _atom_site_label
 _atom_site_symmetry_multiplicity
 _atom_site_fract_x
 _atom_site_fract_y
 _atom_site_fract_z
 _atom_site_occupancy
  Ta  Ta0  1  0.209257  0.292617  0.440210  1
  Ta  Ta1  1  0.708980  0.707756  0.059122  1
  Ta  Ta2  1  0.789918  0.708072  0.560826  1
  Ag  Ag3  1  0.287854  0.862129  0.716165  1
  Ag  Ag4  1  0.788234  0.141879  0.790208  1
  Ag  Ag5  1  0.712684  0.140689  0.285305  1
  Ag  Ag6  1  0.212712  0.860007  0.214682  1
  Ru  Ru7  1  0.290546  0.286302  0.935963  1
  F  F8  1  0.577016  0.979587  0.746412  1
  F  F9  1  0.078973  0.021611  0.761329  1
  F  F10  1  0.423881  0.019847  0.258456  1
  F  F11  1  0.924085  0.980346  0.242525  1
  F  F12  1  0.383396  0.324395  0.553237  1
  F  F13  1  0.883980  0.677373  0.945968  1
  F  F14  1  0.614207  0.674891  0.448579  1
  F  F15  1  0.114425  0.313292  0.048558  1
  F  F16  1  0.461580  0.258861  0.814373  1
  F  F17  1  0.976564  0.747187  0.679578  1
  F  F18  1  0.525993  0.745268  0.179110  1
  F  F19  1  0.027567  0.255047  0.319410  1
  F  F20  1  0.006967  0.301160  0.849930  1
  F  F21  1  0.511253  0.713241  0.651377  1
  F  F22  1  0.989258  0.711879  0.149296  1
  F  F23  1  0.489928  0.289579  0.350369  1
  F  F24  1  0.252605  0.052827  0.002901  1
  F  F25  1  0.747375  0.944550  0.491306  1
  F  F26  1  0.754475  0.944645  0.992108  1
  F  F27  1  0.251419  0.055980  0.508543  1
  F  F28  1  0.324779  0.516999  0.863857  1
  F  F29  1  0.807193  0.476360  0.644433  1
  F  F30  1  0.692878  0.475492  0.141773  1
  F  F31  1  0.191613  0.524417  0.356488  1
  F  F32  1  0.569262  0.273874  0.013016  1
  F  F33  1  0.075342  0.719400  0.485966  1
  F  F34  1  0.422045  0.721906  0.985185  1
  F  F35  1  0.921753  0.280534  0.513435  1
