# generated using pymatgen
data_Tb15Y(In3Rh)2
_symmetry_space_group_name_H-M   'P 1'
_cell_length_a   10.49286700
_cell_length_b   10.49286692
_cell_length_c   7.09173300
_cell_angle_alpha   90.00000000
_cell_angle_beta   90.00000000
_cell_angle_gamma   120.00000340
_symmetry_Int_Tables_number   1
_chemical_formula_structural   Tb15Y(In3Rh)2
_chemical_formula_sum   'Tb15 Y1 In6 Rh2'
_cell_volume   676.19402041
_cell_formula_units_Z   1
loop_
 _symmetry_equiv_pos_site_id
 _symmetry_equiv_pos_as_xyz
  1  'x, y, z'
loop_
 _atom_site_type_symbol
 _atom_site_label
 _atom_site_symmetry_multiplicity
 _atom_site_fract_x
 _atom_site_fract_y
 _atom_site_fract_z
 _atom_site_occupancy
  Tb  Tb0  1  0.466280  0.533720  0.480515  1
  Tb  Tb1  1  0.067439  0.533720  0.480515  1
  Tb  Tb2  1  0.466280  0.932561  0.480515  1
  Tb  Tb3  1  0.533729  0.466271  0.980594  1
  Tb  Tb4  1  0.932544  0.466271  0.980594  1
  Tb  Tb5  1  0.533729  0.067456  0.980594  1
  Tb  Tb6  1  0.824079  0.175921  0.274782  1
  Tb  Tb7  1  0.351841  0.175921  0.274782  1
  Tb  Tb8  1  0.824079  0.648159  0.274782  1
  Tb  Tb9  1  0.176035  0.823965  0.775166  1
  Tb  Tb10  1  0.647930  0.823965  0.775166  1
  Tb  Tb11  1  0.176035  0.352070  0.775166  1
  Tb  Tb12  1  0.333333  0.666667  0.099510  1
  Tb  Tb13  1  0.666667  0.333333  0.600250  1
  Tb  Tb14  1  0.000000  0.000000  0.495916  1
  Y  Y15  1  0.000000  0.000000  0.995882  1
  In  In16  1  0.162852  0.837148  0.233654  1
  In  In17  1  0.674296  0.837148  0.233654  1
  In  In18  1  0.162852  0.325704  0.233654  1
  In  In19  1  0.837172  0.162828  0.734272  1
  In  In20  1  0.325657  0.162828  0.734272  1
  In  In21  1  0.837172  0.674343  0.734272  1
  Rh  Rh22  1  0.333333  0.666667  0.707397  1
  Rh  Rh23  1  0.666667  0.333333  0.208656  1
