# generated using pymatgen
data_Dy4Sn6Ir2Rh5
_symmetry_space_group_name_H-M   'P 1'
_cell_length_a   7.61968156
_cell_length_b   7.60691788
_cell_length_c   7.60691897
_cell_angle_alpha   109.25163850
_cell_angle_beta   109.54698463
_cell_angle_gamma   109.54698325
_symmetry_Int_Tables_number   1
_chemical_formula_structural   Dy4Sn6Ir2Rh5
_chemical_formula_sum   'Dy4 Sn6 Ir2 Rh5'
_cell_volume   339.69862769
_cell_formula_units_Z   1
loop_
 _symmetry_equiv_pos_site_id
 _symmetry_equiv_pos_as_xyz
  1  'x, y, z'
loop_
 _atom_site_type_symbol
 _atom_site_label
 _atom_site_symmetry_multiplicity
 _atom_site_fract_x
 _atom_site_fract_y
 _atom_site_fract_z
 _atom_site_occupancy
  Dy  Dy0  1  0.995867  0.997934  0.497934  1
  Dy  Dy1  1  0.995867  0.497934  0.997934  1
  Dy  Dy2  1  0.503968  0.005996  0.005996  1
  Dy  Dy3  1  0.503968  0.497972  0.497972  1
  Sn  Sn4  1  0.682215  0.684217  0.997998  1
  Sn  Sn5  1  0.314110  0.998212  0.315898  1
  Sn  Sn6  1  0.003372  0.316130  0.316130  1
  Sn  Sn7  1  0.314110  0.315898  0.998212  1
  Sn  Sn8  1  0.682215  0.997998  0.684217  1
  Sn  Sn9  1  0.003372  0.687242  0.687242  1
  Ir  Ir10  1  0.750273  0.250259  0.500015  1
  Ir  Ir11  1  0.750273  0.500015  0.250259  1
  Rh  Rh12  1  0.500497  0.250248  0.750248  1
  Rh  Rh13  1  0.249763  0.499868  0.749895  1
  Rh  Rh14  1  0.249763  0.749895  0.499868  1
  Rh  Rh15  1  0.500497  0.750248  0.250248  1
  Rh  Rh16  1  0.999867  0.999934  0.999934  1
