# generated using pymatgen
data_Ce5TcBi2
_symmetry_space_group_name_H-M   'P 1'
_cell_length_a   8.22650100
_cell_length_b   9.03050700
_cell_length_c   12.54557900
_cell_angle_alpha   90.00000000
_cell_angle_beta   90.00000000
_cell_angle_gamma   90.00000000
_symmetry_Int_Tables_number   1
_chemical_formula_structural   Ce5TcBi2
_chemical_formula_sum   'Ce20 Tc4 Bi8'
_cell_volume   932.00447580
_cell_formula_units_Z   4
loop_
 _symmetry_equiv_pos_site_id
 _symmetry_equiv_pos_as_xyz
  1  'x, y, z'
loop_
 _atom_site_type_symbol
 _atom_site_label
 _atom_site_symmetry_multiplicity
 _atom_site_fract_x
 _atom_site_fract_y
 _atom_site_fract_z
 _atom_site_occupancy
  Ce  Ce0  1  0.355591  0.750000  0.700106  1
  Ce  Ce1  1  0.644409  0.250000  0.299894  1
  Ce  Ce2  1  0.855591  0.250000  0.799894  1
  Ce  Ce3  1  0.144409  0.750000  0.200106  1
  Ce  Ce4  1  0.885172  0.750000  0.804604  1
  Ce  Ce5  1  0.114828  0.250000  0.195396  1
  Ce  Ce6  1  0.385172  0.250000  0.695396  1
  Ce  Ce7  1  0.614828  0.750000  0.304604  1
  Ce  Ce8  1  0.689400  0.535066  0.560573  1
  Ce  Ce9  1  0.310600  0.464934  0.439427  1
  Ce  Ce10  1  0.189400  0.464934  0.939427  1
  Ce  Ce11  1  0.310600  0.035066  0.439427  1
  Ce  Ce12  1  0.810600  0.535066  0.060573  1
  Ce  Ce13  1  0.689400  0.964934  0.560573  1
  Ce  Ce14  1  0.810600  0.964934  0.060573  1
  Ce  Ce15  1  0.189400  0.035066  0.939427  1
  Ce  Ce16  1  0.041035  0.750000  0.496917  1
  Ce  Ce17  1  0.958965  0.250000  0.503083  1
  Ce  Ce18  1  0.541035  0.250000  0.003083  1
  Ce  Ce19  1  0.458965  0.750000  0.996917  1
  Tc  Tc20  1  0.085052  0.750000  0.969596  1
  Tc  Tc21  1  0.914948  0.250000  0.030404  1
  Tc  Tc22  1  0.585052  0.250000  0.530404  1
  Tc  Tc23  1  0.414948  0.750000  0.469596  1
  Bi  Bi24  1  0.582707  0.508352  0.824619  1
  Bi  Bi25  1  0.417293  0.491648  0.175381  1
  Bi  Bi26  1  0.082707  0.491648  0.675381  1
  Bi  Bi27  1  0.417293  0.008352  0.175381  1
  Bi  Bi28  1  0.917293  0.508352  0.324619  1
  Bi  Bi29  1  0.582707  0.991648  0.824619  1
  Bi  Bi30  1  0.917293  0.991648  0.324619  1
  Bi  Bi31  1  0.082707  0.008352  0.675381  1
