# generated using pymatgen
data_LiTi(BeRh)4
_symmetry_space_group_name_H-M   'P 1'
_cell_length_a   6.36373400
_cell_length_b   6.36373400
_cell_length_c   2.89575100
_cell_angle_alpha   90.00000000
_cell_angle_beta   90.00000000
_cell_angle_gamma   90.00000000
_symmetry_Int_Tables_number   1
_chemical_formula_structural   LiTi(BeRh)4
_chemical_formula_sum   'Li1 Ti1 Be4 Rh4'
_cell_volume   117.26954800
_cell_formula_units_Z   1
loop_
 _symmetry_equiv_pos_site_id
 _symmetry_equiv_pos_as_xyz
  1  'x, y, z'
loop_
 _atom_site_type_symbol
 _atom_site_label
 _atom_site_symmetry_multiplicity
 _atom_site_fract_x
 _atom_site_fract_y
 _atom_site_fract_z
 _atom_site_occupancy
  Li  Li0  1  0.500000  0.500000  0.000000  1
  Ti  Ti1  1  0.000000  0.000000  0.000000  1
  Be  Be2  1  0.135612  0.610938  0.000000  1
  Be  Be3  1  0.389062  0.135612  0.000000  1
  Be  Be4  1  0.610938  0.864388  0.000000  1
  Be  Be5  1  0.864388  0.389062  0.000000  1
  Rh  Rh6  1  0.153898  0.315758  0.500000  1
  Rh  Rh7  1  0.315758  0.846102  0.500000  1
  Rh  Rh8  1  0.684242  0.153898  0.500000  1
  Rh  Rh9  1  0.846102  0.684242  0.500000  1
