# generated using pymatgen
data_Ba4ErRuO8
_symmetry_space_group_name_H-M   'P 1'
_cell_length_a   7.43773787
_cell_length_b   7.43773768
_cell_length_c   5.94560600
_cell_angle_alpha   90.00000000
_cell_angle_beta   90.00000000
_cell_angle_gamma   133.05601237
_symmetry_Int_Tables_number   1
_chemical_formula_structural   Ba4ErRuO8
_chemical_formula_sum   'Ba4 Er1 Ru1 O8'
_cell_volume   240.33056819
_cell_formula_units_Z   1
loop_
 _symmetry_equiv_pos_site_id
 _symmetry_equiv_pos_as_xyz
  1  'x, y, z'
loop_
 _atom_site_type_symbol
 _atom_site_label
 _atom_site_symmetry_multiplicity
 _atom_site_fract_x
 _atom_site_fract_y
 _atom_site_fract_z
 _atom_site_occupancy
  Ba  Ba0  1  0.645262  0.354738  0.000000  1
  Ba  Ba1  1  0.145739  0.854261  0.500000  1
  Ba  Ba2  1  0.854261  0.145739  0.500000  1
  Ba  Ba3  1  0.354738  0.645262  0.000000  1
  Er  Er4  1  0.000000  0.000000  0.000000  1
  Ru  Ru5  1  0.500000  0.500000  0.500000  1
  O  O6  1  0.738571  0.738571  0.266353  1
  O  O7  1  0.261429  0.261429  0.733647  1
  O  O8  1  0.261429  0.261429  0.266353  1
  O  O9  1  0.738571  0.738571  0.733647  1
  O  O10  1  0.835580  0.164420  0.000000  1
  O  O11  1  0.350892  0.649108  0.500000  1
  O  O12  1  0.649108  0.350892  0.500000  1
  O  O13  1  0.164420  0.835580  0.000000  1
