# generated using pymatgen
data_K8Nd3EuF20
_symmetry_space_group_name_H-M   'P 1'
_cell_length_a   6.79108364
_cell_length_b   7.57321900
_cell_length_c   11.11563426
_cell_angle_alpha   90.00000000
_cell_angle_beta   90.26226787
_cell_angle_gamma   90.00000000
_symmetry_Int_Tables_number   1
_chemical_formula_structural   K8Nd3EuF20
_chemical_formula_sum   'K8 Nd3 Eu1 F20'
_cell_volume   571.67512308
_cell_formula_units_Z   1
loop_
 _symmetry_equiv_pos_site_id
 _symmetry_equiv_pos_as_xyz
  1  'x, y, z'
loop_
 _atom_site_type_symbol
 _atom_site_label
 _atom_site_symmetry_multiplicity
 _atom_site_fract_x
 _atom_site_fract_y
 _atom_site_fract_z
 _atom_site_occupancy
  K  K0  1  0.528515  0.497129  0.829384  1
  K  K1  1  0.474679  0.502946  0.170668  1
  K  K2  1  0.028852  0.502283  0.672508  1
  K  K3  1  0.474679  0.997054  0.170668  1
  K  K4  1  0.970321  0.496912  0.327369  1
  K  K5  1  0.528515  0.002871  0.829384  1
  K  K6  1  0.970321  0.003088  0.327369  1
  K  K7  1  0.028852  0.997717  0.672508  1
  Nd  Nd8  1  0.565259  0.750000  0.503646  1
  Nd  Nd9  1  0.433684  0.250000  0.496078  1
  Nd  Nd10  1  0.064054  0.250000  0.997415  1
  Eu  Eu11  1  0.938470  0.750000  0.001185  1
  F  F12  1  0.832406  0.750000  0.807530  1
  F  F13  1  0.168791  0.250000  0.197149  1
  F  F14  1  0.332782  0.250000  0.695922  1
  F  F15  1  0.665906  0.750000  0.304644  1
  F  F16  1  0.362352  0.750000  0.670147  1
  F  F17  1  0.637838  0.250000  0.329896  1
  F  F18  1  0.860880  0.250000  0.830068  1
  F  F19  1  0.128643  0.750000  0.167198  1
  F  F20  1  0.903265  0.750000  0.513349  1
  F  F21  1  0.095851  0.250000  0.487997  1
  F  F22  1  0.402248  0.250000  0.988465  1
  F  F23  1  0.602978  0.750000  0.011863  1
  F  F24  1  0.646765  0.033134  0.580985  1
  F  F25  1  0.352439  0.966764  0.418510  1
  F  F26  1  0.145867  0.966192  0.919171  1
  F  F27  1  0.352439  0.533236  0.418510  1
  F  F28  1  0.854861  0.030845  0.080130  1
  F  F29  1  0.646765  0.466866  0.580985  1
  F  F30  1  0.854861  0.469155  0.080130  1
  F  F31  1  0.145867  0.533808  0.919171  1
