# generated using pymatgen
data_LaNd4(IrO6)2
_symmetry_space_group_name_H-M   'P 1'
_cell_length_a   7.12806344
_cell_length_b   7.12806365
_cell_length_c   7.58411186
_cell_angle_alpha   74.59843496
_cell_angle_beta   74.59843765
_cell_angle_gamma   51.15646531
_symmetry_Int_Tables_number   1
_chemical_formula_structural   LaNd4(IrO6)2
_chemical_formula_sum   'La1 Nd4 Ir2 O12'
_cell_volume   286.82455534
_cell_formula_units_Z   1
loop_
 _symmetry_equiv_pos_site_id
 _symmetry_equiv_pos_as_xyz
  1  'x, y, z'
loop_
 _atom_site_type_symbol
 _atom_site_label
 _atom_site_symmetry_multiplicity
 _atom_site_fract_x
 _atom_site_fract_y
 _atom_site_fract_z
 _atom_site_occupancy
  La  La0  1  0.000000  0.000000  0.500000  1
  Nd  Nd1  1  0.304164  0.304164  0.358025  1
  Nd  Nd2  1  0.695836  0.695836  0.641975  1
  Nd  Nd3  1  0.693973  0.693973  0.165627  1
  Nd  Nd4  1  0.306027  0.306027  0.834373  1
  Ir  Ir5  1  0.753284  0.246716  0.000000  1
  Ir  Ir6  1  0.246716  0.753284  0.000000  1
  O  O7  1  0.094602  0.595201  0.577686  1
  O  O8  1  0.999370  0.999370  0.170322  1
  O  O9  1  0.404799  0.905398  0.422314  1
  O  O10  1  0.500318  0.500318  0.175459  1
  O  O11  1  0.100655  0.576105  0.080090  1
  O  O12  1  0.905398  0.404799  0.422314  1
  O  O13  1  0.000630  0.000630  0.829678  1
  O  O14  1  0.595201  0.094601  0.577686  1
  O  O15  1  0.499682  0.499682  0.824541  1
  O  O16  1  0.576105  0.100655  0.080090  1
  O  O17  1  0.423895  0.899345  0.919910  1
  O  O18  1  0.899345  0.423895  0.919910  1
