# generated using pymatgen
data_NaSr(PrB12)2
_symmetry_space_group_name_H-M   'P 1'
_cell_length_a   7.19597552
_cell_length_b   7.19597626
_cell_length_c   5.90139300
_cell_angle_alpha   90.00000000
_cell_angle_beta   90.00000000
_cell_angle_gamma   109.35677671
_symmetry_Int_Tables_number   1
_chemical_formula_structural   NaSr(PrB12)2
_chemical_formula_sum   'Na1 Sr1 Pr2 B24'
_cell_volume   288.31245094
_cell_formula_units_Z   1
loop_
 _symmetry_equiv_pos_site_id
 _symmetry_equiv_pos_as_xyz
  1  'x, y, z'
loop_
 _atom_site_type_symbol
 _atom_site_label
 _atom_site_symmetry_multiplicity
 _atom_site_fract_x
 _atom_site_fract_y
 _atom_site_fract_z
 _atom_site_occupancy
  Na  Na0  1  0.000000  0.000000  0.000000  1
  Sr  Sr1  1  0.500000  0.500000  0.000000  1
  Pr  Pr2  1  0.751701  0.248299  0.500000  1
  Pr  Pr3  1  0.248299  0.751701  0.500000  1
  B  B4  1  0.174860  0.324114  0.649421  1
  B  B5  1  0.925259  0.575291  0.148394  1
  B  B6  1  0.675886  0.825140  0.649421  1
  B  B7  1  0.424709  0.074741  0.148394  1
  B  B8  1  0.174860  0.324114  0.350579  1
  B  B9  1  0.925259  0.575291  0.851606  1
  B  B10  1  0.675886  0.825140  0.350579  1
  B  B11  1  0.424709  0.074741  0.851606  1
  B  B12  1  0.398930  0.398930  0.500000  1
  B  B13  1  0.148765  0.649764  0.000000  1
  B  B14  1  0.899469  0.899469  0.500000  1
  B  B15  1  0.649764  0.148765  0.000000  1
  B  B16  1  0.324114  0.174860  0.649421  1
  B  B17  1  0.074741  0.424709  0.148394  1
  B  B18  1  0.825140  0.675886  0.649421  1
  B  B19  1  0.575291  0.925259  0.148394  1
  B  B20  1  0.100531  0.100531  0.500000  1
  B  B21  1  0.851235  0.350236  0.000000  1
  B  B22  1  0.601070  0.601070  0.500000  1
  B  B23  1  0.350236  0.851235  0.000000  1
  B  B24  1  0.324114  0.174860  0.350579  1
  B  B25  1  0.074741  0.424709  0.851606  1
  B  B26  1  0.825140  0.675886  0.350579  1
  B  B27  1  0.575291  0.925259  0.851606  1
