# generated using pymatgen
data_Er4Si3Ir4
_symmetry_space_group_name_H-M   'P 1'
_cell_length_a   10.66968167
_cell_length_b   10.66968042
_cell_length_c   7.67395472
_cell_angle_alpha   71.78058649
_cell_angle_beta   71.78058693
_cell_angle_gamma   29.82666363
_symmetry_Int_Tables_number   1
_chemical_formula_structural   Er4Si3Ir4
_chemical_formula_sum   'Er8 Si6 Ir8'
_cell_volume   411.14559091
_cell_formula_units_Z   2
loop_
 _symmetry_equiv_pos_site_id
 _symmetry_equiv_pos_as_xyz
  1  'x, y, z'
loop_
 _atom_site_type_symbol
 _atom_site_label
 _atom_site_symmetry_multiplicity
 _atom_site_fract_x
 _atom_site_fract_y
 _atom_site_fract_z
 _atom_site_occupancy
  Er  Er0  1  0.208713  0.449880  0.401057  1
  Er  Er1  1  0.550120  0.791287  0.098943  1
  Er  Er2  1  0.449880  0.208713  0.901057  1
  Er  Er3  1  0.926967  0.211597  0.329893  1
  Er  Er4  1  0.788403  0.073033  0.170107  1
  Er  Er5  1  0.073033  0.788403  0.670107  1
  Er  Er6  1  0.211597  0.926967  0.829893  1
  Er  Er7  1  0.791287  0.550120  0.598943  1
  Si  Si8  1  0.610311  0.389689  0.750000  1
  Si  Si9  1  0.389689  0.610311  0.250000  1
  Si  Si10  1  0.301777  0.041437  0.443900  1
  Si  Si11  1  0.958563  0.698223  0.056100  1
  Si  Si12  1  0.698223  0.958563  0.556100  1
  Si  Si13  1  0.041437  0.301777  0.943900  1
  Ir  Ir14  1  0.287213  0.588952  0.024360  1
  Ir  Ir15  1  0.588952  0.287213  0.524360  1
  Ir  Ir16  1  0.712787  0.411048  0.975640  1
  Ir  Ir17  1  0.070580  0.368648  0.193687  1
  Ir  Ir18  1  0.631352  0.929420  0.306313  1
  Ir  Ir19  1  0.411048  0.712787  0.475640  1
  Ir  Ir20  1  0.929420  0.631352  0.806313  1
  Ir  Ir21  1  0.368648  0.070580  0.693687  1
