# generated using pymatgen
data_Ta6Ga2CuAuN2
_symmetry_space_group_name_H-M   'P 1'
_cell_length_a   7.02871858
_cell_length_b   7.02471351
_cell_length_c   7.02780400
_cell_angle_alpha   90.00000000
_cell_angle_beta   90.00000000
_cell_angle_gamma   90.25708262
_symmetry_Int_Tables_number   1
_chemical_formula_structural   Ta6Ga2CuAuN2
_chemical_formula_sum   'Ta12 Ga4 Cu2 Au2 N4'
_cell_volume   346.99246260
_cell_formula_units_Z   2
loop_
 _symmetry_equiv_pos_site_id
 _symmetry_equiv_pos_as_xyz
  1  'x, y, z'
loop_
 _atom_site_type_symbol
 _atom_site_label
 _atom_site_symmetry_multiplicity
 _atom_site_fract_x
 _atom_site_fract_y
 _atom_site_fract_z
 _atom_site_occupancy
  Ta  Ta0  1  0.788136  0.957798  0.375937  1
  Ta  Ta1  1  0.711864  0.042202  0.875937  1
  Ta  Ta2  1  0.209667  0.455076  0.123498  1
  Ta  Ta3  1  0.290333  0.544924  0.623498  1
  Ta  Ta4  1  0.954466  0.380054  0.788966  1
  Ta  Ta5  1  0.041706  0.872923  0.710731  1
  Ta  Ta6  1  0.458294  0.127077  0.210731  1
  Ta  Ta7  1  0.545534  0.619946  0.288966  1
  Ta  Ta8  1  0.380479  0.786511  0.954275  1
  Ta  Ta9  1  0.873621  0.709158  0.042228  1
  Ta  Ta10  1  0.119521  0.213489  0.454275  1
  Ta  Ta11  1  0.626379  0.290842  0.542228  1
  Ga  Ga12  1  0.580919  0.433737  0.930280  1
  Ga  Ga13  1  0.440202  0.920686  0.573538  1
  Ga  Ga14  1  0.919081  0.566263  0.430280  1
  Ga  Ga15  1  0.059798  0.079314  0.073538  1
  Cu  Cu16  1  0.819486  0.321573  0.179869  1
  Cu  Cu17  1  0.680514  0.678427  0.679869  1
  Au  Au18  1  0.181333  0.820158  0.318179  1
  Au  Au19  1  0.318667  0.179842  0.818179  1
  N  N20  1  0.877255  0.123249  0.625161  1
  N  N21  1  0.622745  0.876751  0.125161  1
  N  N22  1  0.125673  0.624873  0.877336  1
  N  N23  1  0.374327  0.375127  0.377336  1
