# generated using pymatgen
data_Ta2MnFe2(PO4)6
_symmetry_space_group_name_H-M   'P 1'
_cell_length_a   8.73730120
_cell_length_b   8.73730172
_cell_length_c   8.75481374
_cell_angle_alpha   119.93384930
_cell_angle_beta   60.06614789
_cell_angle_gamma   120.00000167
_symmetry_Int_Tables_number   1
_chemical_formula_structural   Ta2MnFe2(PO4)6
_chemical_formula_sum   'Ta2 Mn1 Fe2 P6 O24'
_cell_volume   473.06416687
_cell_formula_units_Z   1
loop_
 _symmetry_equiv_pos_site_id
 _symmetry_equiv_pos_as_xyz
  1  'x, y, z'
loop_
 _atom_site_type_symbol
 _atom_site_label
 _atom_site_symmetry_multiplicity
 _atom_site_fract_x
 _atom_site_fract_y
 _atom_site_fract_z
 _atom_site_occupancy
  Ta  Ta0  1  0.636340  0.363661  0.090981  1
  Ta  Ta1  1  0.363661  0.636340  0.909019  1
  Mn  Mn2  1  0.000000  0.000000  0.000000  1
  Fe  Fe3  1  0.854644  0.145356  0.436070  1
  Fe  Fe4  1  0.145357  0.854644  0.563929  1
  P  P5  1  0.239642  0.031512  0.248720  1
  P  P6  1  0.968488  0.456851  0.248720  1
  P  P7  1  0.543150  0.760357  0.248720  1
  P  P8  1  0.456850  0.239642  0.751281  1
  P  P9  1  0.031511  0.543150  0.751281  1
  P  P10  1  0.760357  0.968488  0.751281  1
  O  O11  1  0.131942  0.500242  0.072428  1
  O  O12  1  0.499758  0.704129  0.072428  1
  O  O13  1  0.295871  0.868058  0.072428  1
  O  O14  1  0.412094  0.215491  0.240249  1
  O  O15  1  0.784509  0.436852  0.240249  1
  O  O16  1  0.563148  0.587906  0.240249  1
  O  O17  1  0.082913  0.052161  0.233216  1
  O  O18  1  0.947839  0.263966  0.233216  1
  O  O19  1  0.736033  0.917088  0.233216  1
  O  O20  1  0.189747  0.001329  0.426119  1
  O  O21  1  0.998671  0.614537  0.426119  1
  O  O22  1  0.385463  0.810253  0.426119  1
  O  O23  1  0.614538  0.189747  0.573881  1
  O  O24  1  0.001328  0.385462  0.573881  1
  O  O25  1  0.810252  0.998671  0.573881  1
  O  O26  1  0.263967  0.082913  0.766785  1
  O  O27  1  0.052161  0.736033  0.766785  1
  O  O28  1  0.917087  0.947838  0.766785  1
  O  O29  1  0.436852  0.412093  0.759750  1
  O  O30  1  0.215491  0.563148  0.759750  1
  O  O31  1  0.587907  0.784510  0.759750  1
  O  O32  1  0.704128  0.131942  0.927572  1
  O  O33  1  0.500241  0.295871  0.927572  1
  O  O34  1  0.868057  0.499758  0.927572  1
