# generated using pymatgen
data_Bi5Ir3PbO18
_symmetry_space_group_name_H-M   'P 1'
_cell_length_a   9.27072929
_cell_length_b   9.30206006
_cell_length_c   5.28485557
_cell_angle_alpha   89.99999955
_cell_angle_beta   90.15966501
_cell_angle_gamma   120.11186465
_symmetry_Int_Tables_number   1
_chemical_formula_structural   Bi5Ir3PbO18
_chemical_formula_sum   'Bi5 Ir3 Pb1 O18'
_cell_volume   394.24290719
_cell_formula_units_Z   1
loop_
 _symmetry_equiv_pos_site_id
 _symmetry_equiv_pos_as_xyz
  1  'x, y, z'
loop_
 _atom_site_type_symbol
 _atom_site_label
 _atom_site_symmetry_multiplicity
 _atom_site_fract_x
 _atom_site_fract_y
 _atom_site_fract_z
 _atom_site_occupancy
  Bi  Bi0  1  0.285268  0.286608  0.000886  1
  Bi  Bi1  1  0.000000  0.713328  0.000000  1
  Bi  Bi2  1  0.623053  0.623995  0.500274  1
  Bi  Bi3  1  0.376947  0.000943  0.499726  1
  Bi  Bi4  1  0.714732  0.001340  0.999114  1
  Ir  Ir5  1  0.000000  0.998643  0.500000  1
  Ir  Ir6  1  0.334373  0.667718  0.001203  1
  Ir  Ir7  1  0.665627  0.333343  0.998797  1
  Pb  Pb8  1  0.000000  0.378413  0.500000  1
  O  O9  1  0.071617  0.189913  0.719748  1
  O  O10  1  0.234633  0.470365  0.213607  1
  O  O11  1  0.137770  0.600973  0.793263  1
  O  O12  1  0.404445  0.540146  0.788767  1
  O  O13  1  0.239272  0.774086  0.215495  1
  O  O14  1  0.120772  0.918669  0.709749  1
  O  O15  1  0.537587  0.766134  0.214820  1
  O  O16  1  0.200748  0.076956  0.289222  1
  O  O17  1  0.462423  0.865228  0.789715  1
  O  O18  1  0.799252  0.876208  0.710778  1
  O  O19  1  0.462413  0.228546  0.785180  1
  O  O20  1  0.595555  0.135701  0.211233  1
  O  O21  1  0.537577  0.402805  0.210285  1
  O  O22  1  0.765367  0.235732  0.786393  1
  O  O23  1  0.928383  0.118296  0.280252  1
  O  O24  1  0.760728  0.534813  0.784505  1
  O  O25  1  0.862230  0.463203  0.206737  1
  O  O26  1  0.879228  0.797897  0.290251  1
