# generated using pymatgen
data_Zr8NbSi16W11
_symmetry_space_group_name_H-M   'P 1'
_cell_length_a   6.77093823
_cell_length_b   6.77093823
_cell_length_c   12.52012731
_cell_angle_alpha   89.98165519
_cell_angle_beta   90.01834481
_cell_angle_gamma   90.09101897
_symmetry_Int_Tables_number   1
_chemical_formula_structural   Zr8NbSi16W11
_chemical_formula_sum   'Zr8 Nb1 Si16 W11'
_cell_volume   573.99202135
_cell_formula_units_Z   1
loop_
 _symmetry_equiv_pos_site_id
 _symmetry_equiv_pos_as_xyz
  1  'x, y, z'
loop_
 _atom_site_type_symbol
 _atom_site_label
 _atom_site_symmetry_multiplicity
 _atom_site_fract_x
 _atom_site_fract_y
 _atom_site_fract_z
 _atom_site_occupancy
  Zr  Zr0  1  0.004073  0.664940  0.030750  1
  Zr  Zr1  1  0.994733  0.335991  0.530754  1
  Zr  Zr2  1  0.664940  0.004073  0.969250  1
  Zr  Zr3  1  0.162922  0.495803  0.780196  1
  Zr  Zr4  1  0.836125  0.505980  0.281753  1
  Zr  Zr5  1  0.495803  0.162922  0.219804  1
  Zr  Zr6  1  0.505980  0.836125  0.718247  1
  Zr  Zr7  1  0.335991  0.994733  0.469246  1
  Nb  Nb8  1  0.333111  0.333111  0.000000  1
  Si  Si9  1  0.036615  0.709308  0.436499  1
  Si  Si10  1  0.959478  0.293090  0.934411  1
  Si  Si11  1  0.709308  0.036615  0.563501  1
  Si  Si12  1  0.208795  0.465895  0.188784  1
  Si  Si13  1  0.788708  0.535834  0.685776  1
  Si  Si14  1  0.465895  0.208795  0.811216  1
  Si  Si15  1  0.535834  0.788708  0.314224  1
  Si  Si16  1  0.293090  0.959478  0.065589  1
  Si  Si17  1  0.874621  0.795025  0.821488  1
  Si  Si18  1  0.126076  0.203913  0.321602  1
  Si  Si19  1  0.795025  0.874621  0.178512  1
  Si  Si20  1  0.294556  0.626470  0.571951  1
  Si  Si21  1  0.708776  0.372530  0.072457  1
  Si  Si22  1  0.626470  0.294556  0.428049  1
  Si  Si23  1  0.372530  0.708776  0.927543  1
  Si  Si24  1  0.203913  0.126076  0.678398  1
  W  W25  1  0.331704  0.493223  0.380750  1
  W  W26  1  0.832567  0.004121  0.371612  1
  W  W27  1  0.999332  0.166380  0.126912  1
  W  W28  1  0.004121  0.832567  0.628388  1
  W  W29  1  0.664718  0.505291  0.878552  1
  W  W30  1  0.493223  0.331704  0.619250  1
  W  W31  1  0.505291  0.664718  0.121448  1
  W  W32  1  0.166380  0.999332  0.873088  1
  W  W33  1  0.667848  0.667848  0.500000  1
  W  W34  1  0.832800  0.168650  0.748681  1
  W  W35  1  0.168650  0.832800  0.251319  1
