# generated using pymatgen
data_Zr6Sc4Al12Pt3Rh4
_symmetry_space_group_name_H-M   'P 1'
_cell_length_a   8.93254758
_cell_length_b   8.93077481
_cell_length_c   8.93050151
_cell_angle_alpha   60.02961732
_cell_angle_beta   59.99242305
_cell_angle_gamma   59.99343670
_symmetry_Int_Tables_number   1
_chemical_formula_structural   Zr6Sc4Al12Pt3Rh4
_chemical_formula_sum   'Zr6 Sc4 Al12 Pt3 Rh4'
_cell_volume   503.82069498
_cell_formula_units_Z   1
loop_
 _symmetry_equiv_pos_site_id
 _symmetry_equiv_pos_as_xyz
  1  'x, y, z'
loop_
 _atom_site_type_symbol
 _atom_site_label
 _atom_site_symmetry_multiplicity
 _atom_site_fract_x
 _atom_site_fract_y
 _atom_site_fract_z
 _atom_site_occupancy
  Zr  Zr0  1  0.683504  0.683014  0.316575  1
  Zr  Zr1  1  0.316907  0.683014  0.316575  1
  Zr  Zr2  1  0.684562  0.315841  0.315034  1
  Zr  Zr3  1  0.316209  0.316659  0.683727  1
  Zr  Zr4  1  0.683405  0.316659  0.683727  1
  Zr  Zr5  1  0.315524  0.684189  0.684764  1
  Sc  Sc6  1  0.881934  0.877060  0.359071  1
  Sc  Sc7  1  0.879479  0.360736  0.880305  1
  Sc  Sc8  1  0.359869  0.877959  0.883444  1
  Sc  Sc9  1  0.878727  0.877959  0.883444  1
  Al  Al10  1  0.120594  0.124212  0.634601  1
  Al  Al11  1  0.122459  0.633501  0.121581  1
  Al  Al12  1  0.633974  0.123680  0.119475  1
  Al  Al13  1  0.122871  0.123680  0.119475  1
  Al  Al14  1  0.662825  0.662645  0.011704  1
  Al  Al15  1  0.660558  0.014121  0.664762  1
  Al  Al16  1  0.012881  0.659648  0.663877  1
  Al  Al17  1  0.663594  0.659648  0.663877  1
  Al  Al18  1  0.336028  0.336344  0.991600  1
  Al  Al19  1  0.338226  0.990038  0.333511  1
  Al  Al20  1  0.990752  0.339402  0.334725  1
  Al  Al21  1  0.335122  0.339402  0.334725  1
  Pt  Pt22  1  0.999973  0.000483  0.999571  1
  Pt  Pt23  1  0.000872  0.000778  0.499137  1
  Pt  Pt24  1  0.499213  0.000778  0.499137  1
  Rh  Rh25  1  0.000971  0.499145  0.498913  1
  Rh  Rh26  1  0.498969  0.499189  0.000883  1
  Rh  Rh27  1  0.000959  0.499189  0.000883  1
  Rh  Rh28  1  0.499039  0.001024  0.000897  1
