# generated using pymatgen
data_Tm6Al24Ru7Rh
_symmetry_space_group_name_H-M   'P 1'
_cell_length_a   8.76824098
_cell_length_b   8.76590042
_cell_length_c   9.55968028
_cell_angle_alpha   89.99999957
_cell_angle_beta   89.81134823
_cell_angle_gamma   119.99117881
_symmetry_Int_Tables_number   1
_chemical_formula_structural   Tm6Al24Ru7Rh
_chemical_formula_sum   'Tm6 Al24 Ru7 Rh1'
_cell_volume   636.38285094
_cell_formula_units_Z   1
loop_
 _symmetry_equiv_pos_site_id
 _symmetry_equiv_pos_as_xyz
  1  'x, y, z'
loop_
 _atom_site_type_symbol
 _atom_site_label
 _atom_site_symmetry_multiplicity
 _atom_site_fract_x
 _atom_site_fract_y
 _atom_site_fract_z
 _atom_site_occupancy
  Tm  Tm0  1  0.804557  0.192217  0.748880  1
  Tm  Tm1  1  0.195443  0.807783  0.251120  1
  Tm  Tm2  1  0.388801  0.194400  0.749652  1
  Tm  Tm3  1  0.611199  0.805600  0.250348  1
  Tm  Tm4  1  0.804557  0.612341  0.748880  1
  Tm  Tm5  1  0.195443  0.387659  0.251120  1
  Al  Al6  1  0.665345  0.332672  0.980008  1
  Al  Al7  1  0.334655  0.667328  0.019992  1
  Al  Al8  1  0.333163  0.666582  0.480710  1
  Al  Al9  1  0.666837  0.333418  0.519290  1
  Al  Al10  1  0.837881  0.163445  0.421954  1
  Al  Al11  1  0.162119  0.836555  0.578046  1
  Al  Al12  1  0.326389  0.163194  0.422480  1
  Al  Al13  1  0.163723  0.838701  0.921791  1
  Al  Al14  1  0.673611  0.836806  0.577520  1
  Al  Al15  1  0.836277  0.161299  0.078209  1
  Al  Al16  1  0.837881  0.674436  0.421954  1
  Al  Al17  1  0.674396  0.837198  0.922116  1
  Al  Al18  1  0.162119  0.325564  0.578046  1
  Al  Al19  1  0.325604  0.162802  0.077884  1
  Al  Al20  1  0.163723  0.325022  0.921791  1
  Al  Al21  1  0.836277  0.674978  0.078209  1
  Al  Al22  1  0.437691  0.560901  0.750190  1
  Al  Al23  1  0.562309  0.439099  0.249810  1
  Al  Al24  1  0.122370  0.561186  0.749321  1
  Al  Al25  1  0.877630  0.438814  0.250679  1
  Al  Al26  1  0.437691  0.876791  0.750190  1
  Al  Al27  1  0.562309  0.123209  0.249810  1
  Al  Al28  1  0.999819  0.999910  0.749934  1
  Al  Al29  1  0.000181  0.000090  0.250066  1
  Ru  Ru30  1  0.500000  0.500000  0.000000  1
  Ru  Ru31  1  0.500000  0.500000  0.500000  1
  Ru  Ru32  1  0.500000  0.000000  0.000000  1
  Ru  Ru33  1  0.000000  0.500000  0.500000  1
  Ru  Ru34  1  0.500000  0.000000  0.500000  1
  Ru  Ru35  1  0.000000  0.000000  0.000000  1
  Ru  Ru36  1  0.000000  0.000000  0.500000  1
  Rh  Rh37  1  0.000000  0.500000  0.000000  1
