# generated using pymatgen
data_Sr2GaIrBr
_symmetry_space_group_name_H-M   'P 1'
_cell_length_a   4.34856300
_cell_length_b   4.34856273
_cell_length_c   17.57990400
_cell_angle_alpha   90.00000000
_cell_angle_beta   90.00000000
_cell_angle_gamma   119.99999448
_symmetry_Int_Tables_number   1
_chemical_formula_structural   Sr2GaIrBr
_chemical_formula_sum   'Sr4 Ga2 Ir2 Br2'
_cell_volume   287.89800820
_cell_formula_units_Z   2
loop_
 _symmetry_equiv_pos_site_id
 _symmetry_equiv_pos_as_xyz
  1  'x, y, z'
loop_
 _atom_site_type_symbol
 _atom_site_label
 _atom_site_symmetry_multiplicity
 _atom_site_fract_x
 _atom_site_fract_y
 _atom_site_fract_z
 _atom_site_occupancy
  Sr  Sr0  1  0.000000  0.000000  0.117141  1
  Sr  Sr1  1  0.000000  0.000000  0.382859  1
  Sr  Sr2  1  0.000000  0.000000  0.616860  1
  Sr  Sr3  1  0.000000  0.000000  0.883140  1
  Ga  Ga4  1  0.666667  0.333332  0.501127  1
  Ga  Ga5  1  0.666667  0.333332  0.998873  1
  Ir  Ir6  1  0.333334  0.666667  0.001029  1
  Ir  Ir7  1  0.333334  0.666667  0.498971  1
  Br  Br8  1  0.666667  0.333332  0.250000  1
  Br  Br9  1  0.333334  0.666667  0.750000  1
