# generated using pymatgen
data_PrTh(B4W)2
_symmetry_space_group_name_H-M   'P 1'
_cell_length_a   6.13881001
_cell_length_b   6.13881072
_cell_length_c   3.73477900
_cell_angle_alpha   90.00000000
_cell_angle_beta   90.00000000
_cell_angle_gamma   104.23768523
_symmetry_Int_Tables_number   1
_chemical_formula_structural   PrTh(B4W)2
_chemical_formula_sum   'Pr1 Th1 B8 W2'
_cell_volume   136.42196328
_cell_formula_units_Z   1
loop_
 _symmetry_equiv_pos_site_id
 _symmetry_equiv_pos_as_xyz
  1  'x, y, z'
loop_
 _atom_site_type_symbol
 _atom_site_label
 _atom_site_symmetry_multiplicity
 _atom_site_fract_x
 _atom_site_fract_y
 _atom_site_fract_z
 _atom_site_occupancy
  Pr  Pr0  1  0.301127  0.698873  0.000000  1
  Th  Th1  1  0.697976  0.302024  0.000000  1
  B  B2  1  0.378013  0.067122  0.500000  1
  B  B3  1  0.622762  0.935047  0.500000  1
  B  B4  1  0.064953  0.377238  0.500000  1
  B  B5  1  0.932878  0.621987  0.500000  1
  B  B6  1  0.373107  0.370900  0.500000  1
  B  B7  1  0.629100  0.626893  0.500000  1
  B  B8  1  0.090183  0.909817  0.500000  1
  B  B9  1  0.909467  0.090533  0.500000  1
  W  W10  1  0.169390  0.168956  0.000000  1
  W  W11  1  0.831044  0.830610  0.000000  1
