# generated using pymatgen
data_NdEr2RuI3
_symmetry_space_group_name_H-M   'P 1'
_cell_length_a   4.24230700
_cell_length_b   9.01880425
_cell_length_c   12.37197879
_cell_angle_alpha   94.41225769
_cell_angle_beta   90.00000000
_cell_angle_gamma   90.00000000
_symmetry_Int_Tables_number   1
_chemical_formula_structural   NdEr2RuI3
_chemical_formula_sum   'Nd2 Er4 Ru2 I6'
_cell_volume   471.95565998
_cell_formula_units_Z   2
loop_
 _symmetry_equiv_pos_site_id
 _symmetry_equiv_pos_as_xyz
  1  'x, y, z'
loop_
 _atom_site_type_symbol
 _atom_site_label
 _atom_site_symmetry_multiplicity
 _atom_site_fract_x
 _atom_site_fract_y
 _atom_site_fract_z
 _atom_site_occupancy
  Nd  Nd0  1  0.750000  0.273289  0.604170  1
  Nd  Nd1  1  0.250000  0.726711  0.395830  1
  Er  Er2  1  0.750000  0.881774  0.625873  1
  Er  Er3  1  0.250000  0.118226  0.374127  1
  Er  Er4  1  0.750000  0.897979  0.184580  1
  Er  Er5  1  0.250000  0.102021  0.815420  1
  Ru  Ru6  1  0.750000  0.940917  0.404947  1
  Ru  Ru7  1  0.250000  0.059083  0.595053  1
  I  I8  1  0.750000  0.413165  0.359881  1
  I  I9  1  0.250000  0.586835  0.640119  1
  I  I10  1  0.750000  0.868101  0.889993  1
  I  I11  1  0.250000  0.131899  0.110007  1
  I  I12  1  0.750000  0.348128  0.871277  1
  I  I13  1  0.250000  0.651872  0.128723  1
