# generated using pymatgen
data_Li2Ni2P7Ru10
_symmetry_space_group_name_H-M   'P 1'
_cell_length_a   9.38786474
_cell_length_b   9.29986976
_cell_length_c   3.78401200
_cell_angle_alpha   90.00000000
_cell_angle_beta   90.00000000
_cell_angle_gamma   119.35905213
_symmetry_Int_Tables_number   1
_chemical_formula_structural   Li2Ni2P7Ru10
_chemical_formula_sum   'Li2 Ni2 P7 Ru10'
_cell_volume   287.93581651
_cell_formula_units_Z   1
loop_
 _symmetry_equiv_pos_site_id
 _symmetry_equiv_pos_as_xyz
  1  'x, y, z'
loop_
 _atom_site_type_symbol
 _atom_site_label
 _atom_site_symmetry_multiplicity
 _atom_site_fract_x
 _atom_site_fract_y
 _atom_site_fract_z
 _atom_site_occupancy
  Li  Li0  1  0.999806  0.998980  0.000000  1
  Li  Li1  1  0.333228  0.666639  0.500000  1
  Ni  Ni2  1  0.779451  0.174149  0.000000  1
  Ni  Ni3  1  0.393633  0.222187  0.000000  1
  P  P4  1  0.660359  0.328269  0.000000  1
  P  P5  1  0.088970  0.641727  0.000000  1
  P  P6  1  0.557200  0.923390  0.000000  1
  P  P7  1  0.360352  0.445721  0.000000  1
  P  P8  1  0.783002  0.736977  0.500000  1
  P  P9  1  0.956109  0.216153  0.500000  1
  P  P10  1  0.267130  0.044894  0.500000  1
  Ru  Ru11  1  0.090995  0.394871  0.000000  1
  Ru  Ru12  1  0.309163  0.910016  0.000000  1
  Ru  Ru13  1  0.595327  0.695644  0.000000  1
  Ru  Ru14  1  0.823662  0.603905  0.000000  1
  Ru  Ru15  1  0.057749  0.774309  0.500000  1
  Ru  Ru16  1  0.721443  0.950641  0.500000  1
  Ru  Ru17  1  0.228521  0.277176  0.500000  1
  Ru  Ru18  1  0.864950  0.411549  0.500000  1
  Ru  Ru19  1  0.549197  0.130660  0.500000  1
  Ru  Ru20  1  0.579756  0.452143  0.500000  1
