# generated using pymatgen
data_PrNd3Y4(SiO5)4
_symmetry_space_group_name_H-M   'P 1'
_cell_length_a   8.14917703
_cell_length_b   8.14083895
_cell_length_c   10.79982708
_cell_angle_alpha   61.10163826
_cell_angle_beta   61.09963581
_cell_angle_gamma   50.28246995
_symmetry_Int_Tables_number   1
_chemical_formula_structural   PrNd3Y4(SiO5)4
_chemical_formula_sum   'Pr1 Nd3 Y4 Si4 O20'
_cell_volume   466.01120358
_cell_formula_units_Z   1
loop_
 _symmetry_equiv_pos_site_id
 _symmetry_equiv_pos_as_xyz
  1  'x, y, z'
loop_
 _atom_site_type_symbol
 _atom_site_label
 _atom_site_symmetry_multiplicity
 _atom_site_fract_x
 _atom_site_fract_y
 _atom_site_fract_z
 _atom_site_occupancy
  Pr  Pr0  1  0.290723  0.783666  0.535820  1
  Nd  Nd1  1  0.782063  0.291896  0.035019  1
  Nd  Nd2  1  0.707837  0.217755  0.464760  1
  Nd  Nd3  1  0.217960  0.708133  0.965121  1
  Y  Y4  1  0.237227  0.477233  0.336730  1
  Y  Y5  1  0.522642  0.762830  0.162881  1
  Y  Y6  1  0.763444  0.521996  0.663342  1
  Y  Y7  1  0.477948  0.236616  0.836946  1
  Si  Si8  1  0.729070  0.903879  0.306205  1
  Si  Si9  1  0.095561  0.272169  0.192928  1
  Si  Si10  1  0.271587  0.096280  0.693785  1
  Si  Si11  1  0.903311  0.728352  0.807094  1
  O  O12  1  0.422134  0.611401  0.107740  1
  O  O13  1  0.389742  0.576598  0.391218  1
  O  O14  1  0.577827  0.388572  0.892051  1
  O  O15  1  0.613341  0.420151  0.608431  1
  O  O16  1  0.867498  0.724276  0.432580  1
  O  O17  1  0.275697  0.132552  0.067223  1
  O  O18  1  0.132899  0.274971  0.567458  1
  O  O19  1  0.724001  0.867483  0.933067  1
  O  O20  1  0.565633  0.843660  0.316828  1
  O  O21  1  0.156481  0.435827  0.181551  1
  O  O22  1  0.435046  0.157474  0.681793  1
  O  O23  1  0.843591  0.563799  0.818527  1
  O  O24  1  0.158424  0.589582  0.823253  1
  O  O25  1  0.411900  0.840451  0.678049  1
  O  O26  1  0.840791  0.411098  0.176457  1
  O  O27  1  0.589392  0.159057  0.322889  1
  O  O28  1  0.906964  0.906473  0.645398  1
  O  O29  1  0.094006  0.090337  0.855527  1
  O  O30  1  0.088908  0.095434  0.354992  1
  O  O31  1  0.906352  0.909999  0.144335  1
