# generated using pymatgen
data_Tm9Mg(Ni2Bi)2
_symmetry_space_group_name_H-M   'P 1'
_cell_length_a   8.66880841
_cell_length_b   8.66880805
_cell_length_c   8.66880823
_cell_angle_alpha   129.12782747
_cell_angle_beta   129.12782884
_cell_angle_gamma   74.80497920
_symmetry_Int_Tables_number   1
_chemical_formula_structural   Tm9Mg(Ni2Bi)2
_chemical_formula_sum   'Tm9 Mg1 Ni4 Bi2'
_cell_volume   381.86106028
_cell_formula_units_Z   1
loop_
 _symmetry_equiv_pos_site_id
 _symmetry_equiv_pos_as_xyz
  1  'x, y, z'
loop_
 _atom_site_type_symbol
 _atom_site_label
 _atom_site_symmetry_multiplicity
 _atom_site_fract_x
 _atom_site_fract_y
 _atom_site_fract_z
 _atom_site_occupancy
  Tm  Tm0  1  0.500000  0.500000  0.000000  1
  Tm  Tm1  1  0.798327  0.281344  0.823106  1
  Tm  Tm2  1  0.201673  0.718656  0.176894  1
  Tm  Tm3  1  0.458237  0.975221  0.176894  1
  Tm  Tm4  1  0.281344  0.458237  0.483016  1
  Tm  Tm5  1  0.024779  0.201673  0.483016  1
  Tm  Tm6  1  0.541763  0.024779  0.823106  1
  Tm  Tm7  1  0.718656  0.541763  0.516984  1
  Tm  Tm8  1  0.975221  0.798327  0.516984  1
  Mg  Mg9  1  0.000000  0.000000  0.000000  1
  Ni  Ni10  1  0.132418  0.623370  0.755789  1
  Ni  Ni11  1  0.867582  0.376630  0.244211  1
  Ni  Ni12  1  0.623370  0.867582  0.490953  1
  Ni  Ni13  1  0.376630  0.132418  0.509047  1
  Bi  Bi14  1  0.257888  0.257888  0.000000  1
  Bi  Bi15  1  0.742112  0.742112  0.000000  1
