# generated using pymatgen
data_Lu8TaNb8Si16Mo3
_symmetry_space_group_name_H-M   'P 1'
_cell_length_a   6.73607105
_cell_length_b   6.98496306
_cell_length_c   13.22860700
_cell_angle_alpha   90.00000000
_cell_angle_beta   90.00000000
_cell_angle_gamma   89.93968466
_symmetry_Int_Tables_number   1
_chemical_formula_structural   Lu8TaNb8Si16Mo3
_chemical_formula_sum   'Lu8 Ta1 Nb8 Si16 Mo3'
_cell_volume   622.42158693
_cell_formula_units_Z   1
loop_
 _symmetry_equiv_pos_site_id
 _symmetry_equiv_pos_as_xyz
  1  'x, y, z'
loop_
 _atom_site_type_symbol
 _atom_site_label
 _atom_site_symmetry_multiplicity
 _atom_site_fract_x
 _atom_site_fract_y
 _atom_site_fract_z
 _atom_site_occupancy
  Lu  Lu0  1  0.501425  0.327251  0.094556  1
  Lu  Lu1  1  0.001175  0.172705  0.405299  1
  Lu  Lu2  1  0.498314  0.672892  0.595075  1
  Lu  Lu3  1  0.998063  0.827217  0.905314  1
  Lu  Lu4  1  0.498314  0.672892  0.904925  1
  Lu  Lu5  1  0.998063  0.827217  0.594686  1
  Lu  Lu6  1  0.501425  0.327251  0.405444  1
  Lu  Lu7  1  0.001175  0.172705  0.094701  1
  Ta  Ta8  1  0.660602  0.007164  0.750000  1
  Nb  Nb9  1  0.834495  0.329265  0.625463  1
  Nb  Nb10  1  0.334154  0.171090  0.874830  1
  Nb  Nb11  1  0.165797  0.670200  0.126079  1
  Nb  Nb12  1  0.666508  0.829903  0.373375  1
  Nb  Nb13  1  0.165797  0.670200  0.373921  1
  Nb  Nb14  1  0.666508  0.829903  0.126625  1
  Nb  Nb15  1  0.834495  0.329265  0.874537  1
  Nb  Nb16  1  0.334154  0.171090  0.625170  1
  Si  Si17  1  0.665563  0.036106  0.541395  1
  Si  Si18  1  0.165270  0.463029  0.957812  1
  Si  Si19  1  0.335099  0.962769  0.042845  1
  Si  Si20  1  0.834768  0.537005  0.457513  1
  Si  Si21  1  0.335099  0.962769  0.457155  1
  Si  Si22  1  0.834768  0.537005  0.042487  1
  Si  Si23  1  0.665563  0.036106  0.958605  1
  Si  Si24  1  0.165270  0.463029  0.542188  1
  Si  Si25  1  0.532972  0.383170  0.750000  1
  Si  Si26  1  0.037842  0.119187  0.750000  1
  Si  Si27  1  0.465600  0.618652  0.250000  1
  Si  Si28  1  0.966839  0.882116  0.250000  1
  Si  Si29  1  0.797305  0.632805  0.750000  1
  Si  Si30  1  0.293366  0.863315  0.750000  1
  Si  Si31  1  0.202533  0.364638  0.250000  1
  Si  Si32  1  0.702676  0.135718  0.250000  1
  Mo  Mo33  1  0.161170  0.494220  0.750000  1
  Mo  Mo34  1  0.339366  0.994908  0.250000  1
  Mo  Mo35  1  0.838468  0.505246  0.250000  1
