# generated using pymatgen
data_Al8Cr2GePb3O20
_symmetry_space_group_name_H-M   'P 1'
_cell_length_a   9.70049194
_cell_length_b   9.70049308
_cell_length_c   5.09735295
_cell_angle_alpha   75.17627609
_cell_angle_beta   75.17626762
_cell_angle_gamma   73.12993300
_symmetry_Int_Tables_number   1
_chemical_formula_structural   Al8Cr2GePb3O20
_chemical_formula_sum   'Al8 Cr2 Ge1 Pb3 O20'
_cell_volume   435.10613437
_cell_formula_units_Z   1
loop_
 _symmetry_equiv_pos_site_id
 _symmetry_equiv_pos_as_xyz
  1  'x, y, z'
loop_
 _atom_site_type_symbol
 _atom_site_label
 _atom_site_symmetry_multiplicity
 _atom_site_fract_x
 _atom_site_fract_y
 _atom_site_fract_z
 _atom_site_occupancy
  Al  Al0  1  0.282950  0.008985  0.368375  1
  Al  Al1  1  0.991015  0.717050  0.631625  1
  Al  Al2  1  0.717050  0.991015  0.631625  1
  Al  Al3  1  0.008985  0.282950  0.368375  1
  Al  Al4  1  0.578568  0.148336  0.106171  1
  Al  Al5  1  0.851664  0.421432  0.893829  1
  Al  Al6  1  0.421432  0.851664  0.893829  1
  Al  Al7  1  0.148336  0.578568  0.106171  1
  Cr  Cr8  1  0.634402  0.365598  0.500000  1
  Cr  Cr9  1  0.365598  0.634402  0.500000  1
  Ge  Ge10  1  0.500000  0.500000  0.000000  1
  Pb  Pb11  1  0.000000  0.000000  0.000000  1
  Pb  Pb12  1  0.727646  0.727646  0.210008  1
  Pb  Pb13  1  0.272354  0.272354  0.789992  1
  O  O14  1  0.567420  0.567420  0.256978  1
  O  O15  1  0.432580  0.432580  0.743022  1
  O  O16  1  0.104621  0.104621  0.307282  1
  O  O17  1  0.895379  0.895379  0.692718  1
  O  O18  1  0.401619  0.118340  0.149883  1
  O  O19  1  0.881660  0.598381  0.850117  1
  O  O20  1  0.598381  0.881660  0.850117  1
  O  O21  1  0.118340  0.401619  0.149883  1
  O  O22  1  0.337766  0.837260  0.255064  1
  O  O23  1  0.162740  0.662234  0.744936  1
  O  O24  1  0.662234  0.162740  0.744936  1
  O  O25  1  0.837260  0.337766  0.255064  1
  O  O26  1  0.985955  0.289123  0.720315  1
  O  O27  1  0.710877  0.014045  0.279685  1
  O  O28  1  0.014045  0.710877  0.279685  1
  O  O29  1  0.289123  0.985955  0.720315  1
  O  O30  1  0.688722  0.452536  0.766044  1
  O  O31  1  0.547464  0.311278  0.233956  1
  O  O32  1  0.311278  0.547464  0.233956  1
  O  O33  1  0.452536  0.688722  0.766044  1
