# generated using pymatgen
data_La6Nd10MgCd3Ru4
_symmetry_space_group_name_H-M   'P 1'
_cell_length_a   10.03826444
_cell_length_b   10.01193909
_cell_length_c   10.03852494
_cell_angle_alpha   59.55649226
_cell_angle_beta   59.33613519
_cell_angle_gamma   59.88506848
_symmetry_Int_Tables_number   1
_chemical_formula_structural   La6Nd10MgCd3Ru4
_chemical_formula_sum   'La6 Nd10 Mg1 Cd3 Ru4'
_cell_volume   706.75771497
_cell_formula_units_Z   1
loop_
 _symmetry_equiv_pos_site_id
 _symmetry_equiv_pos_as_xyz
  1  'x, y, z'
loop_
 _atom_site_type_symbol
 _atom_site_label
 _atom_site_symmetry_multiplicity
 _atom_site_fract_x
 _atom_site_fract_y
 _atom_site_fract_z
 _atom_site_occupancy
  La  La0  1  0.906680  0.905502  0.286179  1
  La  La1  1  0.062160  0.434790  0.062922  1
  La  La2  1  0.306214  0.305248  0.693110  1
  La  La3  1  0.060097  0.438544  0.436728  1
  La  La4  1  0.439344  0.059280  0.435120  1
  La  La5  1  0.686615  0.314615  0.685144  1
  Nd  Nd6  1  0.906262  0.905854  0.904946  1
  Nd  Nd7  1  0.441841  0.440123  0.056535  1
  Nd  Nd8  1  0.059030  0.054430  0.442870  1
  Nd  Nd9  1  0.440578  0.057580  0.062376  1
  Nd  Nd10  1  0.313021  0.685358  0.313919  1
  Nd  Nd11  1  0.686216  0.688254  0.312979  1
  Nd  Nd12  1  0.688031  0.309929  0.310242  1
  Nd  Nd13  1  0.286520  0.903025  0.906714  1
  Nd  Nd14  1  0.902158  0.289685  0.904254  1
  Nd  Nd15  1  0.312096  0.688634  0.686032  1
  Mg  Mg16  1  0.673134  0.676331  0.976776  1
  Cd  Cd17  1  0.988688  0.673945  0.671441  1
  Cd  Cd18  1  0.672179  0.987889  0.672392  1
  Cd  Cd19  1  0.667955  0.670927  0.674301  1
  Ru  Ru20  1  0.120960  0.119689  0.656801  1
  Ru  Ru21  1  0.109110  0.124377  0.104453  1
  Ru  Ru22  1  0.107187  0.658973  0.119336  1
  Ru  Ru23  1  0.663925  0.107018  0.124427  1
