# generated using pymatgen
data_LiLu4B12Ir
_symmetry_space_group_name_H-M   'P 1'
_cell_length_a   3.59472600
_cell_length_b   9.04754465
_cell_length_c   11.37248702
_cell_angle_alpha   89.87557146
_cell_angle_beta   90.00000000
_cell_angle_gamma   90.00000000
_symmetry_Int_Tables_number   1
_chemical_formula_structural   LiLu4B12Ir
_chemical_formula_sum   'Li2 Lu8 B24 Ir2'
_cell_volume   369.87157232
_cell_formula_units_Z   2
loop_
 _symmetry_equiv_pos_site_id
 _symmetry_equiv_pos_as_xyz
  1  'x, y, z'
loop_
 _atom_site_type_symbol
 _atom_site_label
 _atom_site_symmetry_multiplicity
 _atom_site_fract_x
 _atom_site_fract_y
 _atom_site_fract_z
 _atom_site_occupancy
  Li  Li0  1  0.000000  0.138330  0.178974  1
  Li  Li1  1  0.000000  0.861670  0.821026  1
  Lu  Lu2  1  0.000000  0.319128  0.411913  1
  Lu  Lu3  1  0.000000  0.680872  0.588087  1
  Lu  Lu4  1  0.000000  0.826837  0.083471  1
  Lu  Lu5  1  0.000000  0.173163  0.916529  1
  Lu  Lu6  1  0.000000  0.946078  0.369664  1
  Lu  Lu7  1  0.000000  0.053922  0.630336  1
  Lu  Lu8  1  0.000000  0.439036  0.127652  1
  Lu  Lu9  1  0.000000  0.560964  0.872348  1
  B  B10  1  0.500000  0.553588  0.434382  1
  B  B11  1  0.500000  0.446412  0.565618  1
  B  B12  1  0.500000  0.051086  0.064572  1
  B  B13  1  0.500000  0.948914  0.935428  1
  B  B14  1  0.500000  0.751502  0.420336  1
  B  B15  1  0.500000  0.248498  0.579664  1
  B  B16  1  0.500000  0.248004  0.079524  1
  B  B17  1  0.500000  0.751996  0.920476  1
  B  B18  1  0.500000  0.794660  0.263539  1
  B  B19  1  0.500000  0.205340  0.736461  1
  B  B20  1  0.500000  0.293095  0.236921  1
  B  B21  1  0.500000  0.706905  0.763079  1
  B  B22  1  0.500000  0.630946  0.184050  1
  B  B23  1  0.500000  0.369054  0.815950  1
  B  B24  1  0.500000  0.132858  0.316811  1
  B  B25  1  0.500000  0.867142  0.683189  1
  B  B26  1  0.500000  0.981438  0.211291  1
  B  B27  1  0.500000  0.018562  0.788709  1
  B  B28  1  0.500000  0.479339  0.287631  1
  B  B29  1  0.500000  0.520661  0.712369  1
  B  B30  1  0.500000  0.605809  0.028984  1
  B  B31  1  0.500000  0.394191  0.971016  1
  B  B32  1  0.500000  0.105154  0.470598  1
  B  B33  1  0.500000  0.894846  0.529402  1
  Ir  Ir34  1  0.000000  0.637348  0.323663  1
  Ir  Ir35  1  0.000000  0.362652  0.676337  1
