# generated using pymatgen
data_Nd3VFeP6Ir7
_symmetry_space_group_name_H-M   'P 1'
_cell_length_a   3.95136700
_cell_length_b   11.25405600
_cell_length_c   12.98574800
_cell_angle_alpha   90.00000000
_cell_angle_beta   90.00000000
_cell_angle_gamma   90.00000000
_symmetry_Int_Tables_number   1
_chemical_formula_structural   Nd3VFeP6Ir7
_chemical_formula_sum   'Nd6 V2 Fe2 P12 Ir14'
_cell_volume   577.46200059
_cell_formula_units_Z   2
loop_
 _symmetry_equiv_pos_site_id
 _symmetry_equiv_pos_as_xyz
  1  'x, y, z'
loop_
 _atom_site_type_symbol
 _atom_site_label
 _atom_site_symmetry_multiplicity
 _atom_site_fract_x
 _atom_site_fract_y
 _atom_site_fract_z
 _atom_site_occupancy
  Nd  Nd0  1  0.000000  0.500000  0.516498  1
  Nd  Nd1  1  0.500000  0.000000  0.483502  1
  Nd  Nd2  1  0.500000  0.820163  0.199946  1
  Nd  Nd3  1  0.500000  0.179837  0.199946  1
  Nd  Nd4  1  0.000000  0.679837  0.800054  1
  Nd  Nd5  1  0.000000  0.320163  0.800054  1
  V  V6  1  0.500000  0.500000  0.154079  1
  V  V7  1  0.000000  0.000000  0.845921  1
  Fe  Fe8  1  0.000000  0.500000  0.992357  1
  Fe  Fe9  1  0.500000  0.000000  0.007643  1
  P  P10  1  0.500000  0.500000  0.888405  1
  P  P11  1  0.000000  0.000000  0.111595  1
  P  P12  1  0.500000  0.500000  0.338325  1
  P  P13  1  0.000000  0.000000  0.661675  1
  P  P14  1  0.500000  0.311219  0.618629  1
  P  P15  1  0.500000  0.688781  0.618629  1
  P  P16  1  0.000000  0.188781  0.381371  1
  P  P17  1  0.000000  0.811219  0.381371  1
  P  P18  1  0.500000  0.853787  0.896105  1
  P  P19  1  0.500000  0.146213  0.896105  1
  P  P20  1  0.000000  0.646213  0.103895  1
  P  P21  1  0.000000  0.353787  0.103895  1
  Ir  Ir22  1  0.500000  0.500000  0.702405  1
  Ir  Ir23  1  0.000000  0.000000  0.297595  1
  Ir  Ir24  1  0.500000  0.334160  0.993677  1
  Ir  Ir25  1  0.500000  0.665840  0.993677  1
  Ir  Ir26  1  0.000000  0.165840  0.006323  1
  Ir  Ir27  1  0.000000  0.834160  0.006323  1
  Ir  Ir28  1  0.500000  0.291418  0.429437  1
  Ir  Ir29  1  0.500000  0.708582  0.429437  1
  Ir  Ir30  1  0.000000  0.208582  0.570563  1
  Ir  Ir31  1  0.000000  0.791418  0.570563  1
  Ir  Ir32  1  0.500000  0.875661  0.714832  1
  Ir  Ir33  1  0.500000  0.124339  0.714832  1
  Ir  Ir34  1  0.000000  0.624339  0.285168  1
  Ir  Ir35  1  0.000000  0.375661  0.285168  1
