# generated using pymatgen
data_Tb4Y12CdHg3Pd4
_symmetry_space_group_name_H-M   'P 1'
_cell_length_a   9.69476811
_cell_length_b   9.70855758
_cell_length_c   9.70855700
_cell_angle_alpha   59.99999857
_cell_angle_beta   59.95293604
_cell_angle_gamma   59.95294022
_symmetry_Int_Tables_number   1
_chemical_formula_structural   Tb4Y12CdHg3Pd4
_chemical_formula_sum   'Tb4 Y12 Cd1 Hg3 Pd4'
_cell_volume   645.68771110
_cell_formula_units_Z   1
loop_
 _symmetry_equiv_pos_site_id
 _symmetry_equiv_pos_as_xyz
  1  'x, y, z'
loop_
 _atom_site_type_symbol
 _atom_site_label
 _atom_site_symmetry_multiplicity
 _atom_site_fract_x
 _atom_site_fract_y
 _atom_site_fract_z
 _atom_site_occupancy
  Tb  Tb0  1  0.358254  0.356120  0.356120  1
  Tb  Tb1  1  0.358254  0.356120  0.929504  1
  Tb  Tb2  1  0.358254  0.929504  0.356120  1
  Tb  Tb3  1  0.925191  0.358269  0.358269  1
  Y  Y4  1  0.811270  0.188460  0.188460  1
  Y  Y5  1  0.186786  0.812386  0.812386  1
  Y  Y6  1  0.186786  0.812386  0.188442  1
  Y  Y7  1  0.811270  0.188460  0.811809  1
  Y  Y8  1  0.186786  0.188442  0.812386  1
  Y  Y9  1  0.811270  0.811809  0.188460  1
  Y  Y10  1  0.934506  0.565297  0.565297  1
  Y  Y11  1  0.564609  0.935130  0.935130  1
  Y  Y12  1  0.564609  0.935130  0.565131  1
  Y  Y13  1  0.934506  0.565297  0.934900  1
  Y  Y14  1  0.564609  0.565131  0.935130  1
  Y  Y15  1  0.934506  0.934900  0.565297  1
  Cd  Cd16  1  0.253886  0.582038  0.582038  1
  Hg  Hg17  1  0.585419  0.588388  0.588388  1
  Hg  Hg18  1  0.585419  0.588388  0.237807  1
  Hg  Hg19  1  0.585419  0.237807  0.588388  1
  Pd  Pd20  1  0.145611  0.146691  0.146691  1
  Pd  Pd21  1  0.145611  0.146691  0.561005  1
  Pd  Pd22  1  0.145611  0.561005  0.146691  1
  Pd  Pd23  1  0.561558  0.146147  0.146147  1
