# generated using pymatgen
data_SrEr6NiI12
_symmetry_space_group_name_H-M   'P 1'
_cell_length_a   9.70492572
_cell_length_b   9.70492605
_cell_length_c   9.70492756
_cell_angle_alpha   106.28333510
_cell_angle_beta   106.28333165
_cell_angle_gamma   106.28333348
_symmetry_Int_Tables_number   1
_chemical_formula_structural   SrEr6NiI12
_chemical_formula_sum   'Sr1 Er6 Ni1 I12'
_cell_volume   775.64267294
_cell_formula_units_Z   1
loop_
 _symmetry_equiv_pos_site_id
 _symmetry_equiv_pos_as_xyz
  1  'x, y, z'
loop_
 _atom_site_type_symbol
 _atom_site_label
 _atom_site_symmetry_multiplicity
 _atom_site_fract_x
 _atom_site_fract_y
 _atom_site_fract_z
 _atom_site_occupancy
  Sr  Sr0  1  0.500000  0.500000  0.500000  1
  Er  Er1  1  0.907923  0.978948  0.711315  1
  Er  Er2  1  0.711315  0.907923  0.978948  1
  Er  Er3  1  0.978948  0.711315  0.907923  1
  Er  Er4  1  0.092077  0.021052  0.288685  1
  Er  Er5  1  0.288685  0.092077  0.021052  1
  Er  Er6  1  0.021052  0.288685  0.092077  1
  Ni  Ni7  1  0.000000  0.000000  0.000000  1
  I  I8  1  0.925978  0.323250  0.776923  1
  I  I9  1  0.776923  0.925978  0.323250  1
  I  I10  1  0.323250  0.776923  0.925978  1
  I  I11  1  0.074022  0.676750  0.223077  1
  I  I12  1  0.223077  0.074022  0.676750  1
  I  I13  1  0.676750  0.223077  0.074022  1
  I  I14  1  0.550120  0.864750  0.630026  1
  I  I15  1  0.630026  0.550120  0.864750  1
  I  I16  1  0.864750  0.630026  0.550120  1
  I  I17  1  0.449880  0.135250  0.369974  1
  I  I18  1  0.369974  0.449880  0.135250  1
  I  I19  1  0.135250  0.369974  0.449880  1
