# generated using pymatgen
data_MgCd2Sn(RhO4)2
_symmetry_space_group_name_H-M   'P 1'
_cell_length_a   6.31219108
_cell_length_b   6.31171237
_cell_length_c   6.31171316
_cell_angle_alpha   60.92384524
_cell_angle_beta   60.88789967
_cell_angle_gamma   60.88790570
_symmetry_Int_Tables_number   1
_chemical_formula_structural   MgCd2Sn(RhO4)2
_chemical_formula_sum   'Mg1 Cd2 Sn1 Rh2 O8'
_cell_volume   181.41797949
_cell_formula_units_Z   1
loop_
 _symmetry_equiv_pos_site_id
 _symmetry_equiv_pos_as_xyz
  1  'x, y, z'
loop_
 _atom_site_type_symbol
 _atom_site_label
 _atom_site_symmetry_multiplicity
 _atom_site_fract_x
 _atom_site_fract_y
 _atom_site_fract_z
 _atom_site_occupancy
  Mg  Mg0  1  0.625000  0.625000  0.625000  1
  Cd  Cd1  1  0.241839  0.243637  0.243637  1
  Cd  Cd2  1  0.008161  0.006363  0.006363  1
  Sn  Sn3  1  0.125000  0.625000  0.625000  1
  Rh  Rh4  1  0.625000  0.625000  0.125000  1
  Rh  Rh5  1  0.625000  0.125000  0.625000  1
  O  O6  1  0.859350  0.860358  0.425320  1
  O  O7  1  0.859350  0.425320  0.860358  1
  O  O8  1  0.429328  0.858115  0.858115  1
  O  O9  1  0.851856  0.862598  0.862598  1
  O  O10  1  0.390650  0.389642  0.824680  1
  O  O11  1  0.390650  0.824680  0.389642  1
  O  O12  1  0.820672  0.391885  0.391885  1
  O  O13  1  0.398144  0.387402  0.387402  1
