# generated using pymatgen
data_Y7RuI12
_symmetry_space_group_name_H-M   'P 1'
_cell_length_a   9.82357719
_cell_length_b   9.82357679
_cell_length_c   9.82357714
_cell_angle_alpha   107.22371380
_cell_angle_beta   107.22371359
_cell_angle_gamma   107.22371068
_symmetry_Int_Tables_number   1
_chemical_formula_structural   Y7RuI12
_chemical_formula_sum   'Y7 Ru1 I12'
_cell_volume   784.63670474
_cell_formula_units_Z   1
loop_
 _symmetry_equiv_pos_site_id
 _symmetry_equiv_pos_as_xyz
  1  'x, y, z'
loop_
 _atom_site_type_symbol
 _atom_site_label
 _atom_site_symmetry_multiplicity
 _atom_site_fract_x
 _atom_site_fract_y
 _atom_site_fract_z
 _atom_site_occupancy
  Y  Y0  1  0.704573  0.978692  0.907457  1
  Y  Y1  1  0.978692  0.907457  0.704573  1
  Y  Y2  1  0.500000  0.500000  0.500000  1
  Y  Y3  1  0.092543  0.295427  0.021308  1
  Y  Y4  1  0.295427  0.021308  0.092543  1
  Y  Y5  1  0.907457  0.704573  0.978692  1
  Y  Y6  1  0.021308  0.092543  0.295427  1
  Ru  Ru7  1  0.000000  0.000000  0.000000  1
  I  I8  1  0.072307  0.226594  0.677393  1
  I  I9  1  0.385831  0.160573  0.462783  1
  I  I10  1  0.614169  0.839427  0.537217  1
  I  I11  1  0.226594  0.677393  0.072307  1
  I  I12  1  0.773406  0.322607  0.927693  1
  I  I13  1  0.677393  0.072307  0.226594  1
  I  I14  1  0.537217  0.614169  0.839427  1
  I  I15  1  0.839427  0.537217  0.614169  1
  I  I16  1  0.927693  0.773406  0.322607  1
  I  I17  1  0.322607  0.927693  0.773406  1
  I  I18  1  0.462783  0.385831  0.160573  1
  I  I19  1  0.160573  0.462783  0.385831  1
