# generated using pymatgen
data_La4Dy5YSn8
_symmetry_space_group_name_H-M   'P 1'
_cell_length_a   8.15424100
_cell_length_b   8.33013210
_cell_length_c   15.70953600
_cell_angle_alpha   89.99107906
_cell_angle_beta   90.00000000
_cell_angle_gamma   90.00000000
_symmetry_Int_Tables_number   1
_chemical_formula_structural   La4Dy5YSn8
_chemical_formula_sum   'La8 Dy10 Y2 Sn16'
_cell_volume   1067.08443249
_cell_formula_units_Z   2
loop_
 _symmetry_equiv_pos_site_id
 _symmetry_equiv_pos_as_xyz
  1  'x, y, z'
loop_
 _atom_site_type_symbol
 _atom_site_label
 _atom_site_symmetry_multiplicity
 _atom_site_fract_x
 _atom_site_fract_y
 _atom_site_fract_z
 _atom_site_occupancy
  La  La0  1  0.513703  0.321743  0.903230  1
  La  La1  1  0.013703  0.178257  0.596770  1
  La  La2  1  0.486428  0.678273  0.403337  1
  La  La3  1  0.986428  0.821727  0.096663  1
  La  La4  1  0.486332  0.678113  0.096672  1
  La  La5  1  0.986332  0.821887  0.403328  1
  La  La6  1  0.513720  0.321816  0.596810  1
  La  La7  1  0.013720  0.178184  0.903190  1
  Dy  Dy8  1  0.640385  0.163984  0.376886  1
  Dy  Dy9  1  0.140385  0.336016  0.123114  1
  Dy  Dy10  1  0.640374  0.164043  0.123077  1
  Dy  Dy11  1  0.140374  0.335957  0.376923  1
  Dy  Dy12  1  0.359611  0.835981  0.623145  1
  Dy  Dy13  1  0.859611  0.664019  0.876855  1
  Dy  Dy14  1  0.193662  0.502619  0.750031  1
  Dy  Dy15  1  0.693662  0.997381  0.749969  1
  Dy  Dy16  1  0.806335  0.497277  0.249975  1
  Dy  Dy17  1  0.306335  0.002723  0.250025  1
  Y  Y18  1  0.359651  0.836048  0.877009  1
  Y  Y19  1  0.859651  0.663952  0.622991  1
  Sn  Sn20  1  0.305614  0.041441  0.042352  1
  Sn  Sn21  1  0.805614  0.458559  0.457648  1
  Sn  Sn22  1  0.694104  0.959033  0.542248  1
  Sn  Sn23  1  0.194104  0.540967  0.957752  1
  Sn  Sn24  1  0.694572  0.958741  0.957776  1
  Sn  Sn25  1  0.194572  0.541259  0.542224  1
  Sn  Sn26  1  0.305629  0.041301  0.457782  1
  Sn  Sn27  1  0.805629  0.458699  0.042218  1
  Sn  Sn28  1  0.558922  0.624455  0.749982  1
  Sn  Sn29  1  0.058922  0.875545  0.750018  1
  Sn  Sn30  1  0.440983  0.375381  0.249981  1
  Sn  Sn31  1  0.940983  0.124619  0.250019  1
  Sn  Sn32  1  0.322304  0.140885  0.749900  1
  Sn  Sn33  1  0.822304  0.359115  0.750100  1
  Sn  Sn34  1  0.677671  0.859199  0.249984  1
  Sn  Sn35  1  0.177671  0.640801  0.250016  1
