# generated using pymatgen
data_CsRb4Sb2Pt
_symmetry_space_group_name_H-M   'P 1'
_cell_length_a   10.66294969
_cell_length_b   10.66295023
_cell_length_c   10.66295106
_cell_angle_alpha   33.97097232
_cell_angle_beta   33.97096773
_cell_angle_gamma   33.97096566
_symmetry_Int_Tables_number   1
_chemical_formula_structural   CsRb4Sb2Pt
_chemical_formula_sum   'Cs1 Rb4 Sb2 Pt1'
_cell_volume   337.39810611
_cell_formula_units_Z   1
loop_
 _symmetry_equiv_pos_site_id
 _symmetry_equiv_pos_as_xyz
  1  'x, y, z'
loop_
 _atom_site_type_symbol
 _atom_site_label
 _atom_site_symmetry_multiplicity
 _atom_site_fract_x
 _atom_site_fract_y
 _atom_site_fract_z
 _atom_site_occupancy
  Cs  Cs0  1  0.500000  0.500000  0.500000  1
  Rb  Rb1  1  0.220426  0.220426  0.220426  1
  Rb  Rb2  1  0.360338  0.360338  0.360338  1
  Rb  Rb3  1  0.639663  0.639663  0.639663  1
  Rb  Rb4  1  0.779574  0.779574  0.779574  1
  Sb  Sb5  1  0.086488  0.086488  0.086488  1
  Sb  Sb6  1  0.913512  0.913512  0.913512  1
  Pt  Pt7  1  0.000000  0.000000  0.000000  1
