# generated using pymatgen
data_U(BiO2)6
_symmetry_space_group_name_H-M   'P 1'
_cell_length_a   6.91053250
_cell_length_b   6.91053206
_cell_length_c   6.91053345
_cell_angle_alpha   99.97789513
_cell_angle_beta   99.97789846
_cell_angle_gamma   99.97791130
_symmetry_Int_Tables_number   1
_chemical_formula_structural   U(BiO2)6
_chemical_formula_sum   'U1 Bi6 O12'
_cell_volume   312.99870003
_cell_formula_units_Z   1
loop_
 _symmetry_equiv_pos_site_id
 _symmetry_equiv_pos_as_xyz
  1  'x, y, z'
loop_
 _atom_site_type_symbol
 _atom_site_label
 _atom_site_symmetry_multiplicity
 _atom_site_fract_x
 _atom_site_fract_y
 _atom_site_fract_z
 _atom_site_occupancy
  U  U0  1  0.000000  0.000000  0.000000  1
  Bi  Bi1  1  0.307127  0.587374  0.149081  1
  Bi  Bi2  1  0.587374  0.149081  0.307127  1
  Bi  Bi3  1  0.412626  0.850919  0.692873  1
  Bi  Bi4  1  0.692873  0.412626  0.850919  1
  Bi  Bi5  1  0.850919  0.692873  0.412626  1
  Bi  Bi6  1  0.149081  0.307127  0.587374  1
  O  O7  1  0.426184  0.186088  0.557680  1
  O  O8  1  0.909242  0.701184  0.025806  1
  O  O9  1  0.186088  0.557680  0.426184  1
  O  O10  1  0.813912  0.442320  0.573816  1
  O  O11  1  0.573816  0.813912  0.442320  1
  O  O12  1  0.557680  0.426184  0.186088  1
  O  O13  1  0.442320  0.573816  0.813912  1
  O  O14  1  0.974194  0.090758  0.298816  1
  O  O15  1  0.025806  0.909242  0.701184  1
  O  O16  1  0.701184  0.025806  0.909242  1
  O  O17  1  0.090758  0.298816  0.974194  1
  O  O18  1  0.298816  0.974194  0.090758  1
