# generated using pymatgen
data_TbY3(TiAl3)2
_symmetry_space_group_name_H-M   'P 1'
_cell_length_a   9.54036839
_cell_length_b   9.54036801
_cell_length_c   9.54036849
_cell_angle_alpha   34.83798917
_cell_angle_beta   34.83799043
_cell_angle_gamma   34.83799769
_symmetry_Int_Tables_number   1
_chemical_formula_structural   TbY3(TiAl3)2
_chemical_formula_sum   'Tb1 Y3 Ti2 Al6'
_cell_volume   252.94924295
_cell_formula_units_Z   1
loop_
 _symmetry_equiv_pos_site_id
 _symmetry_equiv_pos_as_xyz
  1  'x, y, z'
loop_
 _atom_site_type_symbol
 _atom_site_label
 _atom_site_symmetry_multiplicity
 _atom_site_fract_x
 _atom_site_fract_y
 _atom_site_fract_z
 _atom_site_occupancy
  Tb  Tb0  1  0.813169  0.813169  0.813169  1
  Y  Y1  1  0.313283  0.313283  0.313283  1
  Y  Y2  1  0.686701  0.686701  0.686701  1
  Y  Y3  1  0.186726  0.186726  0.186726  1
  Ti  Ti4  1  0.500034  0.500034  0.500034  1
  Ti  Ti5  1  0.000043  0.000043  0.000043  1
  Al  Al6  1  0.249984  0.249984  0.749805  1
  Al  Al7  1  0.750017  0.750017  0.250238  1
  Al  Al8  1  0.249984  0.749805  0.249984  1
  Al  Al9  1  0.750017  0.250238  0.750017  1
  Al  Al10  1  0.749805  0.249984  0.249984  1
  Al  Al11  1  0.250238  0.750017  0.750017  1
