# generated using pymatgen
data_YHo4Bi2As
_symmetry_space_group_name_H-M   'P 1'
_cell_length_a   8.03348300
_cell_length_b   9.13312000
_cell_length_c   12.04304100
_cell_angle_alpha   90.00000000
_cell_angle_beta   90.00000000
_cell_angle_gamma   90.00000000
_symmetry_Int_Tables_number   1
_chemical_formula_structural   YHo4Bi2As
_chemical_formula_sum   'Y4 Ho16 Bi8 As4'
_cell_volume   883.60712215
_cell_formula_units_Z   4
loop_
 _symmetry_equiv_pos_site_id
 _symmetry_equiv_pos_as_xyz
  1  'x, y, z'
loop_
 _atom_site_type_symbol
 _atom_site_label
 _atom_site_symmetry_multiplicity
 _atom_site_fract_x
 _atom_site_fract_y
 _atom_site_fract_z
 _atom_site_occupancy
  Y  Y0  1  0.156328  0.750000  0.210969  1
  Y  Y1  1  0.343672  0.750000  0.710969  1
  Y  Y2  1  0.843672  0.250000  0.789031  1
  Y  Y3  1  0.656328  0.250000  0.289031  1
  Ho  Ho4  1  0.817086  0.556137  0.062823  1
  Ho  Ho5  1  0.682914  0.943863  0.562823  1
  Ho  Ho6  1  0.182914  0.056137  0.937177  1
  Ho  Ho7  1  0.317086  0.443863  0.437177  1
  Ho  Ho8  1  0.182914  0.443863  0.937177  1
  Ho  Ho9  1  0.317086  0.056137  0.437177  1
  Ho  Ho10  1  0.817086  0.943863  0.062823  1
  Ho  Ho11  1  0.682914  0.556137  0.562823  1
  Ho  Ho12  1  0.463828  0.750000  0.999994  1
  Ho  Ho13  1  0.036172  0.750000  0.499994  1
  Ho  Ho14  1  0.536172  0.250000  0.000006  1
  Ho  Ho15  1  0.963828  0.250000  0.500006  1
  Ho  Ho16  1  0.634299  0.750000  0.292732  1
  Ho  Ho17  1  0.865701  0.750000  0.792732  1
  Ho  Ho18  1  0.365701  0.250000  0.707268  1
  Ho  Ho19  1  0.134299  0.250000  0.207268  1
  Bi  Bi20  1  0.925672  0.509959  0.327024  1
  Bi  Bi21  1  0.574328  0.990041  0.827024  1
  Bi  Bi22  1  0.074328  0.009959  0.672976  1
  Bi  Bi23  1  0.425672  0.490041  0.172976  1
  Bi  Bi24  1  0.074328  0.490041  0.672976  1
  Bi  Bi25  1  0.425672  0.009959  0.172976  1
  Bi  Bi26  1  0.925672  0.990041  0.327024  1
  Bi  Bi27  1  0.574328  0.509959  0.827024  1
  As  As28  1  0.412937  0.750000  0.478079  1
  As  As29  1  0.087063  0.750000  0.978079  1
  As  As30  1  0.587063  0.250000  0.521921  1
  As  As31  1  0.912937  0.250000  0.021921  1
