# generated using pymatgen
data_Dy2Y2TcOsC4
_symmetry_space_group_name_H-M   'P 1'
_cell_length_a   5.11900100
_cell_length_b   6.54024665
_cell_length_c   9.84464220
_cell_angle_alpha   89.68672599
_cell_angle_beta   90.00000000
_cell_angle_gamma   90.00000000
_symmetry_Int_Tables_number   1
_chemical_formula_structural   Dy2Y2TcOsC4
_chemical_formula_sum   'Dy4 Y4 Tc2 Os2 C8'
_cell_volume   329.58905896
_cell_formula_units_Z   2
loop_
 _symmetry_equiv_pos_site_id
 _symmetry_equiv_pos_as_xyz
  1  'x, y, z'
loop_
 _atom_site_type_symbol
 _atom_site_label
 _atom_site_symmetry_multiplicity
 _atom_site_fract_x
 _atom_site_fract_y
 _atom_site_fract_z
 _atom_site_occupancy
  Dy  Dy0  1  0.250000  0.680062  0.555297  1
  Dy  Dy1  1  0.750000  0.319938  0.444703  1
  Dy  Dy2  1  0.750000  0.821084  0.055493  1
  Dy  Dy3  1  0.250000  0.178916  0.944507  1
  Y  Y4  1  0.250000  0.531071  0.216201  1
  Y  Y5  1  0.750000  0.468929  0.783799  1
  Y  Y6  1  0.750000  0.970660  0.714529  1
  Y  Y7  1  0.250000  0.029340  0.285471  1
  Tc  Tc8  1  0.250000  0.722723  0.864618  1
  Tc  Tc9  1  0.750000  0.277277  0.135382  1
  Os  Os10  1  0.750000  0.776039  0.364481  1
  Os  Os11  1  0.250000  0.223961  0.635519  1
  C  C12  1  0.250000  0.456582  0.758394  1
  C  C13  1  0.750000  0.543418  0.241606  1
  C  C14  1  0.750000  0.041997  0.259294  1
  C  C15  1  0.250000  0.958003  0.740706  1
  C  C16  1  0.250000  0.821957  0.049277  1
  C  C17  1  0.750000  0.178043  0.950723  1
  C  C18  1  0.750000  0.676966  0.549746  1
  C  C19  1  0.250000  0.323034  0.450254  1
