# generated using pymatgen
data_Y2Tm2MnOs7
_symmetry_space_group_name_H-M   'P 1'
_cell_length_a   5.32831301
_cell_length_b   5.32783260
_cell_length_c   8.74436800
_cell_angle_alpha   89.99999881
_cell_angle_beta   89.99636308
_cell_angle_gamma   60.00298182
_symmetry_Int_Tables_number   1
_chemical_formula_structural   Y2Tm2MnOs7
_chemical_formula_sum   'Y2 Tm2 Mn1 Os7'
_cell_volume   214.98710201
_cell_formula_units_Z   1
loop_
 _symmetry_equiv_pos_site_id
 _symmetry_equiv_pos_as_xyz
  1  'x, y, z'
loop_
 _atom_site_type_symbol
 _atom_site_label
 _atom_site_symmetry_multiplicity
 _atom_site_fract_x
 _atom_site_fract_y
 _atom_site_fract_z
 _atom_site_occupancy
  Y  Y0  1  0.333334  0.333332  0.569399  1
  Y  Y1  1  0.666666  0.666668  0.430601  1
  Tm  Tm2  1  0.666659  0.666671  0.064287  1
  Tm  Tm3  1  0.333341  0.333329  0.935713  1
  Mn  Mn4  1  0.000000  0.000000  0.500000  1
  Os  Os5  1  0.000000  0.000000  0.000000  1
  Os  Os6  1  0.829046  0.341916  0.749155  1
  Os  Os7  1  0.341888  0.829056  0.749152  1
  Os  Os8  1  0.829046  0.829038  0.749155  1
  Os  Os9  1  0.170954  0.658084  0.250845  1
  Os  Os10  1  0.658112  0.170944  0.250848  1
  Os  Os11  1  0.170954  0.170962  0.250845  1
