# generated using pymatgen
data_TbEr2MgCd2Ga3
_symmetry_space_group_name_H-M   'P 1'
_cell_length_a   7.23654943
_cell_length_b   7.23654924
_cell_length_c   4.41881600
_cell_angle_alpha   90.00000000
_cell_angle_beta   90.00000000
_cell_angle_gamma   120.23316254
_symmetry_Int_Tables_number   1
_chemical_formula_structural   TbEr2MgCd2Ga3
_chemical_formula_sum   'Tb1 Er2 Mg1 Cd2 Ga3'
_cell_volume   199.92837081
_cell_formula_units_Z   1
loop_
 _symmetry_equiv_pos_site_id
 _symmetry_equiv_pos_as_xyz
  1  'x, y, z'
loop_
 _atom_site_type_symbol
 _atom_site_label
 _atom_site_symmetry_multiplicity
 _atom_site_fract_x
 _atom_site_fract_y
 _atom_site_fract_z
 _atom_site_occupancy
  Tb  Tb0  1  0.425371  0.425371  0.500000  1
  Er  Er1  1  0.572804  0.001318  0.500000  1
  Er  Er2  1  0.001318  0.572804  0.500000  1
  Mg  Mg3  1  0.760074  0.760074  0.000000  1
  Cd  Cd4  1  0.247024  0.997603  0.000000  1
  Cd  Cd5  1  0.997603  0.247024  0.000000  1
  Ga  Ga6  1  0.665783  0.336545  0.000000  1
  Ga  Ga7  1  0.336545  0.665783  0.000000  1
  Ga  Ga8  1  0.993477  0.993477  0.500000  1
