# generated using pymatgen
data_Tb4Al18Re2Pd3Pt
_symmetry_space_group_name_H-M   'P 1'
_cell_length_a   7.62106608
_cell_length_b   7.62106654
_cell_length_c   9.56203435
_cell_angle_alpha   90.01583126
_cell_angle_beta   90.01583629
_cell_angle_gamma   118.58378729
_symmetry_Int_Tables_number   1
_chemical_formula_structural   Tb4Al18Re2Pd3Pt
_chemical_formula_sum   'Tb4 Al18 Re2 Pd3 Pt1'
_cell_volume   487.67982683
_cell_formula_units_Z   1
loop_
 _symmetry_equiv_pos_site_id
 _symmetry_equiv_pos_as_xyz
  1  'x, y, z'
loop_
 _atom_site_type_symbol
 _atom_site_label
 _atom_site_symmetry_multiplicity
 _atom_site_fract_x
 _atom_site_fract_y
 _atom_site_fract_z
 _atom_site_occupancy
  Tb  Tb0  1  0.994304  0.680305  0.249959  1
  Tb  Tb1  1  0.005675  0.319608  0.750080  1
  Tb  Tb2  1  0.680392  0.994325  0.249920  1
  Tb  Tb3  1  0.319695  0.005696  0.750041  1
  Al  Al4  1  0.131960  0.131950  0.249956  1
  Al  Al5  1  0.868050  0.868040  0.750044  1
  Al  Al6  1  0.001922  0.334568  0.075962  1
  Al  Al7  1  0.997654  0.665164  0.924011  1
  Al  Al8  1  0.997715  0.665167  0.576193  1
  Al  Al9  1  0.334833  0.002285  0.423807  1
  Al  Al10  1  0.002338  0.334835  0.423871  1
  Al  Al11  1  0.665165  0.997662  0.576129  1
  Al  Al12  1  0.665432  0.998078  0.924038  1
  Al  Al13  1  0.334836  0.002346  0.075989  1
  Al  Al14  1  0.329628  0.329669  0.549413  1
  Al  Al15  1  0.670331  0.670372  0.450587  1
  Al  Al16  1  0.670465  0.670384  0.049257  1
  Al  Al17  1  0.329616  0.329535  0.950743  1
  Al  Al18  1  0.343805  0.551632  0.249948  1
  Al  Al19  1  0.656261  0.448559  0.750038  1
  Al  Al20  1  0.551441  0.343739  0.249962  1
  Al  Al21  1  0.448368  0.656195  0.750052  1
  Re  Re22  1  0.000187  0.999813  0.000000  1
  Re  Re23  1  0.000028  0.999972  0.500000  1
  Pd  Pd24  1  0.328385  0.671615  0.000000  1
  Pd  Pd25  1  0.328424  0.671576  0.500000  1
  Pd  Pd26  1  0.671619  0.328381  0.500000  1
  Pt  Pt27  1  0.671471  0.328529  0.000000  1
