# generated using pymatgen
data_Zn2Ga3RhO8
_symmetry_space_group_name_H-M   'P 1'
_cell_length_a   6.03947625
_cell_length_b   5.98687935
_cell_length_c   5.98688000
_cell_angle_alpha   60.00000744
_cell_angle_beta   60.28767811
_cell_angle_gamma   60.28767842
_symmetry_Int_Tables_number   1
_chemical_formula_structural   Zn2Ga3RhO8
_chemical_formula_sum   'Zn2 Ga3 Rh1 O8'
_cell_volume   153.73054414
_cell_formula_units_Z   1
loop_
 _symmetry_equiv_pos_site_id
 _symmetry_equiv_pos_as_xyz
  1  'x, y, z'
loop_
 _atom_site_type_symbol
 _atom_site_label
 _atom_site_symmetry_multiplicity
 _atom_site_fract_x
 _atom_site_fract_y
 _atom_site_fract_z
 _atom_site_occupancy
  Zn  Zn0  1  0.504940  0.498353  0.498353  1
  Zn  Zn1  1  0.745060  0.751647  0.751647  1
  Ga  Ga2  1  0.125000  0.125000  0.125000  1
  Ga  Ga3  1  0.125000  0.625000  0.125000  1
  Ga  Ga4  1  0.125000  0.125000  0.625000  1
  Rh  Rh5  1  0.625000  0.125000  0.125000  1
  O  O6  1  0.355560  0.367328  0.367328  1
  O  O7  1  0.341277  0.886241  0.886241  1
  O  O8  1  0.894440  0.882672  0.340216  1
  O  O9  1  0.894440  0.340216  0.882672  1
  O  O10  1  0.355560  0.367328  0.909784  1
  O  O11  1  0.355560  0.909784  0.367328  1
  O  O12  1  0.894440  0.882672  0.882672  1
  O  O13  1  0.908723  0.363759  0.363759  1
