# generated using pymatgen
data_La2DyTl(TeO6)2
_symmetry_space_group_name_H-M   'P 1'
_cell_length_a   5.46067500
_cell_length_b   9.40025285
_cell_length_c   10.29209293
_cell_angle_alpha   90.29173102
_cell_angle_beta   90.00000000
_cell_angle_gamma   90.00000000
_symmetry_Int_Tables_number   1
_chemical_formula_structural   La2DyTl(TeO6)2
_chemical_formula_sum   'La4 Dy2 Tl2 Te4 O24'
_cell_volume   528.30404334
_cell_formula_units_Z   2
loop_
 _symmetry_equiv_pos_site_id
 _symmetry_equiv_pos_as_xyz
  1  'x, y, z'
loop_
 _atom_site_type_symbol
 _atom_site_label
 _atom_site_symmetry_multiplicity
 _atom_site_fract_x
 _atom_site_fract_y
 _atom_site_fract_z
 _atom_site_occupancy
  La  La0  1  0.526659  0.217335  0.357158  1
  La  La1  1  0.026659  0.282665  0.642842  1
  La  La2  1  0.475222  0.720919  0.144361  1
  La  La3  1  0.975222  0.779081  0.855639  1
  Dy  Dy4  1  0.484066  0.604522  0.544490  1
  Dy  Dy5  1  0.984066  0.895478  0.455510  1
  Tl  Tl6  1  0.509407  0.112313  0.947985  1
  Tl  Tl7  1  0.009407  0.387687  0.052015  1
  Te  Te8  1  0.469193  0.989243  0.641507  1
  Te  Te9  1  0.969193  0.510757  0.358493  1
  Te  Te10  1  0.532839  0.492894  0.855964  1
  Te  Te11  1  0.032839  0.007106  0.144036  1
  O  O12  1  0.279458  0.151764  0.175201  1
  O  O13  1  0.779458  0.348236  0.824799  1
  O  O14  1  0.697603  0.643280  0.333738  1
  O  O15  1  0.197603  0.856720  0.666262  1
  O  O16  1  0.728471  0.106293  0.563248  1
  O  O17  1  0.228471  0.393707  0.436752  1
  O  O18  1  0.302771  0.627822  0.931817  1
  O  O19  1  0.802771  0.872178  0.068183  1
  O  O20  1  0.689018  0.628828  0.741096  1
  O  O21  1  0.189018  0.871172  0.258904  1
  O  O22  1  0.318999  0.133847  0.752981  1
  O  O23  1  0.818999  0.366153  0.247019  1
  O  O24  1  0.667170  0.947927  0.792182  1
  O  O25  1  0.167170  0.552073  0.207818  1
  O  O26  1  0.325572  0.457480  0.706746  1
  O  O27  1  0.825572  0.042520  0.293254  1
  O  O28  1  0.259115  0.073142  0.503858  1
  O  O29  1  0.759115  0.426858  0.496142  1
  O  O30  1  0.751791  0.565161  0.996281  1
  O  O31  1  0.251791  0.934839  0.003719  1
  O  O32  1  0.109864  0.662075  0.465793  1
  O  O33  1  0.609864  0.837925  0.534207  1
  O  O34  1  0.872783  0.153694  0.033242  1
  O  O35  1  0.372783  0.346306  0.966758  1
