# generated using pymatgen
data_Na2Ta3(MoS4)3
_symmetry_space_group_name_H-M   'P 1'
_cell_length_a   5.68789400
_cell_length_b   5.68789390
_cell_length_c   14.98152200
_cell_angle_alpha   90.00000000
_cell_angle_beta   90.00000000
_cell_angle_gamma   120.00001224
_symmetry_Int_Tables_number   1
_chemical_formula_structural   Na2Ta3(MoS4)3
_chemical_formula_sum   'Na2 Ta3 Mo3 S12'
_cell_volume   419.74883074
_cell_formula_units_Z   1
loop_
 _symmetry_equiv_pos_site_id
 _symmetry_equiv_pos_as_xyz
  1  'x, y, z'
loop_
 _atom_site_type_symbol
 _atom_site_label
 _atom_site_symmetry_multiplicity
 _atom_site_fract_x
 _atom_site_fract_y
 _atom_site_fract_z
 _atom_site_occupancy
  Na  Na0  1  0.000000  0.000000  0.501472  1
  Na  Na1  1  0.000000  0.000000  0.998528  1
  Ta  Ta2  1  0.333333  0.666667  0.750000  1
  Ta  Ta3  1  0.000000  0.000000  0.250000  1
  Ta  Ta4  1  0.000000  0.000000  0.750000  1
  Mo  Mo5  1  0.333333  0.666667  0.250000  1
  Mo  Mo6  1  0.666667  0.333333  0.750000  1
  Mo  Mo7  1  0.666667  0.333333  0.250000  1
  S  S8  1  0.339611  0.999994  0.146794  1
  S  S9  1  0.000006  0.339618  0.146794  1
  S  S10  1  0.660382  0.660389  0.146794  1
  S  S11  1  0.339337  0.334990  0.645975  1
  S  S12  1  0.660382  0.660389  0.353206  1
  S  S13  1  0.665010  0.004347  0.645975  1
  S  S14  1  0.995653  0.660663  0.645975  1
  S  S15  1  0.995653  0.660663  0.854025  1
  S  S16  1  0.339337  0.334990  0.854025  1
  S  S17  1  0.000006  0.339618  0.353206  1
  S  S18  1  0.339611  0.999994  0.353206  1
  S  S19  1  0.665010  0.004347  0.854025  1
