# generated using pymatgen
data_Pr8Ir3WO24
_symmetry_space_group_name_H-M   'P 1'
_cell_length_a   5.48903206
_cell_length_b   9.48924336
_cell_length_c   10.26078531
_cell_angle_alpha   89.88110756
_cell_angle_beta   89.99064971
_cell_angle_gamma   89.86302582
_symmetry_Int_Tables_number   1
_chemical_formula_structural   Pr8Ir3WO24
_chemical_formula_sum   'Pr8 Ir3 W1 O24'
_cell_volume   534.44838760
_cell_formula_units_Z   1
loop_
 _symmetry_equiv_pos_site_id
 _symmetry_equiv_pos_as_xyz
  1  'x, y, z'
loop_
 _atom_site_type_symbol
 _atom_site_label
 _atom_site_symmetry_multiplicity
 _atom_site_fract_x
 _atom_site_fract_y
 _atom_site_fract_z
 _atom_site_occupancy
  Pr  Pr0  1  0.033924  0.218419  0.132780  1
  Pr  Pr1  1  0.466129  0.780709  0.632712  1
  Pr  Pr2  1  0.967331  0.718540  0.366838  1
  Pr  Pr3  1  0.534440  0.281777  0.866935  1
  Pr  Pr4  1  0.024551  0.102060  0.537693  1
  Pr  Pr5  1  0.475341  0.898500  0.038249  1
  Pr  Pr6  1  0.975642  0.604977  0.963382  1
  Pr  Pr7  1  0.527132  0.396898  0.458328  1
  Ir  Ir8  1  0.544382  0.003171  0.357350  1
  Ir  Ir9  1  0.955904  0.997075  0.857070  1
  Ir  Ir10  1  0.456283  0.503714  0.141908  1
  W  W11  1  0.043180  0.495026  0.645974  1
  O  O12  1  0.433666  0.148792  0.478963  1
  O  O13  1  0.065401  0.852564  0.981129  1
  O  O14  1  0.564887  0.650169  0.020437  1
  O  O15  1  0.929619  0.348744  0.523927  1
  O  O16  1  0.723801  0.387997  0.065674  1
  O  O17  1  0.778562  0.609885  0.563381  1
  O  O18  1  0.277532  0.887248  0.435084  1
  O  O19  1  0.222467  0.113383  0.934153  1
  O  O20  1  0.249115  0.412864  0.005333  1
  O  O21  1  0.249964  0.587768  0.507793  1
  O  O22  1  0.752443  0.911579  0.494102  1
  O  O23  1  0.747481  0.089293  0.993315  1
  O  O24  1  0.185439  0.631936  0.179320  1
  O  O25  1  0.310799  0.365047  0.675868  1
  O  O26  1  0.812816  0.132281  0.320138  1
  O  O27  1  0.687497  0.867677  0.820962  1
  O  O28  1  0.336420  0.056698  0.215848  1
  O  O29  1  0.163151  0.942691  0.716012  1
  O  O30  1  0.663801  0.557094  0.283412  1
  O  O31  1  0.834597  0.447755  0.786723  1
  O  O32  1  0.323449  0.360883  0.256439  1
  O  O33  1  0.181415  0.636038  0.758663  1
  O  O34  1  0.678580  0.861684  0.242101  1
  O  O35  1  0.822863  0.139062  0.742009  1
