# generated using pymatgen
data_Tm6MgZn22Ge
_symmetry_space_group_name_H-M   'P 1'
_cell_length_a   9.05330068
_cell_length_b   9.05330021
_cell_length_c   9.05330100
_cell_angle_alpha   59.99999347
_cell_angle_beta   59.99999519
_cell_angle_gamma   59.99999296
_symmetry_Int_Tables_number   1
_chemical_formula_structural   Tm6MgZn22Ge
_chemical_formula_sum   'Tm6 Mg1 Zn22 Ge1'
_cell_volume   524.69360174
_cell_formula_units_Z   1
loop_
 _symmetry_equiv_pos_site_id
 _symmetry_equiv_pos_as_xyz
  1  'x, y, z'
loop_
 _atom_site_type_symbol
 _atom_site_label
 _atom_site_symmetry_multiplicity
 _atom_site_fract_x
 _atom_site_fract_y
 _atom_site_fract_z
 _atom_site_occupancy
  Tm  Tm0  1  0.716240  0.283760  0.283760  1
  Tm  Tm1  1  0.716240  0.283760  0.716240  1
  Tm  Tm2  1  0.716240  0.716240  0.283760  1
  Tm  Tm3  1  0.283760  0.716240  0.716240  1
  Tm  Tm4  1  0.283760  0.716240  0.283760  1
  Tm  Tm5  1  0.283760  0.283760  0.716240  1
  Mg  Mg6  1  0.000000  0.000000  0.000000  1
  Zn  Zn7  1  0.616838  0.127721  0.127721  1
  Zn  Zn8  1  0.127721  0.616838  0.127721  1
  Zn  Zn9  1  0.127721  0.127721  0.616838  1
  Zn  Zn10  1  0.127721  0.127721  0.127721  1
  Zn  Zn11  1  0.383162  0.872279  0.872279  1
  Zn  Zn12  1  0.872279  0.383162  0.872279  1
  Zn  Zn13  1  0.872279  0.872279  0.383162  1
  Zn  Zn14  1  0.872279  0.872279  0.872279  1
  Zn  Zn15  1  0.500000  0.000000  0.000000  1
  Zn  Zn16  1  0.500000  0.000000  0.500000  1
  Zn  Zn17  1  0.500000  0.500000  0.000000  1
  Zn  Zn18  1  0.000000  0.500000  0.500000  1
  Zn  Zn19  1  0.000000  0.500000  0.000000  1
  Zn  Zn20  1  0.000000  0.000000  0.500000  1
  Zn  Zn21  1  0.006427  0.331190  0.331190  1
  Zn  Zn22  1  0.331190  0.006427  0.331190  1
  Zn  Zn23  1  0.331190  0.331190  0.006427  1
  Zn  Zn24  1  0.331190  0.331190  0.331190  1
  Zn  Zn25  1  0.993573  0.668810  0.668810  1
  Zn  Zn26  1  0.668810  0.993573  0.668810  1
  Zn  Zn27  1  0.668810  0.668810  0.993573  1
  Zn  Zn28  1  0.668810  0.668810  0.668810  1
  Ge  Ge29  1  0.500000  0.500000  0.500000  1
