# generated using pymatgen
data_TbYb2Y3(MnC3)4
_symmetry_space_group_name_H-M   'P 1'
_cell_length_a   8.09356333
_cell_length_b   8.06523021
_cell_length_c   4.98015500
_cell_angle_alpha   90.00000000
_cell_angle_beta   90.00000000
_cell_angle_gamma   120.09105999
_symmetry_Int_Tables_number   1
_chemical_formula_structural   TbYb2Y3(MnC3)4
_chemical_formula_sum   'Tb1 Yb2 Y3 Mn4 C12'
_cell_volume   281.27478202
_cell_formula_units_Z   1
loop_
 _symmetry_equiv_pos_site_id
 _symmetry_equiv_pos_as_xyz
  1  'x, y, z'
loop_
 _atom_site_type_symbol
 _atom_site_label
 _atom_site_symmetry_multiplicity
 _atom_site_fract_x
 _atom_site_fract_y
 _atom_site_fract_z
 _atom_site_occupancy
  Tb  Tb0  1  0.067380  0.383785  0.750000  1
  Yb  Yb1  1  0.613272  0.683250  0.750000  1
  Yb  Yb2  1  0.928063  0.614362  0.250000  1
  Y  Y3  1  0.685568  0.068121  0.250000  1
  Y  Y4  1  0.310404  0.931527  0.750000  1
  Y  Y5  1  0.381619  0.315270  0.250000  1
  Mn  Mn6  1  0.996884  0.996251  0.500222  1
  Mn  Mn7  1  0.996884  0.996251  0.999778  1
  Mn  Mn8  1  0.666693  0.329723  0.750000  1
  Mn  Mn9  1  0.337148  0.668262  0.250000  1
  C  C10  1  0.957430  0.771612  0.750000  1
  C  C11  1  0.189791  0.961758  0.250000  1
  C  C12  1  0.777123  0.819805  0.250000  1
  C  C13  1  0.229652  0.194044  0.750000  1
  C  C14  1  0.818196  0.039830  0.750000  1
  C  C15  1  0.035989  0.229006  0.250000  1
  C  C16  1  0.857609  0.577318  0.750000  1
  C  C17  1  0.281894  0.859700  0.250000  1
  C  C18  1  0.583411  0.719302  0.250000  1
  C  C19  1  0.423991  0.282761  0.750000  1
  C  C20  1  0.142871  0.424105  0.250000  1
  C  C21  1  0.718126  0.133958  0.750000  1
