# generated using pymatgen
data_Hf13ZrPt20
_symmetry_space_group_name_H-M   'P 1'
_cell_length_a   8.18755117
_cell_length_b   8.18755190
_cell_length_c   9.64386538
_cell_angle_alpha   89.98099685
_cell_angle_beta   89.98099569
_cell_angle_gamma   107.89639644
_symmetry_Int_Tables_number   1
_chemical_formula_structural   Hf13ZrPt20
_chemical_formula_sum   'Hf13 Zr1 Pt20'
_cell_volume   615.20501209
_cell_formula_units_Z   1
loop_
 _symmetry_equiv_pos_site_id
 _symmetry_equiv_pos_as_xyz
  1  'x, y, z'
loop_
 _atom_site_type_symbol
 _atom_site_label
 _atom_site_symmetry_multiplicity
 _atom_site_fract_x
 _atom_site_fract_y
 _atom_site_fract_z
 _atom_site_occupancy
  Hf  Hf0  1  0.689881  0.310382  0.000113  1
  Hf  Hf1  1  0.310382  0.689881  0.000113  1
  Hf  Hf2  1  0.810063  0.189406  0.499794  1
  Hf  Hf3  1  0.189406  0.810063  0.499794  1
  Hf  Hf4  1  0.000834  0.000834  0.999775  1
  Hf  Hf5  1  0.499997  0.499997  0.501076  1
  Hf  Hf6  1  0.002170  0.501588  0.250452  1
  Hf  Hf7  1  0.999340  0.499030  0.750354  1
  Hf  Hf8  1  0.499030  0.999340  0.750354  1
  Hf  Hf9  1  0.501588  0.002170  0.250452  1
  Hf  Hf10  1  0.318943  0.318943  0.182193  1
  Hf  Hf11  1  0.681486  0.681486  0.817202  1
  Hf  Hf12  1  0.180585  0.180585  0.681748  1
  Zr  Zr13  1  0.815551  0.815551  0.315256  1
  Pt  Pt14  1  0.851051  0.145329  0.208582  1
  Pt  Pt15  1  0.150147  0.857383  0.791033  1
  Pt  Pt16  1  0.649148  0.357090  0.710028  1
  Pt  Pt17  1  0.642847  0.352168  0.291352  1
  Pt  Pt18  1  0.352168  0.642847  0.291352  1
  Pt  Pt19  1  0.357090  0.649148  0.710028  1
  Pt  Pt20  1  0.857383  0.150147  0.791033  1
  Pt  Pt21  1  0.145329  0.851051  0.208582  1
  Pt  Pt22  1  0.936402  0.644906  0.997776  1
  Pt  Pt23  1  0.064135  0.356324  0.002513  1
  Pt  Pt24  1  0.562151  0.856065  0.498818  1
  Pt  Pt25  1  0.145098  0.436477  0.503150  1
  Pt  Pt26  1  0.436477  0.145098  0.503150  1
  Pt  Pt27  1  0.856065  0.562151  0.498818  1
  Pt  Pt28  1  0.356324  0.064135  0.002513  1
  Pt  Pt29  1  0.644906  0.936402  0.997776  1
  Pt  Pt30  1  0.107907  0.107907  0.392145  1
  Pt  Pt31  1  0.891461  0.891461  0.608104  1
  Pt  Pt32  1  0.390100  0.390100  0.890885  1
  Pt  Pt33  1  0.604559  0.604559  0.103685  1
