# generated using pymatgen
data_Sc12Cu6TcPt5
_symmetry_space_group_name_H-M   'P 1'
_cell_length_a   4.68230500
_cell_length_b   6.45970200
_cell_length_c   13.89975000
_cell_angle_alpha   90.00098723
_cell_angle_beta   90.00061507
_cell_angle_gamma   90.00012327
_symmetry_Int_Tables_number   1
_chemical_formula_structural   Sc12Cu6TcPt5
_chemical_formula_sum   'Sc12 Cu6 Tc1 Pt5'
_cell_volume   420.41593851
_cell_formula_units_Z   1
loop_
 _symmetry_equiv_pos_site_id
 _symmetry_equiv_pos_as_xyz
  1  'x, y, z'
loop_
 _atom_site_type_symbol
 _atom_site_label
 _atom_site_symmetry_multiplicity
 _atom_site_fract_x
 _atom_site_fract_y
 _atom_site_fract_z
 _atom_site_occupancy
  Sc  Sc0  1  0.500016  0.253623  0.996241  1
  Sc  Sc1  1  0.500013  0.746505  0.996283  1
  Sc  Sc2  1  0.999956  0.250052  0.165747  1
  Sc  Sc3  1  0.999946  0.750026  0.165814  1
  Sc  Sc4  1  0.499901  0.250315  0.333530  1
  Sc  Sc5  1  0.499890  0.749511  0.333522  1
  Sc  Sc6  1  0.999977  0.249401  0.501039  1
  Sc  Sc7  1  0.999978  0.750472  0.500991  1
  Sc  Sc8  1  0.500044  0.253888  0.670292  1
  Sc  Sc9  1  0.500045  0.746097  0.670263  1
  Sc  Sc10  1  0.000127  0.253006  0.833168  1
  Sc  Sc11  1  0.000121  0.747104  0.833148  1
  Cu  Cu12  1  0.000031  0.500261  0.995552  1
  Cu  Cu13  1  0.499938  0.000107  0.165513  1
  Cu  Cu14  1  0.999794  0.499748  0.333918  1
  Cu  Cu15  1  0.499979  0.999819  0.501745  1
  Cu  Cu16  1  0.000071  0.500052  0.670433  1
  Cu  Cu17  1  0.500268  0.999964  0.833019  1
  Tc  Tc18  1  0.500113  0.500081  0.833319  1
  Pt  Pt19  1  0.999968  0.000015  0.002347  1
  Pt  Pt20  1  0.499958  0.499980  0.166390  1
  Pt  Pt21  1  0.999863  0.000059  0.333133  1
  Pt  Pt22  1  0.499979  0.499896  0.500263  1
  Pt  Pt23  1  0.000027  0.000025  0.664328  1
