# generated using pymatgen
data_TaTi2RhS10
_symmetry_space_group_name_H-M   'P 1'
_cell_length_a   3.46994400
_cell_length_b   9.23430866
_cell_length_c   9.69530900
_cell_angle_alpha   69.14046745
_cell_angle_beta   90.00000000
_cell_angle_gamma   90.00000000
_symmetry_Int_Tables_number   1
_chemical_formula_structural   TaTi2RhS10
_chemical_formula_sum   'Ta1 Ti2 Rh1 S10'
_cell_volume   290.30028272
_cell_formula_units_Z   1
loop_
 _symmetry_equiv_pos_site_id
 _symmetry_equiv_pos_as_xyz
  1  'x, y, z'
loop_
 _atom_site_type_symbol
 _atom_site_label
 _atom_site_symmetry_multiplicity
 _atom_site_fract_x
 _atom_site_fract_y
 _atom_site_fract_z
 _atom_site_occupancy
  Ta  Ta0  1  0.500000  0.453201  0.909034  1
  Ti  Ti1  1  0.000000  0.291376  0.627875  1
  Ti  Ti2  1  0.500000  0.708875  0.366693  1
  Rh  Rh3  1  0.000000  0.548147  0.109001  1
  S  S4  1  0.500000  0.086917  0.734695  1
  S  S5  1  0.000000  0.913582  0.256463  1
  S  S6  1  0.500000  0.485347  0.629501  1
  S  S7  1  0.000000  0.516953  0.363720  1
  S  S8  1  0.500000  0.180566  0.508552  1
  S  S9  1  0.000000  0.822168  0.482878  1
  S  S10  1  0.000000  0.262784  0.901744  1
  S  S11  1  0.500000  0.726548  0.100896  1
  S  S12  1  0.000000  0.653510  0.843454  1
  S  S13  1  0.500000  0.350025  0.165494  1
