# generated using pymatgen
data_Rb6YHoF12
_symmetry_space_group_name_H-M   'P 1'
_cell_length_a   6.90524695
_cell_length_b   6.66425709
_cell_length_c   11.57867828
_cell_angle_alpha   55.24258835
_cell_angle_beta   90.01457144
_cell_angle_gamma   89.99290155
_symmetry_Int_Tables_number   1
_chemical_formula_structural   Rb6YHoF12
_chemical_formula_sum   'Rb6 Y1 Ho1 F12'
_cell_volume   437.76009452
_cell_formula_units_Z   1
loop_
 _symmetry_equiv_pos_site_id
 _symmetry_equiv_pos_as_xyz
  1  'x, y, z'
loop_
 _atom_site_type_symbol
 _atom_site_label
 _atom_site_symmetry_multiplicity
 _atom_site_fract_x
 _atom_site_fract_y
 _atom_site_fract_z
 _atom_site_occupancy
  Rb  Rb0  1  0.500000  0.500000  0.000000  1
  Rb  Rb1  1  0.000000  0.500000  0.500000  1
  Rb  Rb2  1  0.050095  0.732969  0.753751  1
  Rb  Rb3  1  0.949905  0.267031  0.246249  1
  Rb  Rb4  1  0.550095  0.266065  0.747348  1
  Rb  Rb5  1  0.449905  0.733935  0.252652  1
  Y  Y6  1  0.000000  0.000000  0.000000  1
  Ho  Ho7  1  0.500000  0.000000  0.500000  1
  F  F8  1  0.762629  0.774860  0.564202  1
  F  F9  1  0.237371  0.225140  0.435798  1
  F  F10  1  0.264133  0.227364  0.936018  1
  F  F11  1  0.735867  0.772636  0.063982  1
  F  F12  1  0.449738  0.888322  0.715828  1
  F  F13  1  0.550262  0.111678  0.284172  1
  F  F14  1  0.949615  0.112684  0.782554  1
  F  F15  1  0.050385  0.887316  0.217446  1
  F  F16  1  0.331252  0.684155  0.546859  1
  F  F17  1  0.668748  0.315845  0.453141  1
  F  F18  1  0.828674  0.317081  0.953282  1
  F  F19  1  0.171326  0.682919  0.046718  1
