# generated using pymatgen
data_NdTh5(Ir5Rh)3
_symmetry_space_group_name_H-M   'P 1'
_cell_length_a   5.37475200
_cell_length_b   5.37473900
_cell_length_c   17.76342500
_cell_angle_alpha   89.99988352
_cell_angle_beta   90.00004712
_cell_angle_gamma   119.99977645
_symmetry_Int_Tables_number   1
_chemical_formula_structural   NdTh5(Ir5Rh)3
_chemical_formula_sum   'Nd1 Th5 Ir15 Rh3'
_cell_volume   444.40007788
_cell_formula_units_Z   1
loop_
 _symmetry_equiv_pos_site_id
 _symmetry_equiv_pos_as_xyz
  1  'x, y, z'
loop_
 _atom_site_type_symbol
 _atom_site_label
 _atom_site_symmetry_multiplicity
 _atom_site_fract_x
 _atom_site_fract_y
 _atom_site_fract_z
 _atom_site_occupancy
  Nd  Nd0  1  0.333330  0.666666  0.958888  1
  Th  Th1  1  0.333335  0.666667  0.543526  1
  Th  Th2  1  0.666668  0.333333  0.040271  1
  Th  Th3  1  0.666668  0.333332  0.457672  1
  Th  Th4  1  0.333333  0.666669  0.753684  1
  Th  Th5  1  0.666668  0.333333  0.249166  1
  Ir  Ir6  1  0.167171  0.334339  0.126564  1
  Ir  Ir7  1  0.832562  0.665123  0.626488  1
  Ir  Ir8  1  0.665660  0.832828  0.126563  1
  Ir  Ir9  1  0.167170  0.832826  0.126562  1
  Ir  Ir10  1  0.832561  0.167444  0.626485  1
  Ir  Ir11  1  0.334881  0.167441  0.626487  1
  Ir  Ir12  1  0.832901  0.665806  0.873109  1
  Ir  Ir13  1  0.832900  0.167101  0.873111  1
  Ir  Ir14  1  0.334195  0.167100  0.873109  1
  Ir  Ir15  1  0.665131  0.832564  0.373204  1
  Ir  Ir16  1  0.167435  0.832563  0.373204  1
  Ir  Ir17  1  0.167433  0.334866  0.373203  1
  Ir  Ir18  1  0.000001  0.999996  0.249821  1
  Ir  Ir19  1  0.999998  0.999998  0.999250  1
  Ir  Ir20  1  0.000001  0.999999  0.499891  1
  Rh  Rh21  1  0.000000  0.000010  0.749875  1
  Rh  Rh22  1  0.333334  0.666669  0.249863  1
  Rh  Rh23  1  0.666666  0.333331  0.750006  1
