# generated using pymatgen
data_YEr15Al2(CdPd2)2
_symmetry_space_group_name_H-M   'P 1'
_cell_length_a   9.56405408
_cell_length_b   9.56405481
_cell_length_c   9.55991600
_cell_angle_alpha   60.01431410
_cell_angle_beta   60.01431158
_cell_angle_gamma   60.07764519
_symmetry_Int_Tables_number   1
_chemical_formula_structural   YEr15Al2(CdPd2)2
_chemical_formula_sum   'Y1 Er15 Al2 Cd2 Pd4'
_cell_volume   618.83003851
_cell_formula_units_Z   1
loop_
 _symmetry_equiv_pos_site_id
 _symmetry_equiv_pos_as_xyz
  1  'x, y, z'
loop_
 _atom_site_type_symbol
 _atom_site_label
 _atom_site_symmetry_multiplicity
 _atom_site_fract_x
 _atom_site_fract_y
 _atom_site_fract_z
 _atom_site_occupancy
  Y  Y0  1  0.935939  0.935939  0.564061  1
  Er  Er1  1  0.355091  0.355091  0.352695  1
  Er  Er2  1  0.355091  0.355091  0.937125  1
  Er  Er3  1  0.358135  0.932147  0.354859  1
  Er  Er4  1  0.932147  0.358135  0.354859  1
  Er  Er5  1  0.808752  0.192804  0.189609  1
  Er  Er6  1  0.192804  0.808752  0.808836  1
  Er  Er7  1  0.192804  0.808752  0.189609  1
  Er  Er8  1  0.808752  0.192804  0.808836  1
  Er  Er9  1  0.189188  0.189188  0.810812  1
  Er  Er10  1  0.806621  0.806621  0.193379  1
  Er  Er11  1  0.932517  0.565377  0.565930  1
  Er  Er12  1  0.565377  0.932517  0.936175  1
  Er  Er13  1  0.565377  0.932517  0.565930  1
  Er  Er14  1  0.932517  0.565377  0.936175  1
  Er  Er15  1  0.566615  0.566615  0.933385  1
  Al  Al16  1  0.581703  0.581703  0.579588  1
  Al  Al17  1  0.581703  0.581703  0.257006  1
  Cd  Cd18  1  0.581260  0.257967  0.580387  1
  Cd  Cd19  1  0.257967  0.581260  0.580387  1
  Pd  Pd20  1  0.144676  0.144676  0.145612  1
  Pd  Pd21  1  0.144676  0.144676  0.565035  1
  Pd  Pd22  1  0.143115  0.567176  0.144854  1
  Pd  Pd23  1  0.567176  0.143115  0.144854  1
