# generated using pymatgen
data_Ac10Nd7Ho3Sn16
_symmetry_space_group_name_H-M   'P 1'
_cell_length_a   8.51321003
_cell_length_b   8.65398322
_cell_length_c   16.52468900
_cell_angle_alpha   89.69800013
_cell_angle_beta   90.00463712
_cell_angle_gamma   90.00244763
_symmetry_Int_Tables_number   1
_chemical_formula_structural   Ac10Nd7Ho3Sn16
_chemical_formula_sum   'Ac10 Nd7 Ho3 Sn16'
_cell_volume   1217.40941678
_cell_formula_units_Z   1
loop_
 _symmetry_equiv_pos_site_id
 _symmetry_equiv_pos_as_xyz
  1  'x, y, z'
loop_
 _atom_site_type_symbol
 _atom_site_label
 _atom_site_symmetry_multiplicity
 _atom_site_fract_x
 _atom_site_fract_y
 _atom_site_fract_z
 _atom_site_occupancy
  Ac  Ac0  1  0.488615  0.820067  0.904597  1
  Ac  Ac1  1  0.987947  0.680722  0.595390  1
  Ac  Ac2  1  0.513114  0.176535  0.400382  1
  Ac  Ac3  1  0.013189  0.323790  0.099659  1
  Ac  Ac4  1  0.512376  0.182040  0.099377  1
  Ac  Ac5  1  0.012844  0.318206  0.400518  1
  Ac  Ac6  1  0.485111  0.818044  0.596059  1
  Ac  Ac7  1  0.984452  0.682640  0.903946  1
  Ac  Ac8  1  0.640880  0.340221  0.884180  1
  Ac  Ac9  1  0.140243  0.159186  0.615751  1
  Nd  Nd10  1  0.360778  0.659234  0.373476  1
  Nd  Nd11  1  0.860980  0.840530  0.126426  1
  Nd  Nd12  1  0.355785  0.660035  0.122474  1
  Nd  Nd13  1  0.855991  0.839642  0.377668  1
  Nd  Nd14  1  0.645025  0.337494  0.622743  1
  Nd  Nd15  1  0.143864  0.161633  0.877204  1
  Nd  Nd16  1  0.307278  0.498059  0.751252  1
  Ho  Ho17  1  0.805749  0.002738  0.748804  1
  Ho  Ho18  1  0.694760  0.502271  0.250376  1
  Ho  Ho19  1  0.194772  0.997685  0.249725  1
  Sn  Sn20  1  0.193180  0.960761  0.044074  1
  Sn  Sn21  1  0.693495  0.539115  0.455697  1
  Sn  Sn22  1  0.790144  0.038465  0.542402  1
  Sn  Sn23  1  0.290223  0.461233  0.958382  1
  Sn  Sn24  1  0.817431  0.035690  0.959522  1
  Sn  Sn25  1  0.317230  0.464033  0.539952  1
  Sn  Sn26  1  0.196150  0.950023  0.448354  1
  Sn  Sn27  1  0.696181  0.549750  0.051712  1
  Sn  Sn28  1  0.683602  0.646273  0.748538  1
  Sn  Sn29  1  0.182536  0.856234  0.751459  1
  Sn  Sn30  1  0.318552  0.358354  0.249459  1
  Sn  Sn31  1  0.818647  0.141424  0.250499  1
  Sn  Sn32  1  0.445184  0.120525  0.751487  1
  Sn  Sn33  1  0.942522  0.377475  0.748505  1
  Sn  Sn34  1  0.555549  0.871612  0.248657  1
  Sn  Sn35  1  0.055617  0.628260  0.251293  1
