# generated using pymatgen
data_Ce(Th2Tc)3
_symmetry_space_group_name_H-M   'P 1'
_cell_length_a   9.95460300
_cell_length_b   9.94110873
_cell_length_c   6.28019169
_cell_angle_alpha   90.06147544
_cell_angle_beta   90.00000000
_cell_angle_gamma   120.04491663
_symmetry_Int_Tables_number   1
_chemical_formula_structural   Ce(Th2Tc)3
_chemical_formula_sum   'Ce2 Th12 Tc6'
_cell_volume   537.97887526
_cell_formula_units_Z   2
loop_
 _symmetry_equiv_pos_site_id
 _symmetry_equiv_pos_as_xyz
  1  'x, y, z'
loop_
 _atom_site_type_symbol
 _atom_site_label
 _atom_site_symmetry_multiplicity
 _atom_site_fract_x
 _atom_site_fract_y
 _atom_site_fract_z
 _atom_site_occupancy
  Ce  Ce0  1  0.460152  0.540042  0.309074  1
  Ce  Ce1  1  0.079890  0.540042  0.309074  1
  Th  Th2  1  0.922853  0.462280  0.802471  1
  Th  Th3  1  0.251350  0.124694  0.507940  1
  Th  Th4  1  0.540951  0.081902  0.791340  1
  Th  Th5  1  0.748887  0.874429  0.009909  1
  Th  Th6  1  0.667132  0.334264  0.277860  1
  Th  Th7  1  0.125543  0.874429  0.009909  1
  Th  Th8  1  0.459292  0.918584  0.290906  1
  Th  Th9  1  0.539427  0.462280  0.802471  1
  Th  Th10  1  0.873344  0.124694  0.507940  1
  Th  Th11  1  0.126901  0.253802  0.010719  1
  Th  Th12  1  0.875066  0.750133  0.509547  1
  Th  Th13  1  0.334492  0.668985  0.779451  1
  Tc  Tc14  1  0.814830  0.629659  0.049209  1
  Tc  Tc15  1  0.815239  0.185665  0.044477  1
  Tc  Tc16  1  0.626291  0.805909  0.543486  1
  Tc  Tc17  1  0.370426  0.185665  0.044477  1
  Tc  Tc18  1  0.188317  0.376634  0.540250  1
  Tc  Tc19  1  0.179618  0.805909  0.543486  1
