# generated using pymatgen
data_TlAg2Sn(Pt2O7)2
_symmetry_space_group_name_H-M   'P 1'
_cell_length_a   7.34841822
_cell_length_b   7.23625474
_cell_length_c   7.23625500
_cell_angle_alpha   59.19830947
_cell_angle_beta   59.41111605
_cell_angle_gamma   59.41112442
_symmetry_Int_Tables_number   1
_chemical_formula_structural   TlAg2Sn(Pt2O7)2
_chemical_formula_sum   'Tl1 Ag2 Sn1 Pt4 O14'
_cell_volume   267.99686419
_cell_formula_units_Z   1
loop_
 _symmetry_equiv_pos_site_id
 _symmetry_equiv_pos_as_xyz
  1  'x, y, z'
loop_
 _atom_site_type_symbol
 _atom_site_label
 _atom_site_symmetry_multiplicity
 _atom_site_fract_x
 _atom_site_fract_y
 _atom_site_fract_z
 _atom_site_occupancy
  Tl  Tl0  1  0.125000  0.625000  0.625000  1
  Ag  Ag1  1  0.625000  0.625000  0.125000  1
  Ag  Ag2  1  0.625000  0.125000  0.625000  1
  Sn  Sn3  1  0.625000  0.625000  0.625000  1
  Pt  Pt4  1  0.625000  0.125000  0.125000  1
  Pt  Pt5  1  0.125000  0.125000  0.125000  1
  Pt  Pt6  1  0.125000  0.625000  0.125000  1
  Pt  Pt7  1  0.125000  0.125000  0.625000  1
  O  O8  1  0.027110  0.463953  0.463953  1
  O  O9  1  0.791361  0.788120  0.228468  1
  O  O10  1  0.792675  0.206253  0.206253  1
  O  O11  1  0.723391  0.753533  0.753533  1
  O  O12  1  0.043451  0.462599  0.036438  1
  O  O13  1  0.458639  0.021532  0.461880  1
  O  O14  1  0.043451  0.036438  0.462599  1
  O  O15  1  0.526609  0.496467  0.496467  1
  O  O16  1  0.206549  0.213562  0.787401  1
  O  O17  1  0.206549  0.787401  0.213562  1
  O  O18  1  0.791361  0.228468  0.788120  1
  O  O19  1  0.457325  0.043747  0.043747  1
  O  O20  1  0.458639  0.461880  0.021532  1
  O  O21  1  0.222890  0.786047  0.786047  1
