# generated using pymatgen
data_YLu(ZrPt)2
_symmetry_space_group_name_H-M   'P 1'
_cell_length_a   4.67996400
_cell_length_b   7.09509824
_cell_length_c   8.23055294
_cell_angle_alpha   89.65573214
_cell_angle_beta   90.00000000
_cell_angle_gamma   90.00000000
_symmetry_Int_Tables_number   1
_chemical_formula_structural   YLu(ZrPt)2
_chemical_formula_sum   'Y2 Lu2 Zr4 Pt4'
_cell_volume   273.28896675
_cell_formula_units_Z   2
loop_
 _symmetry_equiv_pos_site_id
 _symmetry_equiv_pos_as_xyz
  1  'x, y, z'
loop_
 _atom_site_type_symbol
 _atom_site_label
 _atom_site_symmetry_multiplicity
 _atom_site_fract_x
 _atom_site_fract_y
 _atom_site_fract_z
 _atom_site_occupancy
  Y  Y0  1  0.250000  0.515505  0.178568  1
  Y  Y1  1  0.750000  0.484495  0.821432  1
  Lu  Lu2  1  0.750000  0.982444  0.677800  1
  Lu  Lu3  1  0.250000  0.017556  0.322200  1
  Zr  Zr4  1  0.250000  0.649827  0.578622  1
  Zr  Zr5  1  0.750000  0.350173  0.421378  1
  Zr  Zr6  1  0.750000  0.852307  0.080804  1
  Zr  Zr7  1  0.250000  0.147693  0.919196  1
  Pt  Pt8  1  0.250000  0.773212  0.902650  1
  Pt  Pt9  1  0.750000  0.226788  0.097350  1
  Pt  Pt10  1  0.750000  0.733292  0.409030  1
  Pt  Pt11  1  0.250000  0.266708  0.590970  1
