# generated using pymatgen
data_Y2FeOsBr2
_symmetry_space_group_name_H-M   'P 1'
_cell_length_a   3.99356300
_cell_length_b   3.99356238
_cell_length_c   11.66241500
_cell_angle_alpha   90.00000000
_cell_angle_beta   90.00000000
_cell_angle_gamma   120.00001345
_symmetry_Int_Tables_number   1
_chemical_formula_structural   Y2FeOsBr2
_chemical_formula_sum   'Y2 Fe1 Os1 Br2'
_cell_volume   161.07942712
_cell_formula_units_Z   1
loop_
 _symmetry_equiv_pos_site_id
 _symmetry_equiv_pos_as_xyz
  1  'x, y, z'
loop_
 _atom_site_type_symbol
 _atom_site_label
 _atom_site_symmetry_multiplicity
 _atom_site_fract_x
 _atom_site_fract_y
 _atom_site_fract_z
 _atom_site_occupancy
  Y  Y0  1  0.000000  0.000000  0.173632  1
  Y  Y1  1  0.000000  0.000000  0.827400  1
  Fe  Fe2  1  0.333334  0.666668  0.986992  1
  Os  Os3  1  0.666667  0.333334  0.011027  1
  Br  Br4  1  0.333334  0.666668  0.335175  1
  Br  Br5  1  0.666667  0.333334  0.665776  1
