# generated using pymatgen
data_Tm2Lu3(TcO6)2
_symmetry_space_group_name_H-M   'P 1'
_cell_length_a   6.70181512
_cell_length_b   6.70181420
_cell_length_c   7.38827877
_cell_angle_alpha   73.85387736
_cell_angle_beta   73.85388071
_cell_angle_gamma   49.44853217
_symmetry_Int_Tables_number   1
_chemical_formula_structural   Tm2Lu3(TcO6)2
_chemical_formula_sum   'Tm2 Lu3 Tc2 O12'
_cell_volume   240.03195226
_cell_formula_units_Z   1
loop_
 _symmetry_equiv_pos_site_id
 _symmetry_equiv_pos_as_xyz
  1  'x, y, z'
loop_
 _atom_site_type_symbol
 _atom_site_label
 _atom_site_symmetry_multiplicity
 _atom_site_fract_x
 _atom_site_fract_y
 _atom_site_fract_z
 _atom_site_occupancy
  Tm  Tm0  1  0.696584  0.696584  0.641479  1
  Tm  Tm1  1  0.303416  0.303416  0.358521  1
  Lu  Lu2  1  0.684150  0.684150  0.178514  1
  Lu  Lu3  1  0.315850  0.315850  0.821486  1
  Lu  Lu4  1  0.000000  0.000000  0.500000  1
  Tc  Tc5  1  0.785506  0.214494  0.000000  1
  Tc  Tc6  1  0.214494  0.785506  0.000000  1
  O  O7  1  0.001689  0.001689  0.208199  1
  O  O8  1  0.998311  0.998311  0.791801  1
  O  O9  1  0.579700  0.085188  0.086206  1
  O  O10  1  0.420300  0.914812  0.913794  1
  O  O11  1  0.914812  0.420300  0.913794  1
  O  O12  1  0.085188  0.579700  0.086206  1
  O  O13  1  0.499707  0.499707  0.182563  1
  O  O14  1  0.500293  0.500293  0.817437  1
  O  O15  1  0.404644  0.900376  0.426391  1
  O  O16  1  0.595356  0.099624  0.573609  1
  O  O17  1  0.099624  0.595356  0.573609  1
  O  O18  1  0.900376  0.404644  0.426391  1
