# generated using pymatgen
data_Tb16InHg3Ir3Ru
_symmetry_space_group_name_H-M   'P 1'
_cell_length_a   9.67144229
_cell_length_b   9.67144131
_cell_length_c   9.64992768
_cell_angle_alpha   59.86050771
_cell_angle_beta   59.86051093
_cell_angle_gamma   59.88011323
_symmetry_Int_Tables_number   1
_chemical_formula_structural   Tb16InHg3Ir3Ru
_chemical_formula_sum   'Tb16 In1 Hg3 Ir3 Ru1'
_cell_volume   636.32537715
_cell_formula_units_Z   1
loop_
 _symmetry_equiv_pos_site_id
 _symmetry_equiv_pos_as_xyz
  1  'x, y, z'
loop_
 _atom_site_type_symbol
 _atom_site_label
 _atom_site_symmetry_multiplicity
 _atom_site_fract_x
 _atom_site_fract_y
 _atom_site_fract_z
 _atom_site_occupancy
  Tb  Tb0  1  0.100364  0.700601  0.099329  1
  Tb  Tb1  1  0.939756  0.939756  0.560792  1
  Tb  Tb2  1  0.941456  0.560294  0.939822  1
  Tb  Tb3  1  0.311126  0.690542  0.309164  1
  Tb  Tb4  1  0.938650  0.559351  0.559908  1
  Tb  Tb5  1  0.312130  0.312130  0.687779  1
  Tb  Tb6  1  0.100044  0.100044  0.098955  1
  Tb  Tb7  1  0.557963  0.557963  0.939343  1
  Tb  Tb8  1  0.100727  0.100727  0.699857  1
  Tb  Tb9  1  0.691384  0.309426  0.687220  1
  Tb  Tb10  1  0.690182  0.690182  0.307116  1
  Tb  Tb11  1  0.690542  0.311126  0.309164  1
  Tb  Tb12  1  0.309426  0.691384  0.687220  1
  Tb  Tb13  1  0.559351  0.938650  0.559908  1
  Tb  Tb14  1  0.700601  0.100364  0.099329  1
  Tb  Tb15  1  0.560294  0.941456  0.939822  1
  In  In16  1  0.330277  0.330277  0.006499  1
  Hg  Hg17  1  0.334352  0.334352  0.335365  1
  Hg  Hg18  1  0.993309  0.335423  0.335419  1
  Hg  Hg19  1  0.335423  0.993309  0.335419  1
  Ir  Ir20  1  0.893384  0.893384  0.324798  1
  Ir  Ir21  1  0.326297  0.892203  0.893238  1
  Ir  Ir22  1  0.892203  0.326297  0.893238  1
  Ru  Ru23  1  0.890760  0.890760  0.891296  1
