# generated using pymatgen
data_K4IrO6
_symmetry_space_group_name_H-M   'P 1'
_cell_length_a   7.30020675
_cell_length_b   7.30020760
_cell_length_c   7.30020669
_cell_angle_alpha   89.00718722
_cell_angle_beta   89.00718579
_cell_angle_gamma   89.00718583
_symmetry_Int_Tables_number   1
_chemical_formula_structural   K4IrO6
_chemical_formula_sum   'K8 Ir2 O12'
_cell_volume   388.87687774
_cell_formula_units_Z   2
loop_
 _symmetry_equiv_pos_site_id
 _symmetry_equiv_pos_as_xyz
  1  'x, y, z'
loop_
 _atom_site_type_symbol
 _atom_site_label
 _atom_site_symmetry_multiplicity
 _atom_site_fract_x
 _atom_site_fract_y
 _atom_site_fract_z
 _atom_site_occupancy
  K  K0  1  0.750000  0.393581  0.106419  1
  K  K1  1  0.106419  0.750000  0.393581  1
  K  K2  1  0.393581  0.106419  0.750000  1
  K  K3  1  0.250000  0.606419  0.893581  1
  K  K4  1  0.893581  0.250000  0.606419  1
  K  K5  1  0.606419  0.893581  0.250000  1
  K  K6  1  0.250000  0.250000  0.250000  1
  K  K7  1  0.750000  0.750000  0.750000  1
  Ir  Ir8  1  0.000000  0.000000  0.000000  1
  Ir  Ir9  1  0.500000  0.500000  0.500000  1
  O  O10  1  0.442841  0.745692  0.569257  1
  O  O11  1  0.569257  0.442841  0.745692  1
  O  O12  1  0.745692  0.569257  0.442841  1
  O  O13  1  0.057159  0.930743  0.754308  1
  O  O14  1  0.754308  0.057159  0.930743  1
  O  O15  1  0.930743  0.754308  0.057159  1
  O  O16  1  0.557159  0.254308  0.430743  1
  O  O17  1  0.430743  0.557159  0.254308  1
  O  O18  1  0.254308  0.430743  0.557159  1
  O  O19  1  0.942841  0.069257  0.245692  1
  O  O20  1  0.069257  0.245692  0.942841  1
  O  O21  1  0.245692  0.942841  0.069257  1
