# generated using pymatgen
data_Pa2Cr9MoP6
_symmetry_space_group_name_H-M   'P 1'
_cell_length_a   3.79831300
_cell_length_b   6.83494600
_cell_length_c   9.58433090
_cell_angle_alpha   81.06748461
_cell_angle_beta   90.00000000
_cell_angle_gamma   90.00000000
_symmetry_Int_Tables_number   1
_chemical_formula_structural   Pa2Cr9MoP6
_chemical_formula_sum   'Pa2 Cr9 Mo1 P6'
_cell_volume   245.80361906
_cell_formula_units_Z   1
loop_
 _symmetry_equiv_pos_site_id
 _symmetry_equiv_pos_as_xyz
  1  'x, y, z'
loop_
 _atom_site_type_symbol
 _atom_site_label
 _atom_site_symmetry_multiplicity
 _atom_site_fract_x
 _atom_site_fract_y
 _atom_site_fract_z
 _atom_site_occupancy
  Pa  Pa0  1  0.250000  0.185231  0.218149  1
  Pa  Pa1  1  0.750000  0.815870  0.780284  1
  Cr  Cr2  1  0.750000  0.321342  0.721422  1
  Cr  Cr3  1  0.250000  0.840518  0.511671  1
  Cr  Cr4  1  0.750000  0.161251  0.493497  1
  Cr  Cr5  1  0.250000  0.457738  0.925296  1
  Cr  Cr6  1  0.750000  0.540382  0.072292  1
  Cr  Cr7  1  0.250000  0.090117  0.900644  1
  Cr  Cr8  1  0.750000  0.915322  0.097212  1
  Cr  Cr9  1  0.250000  0.393159  0.489804  1
  Cr  Cr10  1  0.750000  0.599429  0.514694  1
  Mo  Mo11  1  0.250000  0.680813  0.275758  1
  P  P12  1  0.250000  0.554610  0.683579  1
  P  P13  1  0.750000  0.439096  0.316425  1
  P  P14  1  0.250000  0.761949  0.013173  1
  P  P15  1  0.750000  0.240119  0.980171  1
  P  P16  1  0.250000  0.101726  0.654774  1
  P  P17  1  0.750000  0.901328  0.351155  1
