# generated using pymatgen
data_K4Mn5Cr3O16
_symmetry_space_group_name_H-M   'P 1'
_cell_length_a   5.83554368
_cell_length_b   5.01768571
_cell_length_c   12.72006700
_cell_angle_alpha   89.74244886
_cell_angle_beta   89.68952062
_cell_angle_gamma   89.49475217
_symmetry_Int_Tables_number   1
_chemical_formula_structural   K4Mn5Cr3O16
_chemical_formula_sum   'K4 Mn5 Cr3 O16'
_cell_volume   372.43168405
_cell_formula_units_Z   1
loop_
 _symmetry_equiv_pos_site_id
 _symmetry_equiv_pos_as_xyz
  1  'x, y, z'
loop_
 _atom_site_type_symbol
 _atom_site_label
 _atom_site_symmetry_multiplicity
 _atom_site_fract_x
 _atom_site_fract_y
 _atom_site_fract_z
 _atom_site_occupancy
  K  K0  1  0.004156  0.044582  0.251122  1
  K  K1  1  0.996196  0.359950  0.749803  1
  K  K2  1  0.503404  0.645003  0.249486  1
  K  K3  1  0.496073  0.955248  0.750383  1
  Mn  Mn4  1  0.000736  0.997215  0.995532  1
  Mn  Mn5  1  0.250025  0.498945  0.000186  1
  Mn  Mn6  1  0.250107  0.500566  0.500179  1
  Mn  Mn7  1  0.750040  0.500582  0.500160  1
  Mn  Mn8  1  0.749456  0.497254  0.999994  1
  Cr  Cr9  1  0.000043  0.000050  0.502642  1
  Cr  Cr10  1  0.499441  0.000178  0.003783  1
  Cr  Cr11  1  0.500110  0.001124  0.497875  1
  O  O12  1  0.001571  0.343860  0.421036  1
  O  O13  1  0.998457  0.330318  0.076080  1
  O  O14  1  0.998485  0.656583  0.580829  1
  O  O15  1  0.025205  0.684627  0.913476  1
  O  O16  1  0.249957  0.824589  0.418363  1
  O  O17  1  0.239277  0.826821  0.080826  1
  O  O18  1  0.250344  0.176523  0.582128  1
  O  O19  1  0.245868  0.172569  0.918396  1
  O  O20  1  0.501660  0.344705  0.419362  1
  O  O21  1  0.472092  0.328185  0.087083  1
  O  O22  1  0.498592  0.657288  0.579527  1
  O  O23  1  0.500323  0.654355  0.922739  1
  O  O24  1  0.753054  0.824573  0.418301  1
  O  O25  1  0.764029  0.839727  0.081358  1
  O  O26  1  0.746935  0.176567  0.582158  1
  O  O27  1  0.754464  0.157809  0.917193  1
