# generated using pymatgen
data_Dy3Tm6Lu(SiSb)4
_symmetry_space_group_name_H-M   'P 1'
_cell_length_a   8.32261976
_cell_length_b   8.54755822
_cell_length_c   7.77554262
_cell_angle_alpha   89.93700125
_cell_angle_beta   89.80819364
_cell_angle_gamma   125.32582772
_symmetry_Int_Tables_number   1
_chemical_formula_structural   Dy3Tm6Lu(SiSb)4
_chemical_formula_sum   'Dy3 Tm6 Lu1 Si4 Sb4'
_cell_volume   451.28623795
_cell_formula_units_Z   1
loop_
 _symmetry_equiv_pos_site_id
 _symmetry_equiv_pos_as_xyz
  1  'x, y, z'
loop_
 _atom_site_type_symbol
 _atom_site_label
 _atom_site_symmetry_multiplicity
 _atom_site_fract_x
 _atom_site_fract_y
 _atom_site_fract_z
 _atom_site_occupancy
  Dy  Dy0  1  0.194087  0.452974  0.830795  1
  Dy  Dy1  1  0.695443  0.954085  0.669674  1
  Dy  Dy2  1  0.308784  0.047459  0.329740  1
  Tm  Tm3  1  0.037006  0.281098  0.336712  1
  Tm  Tm4  1  0.965528  0.720673  0.662560  1
  Tm  Tm5  1  0.463813  0.218581  0.836183  1
  Tm  Tm6  1  0.799416  0.546264  0.167233  1
  Tm  Tm7  1  0.535244  0.779472  0.163359  1
  Tm  Tm8  1  0.999077  0.999446  0.000553  1
  Lu  Lu9  1  0.501137  0.500280  0.500026  1
  Si  Si10  1  0.368600  0.368182  0.130909  1
  Si  Si11  1  0.631798  0.631253  0.868708  1
  Si  Si12  1  0.133298  0.132714  0.631403  1
  Si  Si13  1  0.868540  0.866661  0.366992  1
  Sb  Sb14  1  0.780148  0.196301  0.017192  1
  Sb  Sb15  1  0.212889  0.800544  0.988291  1
  Sb  Sb16  1  0.720140  0.307987  0.512578  1
  Sb  Sb17  1  0.285054  0.696024  0.487096  1
