# generated using pymatgen
data_Ca9Pr3SnGe7Rh8
_symmetry_space_group_name_H-M   'P 1'
_cell_length_a   5.80524143
_cell_length_b   8.00189320
_cell_length_c   13.61309558
_cell_angle_alpha   89.82197387
_cell_angle_beta   89.99901094
_cell_angle_gamma   90.08374739
_symmetry_Int_Tables_number   1
_chemical_formula_structural   Ca9Pr3SnGe7Rh8
_chemical_formula_sum   'Ca9 Pr3 Sn1 Ge7 Rh8'
_cell_volume   632.36433771
_cell_formula_units_Z   1
loop_
 _symmetry_equiv_pos_site_id
 _symmetry_equiv_pos_as_xyz
  1  'x, y, z'
loop_
 _atom_site_type_symbol
 _atom_site_label
 _atom_site_symmetry_multiplicity
 _atom_site_fract_x
 _atom_site_fract_y
 _atom_site_fract_z
 _atom_site_occupancy
  Ca  Ca0  1  0.636191  0.249582  0.252987  1
  Ca  Ca1  1  0.141514  0.393764  0.100858  1
  Ca  Ca2  1  0.860812  0.606072  0.901563  1
  Ca  Ca3  1  0.861909  0.605404  0.596276  1
  Ca  Ca4  1  0.858838  0.897948  0.402278  1
  Ca  Ca5  1  0.137438  0.391072  0.400744  1
  Ca  Ca6  1  0.139305  0.106449  0.597862  1
  Ca  Ca7  1  0.142618  0.104068  0.900561  1
  Ca  Ca8  1  0.858585  0.896390  0.099683  1
  Pr  Pr9  1  0.363214  0.750441  0.748054  1
  Pr  Pr10  1  0.364011  0.747527  0.252043  1
  Pr  Pr11  1  0.635853  0.249987  0.746328  1
  Sn  Sn12  1  0.634409  0.251071  0.001015  1
  Ge  Ge13  1  0.149149  0.099650  0.251021  1
  Ge  Ge14  1  0.861508  0.896136  0.748045  1
  Ge  Ge15  1  0.857200  0.597902  0.252111  1
  Ge  Ge16  1  0.141609  0.398405  0.749150  1
  Ge  Ge17  1  0.377758  0.750697  0.998938  1
  Ge  Ge18  1  0.386207  0.750566  0.500657  1
  Ge  Ge19  1  0.614682  0.251243  0.499581  1
  Rh  Rh20  1  0.361638  0.019022  0.093258  1
  Rh  Rh21  1  0.628962  0.956609  0.904016  1
  Rh  Rh22  1  0.632260  0.971474  0.590898  1
  Rh  Rh23  1  0.629202  0.532116  0.409677  1
  Rh  Rh24  1  0.368321  0.029190  0.409712  1
  Rh  Rh25  1  0.368422  0.470253  0.589578  1
  Rh  Rh26  1  0.362144  0.479671  0.907721  1
  Rh  Rh27  1  0.626240  0.547291  0.095386  1
