# generated using pymatgen
data_Dy8Cd3Ni8Sn
_symmetry_space_group_name_H-M   'P 1'
_cell_length_a   7.36058900
_cell_length_b   7.36058900
_cell_length_c   7.31714900
_cell_angle_alpha   90.00000000
_cell_angle_beta   90.00000000
_cell_angle_gamma   90.00000000
_symmetry_Int_Tables_number   1
_chemical_formula_structural   Dy8Cd3Ni8Sn
_chemical_formula_sum   'Dy8 Cd3 Ni8 Sn1'
_cell_volume   396.43047728
_cell_formula_units_Z   1
loop_
 _symmetry_equiv_pos_site_id
 _symmetry_equiv_pos_as_xyz
  1  'x, y, z'
loop_
 _atom_site_type_symbol
 _atom_site_label
 _atom_site_symmetry_multiplicity
 _atom_site_fract_x
 _atom_site_fract_y
 _atom_site_fract_z
 _atom_site_occupancy
  Dy  Dy0  1  0.827532  0.174518  0.498363  1
  Dy  Dy1  1  0.172468  0.825482  0.498363  1
  Dy  Dy2  1  0.325482  0.327532  0.001637  1
  Dy  Dy3  1  0.674518  0.672468  0.001637  1
  Dy  Dy4  1  0.675889  0.673972  0.498372  1
  Dy  Dy5  1  0.324111  0.326028  0.498372  1
  Dy  Dy6  1  0.173972  0.824111  0.001628  1
  Dy  Dy7  1  0.826028  0.175889  0.001628  1
  Cd  Cd8  1  0.500000  0.000000  0.250000  1
  Cd  Cd9  1  0.000000  0.500000  0.750000  1
  Cd  Cd10  1  0.500000  0.000000  0.750000  1
  Ni  Ni11  1  0.621029  0.381538  0.251942  1
  Ni  Ni12  1  0.378971  0.618462  0.251942  1
  Ni  Ni13  1  0.120172  0.117044  0.751957  1
  Ni  Ni14  1  0.879828  0.882956  0.751957  1
  Ni  Ni15  1  0.382956  0.620172  0.748043  1
  Ni  Ni16  1  0.617044  0.379828  0.748043  1
  Ni  Ni17  1  0.881538  0.878971  0.248058  1
  Ni  Ni18  1  0.118462  0.121029  0.248058  1
  Sn  Sn19  1  0.000000  0.500000  0.250000  1
