# generated using pymatgen
data_LiY3Ir8
_symmetry_space_group_name_H-M   'P 1'
_cell_length_a   5.32566800
_cell_length_b   5.32566856
_cell_length_c   8.65359800
_cell_angle_alpha   90.00000000
_cell_angle_beta   90.00000000
_cell_angle_gamma   119.99998412
_symmetry_Int_Tables_number   1
_chemical_formula_structural   LiY3Ir8
_chemical_formula_sum   'Li1 Y3 Ir8'
_cell_volume   212.55711229
_cell_formula_units_Z   1
loop_
 _symmetry_equiv_pos_site_id
 _symmetry_equiv_pos_as_xyz
  1  'x, y, z'
loop_
 _atom_site_type_symbol
 _atom_site_label
 _atom_site_symmetry_multiplicity
 _atom_site_fract_x
 _atom_site_fract_y
 _atom_site_fract_z
 _atom_site_occupancy
  Li  Li0  1  0.333333  0.666667  0.439768  1
  Y  Y1  1  0.333333  0.666667  0.087135  1
  Y  Y2  1  0.666667  0.333333  0.554200  1
  Y  Y3  1  0.666667  0.333333  0.929561  1
  Ir  Ir4  1  0.000000  0.000000  0.997446  1
  Ir  Ir5  1  0.000000  0.000000  0.498086  1
  Ir  Ir6  1  0.831043  0.662086  0.250475  1
  Ir  Ir7  1  0.171146  0.828854  0.747459  1
  Ir  Ir8  1  0.657709  0.828854  0.747459  1
  Ir  Ir9  1  0.337914  0.168957  0.250475  1
  Ir  Ir10  1  0.831043  0.168957  0.250475  1
  Ir  Ir11  1  0.171146  0.342291  0.747459  1
