# generated using pymatgen
data_KSrEu3Se5
_symmetry_space_group_name_H-M   'P 1'
_cell_length_a   7.67794359
_cell_length_b   7.67794224
_cell_length_c   10.82402660
_cell_angle_alpha   61.28879442
_cell_angle_beta   61.28879846
_cell_angle_gamma   33.04538369
_symmetry_Int_Tables_number   1
_chemical_formula_structural   KSrEu3Se5
_chemical_formula_sum   'K1 Sr1 Eu3 Se5'
_cell_volume   301.11485768
_cell_formula_units_Z   1
loop_
 _symmetry_equiv_pos_site_id
 _symmetry_equiv_pos_as_xyz
  1  'x, y, z'
loop_
 _atom_site_type_symbol
 _atom_site_label
 _atom_site_symmetry_multiplicity
 _atom_site_fract_x
 _atom_site_fract_y
 _atom_site_fract_z
 _atom_site_occupancy
  K  K0  1  0.000365  0.000365  0.999196  1
  Sr  Sr1  1  0.595999  0.595999  0.606432  1
  Eu  Eu2  1  0.205134  0.205134  0.198304  1
  Eu  Eu3  1  0.795018  0.795018  0.801765  1
  Eu  Eu4  1  0.403450  0.403450  0.394716  1
  Se  Se5  1  0.210056  0.210056  0.686928  1
  Se  Se6  1  0.796106  0.796106  0.310723  1
  Se  Se7  1  0.386179  0.386179  0.893245  1
  Se  Se8  1  0.997338  0.997338  0.496782  1
  Se  Se9  1  0.610354  0.610354  0.111910  1
