# generated using pymatgen
data_NaEuTmI6
_symmetry_space_group_name_H-M   'P 1'
_cell_length_a   8.81364426
_cell_length_b   8.81405050
_cell_length_c   8.81366877
_cell_angle_alpha   53.48171273
_cell_angle_beta   53.48031912
_cell_angle_gamma   53.47711869
_symmetry_Int_Tables_number   1
_chemical_formula_structural   NaEuTmI6
_chemical_formula_sum   'Na1 Eu1 Tm1 I6'
_cell_volume   410.27120618
_cell_formula_units_Z   1
loop_
 _symmetry_equiv_pos_site_id
 _symmetry_equiv_pos_as_xyz
  1  'x, y, z'
loop_
 _atom_site_type_symbol
 _atom_site_label
 _atom_site_symmetry_multiplicity
 _atom_site_fract_x
 _atom_site_fract_y
 _atom_site_fract_z
 _atom_site_occupancy
  Na  Na0  1  0.669778  0.669804  0.669829  1
  Eu  Eu1  1  0.330655  0.330671  0.330666  1
  Tm  Tm2  1  0.999951  0.999959  0.999951  1
  I  I3  1  0.232801  0.614982  0.917339  1
  I  I4  1  0.614989  0.917364  0.232781  1
  I  I5  1  0.917359  0.232781  0.614995  1
  I  I6  1  0.765704  0.383201  0.085556  1
  I  I7  1  0.383220  0.085537  0.765683  1
  I  I8  1  0.085545  0.765701  0.383200  1
