# generated using pymatgen
data_Rb4PrPaTe6
_symmetry_space_group_name_H-M   'P 1'
_cell_length_a   8.32803519
_cell_length_b   8.32803485
_cell_length_c   8.99779630
_cell_angle_alpha   80.98869348
_cell_angle_beta   80.98869949
_cell_angle_gamma   120.02230301
_symmetry_Int_Tables_number   1
_chemical_formula_structural   Rb4PrPaTe6
_chemical_formula_sum   'Rb4 Pr1 Pa1 Te6'
_cell_volume   513.10946265
_cell_formula_units_Z   1
loop_
 _symmetry_equiv_pos_site_id
 _symmetry_equiv_pos_as_xyz
  1  'x, y, z'
loop_
 _atom_site_type_symbol
 _atom_site_label
 _atom_site_symmetry_multiplicity
 _atom_site_fract_x
 _atom_site_fract_y
 _atom_site_fract_z
 _atom_site_occupancy
  Rb  Rb0  1  0.500008  0.499992  0.000000  1
  Rb  Rb1  1  0.655615  0.344385  0.500000  1
  Rb  Rb2  1  0.344539  0.655461  0.500000  1
  Rb  Rb3  1  0.999894  0.000106  0.500000  1
  Pr  Pr4  1  0.832282  0.167718  0.000000  1
  Pa  Pa5  1  0.167695  0.832305  0.000000  1
  Te  Te6  1  0.815989  0.798380  0.203066  1
  Te  Te7  1  0.201620  0.184011  0.796934  1
  Te  Te8  1  0.412256  0.044315  0.205515  1
  Te  Te9  1  0.551597  0.937181  0.793948  1
  Te  Te10  1  0.955685  0.587744  0.794485  1
  Te  Te11  1  0.062819  0.448403  0.206052  1
