# generated using pymatgen
data_Sc5Si12Tc2Ni17
_symmetry_space_group_name_H-M   'P 1'
_cell_length_a   12.09072900
_cell_length_b   12.09072929
_cell_length_c   3.75392800
_cell_angle_alpha   90.00000000
_cell_angle_beta   90.00000000
_cell_angle_gamma   120.30259108
_symmetry_Int_Tables_number   1
_chemical_formula_structural   Sc5Si12Tc2Ni17
_chemical_formula_sum   'Sc5 Si12 Tc2 Ni17'
_cell_volume   473.79366789
_cell_formula_units_Z   1
loop_
 _symmetry_equiv_pos_site_id
 _symmetry_equiv_pos_as_xyz
  1  'x, y, z'
loop_
 _atom_site_type_symbol
 _atom_site_label
 _atom_site_symmetry_multiplicity
 _atom_site_fract_x
 _atom_site_fract_y
 _atom_site_fract_z
 _atom_site_occupancy
  Sc  Sc0  1  0.332085  0.668643  0.000000  1
  Sc  Sc1  1  0.668643  0.332085  0.000000  1
  Sc  Sc2  1  0.817291  0.001671  0.500000  1
  Sc  Sc3  1  0.001671  0.817291  0.500000  1
  Sc  Sc4  1  0.186047  0.186047  0.500000  1
  Si  Si5  1  0.179048  0.001855  0.000000  1
  Si  Si6  1  0.001855  0.179048  0.000000  1
  Si  Si7  1  0.820925  0.820925  0.000000  1
  Si  Si8  1  0.165155  0.484610  0.500000  1
  Si  Si9  1  0.515260  0.678790  0.500000  1
  Si  Si10  1  0.319010  0.836803  0.500000  1
  Si  Si11  1  0.678790  0.515260  0.500000  1
  Si  Si12  1  0.836803  0.319010  0.500000  1
  Si  Si13  1  0.484610  0.165155  0.500000  1
  Si  Si14  1  0.638157  0.997622  0.000000  1
  Si  Si15  1  0.997622  0.638157  0.000000  1
  Si  Si16  1  0.366202  0.366202  0.000000  1
  Tc  Tc17  1  0.441914  0.999864  0.000000  1
  Tc  Tc18  1  0.999864  0.441914  0.000000  1
  Ni  Ni19  1  0.557099  0.557099  0.000000  1
  Ni  Ni20  1  0.352404  0.477280  0.500000  1
  Ni  Ni21  1  0.523484  0.874193  0.500000  1
  Ni  Ni22  1  0.124481  0.648402  0.500000  1
  Ni  Ni23  1  0.874193  0.523484  0.500000  1
  Ni  Ni24  1  0.648402  0.124481  0.500000  1
  Ni  Ni25  1  0.477280  0.352404  0.500000  1
  Ni  Ni26  1  0.181404  0.377515  0.000000  1
  Ni  Ni27  1  0.620969  0.798952  0.000000  1
  Ni  Ni28  1  0.194589  0.820704  0.000000  1
  Ni  Ni29  1  0.798952  0.620969  0.000000  1
  Ni  Ni30  1  0.820704  0.194589  0.000000  1
  Ni  Ni31  1  0.377515  0.181404  0.000000  1
  Ni  Ni32  1  0.277882  0.001001  0.500000  1
  Ni  Ni33  1  0.001001  0.277882  0.500000  1
  Ni  Ni34  1  0.719028  0.719028  0.500000  1
  Ni  Ni35  1  0.999662  0.999662  0.000000  1
