# generated using pymatgen
data_TcAsI18
_symmetry_space_group_name_H-M   'P 1'
_cell_length_a   10.16887127
_cell_length_b   10.16860026
_cell_length_c   10.16979920
_cell_angle_alpha   94.44313487
_cell_angle_beta   94.45245185
_cell_angle_gamma   94.44601919
_symmetry_Int_Tables_number   1
_chemical_formula_structural   TcAsI18
_chemical_formula_sum   'Tc1 As1 I18'
_cell_volume   1041.56757350
_cell_formula_units_Z   1
loop_
 _symmetry_equiv_pos_site_id
 _symmetry_equiv_pos_as_xyz
  1  'x, y, z'
loop_
 _atom_site_type_symbol
 _atom_site_label
 _atom_site_symmetry_multiplicity
 _atom_site_fract_x
 _atom_site_fract_y
 _atom_site_fract_z
 _atom_site_occupancy
  Tc  Tc0  1  0.500000  0.500000  0.500000  1
  As  As1  1  0.000000  0.000000  0.000000  1
  I  I2  1  0.732603  0.134554  0.606032  1
  I  I3  1  0.972695  0.021436  0.715618  1
  I  I4  1  0.605975  0.732617  0.134569  1
  I  I5  1  0.978532  0.284449  0.027328  1
  I  I6  1  0.715586  0.972689  0.021284  1
  I  I7  1  0.021468  0.715551  0.972672  1
  I  I8  1  0.027305  0.978564  0.284382  1
  I  I9  1  0.865410  0.394041  0.267393  1
  I  I10  1  0.284414  0.027311  0.978716  1
  I  I11  1  0.267397  0.865446  0.393968  1
  I  I12  1  0.134590  0.605959  0.732607  1
  I  I13  1  0.394025  0.267383  0.865431  1
  I  I14  1  0.768046  0.539386  0.495692  1
  I  I15  1  0.539452  0.495698  0.767963  1
  I  I16  1  0.231954  0.460614  0.504308  1
  I  I17  1  0.460548  0.504302  0.232037  1
  I  I18  1  0.495640  0.768056  0.539439  1
  I  I19  1  0.504360  0.231944  0.460561  1
