# generated using pymatgen
data_MgTl2Pb(NO3)8
_symmetry_space_group_name_H-M   'P 1'
_cell_length_a   7.99486894
_cell_length_b   8.55134839
_cell_length_c   8.10701941
_cell_angle_alpha   91.45865706
_cell_angle_beta   88.35747151
_cell_angle_gamma   87.36870810
_symmetry_Int_Tables_number   1
_chemical_formula_structural   MgTl2Pb(NO3)8
_chemical_formula_sum   'Mg1 Tl2 Pb1 N8 O24'
_cell_volume   553.24104531
_cell_formula_units_Z   1
loop_
 _symmetry_equiv_pos_site_id
 _symmetry_equiv_pos_as_xyz
  1  'x, y, z'
loop_
 _atom_site_type_symbol
 _atom_site_label
 _atom_site_symmetry_multiplicity
 _atom_site_fract_x
 _atom_site_fract_y
 _atom_site_fract_z
 _atom_site_occupancy
  Mg  Mg0  1  0.000000  0.000000  0.500000  1
  Tl  Tl1  1  0.500000  0.500000  0.500000  1
  Tl  Tl2  1  0.500000  0.000000  0.000000  1
  Pb  Pb3  1  0.000000  0.500000  0.000000  1
  N  N4  1  0.680181  0.116478  0.307832  1
  N  N5  1  0.687319  0.305037  0.879939  1
  N  N6  1  0.840868  0.836138  0.803246  1
  N  N7  1  0.845935  0.711452  0.363694  1
  N  N8  1  0.159132  0.163862  0.196754  1
  N  N9  1  0.154065  0.288548  0.636306  1
  N  N10  1  0.312681  0.694963  0.120061  1
  N  N11  1  0.319819  0.883522  0.692168  1
  O  O12  1  0.562295  0.220555  0.843291  1
  O  O13  1  0.567063  0.217797  0.287858  1
  O  O14  1  0.707029  0.427403  0.801203  1
  O  O15  1  0.698131  0.996283  0.206204  1
  O  O16  1  0.734115  0.743194  0.471321  1
  O  O17  1  0.728439  0.817355  0.916942  1
  O  O18  1  0.784395  0.264199  0.991998  1
  O  O19  1  0.780850  0.125102  0.424134  1
  O  O20  1  0.837546  0.958436  0.720066  1
  O  O21  1  0.832641  0.595675  0.263319  1
  O  O22  1  0.952163  0.729070  0.778935  1
  O  O23  1  0.974978  0.794003  0.352808  1
  O  O24  1  0.025022  0.205997  0.647192  1
  O  O25  1  0.047837  0.270930  0.221065  1
  O  O26  1  0.167359  0.404325  0.736681  1
  O  O27  1  0.162454  0.041564  0.279934  1
  O  O28  1  0.215605  0.735801  0.008002  1
  O  O29  1  0.219150  0.874898  0.575866  1
  O  O30  1  0.271561  0.182645  0.083058  1
  O  O31  1  0.265885  0.256806  0.528679  1
  O  O32  1  0.292971  0.572597  0.198797  1
  O  O33  1  0.301869  0.003717  0.793796  1
  O  O34  1  0.432937  0.782203  0.712142  1
  O  O35  1  0.437705  0.779445  0.156709  1
