# generated using pymatgen
data_Tb2LuRuI3
_symmetry_space_group_name_H-M   'P 1'
_cell_length_a   4.21962500
_cell_length_b   8.85592224
_cell_length_c   12.26211939
_cell_angle_alpha   85.83507775
_cell_angle_beta   90.00000000
_cell_angle_gamma   90.00000000
_symmetry_Int_Tables_number   1
_chemical_formula_structural   Tb2LuRuI3
_chemical_formula_sum   'Tb4 Lu2 Ru2 I6'
_cell_volume   457.00900586
_cell_formula_units_Z   2
loop_
 _symmetry_equiv_pos_site_id
 _symmetry_equiv_pos_as_xyz
  1  'x, y, z'
loop_
 _atom_site_type_symbol
 _atom_site_label
 _atom_site_symmetry_multiplicity
 _atom_site_fract_x
 _atom_site_fract_y
 _atom_site_fract_z
 _atom_site_occupancy
  Tb  Tb0  1  0.750000  0.097040  0.684353  1
  Tb  Tb1  1  0.250000  0.902960  0.315647  1
  Tb  Tb2  1  0.250000  0.262304  0.898937  1
  Tb  Tb3  1  0.750000  0.737696  0.101063  1
  Lu  Lu4  1  0.750000  0.126641  0.124018  1
  Lu  Lu5  1  0.250000  0.873359  0.875982  1
  Ru  Ru6  1  0.750000  0.051356  0.908871  1
  Ru  Ru7  1  0.250000  0.948644  0.091129  1
  I  I8  1  0.250000  0.353744  0.636680  1
  I  I9  1  0.750000  0.646256  0.363320  1
  I  I10  1  0.750000  0.144890  0.390941  1
  I  I11  1  0.250000  0.855110  0.609059  1
  I  I12  1  0.250000  0.423686  0.133669  1
  I  I13  1  0.750000  0.576314  0.866331  1
