# generated using pymatgen
data_Ca5Si2BiH
_symmetry_space_group_name_H-M   'P 1'
_cell_length_a   9.21963896
_cell_length_b   9.21963922
_cell_length_c   9.21963905
_cell_angle_alpha   129.66456961
_cell_angle_beta   129.66457710
_cell_angle_gamma   73.94357128
_symmetry_Int_Tables_number   1
_chemical_formula_structural   Ca5Si2BiH
_chemical_formula_sum   'Ca10 Si4 Bi2 H2'
_cell_volume   452.93887759
_cell_formula_units_Z   2
loop_
 _symmetry_equiv_pos_site_id
 _symmetry_equiv_pos_as_xyz
  1  'x, y, z'
loop_
 _atom_site_type_symbol
 _atom_site_label
 _atom_site_symmetry_multiplicity
 _atom_site_fract_x
 _atom_site_fract_y
 _atom_site_fract_z
 _atom_site_occupancy
  Ca  Ca0  1  0.500000  0.500000  0.000000  1
  Ca  Ca1  1  0.000000  0.000000  0.000000  1
  Ca  Ca2  1  0.520037  0.020037  0.821841  1
  Ca  Ca3  1  0.198197  0.698197  0.178159  1
  Ca  Ca4  1  0.020037  0.198197  0.500000  1
  Ca  Ca5  1  0.698197  0.520037  0.500000  1
  Ca  Ca6  1  0.479963  0.979963  0.178159  1
  Ca  Ca7  1  0.801803  0.301803  0.821841  1
  Ca  Ca8  1  0.979963  0.801803  0.500000  1
  Ca  Ca9  1  0.301803  0.479963  0.500000  1
  Si  Si10  1  0.884095  0.384095  0.268192  1
  Si  Si11  1  0.115905  0.615905  0.731808  1
  Si  Si12  1  0.384095  0.115905  0.500000  1
  Si  Si13  1  0.615905  0.884095  0.500000  1
  Bi  Bi14  1  0.250000  0.250000  0.000000  1
  Bi  Bi15  1  0.750000  0.750000  0.000000  1
  H  H16  1  0.250000  0.750000  0.500000  1
  H  H17  1  0.750000  0.250000  0.500000  1
