# generated using pymatgen
data_Zr6Zn16Pt7S
_symmetry_space_group_name_H-M   'P 1'
_cell_length_a   8.84731341
_cell_length_b   8.84731361
_cell_length_c   8.84731300
_cell_angle_alpha   59.99999855
_cell_angle_beta   59.99999780
_cell_angle_gamma   59.99999496
_symmetry_Int_Tables_number   1
_chemical_formula_structural   Zr6Zn16Pt7S
_chemical_formula_sum   'Zr6 Zn16 Pt7 S1'
_cell_volume   489.68770492
_cell_formula_units_Z   1
loop_
 _symmetry_equiv_pos_site_id
 _symmetry_equiv_pos_as_xyz
  1  'x, y, z'
loop_
 _atom_site_type_symbol
 _atom_site_label
 _atom_site_symmetry_multiplicity
 _atom_site_fract_x
 _atom_site_fract_y
 _atom_site_fract_z
 _atom_site_occupancy
  Zr  Zr0  1  0.705675  0.294325  0.294325  1
  Zr  Zr1  1  0.294325  0.705675  0.705675  1
  Zr  Zr2  1  0.294325  0.705675  0.294325  1
  Zr  Zr3  1  0.705675  0.294325  0.705675  1
  Zr  Zr4  1  0.294325  0.294325  0.705675  1
  Zr  Zr5  1  0.705675  0.705675  0.294325  1
  Zn  Zn6  1  0.121597  0.121597  0.121597  1
  Zn  Zn7  1  0.878403  0.878403  0.878403  1
  Zn  Zn8  1  0.121597  0.121597  0.635208  1
  Zn  Zn9  1  0.121597  0.635208  0.121597  1
  Zn  Zn10  1  0.878403  0.878403  0.364792  1
  Zn  Zn11  1  0.878403  0.364792  0.878403  1
  Zn  Zn12  1  0.635208  0.121597  0.121597  1
  Zn  Zn13  1  0.364792  0.878403  0.878403  1
  Zn  Zn14  1  0.336664  0.336664  0.336664  1
  Zn  Zn15  1  0.663336  0.663336  0.663336  1
  Zn  Zn16  1  0.336664  0.336664  0.990009  1
  Zn  Zn17  1  0.336664  0.990009  0.336664  1
  Zn  Zn18  1  0.663336  0.663336  0.009991  1
  Zn  Zn19  1  0.663336  0.009991  0.663336  1
  Zn  Zn20  1  0.990009  0.336664  0.336664  1
  Zn  Zn21  1  0.009991  0.663336  0.663336  1
  Pt  Pt22  1  0.500000  0.000000  0.000000  1
  Pt  Pt23  1  0.000000  0.500000  0.500000  1
  Pt  Pt24  1  0.000000  0.500000  0.000000  1
  Pt  Pt25  1  0.500000  0.000000  0.500000  1
  Pt  Pt26  1  0.000000  0.000000  0.500000  1
  Pt  Pt27  1  0.500000  0.500000  0.000000  1
  Pt  Pt28  1  0.000000  0.000000  0.000000  1
  S  S29  1  0.500000  0.500000  0.500000  1
