# generated using pymatgen
data_Th14CoRe4Tc
_symmetry_space_group_name_H-M   'P 1'
_cell_length_a   9.95062753
_cell_length_b   9.95062963
_cell_length_c   6.35054271
_cell_angle_alpha   90.18353036
_cell_angle_beta   89.81647451
_cell_angle_gamma   119.20982875
_symmetry_Int_Tables_number   1
_chemical_formula_structural   Th14CoRe4Tc
_chemical_formula_sum   'Th14 Co1 Re4 Tc1'
_cell_volume   548.83615116
_cell_formula_units_Z   1
loop_
 _symmetry_equiv_pos_site_id
 _symmetry_equiv_pos_as_xyz
  1  'x, y, z'
loop_
 _atom_site_type_symbol
 _atom_site_label
 _atom_site_symmetry_multiplicity
 _atom_site_fract_x
 _atom_site_fract_y
 _atom_site_fract_z
 _atom_site_occupancy
  Th  Th0  1  0.330118  0.669882  0.024002  1
  Th  Th1  1  0.667926  0.332074  0.522626  1
  Th  Th2  1  0.126055  0.873945  0.249310  1
  Th  Th3  1  0.253972  0.123821  0.759433  1
  Th  Th4  1  0.876179  0.746028  0.759433  1
  Th  Th5  1  0.126088  0.252166  0.261203  1
  Th  Th6  1  0.747834  0.873912  0.261203  1
  Th  Th7  1  0.875647  0.124353  0.759823  1
  Th  Th8  1  0.537500  0.462500  0.046327  1
  Th  Th9  1  0.077864  0.548630  0.549593  1
  Th  Th10  1  0.451370  0.922136  0.549593  1
  Th  Th11  1  0.546418  0.079243  0.045397  1
  Th  Th12  1  0.920757  0.453582  0.045397  1
  Th  Th13  1  0.460417  0.539583  0.549692  1
  Co  Co14  1  0.184588  0.815412  0.790714  1
  Re  Re15  1  0.625658  0.816956  0.798859  1
  Re  Re16  1  0.183044  0.374342  0.798859  1
  Re  Re17  1  0.819780  0.628648  0.296574  1
  Re  Re18  1  0.371352  0.180220  0.296574  1
  Tc  Tc19  1  0.817434  0.182566  0.295388  1
