# generated using pymatgen
data_ZrPa(Ni7B2)3
_symmetry_space_group_name_H-M   'P 1'
_cell_length_a   7.52421900
_cell_length_b   7.52421930
_cell_length_c   7.52421900
_cell_angle_alpha   120.00000306
_cell_angle_beta   90.00000000
_cell_angle_gamma   120.00000306
_symmetry_Int_Tables_number   1
_chemical_formula_structural   ZrPa(Ni7B2)3
_chemical_formula_sum   'Zr1 Pa1 Ni21 B6'
_cell_volume   301.20991421
_cell_formula_units_Z   1
loop_
 _symmetry_equiv_pos_site_id
 _symmetry_equiv_pos_as_xyz
  1  'x, y, z'
loop_
 _atom_site_type_symbol
 _atom_site_label
 _atom_site_symmetry_multiplicity
 _atom_site_fract_x
 _atom_site_fract_y
 _atom_site_fract_z
 _atom_site_occupancy
  Zr  Zr0  1  0.250000  0.500000  0.750000  1
  Pa  Pa1  1  0.750000  0.500000  0.250000  1
  Ni  Ni2  1  0.000000  0.000000  0.000000  1
  Ni  Ni3  1  0.338389  0.998832  0.999416  1
  Ni  Ni4  1  0.660443  0.998832  0.999416  1
  Ni  Ni5  1  0.000584  0.338973  0.999416  1
  Ni  Ni6  1  0.338389  0.338973  0.999416  1
  Ni  Ni7  1  0.000584  0.661027  0.999416  1
  Ni  Ni8  1  0.660443  0.661027  0.999416  1
  Ni  Ni9  1  0.386167  0.772336  0.158505  1
  Ni  Ni10  1  0.000584  0.001168  0.339557  1
  Ni  Ni11  1  0.000584  0.338973  0.339557  1
  Ni  Ni12  1  0.338389  0.338973  0.339557  1
  Ni  Ni13  1  0.613221  0.226443  0.386777  1
  Ni  Ni14  1  0.160335  0.773555  0.386777  1
  Ni  Ni15  1  0.613221  0.773555  0.386777  1
  Ni  Ni16  1  0.386167  0.227662  0.613831  1
  Ni  Ni17  1  0.386167  0.772336  0.613831  1
  Ni  Ni18  1  0.841495  0.227662  0.613833  1
  Ni  Ni19  1  0.000584  0.001168  0.661611  1
  Ni  Ni20  1  0.000584  0.661027  0.661611  1
  Ni  Ni21  1  0.660443  0.661027  0.661611  1
  Ni  Ni22  1  0.613223  0.226443  0.839665  1
  B  B23  1  0.267412  0.000000  0.267412  1
  B  B24  1  0.267412  0.534823  0.267412  1
  B  B25  1  0.732588  0.000000  0.267412  1
  B  B26  1  0.267412  0.000000  0.732588  1
  B  B27  1  0.732588  0.000000  0.732588  1
  B  B28  1  0.732588  0.465175  0.732588  1
