# generated using pymatgen
data_TmMn2(FeP)3
_symmetry_space_group_name_H-M   'P 1'
_cell_length_a   3.62522200
_cell_length_b   10.21811600
_cell_length_c   12.06761900
_cell_angle_alpha   90.00000000
_cell_angle_beta   90.00000000
_cell_angle_gamma   90.00000000
_symmetry_Int_Tables_number   1
_chemical_formula_structural   TmMn2(FeP)3
_chemical_formula_sum   'Tm4 Mn8 Fe12 P12'
_cell_volume   447.02007355
_cell_formula_units_Z   4
loop_
 _symmetry_equiv_pos_site_id
 _symmetry_equiv_pos_as_xyz
  1  'x, y, z'
loop_
 _atom_site_type_symbol
 _atom_site_label
 _atom_site_symmetry_multiplicity
 _atom_site_fract_x
 _atom_site_fract_y
 _atom_site_fract_z
 _atom_site_occupancy
  Tm  Tm0  1  0.250000  0.580596  0.710438  1
  Tm  Tm1  1  0.250000  0.919404  0.210438  1
  Tm  Tm2  1  0.750000  0.419404  0.289562  1
  Tm  Tm3  1  0.750000  0.080596  0.789562  1
  Mn  Mn4  1  0.250000  0.706303  0.991472  1
  Mn  Mn5  1  0.250000  0.793697  0.491472  1
  Mn  Mn6  1  0.750000  0.293697  0.008528  1
  Mn  Mn7  1  0.750000  0.206303  0.508528  1
  Mn  Mn8  1  0.250000  0.408562  0.490552  1
  Mn  Mn9  1  0.250000  0.091438  0.990552  1
  Mn  Mn10  1  0.750000  0.591438  0.509448  1
  Mn  Mn11  1  0.750000  0.908562  0.009448  1
  Fe  Fe12  1  0.250000  0.220268  0.172580  1
  Fe  Fe13  1  0.250000  0.279732  0.672580  1
  Fe  Fe14  1  0.750000  0.779732  0.827420  1
  Fe  Fe15  1  0.750000  0.720268  0.327420  1
  Fe  Fe16  1  0.250000  0.877189  0.695698  1
  Fe  Fe17  1  0.250000  0.622811  0.195698  1
  Fe  Fe18  1  0.750000  0.122811  0.304302  1
  Fe  Fe19  1  0.750000  0.377189  0.804302  1
  Fe  Fe20  1  0.250000  0.462713  0.935931  1
  Fe  Fe21  1  0.250000  0.037287  0.435931  1
  Fe  Fe22  1  0.750000  0.537287  0.064069  1
  Fe  Fe23  1  0.750000  0.962713  0.564069  1
  P  P24  1  0.250000  0.422881  0.113963  1
  P  P25  1  0.250000  0.077119  0.613963  1
  P  P26  1  0.750000  0.577119  0.886037  1
  P  P27  1  0.750000  0.922881  0.386037  1
  P  P28  1  0.250000  0.267645  0.861672  1
  P  P29  1  0.250000  0.232355  0.361672  1
  P  P30  1  0.750000  0.732355  0.138328  1
  P  P31  1  0.750000  0.767645  0.638328  1
  P  P32  1  0.250000  0.601911  0.380627  1
  P  P33  1  0.250000  0.898089  0.880627  1
  P  P34  1  0.750000  0.398089  0.619373  1
  P  P35  1  0.750000  0.101911  0.119373  1
