# generated using pymatgen
data_Dy2HoSi2GeRu2
_symmetry_space_group_name_H-M   'P 1'
_cell_length_a   5.74868842
_cell_length_b   5.74868897
_cell_length_c   13.89497044
_cell_angle_alpha   90.02696331
_cell_angle_beta   89.97303592
_cell_angle_gamma   137.31963588
_symmetry_Int_Tables_number   1
_chemical_formula_structural   Dy2HoSi2GeRu2
_chemical_formula_sum   'Dy4 Ho2 Si4 Ge2 Ru4'
_cell_volume   311.29042602
_cell_formula_units_Z   2
loop_
 _symmetry_equiv_pos_site_id
 _symmetry_equiv_pos_as_xyz
  1  'x, y, z'
loop_
 _atom_site_type_symbol
 _atom_site_label
 _atom_site_symmetry_multiplicity
 _atom_site_fract_x
 _atom_site_fract_y
 _atom_site_fract_z
 _atom_site_occupancy
  Dy  Dy0  1  0.855433  0.144567  0.250058  1
  Dy  Dy1  1  0.144567  0.855433  0.749942  1
  Dy  Dy2  1  0.424430  0.575570  0.887081  1
  Dy  Dy3  1  0.575570  0.424430  0.112919  1
  Ho  Ho4  1  0.575684  0.424316  0.387280  1
  Ho  Ho5  1  0.424316  0.575684  0.612720  1
  Si  Si6  1  0.117459  0.882541  0.538836  1
  Si  Si7  1  0.882541  0.117459  0.461164  1
  Si  Si8  1  0.882409  0.117591  0.038929  1
  Si  Si9  1  0.117591  0.882409  0.961071  1
  Ge  Ge10  1  0.162674  0.837326  0.250136  1
  Ge  Ge11  1  0.837326  0.162674  0.749864  1
  Ru  Ru12  1  0.711804  0.288196  0.578794  1
  Ru  Ru13  1  0.288196  0.711804  0.421206  1
  Ru  Ru14  1  0.288067  0.711933  0.078851  1
  Ru  Ru15  1  0.711933  0.288067  0.921149  1
