# generated using pymatgen
data_Dy6Ho2Ta6Ti5Si16Ag
_symmetry_space_group_name_H-M   'P 1'
_cell_length_a   7.07025350
_cell_length_b   7.06976599
_cell_length_c   12.91409500
_cell_angle_alpha   90.06391083
_cell_angle_beta   89.92856516
_cell_angle_gamma   89.65450885
_symmetry_Int_Tables_number   1
_chemical_formula_structural   Dy6Ho2Ta6Ti5Si16Ag
_chemical_formula_sum   'Dy6 Ho2 Ta6 Ti5 Si16 Ag1'
_cell_volume   645.49888097
_cell_formula_units_Z   1
loop_
 _symmetry_equiv_pos_site_id
 _symmetry_equiv_pos_as_xyz
  1  'x, y, z'
loop_
 _atom_site_type_symbol
 _atom_site_label
 _atom_site_symmetry_multiplicity
 _atom_site_fract_x
 _atom_site_fract_y
 _atom_site_fract_z
 _atom_site_occupancy
  Dy  Dy0  1  0.342276  0.001222  0.466707  1
  Dy  Dy1  1  0.497668  0.840519  0.716881  1
  Dy  Dy2  1  0.500763  0.157962  0.215349  1
  Dy  Dy3  1  0.841161  0.498052  0.283247  1
  Dy  Dy4  1  0.158131  0.501452  0.783992  1
  Dy  Dy5  1  0.656245  0.001341  0.968561  1
  Ho  Ho6  1  0.000745  0.342620  0.533123  1
  Ho  Ho7  1  0.001628  0.657415  0.031947  1
  Ta  Ta8  1  0.172710  0.826218  0.249890  1
  Ta  Ta9  1  0.825774  0.173628  0.749282  1
  Ta  Ta10  1  0.673000  0.671751  0.499926  1
  Ta  Ta11  1  0.148227  0.008740  0.876233  1
  Ta  Ta12  1  0.495316  0.650172  0.123435  1
  Ta  Ta13  1  0.506777  0.349228  0.624835  1
  Ti  Ti14  1  0.651535  0.495341  0.876668  1
  Ti  Ti15  1  0.348719  0.506706  0.375948  1
  Ti  Ti16  1  0.847331  0.990561  0.373669  1
  Ti  Ti17  1  0.009153  0.146877  0.123456  1
  Ti  Ti18  1  0.989396  0.846858  0.626384  1
  Si  Si19  1  0.201940  0.132873  0.682306  1
  Si  Si20  1  0.374965  0.717631  0.928691  1
  Si  Si21  1  0.632912  0.295139  0.432267  1
  Si  Si22  1  0.722053  0.371650  0.072789  1
  Si  Si23  1  0.293966  0.634012  0.567414  1
  Si  Si24  1  0.798325  0.867291  0.182188  1
  Si  Si25  1  0.132978  0.201664  0.316321  1
  Si  Si26  1  0.864585  0.798206  0.818310  1
  Si  Si27  1  0.287309  0.939604  0.065053  1
  Si  Si28  1  0.546158  0.791655  0.313812  1
  Si  Si29  1  0.454110  0.207502  0.810397  1
  Si  Si30  1  0.794210  0.547094  0.686614  1
  Si  Si31  1  0.206764  0.454463  0.190997  1
  Si  Si32  1  0.710194  0.045705  0.562371  1
  Si  Si33  1  0.938660  0.291639  0.934598  1
  Si  Si34  1  0.046230  0.708319  0.436409  1
  Ag  Ag35  1  0.328083  0.328889  0.999927  1
