# generated using pymatgen
data_Sc5Nb(ZnRh2)6
_symmetry_space_group_name_H-M   'P 1'
_cell_length_a   4.42316600
_cell_length_b   6.25415100
_cell_length_c   13.25581700
_cell_angle_alpha   90.00000000
_cell_angle_beta   90.00065233
_cell_angle_gamma   90.00000000
_symmetry_Int_Tables_number   1
_chemical_formula_structural   Sc5Nb(ZnRh2)6
_chemical_formula_sum   'Sc5 Nb1 Zn6 Rh12'
_cell_volume   366.69762834
_cell_formula_units_Z   1
loop_
 _symmetry_equiv_pos_site_id
 _symmetry_equiv_pos_as_xyz
  1  'x, y, z'
loop_
 _atom_site_type_symbol
 _atom_site_label
 _atom_site_symmetry_multiplicity
 _atom_site_fract_x
 _atom_site_fract_y
 _atom_site_fract_z
 _atom_site_occupancy
  Sc  Sc0  1  0.000001  0.000000  0.001307  1
  Sc  Sc1  1  0.499917  0.500000  0.167382  1
  Sc  Sc2  1  0.999936  0.000000  0.333354  1
  Sc  Sc3  1  0.500001  0.500000  0.499303  1
  Sc  Sc4  1  0.000061  0.000000  0.665351  1
  Nb  Nb5  1  0.500084  0.500000  0.833343  1
  Zn  Zn6  1  0.000002  0.500000  0.001694  1
  Zn  Zn7  1  0.499910  0.000000  0.167106  1
  Zn  Zn8  1  0.999934  0.500000  0.333348  1
  Zn  Zn9  1  0.500000  0.000000  0.499582  1
  Zn  Zn10  1  0.000068  0.500000  0.664948  1
  Zn  Zn11  1  0.500081  0.000000  0.833340  1
  Rh  Rh12  1  0.500008  0.252831  0.996655  1
  Rh  Rh13  1  0.500008  0.747169  0.996655  1
  Rh  Rh14  1  0.999913  0.249992  0.166117  1
  Rh  Rh15  1  0.999913  0.750008  0.166117  1
  Rh  Rh16  1  0.499935  0.250268  0.333321  1
  Rh  Rh17  1  0.499935  0.749734  0.333321  1
  Rh  Rh18  1  0.999997  0.249996  0.500536  1
  Rh  Rh19  1  0.999997  0.750004  0.500536  1
  Rh  Rh20  1  0.500065  0.252807  0.670002  1
  Rh  Rh21  1  0.500065  0.747195  0.670002  1
  Rh  Rh22  1  0.000083  0.256343  0.833340  1
  Rh  Rh23  1  0.000083  0.743657  0.833340  1
