# generated using pymatgen
data_Hf4ZrNb(B2Ru5)2
_symmetry_space_group_name_H-M   'P 1'
_cell_length_a   9.49245558
_cell_length_b   9.49305458
_cell_length_c   3.13013200
_cell_angle_alpha   90.00000000
_cell_angle_beta   90.00000000
_cell_angle_gamma   90.08448223
_symmetry_Int_Tables_number   1
_chemical_formula_structural   Hf4ZrNb(B2Ru5)2
_chemical_formula_sum   'Hf4 Zr1 Nb1 B4 Ru10'
_cell_volume   282.06339682
_cell_formula_units_Z   1
loop_
 _symmetry_equiv_pos_site_id
 _symmetry_equiv_pos_as_xyz
  1  'x, y, z'
loop_
 _atom_site_type_symbol
 _atom_site_label
 _atom_site_symmetry_multiplicity
 _atom_site_fract_x
 _atom_site_fract_y
 _atom_site_fract_z
 _atom_site_occupancy
  Hf  Hf0  1  0.176314  0.324607  0.000000  1
  Hf  Hf1  1  0.324895  0.824160  0.000000  1
  Hf  Hf2  1  0.674915  0.175989  0.000000  1
  Hf  Hf3  1  0.499561  0.499825  0.000000  1
  Zr  Zr4  1  0.824130  0.675055  0.000000  1
  Nb  Nb5  1  0.000174  0.000436  0.000000  1
  B  B6  1  0.620641  0.878027  0.000000  1
  B  B7  1  0.378988  0.122363  0.000000  1
  B  B8  1  0.122695  0.621081  0.000000  1
  B  B9  1  0.877579  0.378621  0.000000  1
  Ru  Ru10  1  0.572898  0.721543  0.500000  1
  Ru  Ru11  1  0.425836  0.278830  0.500000  1
  Ru  Ru12  1  0.070434  0.782584  0.500000  1
  Ru  Ru13  1  0.930641  0.217562  0.500000  1
  Ru  Ru14  1  0.278977  0.574189  0.500000  1
  Ru  Ru15  1  0.720936  0.424804  0.500000  1
  Ru  Ru16  1  0.217664  0.069408  0.500000  1
  Ru  Ru17  1  0.781971  0.931700  0.500000  1
  Ru  Ru18  1  0.499820  0.000201  0.500000  1
  Ru  Ru19  1  0.000933  0.499015  0.500000  1
