# generated using pymatgen
data_Ho4Lu6Ru3Rh
_symmetry_space_group_name_H-M   'P 1'
_cell_length_a   6.24551625
_cell_length_b   7.24762260
_cell_length_c   8.33708033
_cell_angle_alpha   96.88994582
_cell_angle_beta   112.07829132
_cell_angle_gamma   90.14296879
_symmetry_Int_Tables_number   1
_chemical_formula_structural   Ho4Lu6Ru3Rh
_chemical_formula_sum   'Ho4 Lu6 Ru3 Rh1'
_cell_volume   346.71616788
_cell_formula_units_Z   1
loop_
 _symmetry_equiv_pos_site_id
 _symmetry_equiv_pos_as_xyz
  1  'x, y, z'
loop_
 _atom_site_type_symbol
 _atom_site_label
 _atom_site_symmetry_multiplicity
 _atom_site_fract_x
 _atom_site_fract_y
 _atom_site_fract_z
 _atom_site_occupancy
  Ho  Ho0  1  0.524949  0.083829  0.813157  1
  Ho  Ho1  1  0.475887  0.918317  0.185315  1
  Ho  Ho2  1  0.712115  0.416053  0.185658  1
  Ho  Ho3  1  0.287566  0.582998  0.808918  1
  Lu  Lu4  1  0.293575  0.313601  0.436111  1
  Lu  Lu5  1  0.708207  0.683963  0.567117  1
  Lu  Lu6  1  0.856597  0.182922  0.564478  1
  Lu  Lu7  1  0.140373  0.819765  0.436898  1
  Lu  Lu8  1  0.079982  0.248156  0.998239  1
  Lu  Lu9  1  0.918896  0.750993  0.999877  1
  Ru  Ru10  1  0.679402  0.425077  0.779441  1
  Ru  Ru11  1  0.102677  0.922915  0.780482  1
  Ru  Ru12  1  0.900649  0.076306  0.220582  1
  Rh  Rh13  1  0.319124  0.575106  0.223727  1
