# generated using pymatgen
data_Y3TmOsI4
_symmetry_space_group_name_H-M   'P 1'
_cell_length_a   11.41441688
_cell_length_b   11.41441802
_cell_length_c   6.17671404
_cell_angle_alpha   90.02656249
_cell_angle_beta   90.02657001
_cell_angle_gamma   88.36899710
_symmetry_Int_Tables_number   1
_chemical_formula_structural   Y3TmOsI4
_chemical_formula_sum   'Y6 Tm2 Os2 I8'
_cell_volume   804.43123009
_cell_formula_units_Z   2
loop_
 _symmetry_equiv_pos_site_id
 _symmetry_equiv_pos_as_xyz
  1  'x, y, z'
loop_
 _atom_site_type_symbol
 _atom_site_label
 _atom_site_symmetry_multiplicity
 _atom_site_fract_x
 _atom_site_fract_y
 _atom_site_fract_z
 _atom_site_occupancy
  Y  Y0  1  0.078689  0.195780  0.000255  1
  Y  Y1  1  0.195780  0.078689  0.500255  1
  Y  Y2  1  0.921711  0.803062  0.999615  1
  Y  Y3  1  0.914736  0.198433  0.500784  1
  Y  Y4  1  0.198433  0.914736  0.000784  1
  Y  Y5  1  0.803062  0.921711  0.499615  1
  Tm  Tm6  1  0.807792  0.081158  0.998931  1
  Tm  Tm7  1  0.081158  0.807792  0.498931  1
  Os  Os8  1  0.999650  0.999893  0.249931  1
  Os  Os9  1  0.999893  0.999650  0.749931  1
  I  I10  1  0.644228  0.152460  0.509880  1
  I  I11  1  0.859595  0.648868  0.505329  1
  I  I12  1  0.351326  0.141803  0.994543  1
  I  I13  1  0.141803  0.351326  0.494543  1
  I  I14  1  0.648868  0.859595  0.005329  1
  I  I15  1  0.353972  0.846845  0.490732  1
  I  I16  1  0.152460  0.644228  0.009880  1
  I  I17  1  0.846845  0.353972  0.990732  1
