# generated using pymatgen
data_Er4Sn3As3Rh7
_symmetry_space_group_name_H-M   'P 1'
_cell_length_a   7.39280143
_cell_length_b   7.39280239
_cell_length_c   7.47439700
_cell_angle_alpha   109.69495688
_cell_angle_beta   109.69495953
_cell_angle_gamma   109.24656316
_symmetry_Int_Tables_number   1
_chemical_formula_structural   Er4Sn3As3Rh7
_chemical_formula_sum   'Er4 Sn3 As3 Rh7'
_cell_volume   313.59255883
_cell_formula_units_Z   1
loop_
 _symmetry_equiv_pos_site_id
 _symmetry_equiv_pos_as_xyz
  1  'x, y, z'
loop_
 _atom_site_type_symbol
 _atom_site_label
 _atom_site_symmetry_multiplicity
 _atom_site_fract_x
 _atom_site_fract_y
 _atom_site_fract_z
 _atom_site_occupancy
  Er  Er0  1  0.000000  0.000000  0.450332  1
  Er  Er1  1  0.000000  0.523905  0.010365  1
  Er  Er2  1  0.523905  0.000000  0.010365  1
  Er  Er3  1  0.476095  0.476095  0.486460  1
  Sn  Sn4  1  0.291331  0.291331  0.983186  1
  Sn  Sn5  1  0.708669  0.000000  0.691855  1
  Sn  Sn6  1  0.000000  0.708669  0.691855  1
  As  As7  1  0.660152  0.660152  0.989974  1
  As  As8  1  0.339848  0.000000  0.329822  1
  As  As9  1  0.000000  0.339848  0.329822  1
  Rh  Rh10  1  0.753019  0.253984  0.499111  1
  Rh  Rh11  1  0.746016  0.499035  0.245127  1
  Rh  Rh12  1  0.500965  0.246981  0.746093  1
  Rh  Rh13  1  0.246981  0.500965  0.746093  1
  Rh  Rh14  1  0.253984  0.753019  0.499111  1
  Rh  Rh15  1  0.499035  0.746016  0.245127  1
  Rh  Rh16  1  0.000000  0.000000  0.045301  1
