# generated using pymatgen
data_Tb17Ho2ErSn16
_symmetry_space_group_name_H-M   'P 1'
_cell_length_a   8.05728703
_cell_length_b   8.20911449
_cell_length_c   15.53085700
_cell_angle_alpha   90.00000000
_cell_angle_beta   90.00000000
_cell_angle_gamma   89.97527282
_symmetry_Int_Tables_number   1
_chemical_formula_structural   Tb17Ho2ErSn16
_chemical_formula_sum   'Tb17 Ho2 Er1 Sn16'
_cell_volume   1027.26035670
_cell_formula_units_Z   1
loop_
 _symmetry_equiv_pos_site_id
 _symmetry_equiv_pos_as_xyz
  1  'x, y, z'
loop_
 _atom_site_type_symbol
 _atom_site_label
 _atom_site_symmetry_multiplicity
 _atom_site_fract_x
 _atom_site_fract_y
 _atom_site_fract_z
 _atom_site_occupancy
  Tb  Tb0  1  0.367667  0.835698  0.878352  1
  Tb  Tb1  1  0.867770  0.664234  0.621566  1
  Tb  Tb2  1  0.632490  0.164395  0.378462  1
  Tb  Tb3  1  0.132196  0.335827  0.121516  1
  Tb  Tb4  1  0.632490  0.164395  0.121538  1
  Tb  Tb5  1  0.132196  0.335827  0.378484  1
  Tb  Tb6  1  0.367667  0.835698  0.621648  1
  Tb  Tb7  1  0.867770  0.664234  0.878434  1
  Tb  Tb8  1  0.520131  0.319726  0.902178  1
  Tb  Tb9  1  0.020228  0.180310  0.597858  1
  Tb  Tb10  1  0.479921  0.680202  0.402206  1
  Tb  Tb11  1  0.979726  0.819633  0.097797  1
  Tb  Tb12  1  0.479921  0.680202  0.097794  1
  Tb  Tb13  1  0.979726  0.819633  0.402203  1
  Tb  Tb14  1  0.520131  0.319726  0.597822  1
  Tb  Tb15  1  0.020228  0.180310  0.902142  1
  Tb  Tb16  1  0.301730  0.002209  0.250000  1
  Ho  Ho17  1  0.698473  0.997810  0.750000  1
  Ho  Ho18  1  0.801462  0.497768  0.250000  1
  Er  Er19  1  0.198500  0.502208  0.750000  1
  Sn  Sn20  1  0.292035  0.034130  0.041988  1
  Sn  Sn21  1  0.792058  0.465860  0.457713  1
  Sn  Sn22  1  0.707957  0.965919  0.542357  1
  Sn  Sn23  1  0.207958  0.534141  0.957555  1
  Sn  Sn24  1  0.707957  0.965919  0.957643  1
  Sn  Sn25  1  0.207958  0.534141  0.542445  1
  Sn  Sn26  1  0.292035  0.034130  0.458012  1
  Sn  Sn27  1  0.792058  0.465860  0.042287  1
  Sn  Sn28  1  0.564965  0.618737  0.750000  1
  Sn  Sn29  1  0.065069  0.881081  0.750000  1
  Sn  Sn30  1  0.434975  0.381509  0.250000  1
  Sn  Sn31  1  0.934210  0.119086  0.250000  1
  Sn  Sn32  1  0.328121  0.146429  0.750000  1
  Sn  Sn33  1  0.828071  0.353949  0.750000  1
  Sn  Sn34  1  0.672256  0.853643  0.250000  1
  Sn  Sn35  1  0.171890  0.645416  0.250000  1
