# generated using pymatgen
data_Ti20Si15Ge
_symmetry_space_group_name_H-M   'P 1'
_cell_length_a   6.73347380
_cell_length_b   6.72841805
_cell_length_c   12.22373527
_cell_angle_alpha   90.00894208
_cell_angle_beta   90.08332768
_cell_angle_gamma   89.99002885
_symmetry_Int_Tables_number   1
_chemical_formula_structural   Ti20Si15Ge
_chemical_formula_sum   'Ti20 Si15 Ge1'
_cell_volume   553.80338577
_cell_formula_units_Z   1
loop_
 _symmetry_equiv_pos_site_id
 _symmetry_equiv_pos_as_xyz
  1  'x, y, z'
loop_
 _atom_site_type_symbol
 _atom_site_label
 _atom_site_symmetry_multiplicity
 _atom_site_fract_x
 _atom_site_fract_y
 _atom_site_fract_z
 _atom_site_occupancy
  Ti  Ti0  1  0.996390  0.148467  0.620295  1
  Ti  Ti1  1  0.353135  0.496785  0.871948  1
  Ti  Ti2  1  0.649252  0.504249  0.371780  1
  Ti  Ti3  1  0.495904  0.350791  0.128151  1
  Ti  Ti4  1  0.504405  0.649784  0.628005  1
  Ti  Ti5  1  0.004199  0.850848  0.121907  1
  Ti  Ti6  1  0.149044  0.995942  0.378030  1
  Ti  Ti7  1  0.848788  0.000782  0.879516  1
  Ti  Ti8  1  0.001905  0.346597  0.217659  1
  Ti  Ti9  1  0.153463  0.502048  0.467655  1
  Ti  Ti10  1  0.842873  0.500825  0.970251  1
  Ti  Ti11  1  0.503016  0.152787  0.531812  1
  Ti  Ti12  1  0.498300  0.846429  0.032271  1
  Ti  Ti13  1  0.997131  0.658016  0.716868  1
  Ti  Ti14  1  0.349104  0.999896  0.781934  1
  Ti  Ti15  1  0.653665  0.997573  0.282279  1
  Ti  Ti16  1  0.172061  0.169713  0.001548  1
  Ti  Ti17  1  0.328813  0.670874  0.250146  1
  Ti  Ti18  1  0.667786  0.328432  0.749293  1
  Ti  Ti19  1  0.828875  0.828968  0.499828  1
  Si  Si20  1  0.199303  0.544774  0.063570  1
  Si  Si21  1  0.800890  0.455483  0.563528  1
  Si  Si22  1  0.544543  0.199153  0.936549  1
  Si  Si23  1  0.455436  0.800672  0.436358  1
  Si  Si24  1  0.955096  0.699224  0.313500  1
  Si  Si25  1  0.301177  0.044331  0.186927  1
  Si  Si26  1  0.700291  0.955435  0.686457  1
  Si  Si27  1  0.297349  0.356880  0.670506  1
  Si  Si28  1  0.143561  0.794986  0.922800  1
  Si  Si29  1  0.856843  0.205059  0.422422  1
  Si  Si30  1  0.794550  0.142957  0.077442  1
  Si  Si31  1  0.205704  0.857103  0.576790  1
  Si  Si32  1  0.704952  0.643119  0.173088  1
  Si  Si33  1  0.357194  0.294731  0.327259  1
  Si  Si34  1  0.643279  0.704578  0.826755  1
  Ge  Ge35  1  0.041721  0.301706  0.814873  1
