# generated using pymatgen
data_Ta9Ti3(Zn3C)4
_symmetry_space_group_name_H-M   'P 1'
_cell_length_a   8.29136053
_cell_length_b   8.29136090
_cell_length_c   8.27822122
_cell_angle_alpha   59.94747772
_cell_angle_beta   59.94747663
_cell_angle_gamma   60.00000057
_symmetry_Int_Tables_number   1
_chemical_formula_structural   Ta9Ti3(Zn3C)4
_chemical_formula_sum   'Ta9 Ti3 Zn12 C4'
_cell_volume   402.09476171
_cell_formula_units_Z   1
loop_
 _symmetry_equiv_pos_site_id
 _symmetry_equiv_pos_as_xyz
  1  'x, y, z'
loop_
 _atom_site_type_symbol
 _atom_site_label
 _atom_site_symmetry_multiplicity
 _atom_site_fract_x
 _atom_site_fract_y
 _atom_site_fract_z
 _atom_site_occupancy
  Ta  Ta0  1  0.930444  0.930444  0.569376  1
  Ta  Ta1  1  0.569735  0.930444  0.569376  1
  Ta  Ta2  1  0.930444  0.569735  0.569376  1
  Ta  Ta3  1  0.569514  0.569514  0.932634  1
  Ta  Ta4  1  0.928338  0.569514  0.932634  1
  Ta  Ta5  1  0.569514  0.928338  0.932634  1
  Ta  Ta6  1  0.319381  0.319381  0.682208  1
  Ta  Ta7  1  0.679030  0.319381  0.682208  1
  Ta  Ta8  1  0.319381  0.679030  0.682208  1
  Ti  Ti9  1  0.680698  0.680698  0.317406  1
  Ti  Ti10  1  0.321197  0.680698  0.317406  1
  Ti  Ti11  1  0.680698  0.321197  0.317406  1
  Zn  Zn12  1  0.332150  0.332150  0.003549  1
  Zn  Zn13  1  0.335786  0.995374  0.333053  1
  Zn  Zn14  1  0.995374  0.335786  0.333053  1
  Zn  Zn15  1  0.335786  0.335786  0.333053  1
  Zn  Zn16  1  0.917666  0.917666  0.247004  1
  Zn  Zn17  1  0.917177  0.248461  0.917186  1
  Zn  Zn18  1  0.248461  0.917177  0.917186  1
  Zn  Zn19  1  0.917177  0.917177  0.917186  1
  Zn  Zn20  1  0.125627  0.125627  0.623119  1
  Zn  Zn21  1  0.125655  0.624536  0.124155  1
  Zn  Zn22  1  0.624536  0.125655  0.124155  1
  Zn  Zn23  1  0.125655  0.125655  0.124155  1
  C  C24  1  0.622091  0.622091  0.133727  1
  C  C25  1  0.625951  0.126582  0.621517  1
  C  C26  1  0.126582  0.625951  0.621517  1
  C  C27  1  0.625951  0.625951  0.621517  1
