# generated using pymatgen
data_CsSb12OsRh3
_symmetry_space_group_name_H-M   'P 1'
_cell_length_a   8.20652369
_cell_length_b   8.20652331
_cell_length_c   8.20652306
_cell_angle_alpha   109.46839097
_cell_angle_beta   109.46839259
_cell_angle_gamma   109.46836825
_symmetry_Int_Tables_number   1
_chemical_formula_structural   CsSb12OsRh3
_chemical_formula_sum   'Cs1 Sb12 Os1 Rh3'
_cell_volume   425.50174172
_cell_formula_units_Z   1
loop_
 _symmetry_equiv_pos_site_id
 _symmetry_equiv_pos_as_xyz
  1  'x, y, z'
loop_
 _atom_site_type_symbol
 _atom_site_label
 _atom_site_symmetry_multiplicity
 _atom_site_fract_x
 _atom_site_fract_y
 _atom_site_fract_z
 _atom_site_occupancy
  Cs  Cs0  1  0.000000  0.000000  0.000000  1
  Sb  Sb1  1  0.157176  0.812726  0.655371  1
  Sb  Sb2  1  0.159038  0.500893  0.344315  1
  Sb  Sb3  1  0.499107  0.655685  0.840962  1
  Sb  Sb4  1  0.344629  0.842824  0.187274  1
  Sb  Sb5  1  0.812726  0.655371  0.157176  1
  Sb  Sb6  1  0.655685  0.840962  0.499107  1
  Sb  Sb7  1  0.187274  0.344629  0.842824  1
  Sb  Sb8  1  0.655371  0.157176  0.812726  1
  Sb  Sb9  1  0.344315  0.159038  0.500893  1
  Sb  Sb10  1  0.500893  0.344315  0.159038  1
  Sb  Sb11  1  0.840962  0.499107  0.655685  1
  Sb  Sb12  1  0.842824  0.187274  0.344629  1
  Os  Os13  1  0.500000  0.500000  0.500000  1
  Rh  Rh14  1  0.000000  0.000000  0.500000  1
  Rh  Rh15  1  0.500000  0.000000  0.000000  1
  Rh  Rh16  1  0.000000  0.500000  0.000000  1
