# generated using pymatgen
data_YbEr7Si8Pd5Pt3
_symmetry_space_group_name_H-M   'P 1'
_cell_length_a   4.28663100
_cell_length_b   7.46199107
_cell_length_c   13.90326126
_cell_angle_alpha   89.95315441
_cell_angle_beta   90.00000000
_cell_angle_gamma   90.00000000
_symmetry_Int_Tables_number   1
_chemical_formula_structural   YbEr7Si8Pd5Pt3
_chemical_formula_sum   'Yb1 Er7 Si8 Pd5 Pt3'
_cell_volume   444.72071955
_cell_formula_units_Z   1
loop_
 _symmetry_equiv_pos_site_id
 _symmetry_equiv_pos_as_xyz
  1  'x, y, z'
loop_
 _atom_site_type_symbol
 _atom_site_label
 _atom_site_symmetry_multiplicity
 _atom_site_fract_x
 _atom_site_fract_y
 _atom_site_fract_z
 _atom_site_occupancy
  Yb  Yb0  1  0.000000  0.206593  0.249048  1
  Er  Er1  1  0.000000  0.299747  0.000846  1
  Er  Er2  1  0.500000  0.699848  0.500099  1
  Er  Er3  1  0.000000  0.292299  0.499225  1
  Er  Er4  1  0.500000  0.707745  0.000261  1
  Er  Er5  1  0.500000  0.795481  0.250415  1
  Er  Er6  1  0.000000  0.206305  0.749121  1
  Er  Er7  1  0.500000  0.793228  0.750273  1
  Si  Si8  1  0.000000  0.907115  0.592049  1
  Si  Si9  1  0.500000  0.092675  0.906266  1
  Si  Si10  1  0.000000  0.906900  0.407886  1
  Si  Si11  1  0.500000  0.089853  0.090805  1
  Si  Si12  1  0.000000  0.595038  0.145109  1
  Si  Si13  1  0.500000  0.408453  0.358885  1
  Si  Si14  1  0.000000  0.593966  0.856599  1
  Si  Si15  1  0.500000  0.405733  0.642421  1
  Pd  Pd16  1  0.500000  0.077457  0.393543  1
  Pd  Pd17  1  0.500000  0.421387  0.156836  1
  Pd  Pd18  1  0.000000  0.579902  0.341862  1
  Pd  Pd19  1  0.500000  0.420356  0.842775  1
  Pd  Pd20  1  0.000000  0.578756  0.658399  1
  Pt  Pt21  1  0.500000  0.074470  0.609697  1
  Pt  Pt22  1  0.000000  0.924664  0.890389  1
  Pt  Pt23  1  0.000000  0.922030  0.107189  1
