# generated using pymatgen
data_Cs4Rb3Zr4TlTe12
_symmetry_space_group_name_H-M   'P 1'
_cell_length_a   14.91651616
_cell_length_b   6.96304784
_cell_length_c   10.08113415
_cell_angle_alpha   70.92906785
_cell_angle_beta   89.74431353
_cell_angle_gamma   90.10835503
_symmetry_Int_Tables_number   1
_chemical_formula_structural   Cs4Rb3Zr4TlTe12
_chemical_formula_sum   'Cs4 Rb3 Zr4 Tl1 Te12'
_cell_volume   989.58633027
_cell_formula_units_Z   1
loop_
 _symmetry_equiv_pos_site_id
 _symmetry_equiv_pos_as_xyz
  1  'x, y, z'
loop_
 _atom_site_type_symbol
 _atom_site_label
 _atom_site_symmetry_multiplicity
 _atom_site_fract_x
 _atom_site_fract_y
 _atom_site_fract_z
 _atom_site_occupancy
  Cs  Cs0  1  0.949842  0.667441  0.663893  1
  Cs  Cs1  1  0.450539  0.826371  0.343510  1
  Cs  Cs2  1  0.049868  0.324986  0.346190  1
  Cs  Cs3  1  0.548439  0.173224  0.656222  1
  Rb  Rb4  1  0.363574  0.424016  0.094628  1
  Rb  Rb5  1  0.133451  0.924243  0.093118  1
  Rb  Rb6  1  0.638904  0.578648  0.900266  1
  Zr  Zr7  1  0.748254  0.666657  0.292022  1
  Zr  Zr8  1  0.248621  0.831955  0.706239  1
  Zr  Zr9  1  0.251213  0.330970  0.706641  1
  Zr  Zr10  1  0.752105  0.172650  0.291850  1
  Tl  Tl11  1  0.854940  0.064759  0.935262  1
  Te  Te12  1  0.908861  0.907196  0.260988  1
  Te  Te13  1  0.409704  0.597755  0.730366  1
  Te  Te14  1  0.091372  0.095449  0.731782  1
  Te  Te15  1  0.590956  0.404394  0.265111  1
  Te  Te16  1  0.810041  0.288678  0.520523  1
  Te  Te17  1  0.311880  0.213940  0.477050  1
  Te  Te18  1  0.189530  0.713025  0.477189  1
  Te  Te19  1  0.690126  0.789990  0.517520  1
  Te  Te20  1  0.848632  0.493403  0.087615  1
  Te  Te21  1  0.345743  0.008109  0.909444  1
  Te  Te22  1  0.154586  0.507822  0.909763  1
  Te  Te23  1  0.658820  0.994321  0.082807  1
