# generated using pymatgen
data_Li4ErP12Ir17Ru2
_symmetry_space_group_name_H-M   'P 1'
_cell_length_a   12.53649845
_cell_length_b   12.57137993
_cell_length_c   3.93308000
_cell_angle_alpha   90.00000000
_cell_angle_beta   90.00000000
_cell_angle_gamma   120.09208214
_symmetry_Int_Tables_number   1
_chemical_formula_structural   Li4ErP12Ir17Ru2
_chemical_formula_sum   'Li4 Er1 P12 Ir17 Ru2'
_cell_volume   536.31370253
_cell_formula_units_Z   1
loop_
 _symmetry_equiv_pos_site_id
 _symmetry_equiv_pos_as_xyz
  1  'x, y, z'
loop_
 _atom_site_type_symbol
 _atom_site_label
 _atom_site_symmetry_multiplicity
 _atom_site_fract_x
 _atom_site_fract_y
 _atom_site_fract_z
 _atom_site_occupancy
  Li  Li0  1  0.667539  0.333688  0.000000  1
  Li  Li1  1  0.332461  0.666150  0.000000  1
  Li  Li2  1  0.823370  0.823075  0.500000  1
  Li  Li3  1  0.176630  0.999705  0.500000  1
  Er  Er4  1  0.000000  0.174155  0.500000  1
  P  P5  1  0.686992  0.173117  0.500000  1
  P  P6  1  0.822611  0.511671  0.500000  1
  P  P7  1  0.486513  0.312456  0.500000  1
  P  P8  1  0.177389  0.689060  0.500000  1
  P  P9  1  0.513487  0.825944  0.500000  1
  P  P10  1  0.313008  0.486125  0.500000  1
  P  P11  1  0.639873  0.641159  0.000000  1
  P  P12  1  0.360127  0.001285  0.000000  1
  P  P13  1  0.000000  0.360322  0.000000  1
  P  P14  1  0.183479  0.178344  0.000000  1
  P  P15  1  0.816521  0.994864  0.000000  1
  P  P16  1  0.000000  0.820082  0.000000  1
  Ir  Ir17  1  0.807598  0.180366  0.000000  1
  Ir  Ir18  1  0.817185  0.622706  0.000000  1
  Ir  Ir19  1  0.378832  0.196302  0.000000  1
  Ir  Ir20  1  0.182815  0.805521  0.000000  1
  Ir  Ir21  1  0.621168  0.817469  0.000000  1
  Ir  Ir22  1  0.192402  0.372769  0.000000  1
  Ir  Ir23  1  0.454418  0.458516  0.000000  1
  Ir  Ir24  1  0.545582  0.004098  0.000000  1
  Ir  Ir25  1  0.000000  0.542558  0.000000  1
  Ir  Ir26  1  0.000000  0.708851  0.500000  1
  Ir  Ir27  1  0.867889  0.359490  0.500000  1
  Ir  Ir28  1  0.638907  0.510634  0.500000  1
  Ir  Ir29  1  0.490439  0.131427  0.500000  1
  Ir  Ir30  1  0.361093  0.871727  0.500000  1
  Ir  Ir31  1  0.509561  0.640987  0.500000  1
  Ir  Ir32  1  0.132111  0.491600  0.500000  1
  Ir  Ir33  1  0.000000  0.000119  0.000000  1
  Ru  Ru34  1  0.291903  0.292780  0.500000  1
  Ru  Ru35  1  0.708097  0.000877  0.500000  1
