# generated using pymatgen
data_Hf16TaCo3NiMo2Rh
_symmetry_space_group_name_H-M   'P 1'
_cell_length_a   8.65403592
_cell_length_b   8.65403630
_cell_length_c   8.65403700
_cell_angle_alpha   59.96897318
_cell_angle_beta   59.96896409
_cell_angle_gamma   59.96897387
_symmetry_Int_Tables_number   1
_chemical_formula_structural   Hf16TaCo3NiMo2Rh
_chemical_formula_sum   'Hf16 Ta1 Co3 Ni1 Mo2 Rh1'
_cell_volume   457.96833860
_cell_formula_units_Z   1
loop_
 _symmetry_equiv_pos_site_id
 _symmetry_equiv_pos_as_xyz
  1  'x, y, z'
loop_
 _atom_site_type_symbol
 _atom_site_label
 _atom_site_symmetry_multiplicity
 _atom_site_fract_x
 _atom_site_fract_y
 _atom_site_fract_z
 _atom_site_occupancy
  Hf  Hf0  1  0.697067  0.102360  0.102360  1
  Hf  Hf1  1  0.101680  0.699597  0.100085  1
  Hf  Hf2  1  0.101680  0.100085  0.699597  1
  Hf  Hf3  1  0.098855  0.099424  0.099424  1
  Hf  Hf4  1  0.314250  0.314545  0.686788  1
  Hf  Hf5  1  0.682872  0.687923  0.315609  1
  Hf  Hf6  1  0.314250  0.686788  0.314545  1
  Hf  Hf7  1  0.682872  0.315609  0.687923  1
  Hf  Hf8  1  0.685869  0.314999  0.314999  1
  Hf  Hf9  1  0.315254  0.685690  0.685690  1
  Hf  Hf10  1  0.953130  0.952186  0.543325  1
  Hf  Hf11  1  0.552036  0.552125  0.947830  1
  Hf  Hf12  1  0.953130  0.543325  0.952186  1
  Hf  Hf13  1  0.552036  0.947830  0.552125  1
  Hf  Hf14  1  0.542126  0.953844  0.953844  1
  Hf  Hf15  1  0.945199  0.554011  0.554011  1
  Ta  Ta16  1  0.009137  0.329936  0.329936  1
  Co  Co17  1  0.327494  0.889143  0.889143  1
  Co  Co18  1  0.889514  0.326899  0.888449  1
  Co  Co19  1  0.889514  0.888449  0.326899  1
  Ni  Ni20  1  0.889692  0.890833  0.890833  1
  Mo  Mo21  1  0.333504  0.996908  0.332902  1
  Mo  Mo22  1  0.333504  0.332902  0.996908  1
  Rh  Rh23  1  0.335327  0.334584  0.334584  1
