# generated using pymatgen
data_Pr2Ho4MgCo17P12
_symmetry_space_group_name_H-M   'P 1'
_cell_length_a   3.73568400
_cell_length_b   10.61601200
_cell_length_c   12.29361500
_cell_angle_alpha   90.00000000
_cell_angle_beta   90.00000000
_cell_angle_gamma   90.00000000
_symmetry_Int_Tables_number   1
_chemical_formula_structural   Pr2Ho4MgCo17P12
_chemical_formula_sum   'Pr2 Ho4 Mg1 Co17 P12'
_cell_volume   487.54099717
_cell_formula_units_Z   1
loop_
 _symmetry_equiv_pos_site_id
 _symmetry_equiv_pos_as_xyz
  1  'x, y, z'
loop_
 _atom_site_type_symbol
 _atom_site_label
 _atom_site_symmetry_multiplicity
 _atom_site_fract_x
 _atom_site_fract_y
 _atom_site_fract_z
 _atom_site_occupancy
  Pr  Pr0  1  0.000000  0.500000  0.526070  1
  Pr  Pr1  1  0.500000  0.000000  0.477296  1
  Ho  Ho2  1  0.500000  0.821718  0.205832  1
  Ho  Ho3  1  0.500000  0.178282  0.205832  1
  Ho  Ho4  1  0.000000  0.682390  0.796051  1
  Ho  Ho5  1  0.000000  0.317610  0.796051  1
  Mg  Mg6  1  0.500000  0.500000  0.149699  1
  Co  Co7  1  0.000000  0.500000  0.986523  1
  Co  Co8  1  0.500000  0.000000  0.011113  1
  Co  Co9  1  0.500000  0.295409  0.431065  1
  Co  Co10  1  0.500000  0.704591  0.431065  1
  Co  Co11  1  0.000000  0.203098  0.572310  1
  Co  Co12  1  0.000000  0.796902  0.572310  1
  Co  Co13  1  0.500000  0.880348  0.712040  1
  Co  Co14  1  0.500000  0.119652  0.712040  1
  Co  Co15  1  0.000000  0.622664  0.289632  1
  Co  Co16  1  0.000000  0.377336  0.289632  1
  Co  Co17  1  0.500000  0.328904  0.993298  1
  Co  Co18  1  0.500000  0.671096  0.993298  1
  Co  Co19  1  0.000000  0.163578  0.001607  1
  Co  Co20  1  0.000000  0.836422  0.001607  1
  Co  Co21  1  0.000000  0.000000  0.841748  1
  Co  Co22  1  0.500000  0.500000  0.708858  1
  Co  Co23  1  0.000000  0.000000  0.291872  1
  P  P24  1  0.500000  0.305930  0.619380  1
  P  P25  1  0.500000  0.694070  0.619380  1
  P  P26  1  0.000000  0.193127  0.383704  1
  P  P27  1  0.000000  0.806873  0.383704  1
  P  P28  1  0.500000  0.500000  0.885063  1
  P  P29  1  0.000000  0.000000  0.114764  1
  P  P30  1  0.500000  0.848455  0.891266  1
  P  P31  1  0.500000  0.151545  0.891266  1
  P  P32  1  0.000000  0.663441  0.102923  1
  P  P33  1  0.000000  0.336559  0.102923  1
  P  P34  1  0.500000  0.500000  0.348546  1
  P  P35  1  0.000000  0.000000  0.660233  1
