# generated using pymatgen
data_Tm3InGa3Ag2
_symmetry_space_group_name_H-M   'P 1'
_cell_length_a   7.14639700
_cell_length_b   7.20494547
_cell_length_c   4.24581900
_cell_angle_alpha   90.00000000
_cell_angle_beta   90.00000000
_cell_angle_gamma   120.27137785
_symmetry_Int_Tables_number   1
_chemical_formula_structural   Tm3InGa3Ag2
_chemical_formula_sum   'Tm3 In1 Ga3 Ag2'
_cell_volume   188.80601385
_cell_formula_units_Z   1
loop_
 _symmetry_equiv_pos_site_id
 _symmetry_equiv_pos_as_xyz
  1  'x, y, z'
loop_
 _atom_site_type_symbol
 _atom_site_label
 _atom_site_symmetry_multiplicity
 _atom_site_fract_x
 _atom_site_fract_y
 _atom_site_fract_z
 _atom_site_occupancy
  Tm  Tm0  1  0.426018  0.998835  0.499999  1
  Tm  Tm1  1  0.000000  0.418428  0.499999  1
  Tm  Tm2  1  0.573982  0.572818  0.499999  1
  In  In3  1  0.000000  0.757255  0.000000  1
  Ga  Ga4  1  0.662823  0.327218  0.000000  1
  Ga  Ga5  1  0.337177  0.664394  0.000000  1
  Ga  Ga6  1  0.000000  0.010176  0.499999  1
  Ag  Ag7  1  0.749715  0.000297  0.000000  1
  Ag  Ag8  1  0.250285  0.250582  0.000000  1
