# generated using pymatgen
data_CeReF7
_symmetry_space_group_name_H-M   'P 1'
_cell_length_a   5.85959600
_cell_length_b   6.26905933
_cell_length_c   8.49346282
_cell_angle_alpha   102.01848951
_cell_angle_beta   90.00000000
_cell_angle_gamma   90.00000000
_symmetry_Int_Tables_number   1
_chemical_formula_structural   CeReF7
_chemical_formula_sum   'Ce2 Re2 F14'
_cell_volume   305.16127770
_cell_formula_units_Z   2
loop_
 _symmetry_equiv_pos_site_id
 _symmetry_equiv_pos_as_xyz
  1  'x, y, z'
loop_
 _atom_site_type_symbol
 _atom_site_label
 _atom_site_symmetry_multiplicity
 _atom_site_fract_x
 _atom_site_fract_y
 _atom_site_fract_z
 _atom_site_occupancy
  Ce  Ce0  1  0.700753  0.660338  0.688753  1
  Ce  Ce1  1  0.200753  0.339662  0.311247  1
  Re  Re2  1  0.710201  0.811483  0.224311  1
  Re  Re3  1  0.210201  0.188517  0.775689  1
  F  F4  1  0.888318  0.449636  0.477928  1
  F  F5  1  0.388318  0.550364  0.522072  1
  F  F6  1  0.418723  0.937878  0.769618  1
  F  F7  1  0.918723  0.062122  0.230382  1
  F  F8  1  0.951273  0.979474  0.762098  1
  F  F9  1  0.451273  0.020526  0.237902  1
  F  F10  1  0.003479  0.441827  0.788878  1
  F  F11  1  0.503479  0.558173  0.211122  1
  F  F12  1  0.706312  0.761883  0.986233  1
  F  F13  1  0.206312  0.238117  0.013767  1
  F  F14  1  0.715058  0.863577  0.462578  1
  F  F15  1  0.215058  0.136423  0.537422  1
  F  F16  1  0.482243  0.380752  0.786897  1
  F  F17  1  0.982243  0.619248  0.213103  1
