# generated using pymatgen
data_Tb2Al9RePt2
_symmetry_space_group_name_H-M   'P 1'
_cell_length_a   7.61653793
_cell_length_b   7.61653784
_cell_length_c   9.52265400
_cell_angle_alpha   90.00000000
_cell_angle_beta   90.00000000
_cell_angle_gamma   118.73638957
_symmetry_Int_Tables_number   1
_chemical_formula_structural   Tb2Al9RePt2
_chemical_formula_sum   'Tb4 Al18 Re2 Pt4'
_cell_volume   484.38876429
_cell_formula_units_Z   2
loop_
 _symmetry_equiv_pos_site_id
 _symmetry_equiv_pos_as_xyz
  1  'x, y, z'
loop_
 _atom_site_type_symbol
 _atom_site_label
 _atom_site_symmetry_multiplicity
 _atom_site_fract_x
 _atom_site_fract_y
 _atom_site_fract_z
 _atom_site_occupancy
  Tb  Tb0  1  0.993568  0.680893  0.250000  1
  Tb  Tb1  1  0.006432  0.319107  0.750000  1
  Tb  Tb2  1  0.680893  0.993568  0.250000  1
  Tb  Tb3  1  0.319107  0.006432  0.750000  1
  Al  Al4  1  0.132053  0.132053  0.250000  1
  Al  Al5  1  0.867947  0.867947  0.750000  1
  Al  Al6  1  0.001674  0.334583  0.076182  1
  Al  Al7  1  0.998326  0.665417  0.923818  1
  Al  Al8  1  0.998326  0.665417  0.576182  1
  Al  Al9  1  0.334583  0.001674  0.423818  1
  Al  Al10  1  0.001674  0.334583  0.423818  1
  Al  Al11  1  0.665417  0.998326  0.576182  1
  Al  Al12  1  0.665417  0.998326  0.923818  1
  Al  Al13  1  0.334583  0.001674  0.076182  1
  Al  Al14  1  0.329265  0.329265  0.548646  1
  Al  Al15  1  0.670735  0.670735  0.451354  1
  Al  Al16  1  0.670735  0.670735  0.048646  1
  Al  Al17  1  0.329265  0.329265  0.951354  1
  Al  Al18  1  0.343418  0.550997  0.250000  1
  Al  Al19  1  0.656582  0.449003  0.750000  1
  Al  Al20  1  0.550997  0.343418  0.250000  1
  Al  Al21  1  0.449003  0.656582  0.750000  1
  Re  Re22  1  0.000000  0.000000  0.000000  1
  Re  Re23  1  0.000000  0.000000  0.500000  1
  Pt  Pt24  1  0.671491  0.328509  0.000000  1
  Pt  Pt25  1  0.328509  0.671491  0.000000  1
  Pt  Pt26  1  0.328509  0.671491  0.500000  1
  Pt  Pt27  1  0.671491  0.328509  0.500000  1
