# generated using pymatgen
data_Ho4Ga18Ni2Ru3Pt
_symmetry_space_group_name_H-M   'P 1'
_cell_length_a   7.55923013
_cell_length_b   7.55923015
_cell_length_c   9.48930591
_cell_angle_alpha   89.93747706
_cell_angle_beta   89.93748303
_cell_angle_gamma   120.54703290
_symmetry_Int_Tables_number   1
_chemical_formula_structural   Ho4Ga18Ni2Ru3Pt
_chemical_formula_sum   'Ho4 Ga18 Ni2 Ru3 Pt1'
_cell_volume   466.98047861
_cell_formula_units_Z   1
loop_
 _symmetry_equiv_pos_site_id
 _symmetry_equiv_pos_as_xyz
  1  'x, y, z'
loop_
 _atom_site_type_symbol
 _atom_site_label
 _atom_site_symmetry_multiplicity
 _atom_site_fract_x
 _atom_site_fract_y
 _atom_site_fract_z
 _atom_site_occupancy
  Ho  Ho0  1  0.993502  0.656608  0.251106  1
  Ho  Ho1  1  0.003981  0.341930  0.748678  1
  Ho  Ho2  1  0.658070  0.996019  0.251322  1
  Ho  Ho3  1  0.343392  0.006498  0.748894  1
  Ga  Ga4  1  0.110674  0.108714  0.250232  1
  Ga  Ga5  1  0.891286  0.889326  0.749768  1
  Ga  Ga6  1  0.003468  0.326629  0.078288  1
  Ga  Ga7  1  0.005375  0.677512  0.921322  1
  Ga  Ga8  1  0.001673  0.672647  0.576259  1
  Ga  Ga9  1  0.327353  0.998327  0.423741  1
  Ga  Ga10  1  0.000364  0.326763  0.422582  1
  Ga  Ga11  1  0.673237  0.999636  0.577418  1
  Ga  Ga12  1  0.673371  0.996532  0.921712  1
  Ga  Ga13  1  0.322488  0.994625  0.078678  1
  Ga  Ga14  1  0.332566  0.332243  0.561232  1
  Ga  Ga15  1  0.667757  0.667434  0.438768  1
  Ga  Ga16  1  0.668078  0.673528  0.065483  1
  Ga  Ga17  1  0.326472  0.331922  0.934517  1
  Ga  Ga18  1  0.336026  0.545254  0.250332  1
  Ga  Ga19  1  0.665660  0.461828  0.746002  1
  Ga  Ga20  1  0.538172  0.334340  0.253998  1
  Ga  Ga21  1  0.454746  0.663974  0.749668  1
  Ni  Ni22  1  0.000042  0.999958  0.000000  1
  Ni  Ni23  1  0.000714  0.999286  0.500000  1
  Ru  Ru24  1  0.327764  0.672236  0.000000  1
  Ru  Ru25  1  0.327597  0.672403  0.500000  1
  Ru  Ru26  1  0.673813  0.326187  0.500000  1
  Pt  Pt27  1  0.672359  0.327641  0.000000  1
