# generated using pymatgen
data_Nd20Si11Sb
_symmetry_space_group_name_H-M   'P 1'
_cell_length_a   7.77842400
_cell_length_b   7.77842400
_cell_length_c   14.31523300
_cell_angle_alpha   90.00000000
_cell_angle_beta   90.00000000
_cell_angle_gamma   90.00000000
_symmetry_Int_Tables_number   1
_chemical_formula_structural   Nd20Si11Sb
_chemical_formula_sum   'Nd20 Si11 Sb1'
_cell_volume   866.12713851
_cell_formula_units_Z   1
loop_
 _symmetry_equiv_pos_site_id
 _symmetry_equiv_pos_as_xyz
  1  'x, y, z'
loop_
 _atom_site_type_symbol
 _atom_site_label
 _atom_site_symmetry_multiplicity
 _atom_site_fract_x
 _atom_site_fract_y
 _atom_site_fract_z
 _atom_site_occupancy
  Nd  Nd0  1  0.328221  0.685342  0.111646  1
  Nd  Nd1  1  0.185342  0.171779  0.111646  1
  Nd  Nd2  1  0.500000  0.000000  0.722048  1
  Nd  Nd3  1  0.320214  0.677569  0.396594  1
  Nd  Nd4  1  0.667397  0.689262  0.888742  1
  Nd  Nd5  1  0.177569  0.179786  0.396594  1
  Nd  Nd6  1  0.679786  0.322431  0.396594  1
  Nd  Nd7  1  0.172091  0.815773  0.603761  1
  Nd  Nd8  1  0.332603  0.310738  0.888742  1
  Nd  Nd9  1  0.189262  0.832603  0.888742  1
  Nd  Nd10  1  0.500000  0.000000  0.263518  1
  Nd  Nd11  1  0.827909  0.184227  0.603761  1
  Nd  Nd12  1  0.315773  0.327909  0.603761  1
  Nd  Nd13  1  0.822431  0.820214  0.396594  1
  Nd  Nd14  1  0.810738  0.167397  0.888742  1
  Nd  Nd15  1  0.814658  0.828221  0.111646  1
  Nd  Nd16  1  0.000000  0.500000  0.254369  1
  Nd  Nd17  1  0.000000  0.500000  0.754368  1
  Nd  Nd18  1  0.671779  0.314658  0.111646  1
  Nd  Nd19  1  0.684227  0.672091  0.603761  1
  Si  Si20  1  0.114534  0.115248  0.747478  1
  Si  Si21  1  0.384752  0.614534  0.747478  1
  Si  Si22  1  0.615347  0.614442  0.252765  1
  Si  Si23  1  0.500000  0.000000  0.006467  1
  Si  Si24  1  0.114442  0.884653  0.252765  1
  Si  Si25  1  0.615248  0.385466  0.747478  1
  Si  Si26  1  0.885466  0.884752  0.747478  1
  Si  Si27  1  0.384653  0.385558  0.252765  1
  Si  Si28  1  0.885558  0.115347  0.252765  1
  Si  Si29  1  0.500000  0.000000  0.497759  1
  Si  Si30  1  0.000000  0.500000  0.497796  1
  Sb  Sb31  1  0.000000  0.500000  0.999732  1
