# generated using pymatgen
data_Rb3Lu3(PS4)4
_symmetry_space_group_name_H-M   'P 1'
_cell_length_a   9.20315724
_cell_length_b   10.51649188
_cell_length_c   14.46194100
_cell_angle_alpha   85.78477436
_cell_angle_beta   87.89586844
_cell_angle_gamma   80.67968377
_symmetry_Int_Tables_number   1
_chemical_formula_structural   Rb3Lu3(PS4)4
_chemical_formula_sum   'Rb6 Lu6 P8 S32'
_cell_volume   1377.04552099
_cell_formula_units_Z   2
loop_
 _symmetry_equiv_pos_site_id
 _symmetry_equiv_pos_as_xyz
  1  'x, y, z'
loop_
 _atom_site_type_symbol
 _atom_site_label
 _atom_site_symmetry_multiplicity
 _atom_site_fract_x
 _atom_site_fract_y
 _atom_site_fract_z
 _atom_site_occupancy
  Rb  Rb0  1  0.621068  0.196933  0.253489  1
  Rb  Rb1  1  0.736214  0.424343  0.646065  1
  Rb  Rb2  1  0.208754  0.079589  0.085391  1
  Rb  Rb3  1  0.378932  0.803067  0.746511  1
  Rb  Rb4  1  0.791246  0.920411  0.914609  1
  Rb  Rb5  1  0.263786  0.575657  0.353935  1
  Lu  Lu6  1  0.767121  0.982833  0.522659  1
  Lu  Lu7  1  0.748140  0.469161  0.998231  1
  Lu  Lu8  1  0.251860  0.530838  0.001769  1
  Lu  Lu9  1  0.232879  0.017167  0.477341  1
  Lu  Lu10  1  0.244316  0.278774  0.736895  1
  Lu  Lu11  1  0.755684  0.721226  0.263105  1
  P  P12  1  0.444038  0.240509  0.516180  1
  P  P13  1  0.003541  0.930511  0.322855  1
  P  P14  1  0.987710  0.439577  0.174320  1
  P  P15  1  0.475575  0.710566  0.098000  1
  P  P16  1  0.996459  0.069489  0.677145  1
  P  P17  1  0.524425  0.289434  0.902000  1
  P  P18  1  0.012290  0.560423  0.825680  1
  P  P19  1  0.555962  0.759491  0.483820  1
  S  S20  1  0.079319  0.515697  0.695562  1
  S  S21  1  0.063112  0.393837  0.913607  1
  S  S22  1  0.109057  0.069115  0.797600  1
  S  S23  1  0.936888  0.606163  0.086393  1
  S  S24  1  0.685081  0.763087  0.596571  1
  S  S25  1  0.629323  0.602422  0.411243  1
  S  S26  1  0.593988  0.557937  0.174896  1
  S  S27  1  0.886240  0.297503  0.125935  1
  S  S28  1  0.503631  0.661037  0.961585  1
  S  S29  1  0.657403  0.236143  0.472563  1
  S  S30  1  0.314919  0.236913  0.403429  1
  S  S31  1  0.370677  0.397578  0.588757  1
  S  S32  1  0.933999  0.783365  0.406529  1
  S  S33  1  0.789903  0.618524  0.840059  1
  S  S34  1  0.225970  0.918208  0.305979  1
  S  S35  1  0.047713  0.904722  0.605174  1
  S  S36  1  0.342597  0.763857  0.527437  1
  S  S37  1  0.433522  0.075827  0.603741  1
  S  S38  1  0.746973  0.270800  0.884755  1
  S  S39  1  0.566478  0.924173  0.396259  1
  S  S40  1  0.253027  0.729200  0.115245  1
  S  S41  1  0.569080  0.866007  0.129449  1
  S  S42  1  0.113760  0.702497  0.874065  1
  S  S43  1  0.952287  0.095278  0.394826  1
  S  S44  1  0.496369  0.338963  0.038415  1
  S  S45  1  0.774030  0.081792  0.694021  1
  S  S46  1  0.430920  0.133993  0.870551  1
  S  S47  1  0.890943  0.930885  0.202400  1
  S  S48  1  0.920681  0.484303  0.304438  1
  S  S49  1  0.066001  0.216635  0.593471  1
  S  S50  1  0.210097  0.381476  0.159941  1
  S  S51  1  0.406012  0.442063  0.825104  1
