# generated using pymatgen
data_Hf5Ta(Be2Ir5)2
_symmetry_space_group_name_H-M   'P 1'
_cell_length_a   9.35755400
_cell_length_b   9.35755400
_cell_length_c   3.39842100
_cell_angle_alpha   90.00000000
_cell_angle_beta   90.00000000
_cell_angle_gamma   90.00000000
_symmetry_Int_Tables_number   1
_chemical_formula_structural   Hf5Ta(Be2Ir5)2
_chemical_formula_sum   'Hf5 Ta1 Be4 Ir10'
_cell_volume   297.57871407
_cell_formula_units_Z   1
loop_
 _symmetry_equiv_pos_site_id
 _symmetry_equiv_pos_as_xyz
  1  'x, y, z'
loop_
 _atom_site_type_symbol
 _atom_site_label
 _atom_site_symmetry_multiplicity
 _atom_site_fract_x
 _atom_site_fract_y
 _atom_site_fract_z
 _atom_site_occupancy
  Hf  Hf0  1  0.176368  0.674981  0.000000  1
  Hf  Hf1  1  0.325019  0.176368  0.000000  1
  Hf  Hf2  1  0.823632  0.325019  0.000000  1
  Hf  Hf3  1  0.674981  0.823632  0.000000  1
  Hf  Hf4  1  0.000000  0.000000  0.000000  1
  Ta  Ta5  1  0.500000  0.500000  0.000000  1
  Be  Be6  1  0.381095  0.880066  0.000000  1
  Be  Be7  1  0.119934  0.381095  0.000000  1
  Be  Be8  1  0.880066  0.618905  0.000000  1
  Be  Be9  1  0.618905  0.119934  0.000000  1
  Ir  Ir10  1  0.216184  0.925051  0.500000  1
  Ir  Ir11  1  0.925051  0.783816  0.500000  1
  Ir  Ir12  1  0.430050  0.712357  0.500000  1
  Ir  Ir13  1  0.569950  0.287643  0.500000  1
  Ir  Ir14  1  0.712357  0.569950  0.500000  1
  Ir  Ir15  1  0.287643  0.430050  0.500000  1
  Ir  Ir16  1  0.074949  0.216184  0.500000  1
  Ir  Ir17  1  0.000000  0.500000  0.500000  1
  Ir  Ir18  1  0.500000  0.000000  0.500000  1
  Ir  Ir19  1  0.783816  0.074949  0.500000  1
