# generated using pymatgen
data_Ca2DyNi6B2Rh
_symmetry_space_group_name_H-M   'P 1'
_cell_length_a   7.90564157
_cell_length_b   7.90564109
_cell_length_c   7.90564209
_cell_angle_alpha   37.54352765
_cell_angle_beta   37.54352916
_cell_angle_gamma   37.54352819
_symmetry_Int_Tables_number   1
_chemical_formula_structural   Ca2DyNi6B2Rh
_chemical_formula_sum   'Ca2 Dy1 Ni6 B2 Rh1'
_cell_volume   164.55345549
_cell_formula_units_Z   1
loop_
 _symmetry_equiv_pos_site_id
 _symmetry_equiv_pos_as_xyz
  1  'x, y, z'
loop_
 _atom_site_type_symbol
 _atom_site_label
 _atom_site_symmetry_multiplicity
 _atom_site_fract_x
 _atom_site_fract_y
 _atom_site_fract_z
 _atom_site_occupancy
  Ca  Ca0  1  0.646364  0.646364  0.646364  1
  Ca  Ca1  1  0.353636  0.353636  0.353636  1
  Dy  Dy2  1  0.500000  0.500000  0.500000  1
  Ni  Ni3  1  0.569427  0.060474  0.060474  1
  Ni  Ni4  1  0.060474  0.060474  0.569427  1
  Ni  Ni5  1  0.060474  0.569427  0.060474  1
  Ni  Ni6  1  0.939526  0.430573  0.939526  1
  Ni  Ni7  1  0.939526  0.939526  0.430573  1
  Ni  Ni8  1  0.430573  0.939526  0.939526  1
  B  B9  1  0.831648  0.831648  0.831648  1
  B  B10  1  0.168352  0.168352  0.168352  1
  Rh  Rh11  1  0.000000  0.000000  0.000000  1
