# generated using pymatgen
data_Tb5Ho5(InBi2)2
_symmetry_space_group_name_H-M   'P 1'
_cell_length_a   9.10183684
_cell_length_b   9.10857000
_cell_length_c   6.51058100
_cell_angle_alpha   90.00000000
_cell_angle_beta   90.00000000
_cell_angle_gamma   119.79234754
_symmetry_Int_Tables_number   1
_chemical_formula_structural   Tb5Ho5(InBi2)2
_chemical_formula_sum   'Tb5 Ho5 In2 Bi4'
_cell_volume   468.41906561
_cell_formula_units_Z   1
loop_
 _symmetry_equiv_pos_site_id
 _symmetry_equiv_pos_as_xyz
  1  'x, y, z'
loop_
 _atom_site_type_symbol
 _atom_site_label
 _atom_site_symmetry_multiplicity
 _atom_site_fract_x
 _atom_site_fract_y
 _atom_site_fract_z
 _atom_site_occupancy
  Tb  Tb0  1  0.761793  0.761672  0.750000  1
  Tb  Tb1  1  0.236121  0.998402  0.750000  1
  Tb  Tb2  1  0.998491  0.236370  0.750000  1
  Tb  Tb3  1  0.234528  0.234390  0.250000  1
  Tb  Tb4  1  0.764896  0.008013  0.250000  1
  Ho  Ho5  1  0.668772  0.328906  0.003538  1
  Ho  Ho6  1  0.328829  0.668846  0.003563  1
  Ho  Ho7  1  0.328829  0.668846  0.496437  1
  Ho  Ho8  1  0.668772  0.328906  0.496462  1
  Ho  Ho9  1  0.008285  0.764869  0.250000  1
  In  In10  1  0.395880  0.001064  0.250000  1
  In  In11  1  0.001348  0.396650  0.250000  1
  Bi  Bi12  1  0.394025  0.393987  0.750000  1
  Bi  Bi13  1  0.603098  0.997007  0.750000  1
  Bi  Bi14  1  0.997016  0.603114  0.750000  1
  Bi  Bi15  1  0.609316  0.608958  0.250000  1
