# generated using pymatgen
data_MgPa2Sn5
_symmetry_space_group_name_H-M   'P 1'
_cell_length_a   4.80245700
_cell_length_b   6.42400400
_cell_length_c   12.95281400
_cell_angle_alpha   90.00000000
_cell_angle_beta   90.00000000
_cell_angle_gamma   90.00000000
_symmetry_Int_Tables_number   1
_chemical_formula_structural   MgPa2Sn5
_chemical_formula_sum   'Mg2 Pa4 Sn10'
_cell_volume   399.60730329
_cell_formula_units_Z   2
loop_
 _symmetry_equiv_pos_site_id
 _symmetry_equiv_pos_as_xyz
  1  'x, y, z'
loop_
 _atom_site_type_symbol
 _atom_site_label
 _atom_site_symmetry_multiplicity
 _atom_site_fract_x
 _atom_site_fract_y
 _atom_site_fract_z
 _atom_site_occupancy
  Mg  Mg0  1  0.000000  0.000000  0.000000  1
  Mg  Mg1  1  0.000000  0.500000  0.500000  1
  Pa  Pa2  1  0.500000  0.299609  0.133410  1
  Pa  Pa3  1  0.500000  0.700391  0.866590  1
  Pa  Pa4  1  0.500000  0.799609  0.366590  1
  Pa  Pa5  1  0.500000  0.200391  0.633410  1
  Sn  Sn6  1  0.000000  0.000000  0.500000  1
  Sn  Sn7  1  0.000000  0.500000  0.000000  1
  Sn  Sn8  1  0.000000  0.054698  0.245576  1
  Sn  Sn9  1  0.000000  0.945302  0.754424  1
  Sn  Sn10  1  0.000000  0.554698  0.254424  1
  Sn  Sn11  1  0.000000  0.445302  0.745576  1
  Sn  Sn12  1  0.500000  0.299907  0.387436  1
  Sn  Sn13  1  0.500000  0.700093  0.612564  1
  Sn  Sn14  1  0.500000  0.799907  0.112564  1
  Sn  Sn15  1  0.500000  0.200093  0.887436  1
