# generated using pymatgen
data_Zr5Pa3(InPd2)4
_symmetry_space_group_name_H-M   'P 1'
_cell_length_a   7.54988823
_cell_length_b   7.54988823
_cell_length_c   7.20850700
_cell_angle_alpha   90.00000000
_cell_angle_beta   90.00000000
_cell_angle_gamma   88.56955064
_symmetry_Int_Tables_number   1
_chemical_formula_structural   Zr5Pa3(InPd2)4
_chemical_formula_sum   'Zr5 Pa3 In4 Pd8'
_cell_volume   410.76270577
_cell_formula_units_Z   1
loop_
 _symmetry_equiv_pos_site_id
 _symmetry_equiv_pos_as_xyz
  1  'x, y, z'
loop_
 _atom_site_type_symbol
 _atom_site_label
 _atom_site_symmetry_multiplicity
 _atom_site_fract_x
 _atom_site_fract_y
 _atom_site_fract_z
 _atom_site_occupancy
  Zr  Zr0  1  0.808357  0.188096  0.500000  1
  Zr  Zr1  1  0.687461  0.687461  0.000000  1
  Zr  Zr2  1  0.188096  0.808357  0.500000  1
  Zr  Zr3  1  0.313741  0.313741  0.000000  1
  Zr  Zr4  1  0.347546  0.347546  0.500000  1
  Pa  Pa5  1  0.647336  0.647336  0.500000  1
  Pa  Pa6  1  0.858078  0.146153  0.000000  1
  Pa  Pa7  1  0.146153  0.858078  0.000000  1
  In  In8  1  0.004768  0.498150  0.254821  1
  In  In9  1  0.498150  0.004768  0.745179  1
  In  In10  1  0.498150  0.004768  0.254821  1
  In  In11  1  0.004768  0.498150  0.745179  1
  Pd  Pd12  1  0.634278  0.368431  0.209826  1
  Pd  Pd13  1  0.368431  0.634278  0.790174  1
  Pd  Pd14  1  0.864739  0.864739  0.708733  1
  Pd  Pd15  1  0.634278  0.368431  0.790174  1
  Pd  Pd16  1  0.368431  0.634278  0.209826  1
  Pd  Pd17  1  0.131249  0.131249  0.293784  1
  Pd  Pd18  1  0.864739  0.864739  0.291267  1
  Pd  Pd19  1  0.131249  0.131249  0.706216  1
