# generated using pymatgen
data_La16Tb3SmSn16
_symmetry_space_group_name_H-M   'P 1'
_cell_length_a   8.41245600
_cell_length_b   8.55810400
_cell_length_c   16.30635000
_cell_angle_alpha   90.00000000
_cell_angle_beta   90.00000000
_cell_angle_gamma   89.99904790
_symmetry_Int_Tables_number   1
_chemical_formula_structural   La16Tb3SmSn16
_chemical_formula_sum   'La16 Tb3 Sm1 Sn16'
_cell_volume   1173.97034159
_cell_formula_units_Z   1
loop_
 _symmetry_equiv_pos_site_id
 _symmetry_equiv_pos_as_xyz
  1  'x, y, z'
loop_
 _atom_site_type_symbol
 _atom_site_label
 _atom_site_symmetry_multiplicity
 _atom_site_fract_x
 _atom_site_fract_y
 _atom_site_fract_z
 _atom_site_occupancy
  La  La0  1  0.369119  0.840831  0.880711  1
  La  La1  1  0.868848  0.659349  0.619285  1
  La  La2  1  0.630994  0.159295  0.380664  1
  La  La3  1  0.130987  0.340734  0.119356  1
  La  La4  1  0.630994  0.159295  0.119336  1
  La  La5  1  0.130987  0.340734  0.380644  1
  La  La6  1  0.369119  0.840831  0.619289  1
  La  La7  1  0.868848  0.659349  0.880715  1
  La  La8  1  0.520851  0.317943  0.901143  1
  La  La9  1  0.020657  0.181928  0.598887  1
  La  La10  1  0.479250  0.681988  0.401064  1
  La  La11  1  0.979285  0.817943  0.098914  1
  La  La12  1  0.479250  0.681988  0.098936  1
  La  La13  1  0.979285  0.817943  0.401086  1
  La  La14  1  0.520851  0.317943  0.598857  1
  La  La15  1  0.020657  0.181928  0.901113  1
  Tb  Tb16  1  0.701969  0.998082  0.750000  1
  Tb  Tb17  1  0.798131  0.498189  0.250000  1
  Tb  Tb18  1  0.298042  0.001777  0.250000  1
  Sm  Sm19  1  0.201487  0.501850  0.750000  1
  Sn  Sn20  1  0.289039  0.032771  0.045979  1
  Sn  Sn21  1  0.789033  0.467213  0.454030  1
  Sn  Sn22  1  0.710984  0.967218  0.545984  1
  Sn  Sn23  1  0.211012  0.532883  0.954253  1
  Sn  Sn24  1  0.710984  0.967218  0.954016  1
  Sn  Sn25  1  0.211012  0.532883  0.545747  1
  Sn  Sn26  1  0.289039  0.032771  0.454021  1
  Sn  Sn27  1  0.789033  0.467213  0.045970  1
  Sn  Sn28  1  0.566148  0.616356  0.750000  1
  Sn  Sn29  1  0.065557  0.884105  0.750000  1
  Sn  Sn30  1  0.434377  0.383738  0.250000  1
  Sn  Sn31  1  0.934363  0.116261  0.250000  1
  Sn  Sn32  1  0.324571  0.147279  0.750000  1
  Sn  Sn33  1  0.824308  0.352088  0.750000  1
  Sn  Sn34  1  0.675477  0.852140  0.250000  1
  Sn  Sn35  1  0.175455  0.647942  0.250000  1
