# generated using pymatgen
data_K4LaUTe6
_symmetry_space_group_name_H-M   'P 1'
_cell_length_a   8.20792187
_cell_length_b   8.20788955
_cell_length_c   8.62160628
_cell_angle_alpha   80.70006117
_cell_angle_beta   80.70014873
_cell_angle_gamma   119.99308433
_symmetry_Int_Tables_number   1
_chemical_formula_structural   K4LaUTe6
_chemical_formula_sum   'K4 La1 U1 Te6'
_cell_volume   476.05965741
_cell_formula_units_Z   1
loop_
 _symmetry_equiv_pos_site_id
 _symmetry_equiv_pos_as_xyz
  1  'x, y, z'
loop_
 _atom_site_type_symbol
 _atom_site_label
 _atom_site_symmetry_multiplicity
 _atom_site_fract_x
 _atom_site_fract_y
 _atom_site_fract_z
 _atom_site_occupancy
  K  K0  1  0.344562  0.655432  0.499997  1
  K  K1  1  0.655360  0.344661  0.499995  1
  K  K2  1  0.999729  0.000308  0.499988  1
  K  K3  1  0.499979  0.500044  0.999999  1
  La  La4  1  0.167925  0.832077  0.999994  1
  U  U5  1  0.832190  0.167721  0.000037  1
  Te  Te6  1  0.786487  0.805855  0.211506  1
  Te  Te7  1  0.447003  0.067804  0.215016  1
  Te  Te8  1  0.047064  0.406648  0.214060  1
  Te  Te9  1  0.593352  0.952936  0.785936  1
  Te  Te10  1  0.932199  0.552996  0.784982  1
  Te  Te11  1  0.194151  0.213517  0.788490  1
