# generated using pymatgen
data_Nd5Th3Zn8Ir5Rh3
_symmetry_space_group_name_H-M   'P 1'
_cell_length_a   3.96988900
_cell_length_b   7.48958976
_cell_length_c   16.62173811
_cell_angle_alpha   90.13788116
_cell_angle_beta   90.00000000
_cell_angle_gamma   90.00000000
_symmetry_Int_Tables_number   1
_chemical_formula_structural   Nd5Th3Zn8Ir5Rh3
_chemical_formula_sum   'Nd5 Th3 Zn8 Ir5 Rh3'
_cell_volume   494.21004850
_cell_formula_units_Z   1
loop_
 _symmetry_equiv_pos_site_id
 _symmetry_equiv_pos_as_xyz
  1  'x, y, z'
loop_
 _atom_site_type_symbol
 _atom_site_label
 _atom_site_symmetry_multiplicity
 _atom_site_fract_x
 _atom_site_fract_y
 _atom_site_fract_z
 _atom_site_occupancy
  Nd  Nd0  1  0.750000  0.945712  0.284358  1
  Nd  Nd1  1  0.750000  0.829310  0.061504  1
  Nd  Nd2  1  0.750000  0.447636  0.214925  1
  Nd  Nd3  1  0.250000  0.052874  0.715273  1
  Nd  Nd4  1  0.250000  0.551702  0.785489  1
  Th  Th5  1  0.250000  0.171275  0.939949  1
  Th  Th6  1  0.250000  0.671585  0.561419  1
  Th  Th7  1  0.750000  0.327779  0.438457  1
  Zn  Zn8  1  0.750000  0.006600  0.561056  1
  Zn  Zn9  1  0.250000  0.618655  0.346455  1
  Zn  Zn10  1  0.750000  0.381457  0.653938  1
  Zn  Zn11  1  0.250000  0.502926  0.059763  1
  Zn  Zn12  1  0.750000  0.509590  0.939992  1
  Zn  Zn13  1  0.250000  0.992953  0.438430  1
  Zn  Zn14  1  0.250000  0.117858  0.152151  1
  Zn  Zn15  1  0.750000  0.880774  0.846220  1
  Ir  Ir16  1  0.750000  0.743961  0.439781  1
  Ir  Ir17  1  0.250000  0.248237  0.318113  1
  Ir  Ir18  1  0.750000  0.247703  0.821170  1
  Ir  Ir19  1  0.750000  0.748926  0.680668  1
  Ir  Ir20  1  0.250000  0.255085  0.560543  1
  Rh  Rh21  1  0.250000  0.745242  0.186144  1
  Rh  Rh22  1  0.750000  0.248935  0.059516  1
  Rh  Rh23  1  0.250000  0.753222  0.934687  1
