# generated using pymatgen
data_Ta6Be13Co6(SiNi)2
_symmetry_space_group_name_H-M   'P 1'
_cell_length_a   7.61186021
_cell_length_b   7.62569956
_cell_length_c   7.62226779
_cell_angle_alpha   59.98511064
_cell_angle_beta   59.80313299
_cell_angle_gamma   59.93984338
_symmetry_Int_Tables_number   1
_chemical_formula_structural   Ta6Be13Co6(SiNi)2
_chemical_formula_sum   'Ta6 Be13 Co6 Si2 Ni2'
_cell_volume   312.20756774
_cell_formula_units_Z   1
loop_
 _symmetry_equiv_pos_site_id
 _symmetry_equiv_pos_as_xyz
  1  'x, y, z'
loop_
 _atom_site_type_symbol
 _atom_site_label
 _atom_site_symmetry_multiplicity
 _atom_site_fract_x
 _atom_site_fract_y
 _atom_site_fract_z
 _atom_site_occupancy
  Ta  Ta0  1  0.710217  0.296613  0.293234  1
  Ta  Ta1  1  0.289783  0.703387  0.706766  1
  Ta  Ta2  1  0.289859  0.706200  0.297741  1
  Ta  Ta3  1  0.710141  0.293800  0.702259  1
  Ta  Ta4  1  0.289783  0.300064  0.706766  1
  Ta  Ta5  1  0.710217  0.699936  0.293234  1
  Be  Be6  1  0.320813  0.337210  0.322685  1
  Be  Be7  1  0.679187  0.662790  0.677315  1
  Be  Be8  1  0.325141  0.328298  0.018260  1
  Be  Be9  1  0.320813  0.019290  0.322685  1
  Be  Be10  1  0.674859  0.671702  0.981740  1
  Be  Be11  1  0.679187  0.980710  0.677315  1
  Be  Be12  1  0.022044  0.326304  0.325345  1
  Be  Be13  1  0.977956  0.673696  0.674655  1
  Be  Be14  1  0.500000  0.000000  0.000000  1
  Be  Be15  1  0.000000  0.500000  0.500000  1
  Be  Be16  1  0.000000  0.500000  0.000000  1
  Be  Be17  1  0.000000  0.000000  0.500000  1
  Be  Be18  1  0.500000  0.500000  0.000000  1
  Co  Co19  1  0.123908  0.123392  0.122843  1
  Co  Co20  1  0.876092  0.876609  0.877157  1
  Co  Co21  1  0.122010  0.124649  0.628692  1
  Co  Co22  1  0.123908  0.629858  0.122842  1
  Co  Co23  1  0.877990  0.875352  0.371308  1
  Co  Co24  1  0.876092  0.370142  0.877157  1
  Si  Si25  1  0.500000  0.000000  0.500000  1
  Si  Si26  1  0.000000  0.000000  0.000000  1
  Ni  Ni27  1  0.626958  0.125862  0.121319  1
  Ni  Ni28  1  0.373042  0.874138  0.878681  1
