# generated using pymatgen
data_SrPaBr6
_symmetry_space_group_name_H-M   'P 1'
_cell_length_a   7.64518963
_cell_length_b   7.63999430
_cell_length_c   8.25804000
_cell_angle_alpha   89.59492116
_cell_angle_beta   117.10272596
_cell_angle_gamma   120.05959494
_symmetry_Int_Tables_number   1
_chemical_formula_structural   SrPaBr6
_chemical_formula_sum   'Sr1 Pa1 Br6'
_cell_volume   355.99444993
_cell_formula_units_Z   1
loop_
 _symmetry_equiv_pos_site_id
 _symmetry_equiv_pos_as_xyz
  1  'x, y, z'
loop_
 _atom_site_type_symbol
 _atom_site_label
 _atom_site_symmetry_multiplicity
 _atom_site_fract_x
 _atom_site_fract_y
 _atom_site_fract_z
 _atom_site_occupancy
  Sr  Sr0  1  0.239139  0.620453  0.858724  1
  Pa  Pa1  1  0.579809  0.290178  0.869912  1
  Br  Br2  1  0.444131  0.053931  0.103542  1
  Br  Br3  1  0.126713  0.215542  0.640649  1
  Br  Br4  1  0.729130  0.513670  0.635565  1
  Br  Br5  1  0.427552  0.913044  0.638725  1
  Br  Br6  1  0.709428  0.655101  0.100200  1
  Br  Br7  1  0.043098  0.387582  0.101182  1
