# generated using pymatgen
data_Rb3(PdS2)2
_symmetry_space_group_name_H-M   'P 1'
_cell_length_a   6.64416900
_cell_length_b   6.64416945
_cell_length_c   13.37044100
_cell_angle_alpha   90.00000000
_cell_angle_beta   90.00000000
_cell_angle_gamma   110.67318775
_symmetry_Int_Tables_number   1
_chemical_formula_structural   Rb3(PdS2)2
_chemical_formula_sum   'Rb6 Pd4 S8'
_cell_volume   552.23210499
_cell_formula_units_Z   2
loop_
 _symmetry_equiv_pos_site_id
 _symmetry_equiv_pos_as_xyz
  1  'x, y, z'
loop_
 _atom_site_type_symbol
 _atom_site_label
 _atom_site_symmetry_multiplicity
 _atom_site_fract_x
 _atom_site_fract_y
 _atom_site_fract_z
 _atom_site_occupancy
  Rb  Rb0  1  0.338374  0.661626  0.929988  1
  Rb  Rb1  1  0.661626  0.338374  0.429988  1
  Rb  Rb2  1  0.661626  0.338374  0.070012  1
  Rb  Rb3  1  0.338374  0.661626  0.570012  1
  Rb  Rb4  1  0.746991  0.253009  0.750000  1
  Rb  Rb5  1  0.253009  0.746991  0.250000  1
  Pd  Pd6  1  0.000000  0.000000  0.000000  1
  Pd  Pd7  1  0.000000  0.000000  0.500000  1
  Pd  Pd8  1  0.077062  0.922938  0.750000  1
  Pd  Pd9  1  0.922938  0.077062  0.250000  1
  S  S10  1  0.726934  0.857993  0.119759  1
  S  S11  1  0.273066  0.142007  0.619759  1
  S  S12  1  0.857993  0.726934  0.880241  1
  S  S13  1  0.142007  0.273066  0.380241  1
  S  S14  1  0.273066  0.142007  0.880241  1
  S  S15  1  0.726934  0.857993  0.380241  1
  S  S16  1  0.142007  0.273066  0.119759  1
  S  S17  1  0.857993  0.726934  0.619759  1
