# generated using pymatgen
data_Hf4Co(AsRu)6
_symmetry_space_group_name_H-M   'P 1'
_cell_length_a   7.02910174
_cell_length_b   7.02910197
_cell_length_c   7.02910233
_cell_angle_alpha   109.19799711
_cell_angle_beta   110.01907305
_cell_angle_gamma   109.19798793
_symmetry_Int_Tables_number   1
_chemical_formula_structural   Hf4Co(AsRu)6
_chemical_formula_sum   'Hf4 Co1 As6 Ru6'
_cell_volume   267.33007306
_cell_formula_units_Z   1
loop_
 _symmetry_equiv_pos_site_id
 _symmetry_equiv_pos_as_xyz
  1  'x, y, z'
loop_
 _atom_site_type_symbol
 _atom_site_label
 _atom_site_symmetry_multiplicity
 _atom_site_fract_x
 _atom_site_fract_y
 _atom_site_fract_z
 _atom_site_occupancy
  Hf  Hf0  1  0.000679  0.001358  0.500679  1
  Hf  Hf1  1  0.499321  0.998642  0.999321  1
  Hf  Hf2  1  0.000679  0.500000  0.999321  1
  Hf  Hf3  1  0.499321  0.500000  0.500679  1
  Co  Co4  1  0.750000  0.500000  0.250000  1
  As  As5  1  0.312647  0.000000  0.312647  1
  As  As6  1  0.994396  0.314984  0.309380  1
  As  As7  1  0.994396  0.685016  0.679412  1
  As  As8  1  0.320588  0.314984  0.005604  1
  As  As9  1  0.690620  0.685016  0.005604  1
  As  As10  1  0.687353  0.000000  0.687353  1
  Ru  Ru11  1  0.503703  0.748764  0.252467  1
  Ru  Ru12  1  0.503703  0.251236  0.754940  1
  Ru  Ru13  1  0.747533  0.251236  0.496297  1
  Ru  Ru14  1  0.245060  0.748764  0.496297  1
  Ru  Ru15  1  0.250000  0.500000  0.750000  1
  Ru  Ru16  1  0.000000  0.000000  0.000000  1
