# generated using pymatgen
data_LiLu8(AlB8)3
_symmetry_space_group_name_H-M   'P 1'
_cell_length_a   3.56214200
_cell_length_b   9.08538460
_cell_length_c   11.43376619
_cell_angle_alpha   90.12422698
_cell_angle_beta   90.00000000
_cell_angle_gamma   90.00000000
_symmetry_Int_Tables_number   1
_chemical_formula_structural   LiLu8(AlB8)3
_chemical_formula_sum   'Li1 Lu8 Al3 B24'
_cell_volume   370.03502260
_cell_formula_units_Z   1
loop_
 _symmetry_equiv_pos_site_id
 _symmetry_equiv_pos_as_xyz
  1  'x, y, z'
loop_
 _atom_site_type_symbol
 _atom_site_label
 _atom_site_symmetry_multiplicity
 _atom_site_fract_x
 _atom_site_fract_y
 _atom_site_fract_z
 _atom_site_occupancy
  Li  Li0  1  0.000000  0.360202  0.679272  1
  Lu  Lu1  1  0.000000  0.820799  0.086461  1
  Lu  Lu2  1  0.000000  0.179017  0.912576  1
  Lu  Lu3  1  0.000000  0.322449  0.415931  1
  Lu  Lu4  1  0.000000  0.675186  0.586889  1
  Lu  Lu5  1  0.000000  0.444144  0.126869  1
  Lu  Lu6  1  0.000000  0.552537  0.868743  1
  Lu  Lu7  1  0.000000  0.944357  0.373318  1
  Lu  Lu8  1  0.000000  0.061724  0.628500  1
  Al  Al9  1  0.000000  0.140158  0.179562  1
  Al  Al10  1  0.000000  0.860217  0.820085  1
  Al  Al11  1  0.000000  0.638526  0.322039  1
  B  B12  1  0.500000  0.051021  0.063929  1
  B  B13  1  0.500000  0.948566  0.935769  1
  B  B14  1  0.500000  0.550400  0.436492  1
  B  B15  1  0.500000  0.447664  0.565702  1
  B  B16  1  0.500000  0.250711  0.078819  1
  B  B17  1  0.500000  0.748026  0.920495  1
  B  B18  1  0.500000  0.751296  0.421249  1
  B  B19  1  0.500000  0.251520  0.580281  1
  B  B20  1  0.500000  0.296950  0.237667  1
  B  B21  1  0.500000  0.702115  0.761352  1
  B  B22  1  0.500000  0.796961  0.262883  1
  B  B23  1  0.500000  0.205762  0.737706  1
  B  B24  1  0.500000  0.132718  0.318478  1
  B  B25  1  0.500000  0.867891  0.681528  1
  B  B26  1  0.500000  0.632593  0.181855  1
  B  B27  1  0.500000  0.366039  0.816738  1
  B  B28  1  0.500000  0.479490  0.287937  1
  B  B29  1  0.500000  0.518641  0.710736  1
  B  B30  1  0.500000  0.979539  0.212205  1
  B  B31  1  0.500000  0.021593  0.788473  1
  B  B32  1  0.500000  0.106421  0.471627  1
  B  B33  1  0.500000  0.895922  0.529687  1
  B  B34  1  0.500000  0.604534  0.027890  1
  B  B35  1  0.500000  0.394309  0.970258  1
