# generated using pymatgen
data_BaLuAlZn3O7
_symmetry_space_group_name_H-M   'P 1'
_cell_length_a   6.33870600
_cell_length_b   6.33872183
_cell_length_c   10.22044200
_cell_angle_alpha   89.99985527
_cell_angle_beta   89.99984921
_cell_angle_gamma   120.00071647
_symmetry_Int_Tables_number   1
_chemical_formula_structural   BaLuAlZn3O7
_chemical_formula_sum   'Ba2 Lu2 Al2 Zn6 O14'
_cell_volume   355.63088999
_cell_formula_units_Z   2
loop_
 _symmetry_equiv_pos_site_id
 _symmetry_equiv_pos_as_xyz
  1  'x, y, z'
loop_
 _atom_site_type_symbol
 _atom_site_label
 _atom_site_symmetry_multiplicity
 _atom_site_fract_x
 _atom_site_fract_y
 _atom_site_fract_z
 _atom_site_occupancy
  Ba  Ba0  1  0.666671  0.333343  0.461229  1
  Ba  Ba1  1  0.333324  0.666650  0.961210  1
  Lu  Lu2  1  0.333327  0.666674  0.318611  1
  Lu  Lu3  1  0.666656  0.333324  0.818608  1
  Al  Al4  1  0.000013  0.999997  0.384659  1
  Al  Al5  1  0.999993  0.999998  0.884654  1
  Zn  Zn6  1  0.339873  0.169985  0.134161  1
  Zn  Zn7  1  0.830007  0.169889  0.134164  1
  Zn  Zn8  1  0.830126  0.660124  0.134162  1
  Zn  Zn9  1  0.660111  0.830003  0.634166  1
  Zn  Zn10  1  0.169889  0.339891  0.634165  1
  Zn  Zn11  1  0.169997  0.830112  0.634163  1
  O  O12  1  0.491509  0.983139  0.189893  1
  O  O13  1  0.491636  0.508484  0.189889  1
  O  O14  1  0.016866  0.508373  0.189893  1
  O  O15  1  0.000000  0.000000  0.209275  1
  O  O16  1  0.689005  0.843959  0.437685  1
  O  O17  1  0.156043  0.845031  0.437684  1
  O  O18  1  0.154981  0.311009  0.437683  1
  O  O19  1  0.508494  0.016867  0.689902  1
  O  O20  1  0.508372  0.491510  0.689906  1
  O  O21  1  0.983132  0.491627  0.689905  1
  O  O22  1  0.999995  0.000002  0.709268  1
  O  O23  1  0.310992  0.156038  0.937689  1
  O  O24  1  0.843967  0.154971  0.937689  1
  O  O25  1  0.845023  0.688998  0.937689  1
