# generated using pymatgen
data_Gd8Ga(CoSi4)3
_symmetry_space_group_name_H-M   'P 1'
_cell_length_a   7.99092200
_cell_length_b   7.99092074
_cell_length_c   8.16777000
_cell_angle_alpha   90.00000000
_cell_angle_beta   90.00000000
_cell_angle_gamma   120.00000520
_symmetry_Int_Tables_number   1
_chemical_formula_structural   Gd8Ga(CoSi4)3
_chemical_formula_sum   'Gd8 Ga1 Co3 Si12'
_cell_volume   451.67684097
_cell_formula_units_Z   1
loop_
 _symmetry_equiv_pos_site_id
 _symmetry_equiv_pos_as_xyz
  1  'x, y, z'
loop_
 _atom_site_type_symbol
 _atom_site_label
 _atom_site_symmetry_multiplicity
 _atom_site_fract_x
 _atom_site_fract_y
 _atom_site_fract_z
 _atom_site_occupancy
  Gd  Gd0  1  0.502290  0.004579  0.245012  1
  Gd  Gd1  1  0.502016  0.004032  0.754984  1
  Gd  Gd2  1  0.995421  0.497710  0.245012  1
  Gd  Gd3  1  0.995968  0.497984  0.754984  1
  Gd  Gd4  1  0.502290  0.497710  0.245012  1
  Gd  Gd5  1  0.502016  0.497984  0.754984  1
  Gd  Gd6  1  0.000000  0.000000  0.246149  1
  Gd  Gd7  1  0.000000  0.000000  0.753906  1
  Ga  Ga8  1  0.333333  0.666667  0.499744  1
  Co  Co9  1  0.333333  0.666667  0.000533  1
  Co  Co10  1  0.666667  0.333333  0.999540  1
  Co  Co11  1  0.666667  0.333333  0.500676  1
  Si  Si12  1  0.171877  0.343757  0.000352  1
  Si  Si13  1  0.828783  0.657566  0.000029  1
  Si  Si14  1  0.656243  0.828123  0.000352  1
  Si  Si15  1  0.825690  0.651382  0.499849  1
  Si  Si16  1  0.342434  0.171217  0.000029  1
  Si  Si17  1  0.160599  0.321197  0.499589  1
  Si  Si18  1  0.171877  0.828123  0.000352  1
  Si  Si19  1  0.348618  0.174310  0.499849  1
  Si  Si20  1  0.828783  0.171217  0.000029  1
  Si  Si21  1  0.678803  0.839401  0.499589  1
  Si  Si22  1  0.825690  0.174310  0.499849  1
  Si  Si23  1  0.160599  0.839401  0.499589  1
