# generated using pymatgen
data_YbHo15In6CoPt
_symmetry_space_group_name_H-M   'P 1'
_cell_length_a   10.38666000
_cell_length_b   10.40564565
_cell_length_c   6.99526702
_cell_angle_alpha   90.09247647
_cell_angle_beta   90.00000000
_cell_angle_gamma   119.93966895
_symmetry_Int_Tables_number   1
_chemical_formula_structural   YbHo15In6CoPt
_chemical_formula_sum   'Yb1 Ho15 In6 Co1 Pt1'
_cell_volume   655.15313820
_cell_formula_units_Z   1
loop_
 _symmetry_equiv_pos_site_id
 _symmetry_equiv_pos_as_xyz
  1  'x, y, z'
loop_
 _atom_site_type_symbol
 _atom_site_label
 _atom_site_symmetry_multiplicity
 _atom_site_fract_x
 _atom_site_fract_y
 _atom_site_fract_z
 _atom_site_occupancy
  Yb  Yb0  1  0.529418  0.058835  0.508575  1
  Ho  Ho1  1  0.938941  0.469503  0.506805  1
  Ho  Ho2  1  0.530563  0.469503  0.506805  1
  Ho  Ho3  1  0.462919  0.925839  0.006295  1
  Ho  Ho4  1  0.072155  0.536143  0.005919  1
  Ho  Ho5  1  0.463987  0.536143  0.005919  1
  Ho  Ho6  1  0.177550  0.355099  0.715186  1
  Ho  Ho7  1  0.644919  0.822315  0.714578  1
  Ho  Ho8  1  0.177396  0.822315  0.714578  1
  Ho  Ho9  1  0.824880  0.649759  0.212063  1
  Ho  Ho10  1  0.352107  0.175107  0.214128  1
  Ho  Ho11  1  0.823000  0.175107  0.214128  1
  Ho  Ho12  1  0.665751  0.331502  0.881945  1
  Ho  Ho13  1  0.332465  0.664930  0.394745  1
  Ho  Ho14  1  0.999915  0.999830  0.494325  1
  Ho  Ho15  1  0.000035  0.000070  0.991118  1
  In  In16  1  0.837447  0.674895  0.750981  1
  In  In17  1  0.324701  0.163202  0.752577  1
  In  In18  1  0.838500  0.163202  0.752577  1
  In  In19  1  0.162979  0.325959  0.251885  1
  In  In20  1  0.673965  0.836778  0.252080  1
  In  In21  1  0.162814  0.836778  0.252080  1
  Co  Co22  1  0.333587  0.667176  0.781553  1
  Pt  Pt23  1  0.670006  0.340011  0.277192  1
