# generated using pymatgen
data_Tb5DyCoSi4Ni
_symmetry_space_group_name_H-M   'P 1'
_cell_length_a   4.13029600
_cell_length_b   11.21343900
_cell_length_c   11.37137100
_cell_angle_alpha   90.00000000
_cell_angle_beta   90.00000000
_cell_angle_gamma   90.00000000
_symmetry_Int_Tables_number   1
_chemical_formula_structural   Tb5DyCoSi4Ni
_chemical_formula_sum   'Tb10 Dy2 Co2 Si8 Ni2'
_cell_volume   526.66302658
_cell_formula_units_Z   2
loop_
 _symmetry_equiv_pos_site_id
 _symmetry_equiv_pos_as_xyz
  1  'x, y, z'
loop_
 _atom_site_type_symbol
 _atom_site_label
 _atom_site_symmetry_multiplicity
 _atom_site_fract_x
 _atom_site_fract_y
 _atom_site_fract_z
 _atom_site_occupancy
  Tb  Tb0  1  0.250000  0.060576  0.882859  1
  Tb  Tb1  1  0.250000  0.439424  0.382859  1
  Tb  Tb2  1  0.250000  0.126607  0.558196  1
  Tb  Tb3  1  0.250000  0.373393  0.058196  1
  Tb  Tb4  1  0.750000  0.875593  0.442615  1
  Tb  Tb5  1  0.750000  0.624407  0.942615  1
  Tb  Tb6  1  0.250000  0.804179  0.714348  1
  Tb  Tb7  1  0.250000  0.695821  0.214348  1
  Tb  Tb8  1  0.750000  0.197931  0.283276  1
  Tb  Tb9  1  0.750000  0.302069  0.783276  1
  Dy  Dy10  1  0.750000  0.942188  0.118491  1
  Dy  Dy11  1  0.750000  0.557812  0.618491  1
  Co  Co12  1  0.250000  0.364676  0.630526  1
  Co  Co13  1  0.250000  0.135324  0.130526  1
  Si  Si14  1  0.250000  0.814538  0.974056  1
  Si  Si15  1  0.250000  0.685462  0.474056  1
  Si  Si16  1  0.750000  0.183913  0.026243  1
  Si  Si17  1  0.750000  0.316087  0.526243  1
  Si  Si18  1  0.250000  0.494706  0.801093  1
  Si  Si19  1  0.250000  0.005294  0.301093  1
  Si  Si20  1  0.750000  0.504580  0.197199  1
  Si  Si21  1  0.750000  0.995420  0.697199  1
  Ni  Ni22  1  0.750000  0.634049  0.371100  1
  Ni  Ni23  1  0.750000  0.865951  0.871100  1
