# generated using pymatgen
data_Rb8AcTb3Br20
_symmetry_space_group_name_H-M   'P 1'
_cell_length_a   8.85619538
_cell_length_b   9.35586100
_cell_length_c   14.15553266
_cell_angle_alpha   90.00000000
_cell_angle_beta   90.99625078
_cell_angle_gamma   90.00000000
_symmetry_Int_Tables_number   1
_chemical_formula_structural   Rb8AcTb3Br20
_chemical_formula_sum   'Rb8 Ac1 Tb3 Br20'
_cell_volume   1172.71238379
_cell_formula_units_Z   1
loop_
 _symmetry_equiv_pos_site_id
 _symmetry_equiv_pos_as_xyz
  1  'x, y, z'
loop_
 _atom_site_type_symbol
 _atom_site_label
 _atom_site_symmetry_multiplicity
 _atom_site_fract_x
 _atom_site_fract_y
 _atom_site_fract_z
 _atom_site_occupancy
  Rb  Rb0  1  0.945401  0.004913  0.825228  1
  Rb  Rb1  1  0.055707  0.998596  0.174713  1
  Rb  Rb2  1  0.443333  0.997664  0.669752  1
  Rb  Rb3  1  0.055707  0.501404  0.174713  1
  Rb  Rb4  1  0.556417  0.004417  0.330188  1
  Rb  Rb5  1  0.945401  0.495087  0.825228  1
  Rb  Rb6  1  0.556417  0.495583  0.330188  1
  Rb  Rb7  1  0.443333  0.502336  0.669752  1
  Ac  Ac8  1  0.572949  0.750000  0.005836  1
  Tb  Tb9  1  0.929067  0.750000  0.503293  1
  Tb  Tb10  1  0.069852  0.250000  0.496775  1
  Tb  Tb11  1  0.425743  0.250000  0.996458  1
  Br  Br12  1  0.112303  0.750000  0.670664  1
  Br  Br13  1  0.887700  0.250000  0.329389  1
  Br  Br14  1  0.611162  0.250000  0.831541  1
  Br  Br15  1  0.373026  0.750000  0.182216  1
  Br  Br16  1  0.842293  0.043700  0.567438  1
  Br  Br17  1  0.156409  0.956601  0.432998  1
  Br  Br18  1  0.335238  0.967952  0.924403  1
  Br  Br19  1  0.156409  0.543399  0.432998  1
  Br  Br20  1  0.662333  0.055644  0.074739  1
  Br  Br21  1  0.842293  0.456300  0.567438  1
  Br  Br22  1  0.662333  0.444356  0.074739  1
  Br  Br23  1  0.335238  0.532048  0.924403  1
  Br  Br24  1  0.602673  0.750000  0.512988  1
  Br  Br25  1  0.396808  0.250000  0.485339  1
  Br  Br26  1  0.096422  0.250000  0.988179  1
  Br  Br27  1  0.922812  0.750000  0.011507  1
  Br  Br28  1  0.657411  0.750000  0.796138  1
  Br  Br29  1  0.348630  0.250000  0.191995  1
  Br  Br30  1  0.152836  0.250000  0.692074  1
  Br  Br31  1  0.846342  0.750000  0.306690  1
