# generated using pymatgen
data_NaTb5HoPtI12
_symmetry_space_group_name_H-M   'P 1'
_cell_length_a   9.85876780
_cell_length_b   9.80230708
_cell_length_c   9.83998073
_cell_angle_alpha   107.05103039
_cell_angle_beta   106.76579779
_cell_angle_gamma   107.32870895
_symmetry_Int_Tables_number   1
_chemical_formula_structural   NaTb5HoPtI12
_chemical_formula_sum   'Na1 Tb5 Ho1 Pt1 I12'
_cell_volume   790.87236132
_cell_formula_units_Z   1
loop_
 _symmetry_equiv_pos_site_id
 _symmetry_equiv_pos_as_xyz
  1  'x, y, z'
loop_
 _atom_site_type_symbol
 _atom_site_label
 _atom_site_symmetry_multiplicity
 _atom_site_fract_x
 _atom_site_fract_y
 _atom_site_fract_z
 _atom_site_occupancy
  Na  Na0  1  0.500053  0.500037  0.500079  1
  Tb  Tb1  1  0.308436  0.099312  0.027790  1
  Tb  Tb2  1  0.025195  0.301082  0.098053  1
  Tb  Tb3  1  0.898824  0.973034  0.690721  1
  Tb  Tb4  1  0.691667  0.900697  0.972415  1
  Tb  Tb5  1  0.975106  0.699228  0.902861  1
  Ho  Ho6  1  0.100607  0.026904  0.306999  1
  Pt  Pt7  1  0.000142  0.000252  0.000164  1
  I  I8  1  0.075868  0.680483  0.224303  1
  I  I9  1  0.223835  0.075671  0.677917  1
  I  I10  1  0.679837  0.225590  0.076548  1
  I  I11  1  0.924534  0.321268  0.776972  1
  I  I12  1  0.777813  0.924697  0.320876  1
  I  I13  1  0.320189  0.774489  0.923635  1
  I  I14  1  0.448829  0.141481  0.372464  1
  I  I15  1  0.371062  0.450601  0.142166  1
  I  I16  1  0.141974  0.370634  0.450011  1
  I  I17  1  0.549034  0.857707  0.627934  1
  I  I18  1  0.628973  0.549452  0.857945  1
  I  I19  1  0.858021  0.627379  0.550145  1
