# generated using pymatgen
data_Li2LaHo2Al7
_symmetry_space_group_name_H-M   'P 1'
_cell_length_a   9.37478118
_cell_length_b   9.37478088
_cell_length_c   9.37478094
_cell_angle_alpha   34.54863537
_cell_angle_beta   34.54863614
_cell_angle_gamma   34.54862449
_symmetry_Int_Tables_number   1
_chemical_formula_structural   Li2LaHo2Al7
_chemical_formula_sum   'Li2 La1 Ho2 Al7'
_cell_volume   236.41314780
_cell_formula_units_Z   1
loop_
 _symmetry_equiv_pos_site_id
 _symmetry_equiv_pos_as_xyz
  1  'x, y, z'
loop_
 _atom_site_type_symbol
 _atom_site_label
 _atom_site_symmetry_multiplicity
 _atom_site_fract_x
 _atom_site_fract_y
 _atom_site_fract_z
 _atom_site_occupancy
  Li  Li0  1  0.664533  0.664533  0.664533  1
  Li  Li1  1  0.335467  0.335467  0.335467  1
  La  La2  1  0.000000  0.000000  0.000000  1
  Ho  Ho3  1  0.141487  0.141487  0.141487  1
  Ho  Ho4  1  0.858513  0.858513  0.858513  1
  Al  Al5  1  0.413256  0.413256  0.922688  1
  Al  Al6  1  0.922688  0.413256  0.413256  1
  Al  Al7  1  0.500000  0.500000  0.500000  1
  Al  Al8  1  0.586744  0.586744  0.077312  1
  Al  Al9  1  0.413256  0.922688  0.413256  1
  Al  Al10  1  0.077312  0.586744  0.586744  1
  Al  Al11  1  0.586744  0.077312  0.586744  1
