# generated using pymatgen
data_Zn6Sn4Pd3Pt
_symmetry_space_group_name_H-M   'P 1'
_cell_length_a   4.40304400
_cell_length_b   4.40304440
_cell_length_c   15.65818600
_cell_angle_alpha   90.00000000
_cell_angle_beta   90.00000000
_cell_angle_gamma   119.99998195
_symmetry_Int_Tables_number   1
_chemical_formula_structural   Zn6Sn4Pd3Pt
_chemical_formula_sum   'Zn6 Sn4 Pd3 Pt1'
_cell_volume   262.89253176
_cell_formula_units_Z   1
loop_
 _symmetry_equiv_pos_site_id
 _symmetry_equiv_pos_as_xyz
  1  'x, y, z'
loop_
 _atom_site_type_symbol
 _atom_site_label
 _atom_site_symmetry_multiplicity
 _atom_site_fract_x
 _atom_site_fract_y
 _atom_site_fract_z
 _atom_site_occupancy
  Zn  Zn0  1  0.000000  0.000000  0.168806  1
  Zn  Zn1  1  0.000000  0.000000  0.831194  1
  Zn  Zn2  1  0.000000  0.000000  0.669298  1
  Zn  Zn3  1  0.000000  0.000000  0.330702  1
  Zn  Zn4  1  0.333333  0.666667  0.750118  1
  Zn  Zn5  1  0.666667  0.333333  0.249882  1
  Sn  Sn6  1  0.333333  0.666667  0.071717  1
  Sn  Sn7  1  0.666667  0.333333  0.928283  1
  Sn  Sn8  1  0.666667  0.333333  0.571701  1
  Sn  Sn9  1  0.333333  0.666667  0.428299  1
  Pd  Pd10  1  0.000000  0.000000  0.000000  1
  Pd  Pd11  1  0.333333  0.666667  0.250176  1
  Pd  Pd12  1  0.666667  0.333333  0.749824  1
  Pt  Pt13  1  0.000000  0.000000  0.500000  1
