# generated using pymatgen
data_Dy3YZr4F28
_symmetry_space_group_name_H-M   'P 1'
_cell_length_a   5.75922030
_cell_length_b   9.11384880
_cell_length_c   12.25517327
_cell_angle_alpha   62.38379451
_cell_angle_beta   90.00888224
_cell_angle_gamma   90.00112397
_symmetry_Int_Tables_number   1
_chemical_formula_structural   Dy3YZr4F28
_chemical_formula_sum   'Dy3 Y1 Zr4 F28'
_cell_volume   569.97291917
_cell_formula_units_Z   1
loop_
 _symmetry_equiv_pos_site_id
 _symmetry_equiv_pos_as_xyz
  1  'x, y, z'
loop_
 _atom_site_type_symbol
 _atom_site_label
 _atom_site_symmetry_multiplicity
 _atom_site_fract_x
 _atom_site_fract_y
 _atom_site_fract_z
 _atom_site_occupancy
  Dy  Dy0  1  0.743316  0.815900  0.266212  1
  Dy  Dy1  1  0.243379  0.184104  0.233899  1
  Dy  Dy2  1  0.257019  0.183608  0.733908  1
  Y  Y3  1  0.756620  0.815799  0.766123  1
  Zr  Zr4  1  0.744407  0.274417  0.454863  1
  Zr  Zr5  1  0.244118  0.725893  0.045293  1
  Zr  Zr6  1  0.255270  0.725620  0.545033  1
  Zr  Zr7  1  0.755466  0.274023  0.954828  1
  F  F8  1  0.466681  0.711994  0.921591  1
  F  F9  1  0.967347  0.288240  0.578690  1
  F  F10  1  0.533114  0.288275  0.078656  1
  F  F11  1  0.033755  0.711375  0.420970  1
  F  F12  1  0.453861  0.280121  0.550102  1
  F  F13  1  0.953585  0.720050  0.950362  1
  F  F14  1  0.545727  0.719569  0.449911  1
  F  F15  1  0.045818  0.280288  0.050105  1
  F  F16  1  0.768001  0.525505  0.858337  1
  F  F17  1  0.267538  0.474051  0.641642  1
  F  F18  1  0.233118  0.474393  0.142330  1
  F  F19  1  0.732703  0.525907  0.357645  1
  F  F20  1  0.759510  0.023465  0.058336  1
  F  F21  1  0.259552  0.976379  0.441467  1
  F  F22  1  0.240434  0.976562  0.941344  1
  F  F23  1  0.739794  0.024041  0.558229  1
  F  F24  1  0.984257  0.734162  0.649044  1
  F  F25  1  0.484669  0.265868  0.850315  1
  F  F26  1  0.013794  0.265721  0.349873  1
  F  F27  1  0.513793  0.734411  0.150207  1
  F  F28  1  0.033669  0.746756  0.173078  1
  F  F29  1  0.532640  0.253730  0.327356  1
  F  F30  1  0.967339  0.252659  0.827667  1
  F  F31  1  0.466557  0.746712  0.672370  1
  F  F32  1  0.430314  0.973791  0.235281  1
  F  F33  1  0.929665  0.026348  0.264883  1
  F  F34  1  0.571545  0.027168  0.765043  1
  F  F35  1  0.071625  0.973095  0.735004  1
