# generated using pymatgen
data_Y6Zn6Pd5Pt
_symmetry_space_group_name_H-M   'P 1'
_cell_length_a   7.37049900
_cell_length_b   7.37049979
_cell_length_c   7.66249300
_cell_angle_alpha   90.00000000
_cell_angle_beta   90.00000000
_cell_angle_gamma   120.00000093
_symmetry_Int_Tables_number   1
_chemical_formula_structural   Y6Zn6Pd5Pt
_chemical_formula_sum   'Y6 Zn6 Pd5 Pt1'
_cell_volume   360.49110107
_cell_formula_units_Z   1
loop_
 _symmetry_equiv_pos_site_id
 _symmetry_equiv_pos_as_xyz
  1  'x, y, z'
loop_
 _atom_site_type_symbol
 _atom_site_label
 _atom_site_symmetry_multiplicity
 _atom_site_fract_x
 _atom_site_fract_y
 _atom_site_fract_z
 _atom_site_occupancy
  Y  Y0  1  0.406180  0.999594  0.246736  1
  Y  Y1  1  0.593415  0.593820  0.246736  1
  Y  Y2  1  0.000406  0.406585  0.246736  1
  Y  Y3  1  0.404437  0.997020  0.753206  1
  Y  Y4  1  0.592582  0.595563  0.753206  1
  Y  Y5  1  0.002980  0.407418  0.753206  1
  Zn  Zn6  1  0.747042  0.000365  0.000088  1
  Zn  Zn7  1  0.253976  0.253640  0.499994  1
  Zn  Zn8  1  0.999664  0.746024  0.499994  1
  Zn  Zn9  1  0.999635  0.746677  0.000088  1
  Zn  Zn10  1  0.253323  0.252958  0.000088  1
  Zn  Zn11  1  0.746360  0.000336  0.499994  1
  Pd  Pd12  1  0.333333  0.666667  0.497811  1
  Pd  Pd13  1  0.666667  0.333333  0.997579  1
  Pd  Pd14  1  0.666667  0.333333  0.502478  1
  Pd  Pd15  1  0.000000  0.000000  0.251466  1
  Pd  Pd16  1  0.000000  0.000000  0.748625  1
  Pt  Pt17  1  0.333333  0.666667  0.001970  1
