# generated using pymatgen
data_Y3Mg2CdSn2Pd
_symmetry_space_group_name_H-M   'P 1'
_cell_length_a   7.42687591
_cell_length_b   7.42687558
_cell_length_c   4.51809700
_cell_angle_alpha   90.00000000
_cell_angle_beta   90.00000000
_cell_angle_gamma   119.52088315
_symmetry_Int_Tables_number   1
_chemical_formula_structural   Y3Mg2CdSn2Pd
_chemical_formula_sum   'Y3 Mg2 Cd1 Sn2 Pd1'
_cell_volume   216.85780013
_cell_formula_units_Z   1
loop_
 _symmetry_equiv_pos_site_id
 _symmetry_equiv_pos_as_xyz
  1  'x, y, z'
loop_
 _atom_site_type_symbol
 _atom_site_label
 _atom_site_symmetry_multiplicity
 _atom_site_fract_x
 _atom_site_fract_y
 _atom_site_fract_z
 _atom_site_occupancy
  Y  Y0  1  0.406991  0.406991  0.500000  1
  Y  Y1  1  0.999425  0.596080  0.500000  1
  Y  Y2  1  0.596080  0.999425  0.500000  1
  Mg  Mg3  1  0.229430  0.999261  0.000000  1
  Mg  Mg4  1  0.999261  0.229430  0.000000  1
  Cd  Cd5  1  0.765177  0.765177  0.000000  1
  Sn  Sn6  1  0.665502  0.329195  0.000000  1
  Sn  Sn7  1  0.329195  0.665502  0.000000  1
  Pd  Pd8  1  0.008939  0.008939  0.500000  1
