# generated using pymatgen
data_Y3Pa(Si3Pt)2
_symmetry_space_group_name_H-M   'P 1'
_cell_length_a   8.14121800
_cell_length_b   8.14121834
_cell_length_c   8.27787400
_cell_angle_alpha   90.00000000
_cell_angle_beta   90.00000000
_cell_angle_gamma   119.99999861
_symmetry_Int_Tables_number   1
_chemical_formula_structural   Y3Pa(Si3Pt)2
_chemical_formula_sum   'Y6 Pa2 Si12 Pt4'
_cell_volume   475.14726729
_cell_formula_units_Z   2
loop_
 _symmetry_equiv_pos_site_id
 _symmetry_equiv_pos_as_xyz
  1  'x, y, z'
loop_
 _atom_site_type_symbol
 _atom_site_label
 _atom_site_symmetry_multiplicity
 _atom_site_fract_x
 _atom_site_fract_y
 _atom_site_fract_z
 _atom_site_occupancy
  Y  Y0  1  0.001469  0.500733  0.250000  1
  Y  Y1  1  0.499267  0.500733  0.250000  1
  Y  Y2  1  0.500733  0.001469  0.750000  1
  Y  Y3  1  0.499267  0.998531  0.250000  1
  Y  Y4  1  0.500733  0.499267  0.750000  1
  Y  Y5  1  0.998531  0.499267  0.750000  1
  Pa  Pa6  1  0.000000  0.000000  0.250000  1
  Pa  Pa7  1  0.000000  0.000000  0.750000  1
  Si  Si8  1  0.165123  0.330244  0.999198  1
  Si  Si9  1  0.669756  0.834877  0.999198  1
  Si  Si10  1  0.165123  0.330244  0.500802  1
  Si  Si11  1  0.330244  0.165123  0.000802  1
  Si  Si12  1  0.165123  0.834877  0.999198  1
  Si  Si13  1  0.669756  0.834877  0.500802  1
  Si  Si14  1  0.834877  0.669756  0.000802  1
  Si  Si15  1  0.330244  0.165123  0.499198  1
  Si  Si16  1  0.165123  0.834877  0.500802  1
  Si  Si17  1  0.834877  0.669756  0.499198  1
  Si  Si18  1  0.834877  0.165123  0.000802  1
  Si  Si19  1  0.834877  0.165123  0.499198  1
  Pt  Pt20  1  0.333333  0.666667  0.998641  1
  Pt  Pt21  1  0.333333  0.666667  0.501359  1
  Pt  Pt22  1  0.666667  0.333333  0.001359  1
  Pt  Pt23  1  0.666667  0.333333  0.498641  1
