# generated using pymatgen
data_NdLu2Al2Co9B4
_symmetry_space_group_name_H-M   'P 1'
_cell_length_a   5.16079599
_cell_length_b   5.15467761
_cell_length_c   9.60030700
_cell_angle_alpha   90.00002765
_cell_angle_beta   90.00021089
_cell_angle_gamma   119.93685022
_symmetry_Int_Tables_number   1
_chemical_formula_structural   NdLu2Al2Co9B4
_chemical_formula_sum   'Nd1 Lu2 Al2 Co9 B4'
_cell_volume   221.31454616
_cell_formula_units_Z   1
loop_
 _symmetry_equiv_pos_site_id
 _symmetry_equiv_pos_as_xyz
  1  'x, y, z'
loop_
 _atom_site_type_symbol
 _atom_site_label
 _atom_site_symmetry_multiplicity
 _atom_site_fract_x
 _atom_site_fract_y
 _atom_site_fract_z
 _atom_site_occupancy
  Nd  Nd0  1  0.000009  0.000016  0.999986  1
  Lu  Lu1  1  0.999977  0.999993  0.341313  1
  Lu  Lu2  1  0.999997  0.999984  0.658656  1
  Al  Al3  1  0.333573  0.666766  0.000022  1
  Al  Al4  1  0.666430  0.333256  0.000022  1
  Co  Co5  1  0.499997  0.000001  0.500008  1
  Co  Co6  1  0.499996  0.500001  0.499985  1
  Co  Co7  1  0.999993  0.499999  0.500000  1
  Co  Co8  1  0.499987  0.000001  0.209558  1
  Co  Co9  1  0.499991  0.499998  0.209552  1
  Co  Co10  1  0.999995  0.500002  0.209587  1
  Co  Co11  1  0.499997  0.999999  0.790448  1
  Co  Co12  1  0.499990  0.499994  0.790465  1
  Co  Co13  1  0.999994  0.499994  0.790410  1
  B  B14  1  0.333477  0.666722  0.350329  1
  B  B15  1  0.666510  0.333276  0.350330  1
  B  B16  1  0.666501  0.333294  0.649664  1
  B  B17  1  0.333486  0.666702  0.649665  1
