# generated using pymatgen
data_HfScReTc3
_symmetry_space_group_name_H-M   'P 1'
_cell_length_a   5.25455634
_cell_length_b   5.23006640
_cell_length_c   8.63724030
_cell_angle_alpha   89.91607691
_cell_angle_beta   90.04176251
_cell_angle_gamma   119.84593564
_symmetry_Int_Tables_number   1
_chemical_formula_structural   HfScReTc3
_chemical_formula_sum   'Hf2 Sc2 Re2 Tc6'
_cell_volume   205.88303186
_cell_formula_units_Z   2
loop_
 _symmetry_equiv_pos_site_id
 _symmetry_equiv_pos_as_xyz
  1  'x, y, z'
loop_
 _atom_site_type_symbol
 _atom_site_label
 _atom_site_symmetry_multiplicity
 _atom_site_fract_x
 _atom_site_fract_y
 _atom_site_fract_z
 _atom_site_occupancy
  Hf  Hf0  1  0.667979  0.333709  0.935925  1
  Hf  Hf1  1  0.332021  0.665731  0.435925  1
  Sc  Sc2  1  0.332648  0.666212  0.063276  1
  Sc  Sc3  1  0.667352  0.333563  0.563276  1
  Re  Re4  1  0.828746  0.170891  0.250198  1
  Re  Re5  1  0.171254  0.342144  0.750198  1
  Tc  Tc6  1  0.999967  0.003200  0.000672  1
  Tc  Tc7  1  0.000033  0.003234  0.500672  1
  Tc  Tc8  1  0.828299  0.655641  0.249926  1
  Tc  Tc9  1  0.171701  0.827342  0.749926  1
  Tc  Tc10  1  0.655820  0.827077  0.750003  1
  Tc  Tc11  1  0.344180  0.171257  0.250003  1
