# generated using pymatgen
data_TiV17(Si6Os)2
_symmetry_space_group_name_H-M   'P 1'
_cell_length_a   7.04734427
_cell_length_b   7.04734427
_cell_length_c   13.26311300
_cell_angle_alpha   90.00000000
_cell_angle_beta   90.00000000
_cell_angle_gamma   140.21598427
_symmetry_Int_Tables_number   1
_chemical_formula_structural   TiV17(Si6Os)2
_chemical_formula_sum   'Ti1 V17 Si12 Os2'
_cell_volume   421.50758370
_cell_formula_units_Z   1
loop_
 _symmetry_equiv_pos_site_id
 _symmetry_equiv_pos_as_xyz
  1  'x, y, z'
loop_
 _atom_site_type_symbol
 _atom_site_label
 _atom_site_symmetry_multiplicity
 _atom_site_fract_x
 _atom_site_fract_y
 _atom_site_fract_z
 _atom_site_occupancy
  Ti  Ti0  1  0.002950  0.002950  0.000000  1
  V  V1  1  0.069377  0.419412  0.400052  1
  V  V2  1  0.580998  0.931657  0.898690  1
  V  V3  1  0.419412  0.069377  0.599948  1
  V  V4  1  0.931657  0.580998  0.101310  1
  V  V5  1  0.851437  0.650425  0.674299  1
  V  V6  1  0.349010  0.147392  0.175998  1
  V  V7  1  0.650425  0.851437  0.325701  1
  V  V8  1  0.147392  0.349010  0.824002  1
  V  V9  1  0.650425  0.851437  0.674299  1
  V  V10  1  0.147392  0.349010  0.175998  1
  V  V11  1  0.851437  0.650425  0.325701  1
  V  V12  1  0.349010  0.147392  0.824002  1
  V  V13  1  0.419412  0.069377  0.400052  1
  V  V14  1  0.931657  0.580998  0.898690  1
  V  V15  1  0.069377  0.419412  0.599948  1
  V  V16  1  0.580998  0.931657  0.101310  1
  V  V17  1  0.997143  0.997143  0.500000  1
  Si  Si18  1  0.251203  0.748830  0.749439  1
  Si  Si19  1  0.748830  0.251203  0.250561  1
  Si  Si20  1  0.748830  0.251203  0.749439  1
  Si  Si21  1  0.251203  0.748830  0.250561  1
  Si  Si22  1  0.240259  0.240259  0.667312  1
  Si  Si23  1  0.756217  0.756217  0.169493  1
  Si  Si24  1  0.240259  0.240259  0.332688  1
  Si  Si25  1  0.756217  0.756217  0.830507  1
  Si  Si26  1  0.583516  0.918621  0.500000  1
  Si  Si27  1  0.083514  0.421347  0.000000  1
  Si  Si28  1  0.918621  0.583516  0.500000  1
  Si  Si29  1  0.421347  0.083514  0.000000  1
  Os  Os30  1  0.503147  0.503147  0.000000  1
  Os  Os31  1  0.497328  0.497328  0.500000  1
