# generated using pymatgen
data_Th2GaH4
_symmetry_space_group_name_H-M   'P 1'
_cell_length_a   6.26481869
_cell_length_b   6.26481765
_cell_length_c   6.26481795
_cell_angle_alpha   105.74549349
_cell_angle_beta   105.74549242
_cell_angle_gamma   117.21112346
_symmetry_Int_Tables_number   1
_chemical_formula_structural   Th2GaH4
_chemical_formula_sum   'Th4 Ga2 H8'
_cell_volume   186.65612957
_cell_formula_units_Z   2
loop_
 _symmetry_equiv_pos_site_id
 _symmetry_equiv_pos_as_xyz
  1  'x, y, z'
loop_
 _atom_site_type_symbol
 _atom_site_label
 _atom_site_symmetry_multiplicity
 _atom_site_fract_x
 _atom_site_fract_y
 _atom_site_fract_z
 _atom_site_occupancy
  Th  Th0  1  0.836428  0.663572  0.500000  1
  Th  Th1  1  0.663572  0.163572  0.827144  1
  Th  Th2  1  0.163572  0.336428  0.500000  1
  Th  Th3  1  0.336428  0.836428  0.172856  1
  Ga  Ga4  1  0.750000  0.750000  0.000000  1
  Ga  Ga5  1  0.250000  0.250000  0.000000  1
  H  H6  1  0.221667  0.979063  0.500000  1
  H  H7  1  0.479063  0.721667  0.500000  1
  H  H8  1  0.721667  0.221667  0.242605  1
  H  H9  1  0.979063  0.479063  0.757395  1
  H  H10  1  0.278333  0.778333  0.757395  1
  H  H11  1  0.520937  0.278333  0.500000  1
  H  H12  1  0.020937  0.520937  0.242605  1
  H  H13  1  0.778333  0.020937  0.500000  1
