# generated using pymatgen
data_TbTh(MgRh)2
_symmetry_space_group_name_H-M   'P 1'
_cell_length_a   4.06346000
_cell_length_b   7.22800760
_cell_length_c   8.82873193
_cell_angle_alpha   91.65462801
_cell_angle_beta   90.00000000
_cell_angle_gamma   90.00000000
_symmetry_Int_Tables_number   1
_chemical_formula_structural   TbTh(MgRh)2
_chemical_formula_sum   'Tb2 Th2 Mg4 Rh4'
_cell_volume   259.19809073
_cell_formula_units_Z   2
loop_
 _symmetry_equiv_pos_site_id
 _symmetry_equiv_pos_as_xyz
  1  'x, y, z'
loop_
 _atom_site_type_symbol
 _atom_site_label
 _atom_site_symmetry_multiplicity
 _atom_site_fract_x
 _atom_site_fract_y
 _atom_site_fract_z
 _atom_site_occupancy
  Tb  Tb0  1  0.250000  0.039248  0.326040  1
  Tb  Tb1  1  0.750000  0.960752  0.673960  1
  Th  Th2  1  0.250000  0.538462  0.183655  1
  Th  Th3  1  0.750000  0.461538  0.816345  1
  Mg  Mg4  1  0.250000  0.126305  0.939471  1
  Mg  Mg5  1  0.750000  0.873695  0.060529  1
  Mg  Mg6  1  0.250000  0.639028  0.555440  1
  Mg  Mg7  1  0.750000  0.360972  0.444560  1
  Rh  Rh8  1  0.750000  0.748638  0.361387  1
  Rh  Rh9  1  0.250000  0.251362  0.638613  1
  Rh  Rh10  1  0.750000  0.268767  0.122567  1
  Rh  Rh11  1  0.250000  0.731233  0.877433  1
