# generated using pymatgen
data_HfZr12Nb7Si16
_symmetry_space_group_name_H-M   'P 1'
_cell_length_a   7.01046362
_cell_length_b   7.00291584
_cell_length_c   12.87762163
_cell_angle_alpha   90.20291953
_cell_angle_beta   89.85244659
_cell_angle_gamma   89.88601442
_symmetry_Int_Tables_number   1
_chemical_formula_structural   HfZr12Nb7Si16
_chemical_formula_sum   'Hf1 Zr12 Nb7 Si16'
_cell_volume   632.20259812
_cell_formula_units_Z   1
loop_
 _symmetry_equiv_pos_site_id
 _symmetry_equiv_pos_as_xyz
  1  'x, y, z'
loop_
 _atom_site_type_symbol
 _atom_site_label
 _atom_site_symmetry_multiplicity
 _atom_site_fract_x
 _atom_site_fract_y
 _atom_site_fract_z
 _atom_site_occupancy
  Hf  Hf0  1  0.351169  0.505080  0.376474  1
  Zr  Zr1  1  0.649556  0.495579  0.876686  1
  Zr  Zr2  1  0.503028  0.352699  0.622332  1
  Zr  Zr3  1  0.498985  0.647663  0.125250  1
  Zr  Zr4  1  0.146582  0.999804  0.873692  1
  Zr  Zr5  1  0.999912  0.653355  0.035004  1
  Zr  Zr6  1  0.001058  0.346521  0.530340  1
  Zr  Zr7  1  0.655173  0.998901  0.968069  1
  Zr  Zr8  1  0.152497  0.498420  0.781914  1
  Zr  Zr9  1  0.846613  0.502288  0.282503  1
  Zr  Zr10  1  0.500380  0.154570  0.218920  1
  Zr  Zr11  1  0.501052  0.846351  0.715086  1
  Zr  Zr12  1  0.344549  0.002317  0.467324  1
  Nb  Nb13  1  0.853355  0.996590  0.373765  1
  Nb  Nb14  1  0.006344  0.147512  0.126223  1
  Nb  Nb15  1  0.993496  0.853275  0.625226  1
  Nb  Nb16  1  0.674075  0.675330  0.499558  1
  Nb  Nb17  1  0.828312  0.171549  0.748686  1
  Nb  Nb18  1  0.171206  0.829904  0.251357  1
  Nb  Nb19  1  0.326984  0.324004  0.001233  1
  Si  Si20  1  0.044812  0.704758  0.437014  1
  Si  Si21  1  0.954812  0.299076  0.938089  1
  Si  Si22  1  0.703601  0.045475  0.561792  1
  Si  Si23  1  0.198954  0.449390  0.186598  1
  Si  Si24  1  0.802402  0.549702  0.684255  1
  Si  Si25  1  0.451894  0.197586  0.813792  1
  Si  Si26  1  0.551424  0.802361  0.315817  1
  Si  Si27  1  0.299180  0.954425  0.065550  1
  Si  Si28  1  0.854659  0.796274  0.818122  1
  Si  Si29  1  0.137620  0.204863  0.322076  1
  Si  Si30  1  0.798198  0.864153  0.179528  1
  Si  Si31  1  0.287691  0.644781  0.573317  1
  Si  Si32  1  0.710740  0.353318  0.074476  1
  Si  Si33  1  0.643408  0.291168  0.424881  1
  Si  Si34  1  0.354433  0.701835  0.929131  1
  Si  Si35  1  0.201842  0.139121  0.675923  1
