# generated using pymatgen
data_Er2PaAl2InPt3
_symmetry_space_group_name_H-M   'P 1'
_cell_length_a   7.47041400
_cell_length_b   7.28337085
_cell_length_c   3.96400900
_cell_angle_alpha   90.00000000
_cell_angle_beta   90.00000000
_cell_angle_gamma   120.85321492
_symmetry_Int_Tables_number   1
_chemical_formula_structural   Er2PaAl2InPt3
_chemical_formula_sum   'Er2 Pa1 Al2 In1 Pt3'
_cell_volume   185.15860824
_cell_formula_units_Z   1
loop_
 _symmetry_equiv_pos_site_id
 _symmetry_equiv_pos_as_xyz
  1  'x, y, z'
loop_
 _atom_site_type_symbol
 _atom_site_label
 _atom_site_symmetry_multiplicity
 _atom_site_fract_x
 _atom_site_fract_y
 _atom_site_fract_z
 _atom_site_occupancy
  Er  Er0  1  0.410888  0.412502  0.500000  1
  Er  Er1  1  0.998386  0.587498  0.500000  1
  Pa  Pa2  1  0.586596  0.000000  0.500000  1
  Al  Al3  1  0.751161  0.743442  0.000000  1
  Al  Al4  1  0.007717  0.256558  0.000000  1
  In  In5  1  0.241799  0.000000  0.000000  1
  Pt  Pt6  1  0.353506  0.671293  0.000000  1
  Pt  Pt7  1  0.682214  0.328707  0.000000  1
  Pt  Pt8  1  0.967733  0.000000  0.500000  1
