# generated using pymatgen
data_Ba6HfZrF20
_symmetry_space_group_name_H-M   'P 1'
_cell_length_a   8.77193511
_cell_length_b   8.77193543
_cell_length_c   6.18081000
_cell_angle_alpha   90.00000000
_cell_angle_beta   90.00000000
_cell_angle_gamma   101.27529042
_symmetry_Int_Tables_number   1
_chemical_formula_structural   Ba6HfZrF20
_chemical_formula_sum   'Ba6 Hf1 Zr1 F20'
_cell_volume   466.41444739
_cell_formula_units_Z   1
loop_
 _symmetry_equiv_pos_site_id
 _symmetry_equiv_pos_as_xyz
  1  'x, y, z'
loop_
 _atom_site_type_symbol
 _atom_site_label
 _atom_site_symmetry_multiplicity
 _atom_site_fract_x
 _atom_site_fract_y
 _atom_site_fract_z
 _atom_site_occupancy
  Ba  Ba0  1  0.825309  0.602606  0.750000  1
  Ba  Ba1  1  0.176408  0.398418  0.250000  1
  Ba  Ba2  1  0.397394  0.174691  0.750000  1
  Ba  Ba3  1  0.601581  0.823592  0.250000  1
  Ba  Ba4  1  0.889081  0.110918  0.750000  1
  Ba  Ba5  1  0.111625  0.888375  0.250000  1
  Hf  Hf6  1  0.318869  0.681131  0.750000  1
  Zr  Zr7  1  0.681102  0.318898  0.250000  1
  F  F8  1  0.139238  0.139006  0.499923  1
  F  F9  1  0.860994  0.860762  0.499923  1
  F  F10  1  0.860994  0.860762  0.000077  1
  F  F11  1  0.139238  0.139006  0.000077  1
  F  F12  1  0.115480  0.653361  0.543119  1
  F  F13  1  0.887015  0.347774  0.460276  1
  F  F14  1  0.887015  0.347774  0.039724  1
  F  F15  1  0.346639  0.884520  0.956881  1
  F  F16  1  0.115480  0.653361  0.956881  1
  F  F17  1  0.652226  0.112985  0.039724  1
  F  F18  1  0.652226  0.112985  0.460276  1
  F  F19  1  0.346639  0.884520  0.543119  1
  F  F20  1  0.245037  0.438039  0.750000  1
  F  F21  1  0.757644  0.565673  0.250000  1
  F  F22  1  0.561961  0.754963  0.750000  1
  F  F23  1  0.434328  0.242356  0.250000  1
  F  F24  1  0.603773  0.396227  0.540618  1
  F  F25  1  0.394464  0.605535  0.461013  1
  F  F26  1  0.394464  0.605535  0.038987  1
  F  F27  1  0.603773  0.396227  0.959382  1
