# generated using pymatgen
data_Ho3Ta2Bi3O14
_symmetry_space_group_name_H-M   'P 1'
_cell_length_a   6.42903097
_cell_length_b   6.71062546
_cell_length_c   7.62232511
_cell_angle_alpha   106.62803667
_cell_angle_beta   89.55416411
_cell_angle_gamma   98.20881249
_symmetry_Int_Tables_number   1
_chemical_formula_structural   Ho3Ta2Bi3O14
_chemical_formula_sum   'Ho3 Ta2 Bi3 O14'
_cell_volume   311.67888123
_cell_formula_units_Z   1
loop_
 _symmetry_equiv_pos_site_id
 _symmetry_equiv_pos_as_xyz
  1  'x, y, z'
loop_
 _atom_site_type_symbol
 _atom_site_label
 _atom_site_symmetry_multiplicity
 _atom_site_fract_x
 _atom_site_fract_y
 _atom_site_fract_z
 _atom_site_occupancy
  Ho  Ho0  1  0.548663  0.994213  0.754869  1
  Ho  Ho1  1  0.453513  0.004055  0.250347  1
  Ho  Ho2  1  0.253685  0.537903  0.883036  1
  Ta  Ta3  1  0.003376  0.008169  0.502283  1
  Ta  Ta4  1  0.005658  0.007397  0.999836  1
  Bi  Bi5  1  0.745029  0.486297  0.116049  1
  Bi  Bi6  1  0.726094  0.452893  0.612088  1
  Bi  Bi7  1  0.264987  0.541999  0.393984  1
  O  O8  1  0.444170  0.652998  0.165958  1
  O  O9  1  0.539839  0.340925  0.822224  1
  O  O10  1  0.294977  0.924628  0.950060  1
  O  O11  1  0.711121  0.040658  0.052164  1
  O  O12  1  0.290276  0.924175  0.516062  1
  O  O13  1  0.710475  0.078958  0.486715  1
  O  O14  1  0.524369  0.351635  0.347951  1
  O  O15  1  0.457969  0.646370  0.661069  1
  O  O16  1  0.936085  0.678824  0.955239  1
  O  O17  1  0.089396  0.305208  0.027464  1
  O  O18  1  0.094735  0.312063  0.624036  1
  O  O19  1  0.901156  0.704607  0.377700  1
  O  O20  1  0.909579  0.951820  0.737756  1
  O  O21  1  0.094847  0.054205  0.263112  1
