# generated using pymatgen
data_CeDy14Ho(CdRu)4
_symmetry_space_group_name_H-M   'P 1'
_cell_length_a   9.66594848
_cell_length_b   9.66732885
_cell_length_c   9.66732902
_cell_angle_alpha   59.35636166
_cell_angle_beta   59.35592183
_cell_angle_gamma   59.35591772
_symmetry_Int_Tables_number   1
_chemical_formula_structural   CeDy14Ho(CdRu)4
_chemical_formula_sum   'Ce1 Dy14 Ho1 Cd4 Ru4'
_cell_volume   629.40427902
_cell_formula_units_Z   1
loop_
 _symmetry_equiv_pos_site_id
 _symmetry_equiv_pos_as_xyz
  1  'x, y, z'
loop_
 _atom_site_type_symbol
 _atom_site_label
 _atom_site_symmetry_multiplicity
 _atom_site_fract_x
 _atom_site_fract_y
 _atom_site_fract_z
 _atom_site_occupancy
  Ce  Ce0  1  0.342493  0.342582  0.342582  1
  Dy  Dy1  1  0.562560  0.562502  0.937750  1
  Dy  Dy2  1  0.938591  0.561062  0.938661  1
  Dy  Dy3  1  0.561184  0.938528  0.938528  1
  Dy  Dy4  1  0.938591  0.938661  0.561062  1
  Dy  Dy5  1  0.562560  0.937750  0.562502  1
  Dy  Dy6  1  0.937814  0.562455  0.562455  1
  Dy  Dy7  1  0.189194  0.189200  0.812248  1
  Dy  Dy8  1  0.810949  0.188066  0.810813  1
  Dy  Dy9  1  0.187996  0.810948  0.810947  1
  Dy  Dy10  1  0.810949  0.810814  0.188066  1
  Dy  Dy11  1  0.189193  0.812248  0.189199  1
  Dy  Dy12  1  0.812288  0.189260  0.189260  1
  Dy  Dy13  1  0.346876  0.346908  0.956669  1
  Dy  Dy14  1  0.346876  0.956669  0.346908  1
  Ho  Ho15  1  0.956987  0.346818  0.346818  1
  Cd  Cd16  1  0.579854  0.579722  0.257902  1
  Cd  Cd17  1  0.579854  0.257902  0.579722  1
  Cd  Cd18  1  0.257850  0.579763  0.579763  1
  Cd  Cd19  1  0.579871  0.579706  0.579706  1
  Ru  Ru20  1  0.146240  0.146703  0.575384  1
  Ru  Ru21  1  0.146240  0.575384  0.146703  1
  Ru  Ru22  1  0.575588  0.146478  0.146478  1
  Ru  Ru23  1  0.139397  0.139873  0.139873  1
