# generated using pymatgen
data_Rb4Yb(VSe4)2
_symmetry_space_group_name_H-M   'P 1'
_cell_length_a   9.67267420
_cell_length_b   9.81955637
_cell_length_c   11.79881352
_cell_angle_alpha   105.50185962
_cell_angle_beta   103.34871268
_cell_angle_gamma   93.71385706
_symmetry_Int_Tables_number   1
_chemical_formula_structural   Rb4Yb(VSe4)2
_chemical_formula_sum   'Rb8 Yb2 V4 Se16'
_cell_volume   1041.11949508
_cell_formula_units_Z   2
loop_
 _symmetry_equiv_pos_site_id
 _symmetry_equiv_pos_as_xyz
  1  'x, y, z'
loop_
 _atom_site_type_symbol
 _atom_site_label
 _atom_site_symmetry_multiplicity
 _atom_site_fract_x
 _atom_site_fract_y
 _atom_site_fract_z
 _atom_site_occupancy
  Rb  Rb0  1  0.441747  0.518042  0.756460  1
  Rb  Rb1  1  0.558253  0.481958  0.243540  1
  Rb  Rb2  1  0.264466  0.998966  0.972653  1
  Rb  Rb3  1  0.735534  0.001034  0.027347  1
  Rb  Rb4  1  0.103745  0.742743  0.524699  1
  Rb  Rb5  1  0.896255  0.257257  0.475301  1
  Rb  Rb6  1  0.882257  0.318052  0.883768  1
  Rb  Rb7  1  0.117743  0.681948  0.116232  1
  Yb  Yb8  1  0.647413  0.860129  0.575426  1
  Yb  Yb9  1  0.352587  0.139871  0.424574  1
  V  V10  1  0.452574  0.111919  0.732703  1
  V  V11  1  0.547426  0.888081  0.267297  1
  V  V12  1  0.873393  0.678102  0.756108  1
  V  V13  1  0.126607  0.321898  0.243892  1
  Se  Se14  1  0.520818  0.257441  0.925080  1
  Se  Se15  1  0.479182  0.742559  0.074920  1
  Se  Se16  1  0.454962  0.878645  0.736638  1
  Se  Se17  1  0.545038  0.121355  0.263362  1
  Se  Se18  1  0.228822  0.142469  0.632315  1
  Se  Se19  1  0.771178  0.857531  0.367685  1
  Se  Se20  1  0.919657  0.917382  0.766702  1
  Se  Se21  1  0.080343  0.082618  0.233298  1
  Se  Se22  1  0.075160  0.570372  0.759025  1
  Se  Se23  1  0.924840  0.429628  0.240975  1
  Se  Se24  1  0.613713  0.167481  0.627522  1
  Se  Se25  1  0.386287  0.832519  0.372478  1
  Se  Se26  1  0.790182  0.657357  0.917798  1
  Se  Se27  1  0.209818  0.342643  0.082202  1
  Se  Se28  1  0.701255  0.569768  0.576507  1
  Se  Se29  1  0.298745  0.430232  0.423493  1
