# generated using pymatgen
data_Nd5In4CoAg
_symmetry_space_group_name_H-M   'P 1'
_cell_length_a   3.70876000
_cell_length_b   8.36418420
_cell_length_c   18.74959500
_cell_angle_alpha   89.82016315
_cell_angle_beta   90.00000000
_cell_angle_gamma   90.00000000
_symmetry_Int_Tables_number   1
_chemical_formula_structural   Nd5In4CoAg
_chemical_formula_sum   'Nd10 In8 Co2 Ag2'
_cell_volume   581.62366777
_cell_formula_units_Z   2
loop_
 _symmetry_equiv_pos_site_id
 _symmetry_equiv_pos_as_xyz
  1  'x, y, z'
loop_
 _atom_site_type_symbol
 _atom_site_label
 _atom_site_symmetry_multiplicity
 _atom_site_fract_x
 _atom_site_fract_y
 _atom_site_fract_z
 _atom_site_occupancy
  Nd  Nd0  1  0.500000  0.212555  0.774687  1
  Nd  Nd1  1  0.500000  0.787445  0.225313  1
  Nd  Nd2  1  0.500000  0.232394  0.284532  1
  Nd  Nd3  1  0.500000  0.767606  0.715468  1
  Nd  Nd4  1  0.500000  0.116890  0.587582  1
  Nd  Nd5  1  0.500000  0.883110  0.412418  1
  Nd  Nd6  1  0.500000  0.375214  0.076755  1
  Nd  Nd7  1  0.500000  0.624786  0.923245  1
  Nd  Nd8  1  0.500000  0.000000  0.000000  1
  Nd  Nd9  1  0.500000  0.500000  0.500000  1
  In  In10  1  0.000000  0.077761  0.151120  1
  In  In11  1  0.000000  0.922239  0.848880  1
  In  In12  1  0.000000  0.427090  0.650072  1
  In  In13  1  0.000000  0.572910  0.349928  1
  In  In14  1  0.000000  0.204075  0.432148  1
  In  In15  1  0.000000  0.795925  0.567852  1
  In  In16  1  0.000000  0.290229  0.927295  1
  In  In17  1  0.000000  0.709771  0.072705  1
  Co  Co18  1  0.000000  0.014095  0.694718  1
  Co  Co19  1  0.000000  0.985905  0.305282  1
  Ag  Ag20  1  0.000000  0.481271  0.199393  1
  Ag  Ag21  1  0.000000  0.518729  0.800607  1
