# generated using pymatgen
data_Nb3Ga2Tc3
_symmetry_space_group_name_H-M   'P 1'
_cell_length_a   5.02107103
_cell_length_b   5.02107103
_cell_length_c   5.02107103
_cell_angle_alpha   90.30739099
_cell_angle_beta   89.69260901
_cell_angle_gamma   90.30739099
_symmetry_Int_Tables_number   1
_chemical_formula_structural   Nb3Ga2Tc3
_chemical_formula_sum   'Nb3 Ga2 Tc3'
_cell_volume   126.58155088
_cell_formula_units_Z   1
loop_
 _symmetry_equiv_pos_site_id
 _symmetry_equiv_pos_as_xyz
  1  'x, y, z'
loop_
 _atom_site_type_symbol
 _atom_site_label
 _atom_site_symmetry_multiplicity
 _atom_site_fract_x
 _atom_site_fract_y
 _atom_site_fract_z
 _atom_site_occupancy
  Nb  Nb0  1  0.998483  0.498483  0.250000  1
  Nb  Nb1  1  0.501517  0.750000  0.998483  1
  Nb  Nb2  1  0.250000  0.001517  0.501517  1
  Ga  Ga3  1  0.502642  0.497358  0.502642  1
  Ga  Ga4  1  0.997358  0.002642  0.997358  1
  Tc  Tc5  1  0.999769  0.499769  0.750000  1
  Tc  Tc6  1  0.500231  0.250000  0.999769  1
  Tc  Tc7  1  0.750000  0.000231  0.500231  1
