# generated using pymatgen
data_TbDyMn9Fe3P7
_symmetry_space_group_name_H-M   'P 1'
_cell_length_a   3.56745200
_cell_length_b   9.26783546
_cell_length_c   9.26662457
_cell_angle_alpha   120.00225179
_cell_angle_beta   90.00000000
_cell_angle_gamma   90.00000000
_symmetry_Int_Tables_number   1
_chemical_formula_structural   TbDyMn9Fe3P7
_chemical_formula_sum   'Tb1 Dy1 Mn9 Fe3 P7'
_cell_volume   265.32538203
_cell_formula_units_Z   1
loop_
 _symmetry_equiv_pos_site_id
 _symmetry_equiv_pos_as_xyz
  1  'x, y, z'
loop_
 _atom_site_type_symbol
 _atom_site_label
 _atom_site_symmetry_multiplicity
 _atom_site_fract_x
 _atom_site_fract_y
 _atom_site_fract_z
 _atom_site_occupancy
  Tb  Tb0  1  0.500000  0.333415  0.666584  1
  Dy  Dy1  1  0.000000  0.666643  0.333456  1
  Mn  Mn2  1  0.000000  0.377806  0.950398  1
  Mn  Mn3  1  0.000000  0.049556  0.427467  1
  Mn  Mn4  1  0.000000  0.572556  0.622051  1
  Mn  Mn5  1  0.500000  0.954468  0.562598  1
  Mn  Mn6  1  0.500000  0.437454  0.392001  1
  Mn  Mn7  1  0.500000  0.608126  0.045546  1
  Mn  Mn8  1  0.500000  0.126191  0.896013  1
  Mn  Mn9  1  0.500000  0.104060  0.230209  1
  Mn  Mn10  1  0.500000  0.769753  0.873649  1
  Fe  Fe11  1  0.000000  0.882197  0.727059  1
  Fe  Fe12  1  0.000000  0.272954  0.155206  1
  Fe  Fe13  1  0.000000  0.844841  0.117792  1
  P  P14  1  0.000000  0.118352  0.711015  1
  P  P15  1  0.000000  0.288997  0.407318  1
  P  P16  1  0.000000  0.592654  0.881526  1
  P  P17  1  0.500000  0.720702  0.594850  1
  P  P18  1  0.500000  0.405190  0.125971  1
  P  P19  1  0.500000  0.874071  0.279354  1
  P  P20  1  0.000000  0.000014  0.999938  1
