# generated using pymatgen
data_Li2Tb2Si3
_symmetry_space_group_name_H-M   'P 1'
_cell_length_a   9.31483318
_cell_length_b   9.31483337
_cell_length_c   6.69807000
_cell_angle_alpha   90.00000000
_cell_angle_beta   90.00000000
_cell_angle_gamma   153.49324992
_symmetry_Int_Tables_number   1
_chemical_formula_structural   Li2Tb2Si3
_chemical_formula_sum   'Li4 Tb4 Si6'
_cell_volume   259.37606485
_cell_formula_units_Z   2
loop_
 _symmetry_equiv_pos_site_id
 _symmetry_equiv_pos_as_xyz
  1  'x, y, z'
loop_
 _atom_site_type_symbol
 _atom_site_label
 _atom_site_symmetry_multiplicity
 _atom_site_fract_x
 _atom_site_fract_y
 _atom_site_fract_z
 _atom_site_occupancy
  Li  Li0  1  0.809867  0.190133  0.558943  1
  Li  Li1  1  0.190133  0.809867  0.441057  1
  Li  Li2  1  0.190133  0.809867  0.058943  1
  Li  Li3  1  0.809867  0.190133  0.941057  1
  Tb  Tb4  1  0.552383  0.447617  0.250000  1
  Tb  Tb5  1  0.447617  0.552383  0.750000  1
  Tb  Tb6  1  0.344439  0.655561  0.250000  1
  Tb  Tb7  1  0.655561  0.344439  0.750000  1
  Si  Si8  1  0.940789  0.059211  0.072441  1
  Si  Si9  1  0.059211  0.940789  0.927559  1
  Si  Si10  1  0.059211  0.940789  0.572441  1
  Si  Si11  1  0.940789  0.059211  0.427559  1
  Si  Si12  1  0.719669  0.280331  0.250000  1
  Si  Si13  1  0.280331  0.719669  0.750000  1
