# generated using pymatgen
data_La7Ho11(TmSn8)2
_symmetry_space_group_name_H-M   'P 1'
_cell_length_a   8.22248035
_cell_length_b   8.31846703
_cell_length_c   15.69603100
_cell_angle_alpha   90.03182844
_cell_angle_beta   90.29141083
_cell_angle_gamma   89.76859701
_symmetry_Int_Tables_number   1
_chemical_formula_structural   La7Ho11(TmSn8)2
_chemical_formula_sum   'La7 Ho11 Tm2 Sn16'
_cell_volume   1073.56110955
_cell_formula_units_Z   1
loop_
 _symmetry_equiv_pos_site_id
 _symmetry_equiv_pos_as_xyz
  1  'x, y, z'
loop_
 _atom_site_type_symbol
 _atom_site_label
 _atom_site_symmetry_multiplicity
 _atom_site_fract_x
 _atom_site_fract_y
 _atom_site_fract_z
 _atom_site_occupancy
  La  La0  1  0.981348  0.820419  0.901659  1
  La  La1  1  0.518307  0.321515  0.096619  1
  La  La2  1  0.019830  0.179374  0.403677  1
  La  La3  1  0.520302  0.323012  0.403780  1
  La  La4  1  0.018257  0.178179  0.096551  1
  La  La5  1  0.482924  0.677955  0.904027  1
  La  La6  1  0.980884  0.819560  0.596752  1
  Ho  Ho7  1  0.633631  0.161597  0.622439  1
  Ho  Ho8  1  0.136225  0.338273  0.876890  1
  Ho  Ho9  1  0.364309  0.838201  0.123291  1
  Ho  Ho10  1  0.867747  0.660970  0.378845  1
  Ho  Ho11  1  0.367926  0.838200  0.378166  1
  Ho  Ho12  1  0.864490  0.662004  0.122739  1
  Ho  Ho13  1  0.635448  0.160975  0.875337  1
  Ho  Ho14  1  0.133163  0.339603  0.621347  1
  Ho  Ho15  1  0.474684  0.677484  0.599629  1
  Ho  Ho16  1  0.798493  0.496522  0.748634  1
  Ho  Ho17  1  0.299950  0.003943  0.748609  1
  Tm  Tm18  1  0.201190  0.505066  0.250797  1
  Tm  Tm19  1  0.700296  0.994907  0.250378  1
  Sn  Sn20  1  0.700407  0.959356  0.456342  1
  Sn  Sn21  1  0.198627  0.541963  0.044037  1
  Sn  Sn22  1  0.301980  0.040743  0.956079  1
  Sn  Sn23  1  0.790436  0.465636  0.545495  1
  Sn  Sn24  1  0.301975  0.036983  0.543955  1
  Sn  Sn25  1  0.802193  0.456684  0.956451  1
  Sn  Sn26  1  0.698243  0.958817  0.043293  1
  Sn  Sn27  1  0.207313  0.544437  0.459006  1
  Sn  Sn28  1  0.434444  0.375406  0.748904  1
  Sn  Sn29  1  0.935062  0.126541  0.749233  1
  Sn  Sn30  1  0.565545  0.626512  0.250575  1
  Sn  Sn31  1  0.064705  0.872925  0.250925  1
  Sn  Sn32  1  0.665819  0.854602  0.746573  1
  Sn  Sn33  1  0.174991  0.640504  0.748887  1
  Sn  Sn34  1  0.329485  0.142142  0.250176  1
  Sn  Sn35  1  0.829368  0.358991  0.249900  1
