# generated using pymatgen
data_Pr4Th(PdO6)2
_symmetry_space_group_name_H-M   'P 1'
_cell_length_a   7.16678289
_cell_length_b   7.16678372
_cell_length_c   7.59505836
_cell_angle_alpha   74.51057394
_cell_angle_beta   74.51056334
_cell_angle_gamma   50.54189605
_symmetry_Int_Tables_number   1
_chemical_formula_structural   Pr4Th(PdO6)2
_chemical_formula_sum   'Pr4 Th1 Pd2 O12'
_cell_volume   287.76061020
_cell_formula_units_Z   1
loop_
 _symmetry_equiv_pos_site_id
 _symmetry_equiv_pos_as_xyz
  1  'x, y, z'
loop_
 _atom_site_type_symbol
 _atom_site_label
 _atom_site_symmetry_multiplicity
 _atom_site_fract_x
 _atom_site_fract_y
 _atom_site_fract_z
 _atom_site_occupancy
  Pr  Pr0  1  0.693857  0.693857  0.646179  1
  Pr  Pr1  1  0.694440  0.694440  0.159133  1
  Pr  Pr2  1  0.304034  0.304034  0.841649  1
  Pr  Pr3  1  0.000036  0.000036  0.498691  1
  Th  Th4  1  0.306049  0.306049  0.354620  1
  Pd  Pd5  1  0.753817  0.246339  0.000798  1
  Pd  Pd6  1  0.246339  0.753817  0.000798  1
  O  O7  1  0.100575  0.592089  0.566343  1
  O  O8  1  0.000389  0.000389  0.178543  1
  O  O9  1  0.397954  0.914638  0.423502  1
  O  O10  1  0.499617  0.499617  0.181702  1
  O  O11  1  0.099978  0.570507  0.089389  1
  O  O12  1  0.914638  0.397954  0.423502  1
  O  O13  1  0.998621  0.998621  0.823584  1
  O  O14  1  0.592089  0.100574  0.566343  1
  O  O15  1  0.499111  0.499111  0.822236  1
  O  O16  1  0.570507  0.099978  0.089389  1
  O  O17  1  0.425231  0.902717  0.916799  1
  O  O18  1  0.902717  0.425231  0.916799  1
