# generated using pymatgen
data_Ba3Tc2P6RuRh3
_symmetry_space_group_name_H-M   'P 1'
_cell_length_a   8.92057499
_cell_length_b   8.92890748
_cell_length_c   8.92890726
_cell_angle_alpha   153.63722913
_cell_angle_beta   91.78488262
_cell_angle_gamma   94.18342095
_symmetry_Int_Tables_number   1
_chemical_formula_structural   Ba3Tc2P6RuRh3
_chemical_formula_sum   'Ba3 Tc2 P6 Ru1 Rh3'
_cell_volume   307.39778836
_cell_formula_units_Z   1
loop_
 _symmetry_equiv_pos_site_id
 _symmetry_equiv_pos_as_xyz
  1  'x, y, z'
loop_
 _atom_site_type_symbol
 _atom_site_label
 _atom_site_symmetry_multiplicity
 _atom_site_fract_x
 _atom_site_fract_y
 _atom_site_fract_z
 _atom_site_occupancy
  Ba  Ba0  1  0.331594  0.331459  0.000135  1
  Ba  Ba1  1  0.667792  0.666836  0.000956  1
  Ba  Ba2  1  0.000883  0.001123  0.999760  1
  Tc  Tc3  1  0.582718  0.833360  0.749358  1
  Tc  Tc4  1  0.247808  0.498833  0.748974  1
  P  P5  1  0.320269  0.666057  0.654211  1
  P  P6  1  0.681602  0.336565  0.345037  1
  P  P7  1  0.988664  0.335882  0.652781  1
  P  P8  1  0.345540  0.999083  0.346457  1
  P  P9  1  0.011004  0.665008  0.345996  1
  P  P10  1  0.652300  0.997695  0.654607  1
  Ru  Ru11  1  0.753423  0.503803  0.249619  1
  Rh  Rh12  1  0.079856  0.830074  0.249782  1
  Rh  Rh13  1  0.416505  0.165796  0.250709  1
  Rh  Rh14  1  0.920042  0.168422  0.751621  1
