# generated using pymatgen
data_Zr6Ti4Al12Fe2Rh5
_symmetry_space_group_name_H-M   'P 1'
_cell_length_a   8.75356818
_cell_length_b   8.75356740
_cell_length_c   8.72579800
_cell_angle_alpha   60.10488521
_cell_angle_beta   60.10488812
_cell_angle_gamma   60.00808352
_symmetry_Int_Tables_number   1
_chemical_formula_structural   Zr6Ti4Al12Fe2Rh5
_chemical_formula_sum   'Zr6 Ti4 Al12 Fe2 Rh5'
_cell_volume   473.55852769
_cell_formula_units_Z   1
loop_
 _symmetry_equiv_pos_site_id
 _symmetry_equiv_pos_as_xyz
  1  'x, y, z'
loop_
 _atom_site_type_symbol
 _atom_site_label
 _atom_site_symmetry_multiplicity
 _atom_site_fract_x
 _atom_site_fract_y
 _atom_site_fract_z
 _atom_site_occupancy
  Zr  Zr0  1  0.695863  0.695863  0.304137  1
  Zr  Zr1  1  0.304975  0.694822  0.308838  1
  Zr  Zr2  1  0.694822  0.304975  0.308838  1
  Zr  Zr3  1  0.305569  0.305569  0.694431  1
  Zr  Zr4  1  0.694822  0.304975  0.691366  1
  Zr  Zr5  1  0.304975  0.694822  0.691366  1
  Ti  Ti6  1  0.886450  0.886450  0.352198  1
  Ti  Ti7  1  0.884190  0.349754  0.883029  1
  Ti  Ti8  1  0.349754  0.884190  0.883029  1
  Ti  Ti9  1  0.886450  0.886450  0.874901  1
  Al  Al10  1  0.115891  0.115891  0.646032  1
  Al  Al11  1  0.115623  0.648335  0.118020  1
  Al  Al12  1  0.648335  0.115623  0.118020  1
  Al  Al13  1  0.115891  0.115891  0.122185  1
  Al  Al14  1  0.665389  0.665389  0.004438  1
  Al  Al15  1  0.670299  0.003174  0.663263  1
  Al  Al16  1  0.003174  0.670299  0.663263  1
  Al  Al17  1  0.665389  0.665389  0.664781  1
  Al  Al18  1  0.334586  0.334586  0.996541  1
  Al  Al19  1  0.328134  0.997230  0.337318  1
  Al  Al20  1  0.997230  0.328134  0.337318  1
  Al  Al21  1  0.334586  0.334586  0.334286  1
  Fe  Fe22  1  0.001480  0.001480  0.998520  1
  Fe  Fe23  1  0.996812  0.996812  0.503188  1
  Rh  Rh24  1  0.499684  0.999638  0.501565  1
  Rh  Rh25  1  0.999638  0.499684  0.501565  1
  Rh  Rh26  1  0.500665  0.500665  0.999335  1
  Rh  Rh27  1  0.999638  0.499684  0.999115  1
  Rh  Rh28  1  0.499684  0.999638  0.999115  1
