# generated using pymatgen
data_ThSiIrPdPt
_symmetry_space_group_name_H-M   'P 1'
_cell_length_a   4.11277000
_cell_length_b   4.11277000
_cell_length_c   10.87262700
_cell_angle_alpha   90.00000000
_cell_angle_beta   90.00000000
_cell_angle_gamma   90.00000000
_symmetry_Int_Tables_number   1
_chemical_formula_structural   ThSiIrPdPt
_chemical_formula_sum   'Th2 Si2 Ir2 Pd2 Pt2'
_cell_volume   183.90914916
_cell_formula_units_Z   2
loop_
 _symmetry_equiv_pos_site_id
 _symmetry_equiv_pos_as_xyz
  1  'x, y, z'
loop_
 _atom_site_type_symbol
 _atom_site_label
 _atom_site_symmetry_multiplicity
 _atom_site_fract_x
 _atom_site_fract_y
 _atom_site_fract_z
 _atom_site_occupancy
  Th  Th0  1  0.000000  0.500000  0.255830  1
  Th  Th1  1  0.500000  0.000000  0.744170  1
  Si  Si2  1  0.000000  0.500000  0.884167  1
  Si  Si3  1  0.500000  0.000000  0.115833  1
  Ir  Ir4  1  0.000000  0.000000  0.000000  1
  Ir  Ir5  1  0.500000  0.500000  0.000000  1
  Pd  Pd6  1  0.000000  0.000000  0.500000  1
  Pd  Pd7  1  0.500000  0.500000  0.500000  1
  Pt  Pt8  1  0.000000  0.500000  0.668581  1
  Pt  Pt9  1  0.500000  0.000000  0.331419  1
