# generated using pymatgen
data_PrY17(ErSn8)2
_symmetry_space_group_name_H-M   'P 1'
_cell_length_a   8.05848512
_cell_length_b   8.19576544
_cell_length_c   15.51494982
_cell_angle_alpha   90.00772788
_cell_angle_beta   89.57738747
_cell_angle_gamma   89.82650566
_symmetry_Int_Tables_number   1
_chemical_formula_structural   PrY17(ErSn8)2
_chemical_formula_sum   'Pr1 Y17 Er2 Sn16'
_cell_volume   1024.65931813
_cell_formula_units_Z   1
loop_
 _symmetry_equiv_pos_site_id
 _symmetry_equiv_pos_as_xyz
  1  'x, y, z'
loop_
 _atom_site_type_symbol
 _atom_site_label
 _atom_site_symmetry_multiplicity
 _atom_site_fract_x
 _atom_site_fract_y
 _atom_site_fract_z
 _atom_site_occupancy
  Pr  Pr0  1  0.016098  0.179424  0.904687  1
  Y  Y1  1  0.365272  0.837272  0.876513  1
  Y  Y2  1  0.868083  0.662686  0.620794  1
  Y  Y3  1  0.631014  0.162128  0.377410  1
  Y  Y4  1  0.134789  0.338153  0.123182  1
  Y  Y5  1  0.634699  0.163229  0.123801  1
  Y  Y6  1  0.131281  0.337719  0.377686  1
  Y  Y7  1  0.369419  0.837514  0.621706  1
  Y  Y8  1  0.866569  0.662070  0.877350  1
  Y  Y9  1  0.520739  0.322710  0.902925  1
  Y  Y10  1  0.023736  0.179076  0.598113  1
  Y  Y11  1  0.477513  0.678357  0.402145  1
  Y  Y12  1  0.980568  0.819238  0.097542  1
  Y  Y13  1  0.479654  0.679257  0.097812  1
  Y  Y14  1  0.977580  0.821388  0.402185  1
  Y  Y15  1  0.522159  0.321929  0.596180  1
  Y  Y16  1  0.199058  0.502942  0.749036  1
  Y  Y17  1  0.698722  0.996485  0.748875  1
  Er  Er18  1  0.801180  0.496961  0.250424  1
  Er  Er19  1  0.301548  0.003056  0.250832  1
  Sn  Sn20  1  0.299094  0.034290  0.044168  1
  Sn  Sn21  1  0.791479  0.463064  0.457627  1
  Sn  Sn22  1  0.709342  0.965690  0.541564  1
  Sn  Sn23  1  0.208240  0.540689  0.959544  1
  Sn  Sn24  1  0.698547  0.957085  0.960299  1
  Sn  Sn25  1  0.208548  0.536683  0.541138  1
  Sn  Sn26  1  0.291142  0.036145  0.458110  1
  Sn  Sn27  1  0.793075  0.463295  0.042164  1
  Sn  Sn28  1  0.565013  0.619172  0.749578  1
  Sn  Sn29  1  0.065078  0.878568  0.748890  1
  Sn  Sn30  1  0.435606  0.382166  0.250566  1
  Sn  Sn31  1  0.936220  0.118734  0.250247  1
  Sn  Sn32  1  0.332906  0.148638  0.749236  1
  Sn  Sn33  1  0.827315  0.353980  0.747574  1
  Sn  Sn34  1  0.669473  0.850983  0.250053  1
  Sn  Sn35  1  0.169244  0.649224  0.250043  1
