# generated using pymatgen
data_Tb2ZnFe2CuSi2
_symmetry_space_group_name_H-M   'P 1'
_cell_length_a   8.69528785
_cell_length_b   8.69528817
_cell_length_c   4.04064500
_cell_angle_alpha   90.00000000
_cell_angle_beta   90.00000000
_cell_angle_gamma   153.57023636
_symmetry_Int_Tables_number   1
_chemical_formula_structural   Tb2ZnFe2CuSi2
_chemical_formula_sum   'Tb2 Zn1 Fe2 Cu1 Si2'
_cell_volume   135.98050230
_cell_formula_units_Z   1
loop_
 _symmetry_equiv_pos_site_id
 _symmetry_equiv_pos_as_xyz
  1  'x, y, z'
loop_
 _atom_site_type_symbol
 _atom_site_label
 _atom_site_symmetry_multiplicity
 _atom_site_fract_x
 _atom_site_fract_y
 _atom_site_fract_z
 _atom_site_occupancy
  Tb  Tb0  1  0.616940  0.383060  0.250000  1
  Tb  Tb1  1  0.381520  0.618480  0.750000  1
  Zn  Zn2  1  0.963955  0.036045  0.250000  1
  Fe  Fe3  1  0.248652  0.751348  0.250000  1
  Fe  Fe4  1  0.750119  0.249881  0.750000  1
  Cu  Cu5  1  0.041499  0.958501  0.750000  1
  Si  Si6  1  0.813256  0.186744  0.250000  1
  Si  Si7  1  0.184060  0.815940  0.750000  1
