# generated using pymatgen
data_Ho7ErHg4
_symmetry_space_group_name_H-M   'P 1'
_cell_length_a   7.02600403
_cell_length_b   5.07912100
_cell_length_c   9.21406904
_cell_angle_alpha   90.00000000
_cell_angle_beta   89.98931514
_cell_angle_gamma   90.00000000
_symmetry_Int_Tables_number   1
_chemical_formula_structural   Ho7ErHg4
_chemical_formula_sum   'Ho7 Er1 Hg4'
_cell_volume   328.81256747
_cell_formula_units_Z   1
loop_
 _symmetry_equiv_pos_site_id
 _symmetry_equiv_pos_as_xyz
  1  'x, y, z'
loop_
 _atom_site_type_symbol
 _atom_site_label
 _atom_site_symmetry_multiplicity
 _atom_site_fract_x
 _atom_site_fract_y
 _atom_site_fract_z
 _atom_site_occupancy
  Ho  Ho0  1  0.330783  0.250000  0.074186  1
  Ho  Ho1  1  0.016734  0.750000  0.194005  1
  Ho  Ho2  1  0.516800  0.750000  0.305945  1
  Ho  Ho3  1  0.830660  0.250000  0.425775  1
  Ho  Ho4  1  0.169319  0.750000  0.574220  1
  Ho  Ho5  1  0.483252  0.250000  0.694045  1
  Ho  Ho6  1  0.983134  0.250000  0.805998  1
  Er  Er7  1  0.669248  0.750000  0.925809  1
  Hg  Hg8  1  0.762629  0.250000  0.102366  1
  Hg  Hg9  1  0.262661  0.250000  0.397525  1
  Hg  Hg10  1  0.737304  0.750000  0.602585  1
  Hg  Hg11  1  0.237473  0.750000  0.897541  1
