# generated using pymatgen
data_Nd12Tc2Ag3
_symmetry_space_group_name_H-M   'P 1'
_cell_length_a   8.69873749
_cell_length_b   8.69873826
_cell_length_c   8.69873792
_cell_angle_alpha   109.74344928
_cell_angle_beta   109.74345497
_cell_angle_gamma   108.92811565
_symmetry_Int_Tables_number   1
_chemical_formula_structural   Nd12Tc2Ag3
_chemical_formula_sum   'Nd12 Tc2 Ag3'
_cell_volume   506.66117688
_cell_formula_units_Z   1
loop_
 _symmetry_equiv_pos_site_id
 _symmetry_equiv_pos_as_xyz
  1  'x, y, z'
loop_
 _atom_site_type_symbol
 _atom_site_label
 _atom_site_symmetry_multiplicity
 _atom_site_fract_x
 _atom_site_fract_y
 _atom_site_fract_z
 _atom_site_occupancy
  Nd  Nd0  1  0.441657  0.188263  0.253394  1
  Nd  Nd1  1  0.558343  0.811737  0.746606  1
  Nd  Nd2  1  0.934869  0.188263  0.746606  1
  Nd  Nd3  1  0.188263  0.934869  0.746606  1
  Nd  Nd4  1  0.065131  0.811737  0.253394  1
  Nd  Nd5  1  0.811737  0.065131  0.253394  1
  Nd  Nd6  1  0.188263  0.441657  0.253394  1
  Nd  Nd7  1  0.811737  0.558343  0.746606  1
  Nd  Nd8  1  0.320061  0.320061  0.640122  1
  Nd  Nd9  1  0.679939  0.679939  0.359878  1
  Nd  Nd10  1  0.320061  0.679939  0.000000  1
  Nd  Nd11  1  0.679939  0.320061  0.000000  1
  Tc  Tc12  1  0.334182  0.334182  0.000000  1
  Tc  Tc13  1  0.665818  0.665818  0.000000  1
  Ag  Ag14  1  0.500000  0.000000  0.500000  1
  Ag  Ag15  1  0.000000  0.500000  0.500000  1
  Ag  Ag16  1  0.000000  0.000000  0.000000  1
