# generated using pymatgen
data_CeNp2Ni9
_symmetry_space_group_name_H-M   'P 1'
_cell_length_a   4.88802200
_cell_length_b   4.88802180
_cell_length_c   16.32439100
_cell_angle_alpha   90.00000000
_cell_angle_beta   90.00000000
_cell_angle_gamma   120.00000133
_symmetry_Int_Tables_number   1
_chemical_formula_structural   CeNp2Ni9
_chemical_formula_sum   'Ce2 Np4 Ni18'
_cell_volume   337.77997616
_cell_formula_units_Z   2
loop_
 _symmetry_equiv_pos_site_id
 _symmetry_equiv_pos_as_xyz
  1  'x, y, z'
loop_
 _atom_site_type_symbol
 _atom_site_label
 _atom_site_symmetry_multiplicity
 _atom_site_fract_x
 _atom_site_fract_y
 _atom_site_fract_z
 _atom_site_occupancy
  Ce  Ce0  1  0.333333  0.666667  0.250000  1
  Ce  Ce1  1  0.666667  0.333333  0.750000  1
  Np  Np2  1  0.333333  0.666667  0.468376  1
  Np  Np3  1  0.666667  0.333333  0.968376  1
  Np  Np4  1  0.666667  0.333333  0.531624  1
  Np  Np5  1  0.333333  0.666667  0.031624  1
  Ni  Ni6  1  0.833222  0.166778  0.374219  1
  Ni  Ni7  1  0.166778  0.833222  0.874219  1
  Ni  Ni8  1  0.833222  0.666445  0.125781  1
  Ni  Ni9  1  0.166778  0.333555  0.625781  1
  Ni  Ni10  1  0.000000  0.000000  0.500000  1
  Ni  Ni11  1  0.666445  0.833222  0.874219  1
  Ni  Ni12  1  0.833222  0.666445  0.374219  1
  Ni  Ni13  1  0.166778  0.333555  0.874219  1
  Ni  Ni14  1  0.333555  0.166778  0.125781  1
  Ni  Ni15  1  0.666667  0.333333  0.250000  1
  Ni  Ni16  1  0.833222  0.166778  0.125781  1
  Ni  Ni17  1  0.000000  0.000000  0.750000  1
  Ni  Ni18  1  0.666445  0.833222  0.625781  1
  Ni  Ni19  1  0.333555  0.166778  0.374219  1
  Ni  Ni20  1  0.000000  0.000000  0.000000  1
  Ni  Ni21  1  0.166778  0.833222  0.625781  1
  Ni  Ni22  1  0.333333  0.666667  0.750000  1
  Ni  Ni23  1  0.000000  0.000000  0.250000  1
