# generated using pymatgen
data_Ba6Ca2ScUSe12
_symmetry_space_group_name_H-M   'P 1'
_cell_length_a   8.85894390
_cell_length_b   8.85894373
_cell_length_c   8.85894429
_cell_angle_alpha   91.96425280
_cell_angle_beta   91.96425786
_cell_angle_gamma   91.96426384
_symmetry_Int_Tables_number   1
_chemical_formula_structural   Ba6Ca2ScUSe12
_chemical_formula_sum   'Ba6 Ca2 Sc1 U1 Se12'
_cell_volume   694.00343067
_cell_formula_units_Z   1
loop_
 _symmetry_equiv_pos_site_id
 _symmetry_equiv_pos_as_xyz
  1  'x, y, z'
loop_
 _atom_site_type_symbol
 _atom_site_label
 _atom_site_symmetry_multiplicity
 _atom_site_fract_x
 _atom_site_fract_y
 _atom_site_fract_z
 _atom_site_occupancy
  Ba  Ba0  1  0.869741  0.623089  0.261972  1
  Ba  Ba1  1  0.261972  0.869741  0.623089  1
  Ba  Ba2  1  0.623089  0.261972  0.869741  1
  Ba  Ba3  1  0.738028  0.130259  0.376911  1
  Ba  Ba4  1  0.376911  0.738028  0.130259  1
  Ba  Ba5  1  0.130259  0.376911  0.738028  1
  Ca  Ca6  1  0.256636  0.256636  0.256636  1
  Ca  Ca7  1  0.743364  0.743364  0.743364  1
  Sc  Sc8  1  0.500000  0.500000  0.500000  1
  U  U9  1  0.000000  0.000000  0.000000  1
  Se  Se10  1  0.205150  0.549300  0.412402  1
  Se  Se11  1  0.412402  0.205150  0.549300  1
  Se  Se12  1  0.549300  0.412402  0.205150  1
  Se  Se13  1  0.917298  0.045011  0.702274  1
  Se  Se14  1  0.702274  0.917298  0.045011  1
  Se  Se15  1  0.045011  0.702274  0.917298  1
  Se  Se16  1  0.794850  0.450700  0.587598  1
  Se  Se17  1  0.587598  0.794850  0.450700  1
  Se  Se18  1  0.450700  0.587598  0.794850  1
  Se  Se19  1  0.082702  0.954989  0.297726  1
  Se  Se20  1  0.297726  0.082702  0.954989  1
  Se  Se21  1  0.954989  0.297726  0.082702  1
