# generated using pymatgen
data_Li3Co8NiP7Ru2
_symmetry_space_group_name_H-M   'P 1'
_cell_length_a   8.93477711
_cell_length_b   8.91125965
_cell_length_c   3.59752200
_cell_angle_alpha   90.00000000
_cell_angle_beta   90.00000000
_cell_angle_gamma   119.65607506
_symmetry_Int_Tables_number   1
_chemical_formula_structural   Li3Co8NiP7Ru2
_chemical_formula_sum   'Li3 Co8 Ni1 P7 Ru2'
_cell_volume   248.91530474
_cell_formula_units_Z   1
loop_
 _symmetry_equiv_pos_site_id
 _symmetry_equiv_pos_as_xyz
  1  'x, y, z'
loop_
 _atom_site_type_symbol
 _atom_site_label
 _atom_site_symmetry_multiplicity
 _atom_site_fract_x
 _atom_site_fract_y
 _atom_site_fract_z
 _atom_site_occupancy
  Li  Li0  1  0.222614  0.099621  0.500000  1
  Li  Li1  1  0.331871  0.665807  0.000000  1
  Li  Li2  1  0.665889  0.335184  0.500000  1
  Co  Co3  1  0.715659  0.880361  0.000000  1
  Co  Co4  1  0.164897  0.282299  0.000000  1
  Co  Co5  1  0.121418  0.837632  0.000000  1
  Co  Co6  1  0.626231  0.571167  0.000000  1
  Co  Co7  1  0.938676  0.372739  0.000000  1
  Co  Co8  1  0.559406  0.947182  0.500000  1
  Co  Co9  1  0.390226  0.435208  0.500000  1
  Co  Co10  1  0.049668  0.607916  0.500000  1
  Ni  Ni11  1  0.435833  0.061778  0.000000  1
  P  P12  1  0.583107  0.709503  0.500000  1
  P  P13  1  0.125002  0.410831  0.500000  1
  P  P14  1  0.286463  0.870139  0.500000  1
  P  P15  1  0.998441  0.998065  0.000000  1
  P  P16  1  0.880960  0.584848  0.000000  1
  P  P17  1  0.701766  0.120683  0.000000  1
  P  P18  1  0.423805  0.304460  0.000000  1
  Ru  Ru19  1  0.871848  0.782343  0.500000  1
  Ru  Ru20  1  0.906220  0.122232  0.500000  1
