# generated using pymatgen
data_Yb2Dy2Ga15(SiIr2)3
_symmetry_space_group_name_H-M   'P 1'
_cell_length_a   7.56877656
_cell_length_b   7.49052147
_cell_length_c   9.53014484
_cell_angle_alpha   89.96569866
_cell_angle_beta   90.00785994
_cell_angle_gamma   119.85006902
_symmetry_Int_Tables_number   1
_chemical_formula_structural   Yb2Dy2Ga15(SiIr2)3
_chemical_formula_sum   'Yb2 Dy2 Ga15 Si3 Ir6'
_cell_volume   468.62120765
_cell_formula_units_Z   1
loop_
 _symmetry_equiv_pos_site_id
 _symmetry_equiv_pos_as_xyz
  1  'x, y, z'
loop_
 _atom_site_type_symbol
 _atom_site_label
 _atom_site_symmetry_multiplicity
 _atom_site_fract_x
 _atom_site_fract_y
 _atom_site_fract_z
 _atom_site_occupancy
  Yb  Yb0  1  0.672410  0.002460  0.248246  1
  Yb  Yb1  1  0.324748  0.993872  0.749819  1
  Dy  Dy2  1  0.996248  0.665264  0.247831  1
  Dy  Dy3  1  0.004353  0.339887  0.750567  1
  Ga  Ga4  1  0.128907  0.127494  0.250636  1
  Ga  Ga5  1  0.871509  0.869440  0.751052  1
  Ga  Ga6  1  0.342760  0.005256  0.420936  1
  Ga  Ga7  1  0.998332  0.325801  0.420375  1
  Ga  Ga8  1  0.664597  0.001713  0.579094  1
  Ga  Ga9  1  0.660579  0.997923  0.918775  1
  Ga  Ga10  1  0.341095  0.004048  0.080200  1
  Ga  Ga11  1  0.332846  0.327909  0.569164  1
  Ga  Ga12  1  0.660409  0.670405  0.432213  1
  Ga  Ga13  1  0.659950  0.670387  0.070146  1
  Ga  Ga14  1  0.338010  0.328544  0.929503  1
  Ga  Ga15  1  0.336764  0.547072  0.251025  1
  Ga  Ga16  1  0.662152  0.455232  0.752025  1
  Ga  Ga17  1  0.549047  0.340261  0.250799  1
  Ga  Ga18  1  0.452692  0.662182  0.750795  1
  Si  Si19  1  0.000588  0.328630  0.072105  1
  Si  Si20  1  0.998947  0.671171  0.929359  1
  Si  Si21  1  0.000956  0.666317  0.567272  1
  Ir  Ir22  1  0.697238  0.344593  0.002422  1
  Ir  Ir23  1  0.302287  0.655066  0.998454  1
  Ir  Ir24  1  0.314305  0.667118  0.503308  1
  Ir  Ir25  1  0.686939  0.345239  0.502178  1
  Ir  Ir26  1  0.000174  0.000224  0.000362  1
  Ir  Ir27  1  0.001159  0.986492  0.501337  1
