# generated using pymatgen
data_Ho8Ta11Si16Ru
_symmetry_space_group_name_H-M   'P 1'
_cell_length_a   7.01791269
_cell_length_b   7.01791274
_cell_length_c   12.93195900
_cell_angle_alpha   90.14993222
_cell_angle_beta   89.85006488
_cell_angle_gamma   89.64656798
_symmetry_Int_Tables_number   1
_chemical_formula_structural   Ho8Ta11Si16Ru
_chemical_formula_sum   'Ho8 Ta11 Si16 Ru1'
_cell_volume   636.89668590
_cell_formula_units_Z   1
loop_
 _symmetry_equiv_pos_site_id
 _symmetry_equiv_pos_as_xyz
  1  'x, y, z'
loop_
 _atom_site_type_symbol
 _atom_site_label
 _atom_site_symmetry_multiplicity
 _atom_site_fract_x
 _atom_site_fract_y
 _atom_site_fract_z
 _atom_site_occupancy
  Ho  Ho0  1  0.341054  0.003964  0.468504  1
  Ho  Ho1  1  0.495906  0.841747  0.719197  1
  Ho  Ho2  1  0.501396  0.158841  0.217172  1
  Ho  Ho3  1  0.841747  0.495906  0.280803  1
  Ho  Ho4  1  0.158841  0.501396  0.782828  1
  Ho  Ho5  1  0.657937  0.998015  0.968902  1
  Ho  Ho6  1  0.003964  0.341054  0.531496  1
  Ho  Ho7  1  0.998015  0.657937  0.031098  1
  Ta  Ta8  1  0.174271  0.829095  0.247563  1
  Ta  Ta9  1  0.829095  0.174271  0.752437  1
  Ta  Ta10  1  0.671093  0.671093  0.500000  1
  Ta  Ta11  1  0.148342  0.003263  0.874681  1
  Ta  Ta12  1  0.494958  0.657439  0.123950  1
  Ta  Ta13  1  0.504420  0.347553  0.625208  1
  Ta  Ta14  1  0.657439  0.494958  0.876050  1
  Ta  Ta15  1  0.347553  0.504420  0.374792  1
  Ta  Ta16  1  0.847720  0.993438  0.374342  1
  Ta  Ta17  1  0.003263  0.148342  0.125319  1
  Ta  Ta18  1  0.993438  0.847720  0.625658  1
  Si  Si19  1  0.202723  0.135714  0.682817  1
  Si  Si20  1  0.367790  0.700966  0.932433  1
  Si  Si21  1  0.635312  0.295983  0.432096  1
  Si  Si22  1  0.700966  0.367790  0.067567  1
  Si  Si23  1  0.295983  0.635312  0.567904  1
  Si  Si24  1  0.795531  0.865215  0.182262  1
  Si  Si25  1  0.135714  0.202723  0.317183  1
  Si  Si26  1  0.865215  0.795531  0.817738  1
  Si  Si27  1  0.292398  0.957146  0.061197  1
  Si  Si28  1  0.544703  0.794717  0.314081  1
  Si  Si29  1  0.449632  0.208298  0.818069  1
  Si  Si30  1  0.794717  0.544703  0.685919  1
  Si  Si31  1  0.208298  0.449632  0.181931  1
  Si  Si32  1  0.705196  0.045768  0.565064  1
  Si  Si33  1  0.957146  0.292398  0.938803  1
  Si  Si34  1  0.045768  0.705196  0.434936  1
  Ru  Ru35  1  0.332456  0.332456  0.000000  1
