# generated using pymatgen
data_TbY11Tc3Pd
_symmetry_space_group_name_H-M   'P 1'
_cell_length_a   6.33152634
_cell_length_b   7.45511691
_cell_length_c   9.26950700
_cell_angle_alpha   90.00000000
_cell_angle_beta   90.00000000
_cell_angle_gamma   90.03426779
_symmetry_Int_Tables_number   1
_chemical_formula_structural   TbY11Tc3Pd
_chemical_formula_sum   'Tb1 Y11 Tc3 Pd1'
_cell_volume   437.54168542
_cell_formula_units_Z   1
loop_
 _symmetry_equiv_pos_site_id
 _symmetry_equiv_pos_as_xyz
  1  'x, y, z'
loop_
 _atom_site_type_symbol
 _atom_site_label
 _atom_site_symmetry_multiplicity
 _atom_site_fract_x
 _atom_site_fract_y
 _atom_site_fract_z
 _atom_site_occupancy
  Tb  Tb0  1  0.370383  0.955904  0.750000  1
  Y  Y1  1  0.627652  0.046371  0.250000  1
  Y  Y2  1  0.124138  0.460680  0.750000  1
  Y  Y3  1  0.868174  0.534826  0.250000  1
  Y  Y4  1  0.165643  0.183463  0.058412  1
  Y  Y5  1  0.830121  0.824187  0.931546  1
  Y  Y6  1  0.664783  0.322216  0.935335  1
  Y  Y7  1  0.830121  0.824187  0.568454  1
  Y  Y8  1  0.340932  0.670571  0.059039  1
  Y  Y9  1  0.165643  0.183463  0.441588  1
  Y  Y10  1  0.340932  0.670571  0.440961  1
  Y  Y11  1  0.664783  0.322216  0.564665  1
  Tc  Tc12  1  0.455352  0.384671  0.250000  1
  Tc  Tc13  1  0.537370  0.615975  0.750000  1
  Tc  Tc14  1  0.964557  0.113615  0.750000  1
  Pd  Pd15  1  0.049415  0.887081  0.250000  1
