# generated using pymatgen
data_Ho6Ni17P12Os
_symmetry_space_group_name_H-M   'P 1'
_cell_length_a   3.75267600
_cell_length_b   10.47781400
_cell_length_c   12.30113300
_cell_angle_alpha   90.00000000
_cell_angle_beta   90.00000000
_cell_angle_gamma   90.00000000
_symmetry_Int_Tables_number   1
_chemical_formula_structural   Ho6Ni17P12Os
_chemical_formula_sum   'Ho6 Ni17 P12 Os1'
_cell_volume   483.67859528
_cell_formula_units_Z   1
loop_
 _symmetry_equiv_pos_site_id
 _symmetry_equiv_pos_as_xyz
  1  'x, y, z'
loop_
 _atom_site_type_symbol
 _atom_site_label
 _atom_site_symmetry_multiplicity
 _atom_site_fract_x
 _atom_site_fract_y
 _atom_site_fract_z
 _atom_site_occupancy
  Ho  Ho0  1  0.000000  0.500000  0.524030  1
  Ho  Ho1  1  0.500000  0.000000  0.479243  1
  Ho  Ho2  1  0.500000  0.815629  0.206143  1
  Ho  Ho3  1  0.500000  0.184371  0.206143  1
  Ho  Ho4  1  0.000000  0.684750  0.792328  1
  Ho  Ho5  1  0.000000  0.315250  0.792328  1
  Ni  Ni6  1  0.000000  0.000000  0.840943  1
  Ni  Ni7  1  0.500000  0.500000  0.699665  1
  Ni  Ni8  1  0.000000  0.000000  0.300808  1
  Ni  Ni9  1  0.000000  0.500000  0.981775  1
  Ni  Ni10  1  0.500000  0.000000  0.017111  1
  Ni  Ni11  1  0.500000  0.330420  0.989364  1
  Ni  Ni12  1  0.500000  0.669580  0.989364  1
  Ni  Ni13  1  0.000000  0.165870  0.006350  1
  Ni  Ni14  1  0.000000  0.834130  0.006350  1
  Ni  Ni15  1  0.500000  0.301936  0.429256  1
  Ni  Ni16  1  0.500000  0.698064  0.429256  1
  Ni  Ni17  1  0.000000  0.197874  0.571773  1
  Ni  Ni18  1  0.000000  0.802126  0.571773  1
  Ni  Ni19  1  0.500000  0.879104  0.711313  1
  Ni  Ni20  1  0.500000  0.120896  0.711313  1
  Ni  Ni21  1  0.000000  0.620805  0.290423  1
  Ni  Ni22  1  0.000000  0.379195  0.290423  1
  P  P23  1  0.500000  0.500000  0.875644  1
  P  P24  1  0.000000  0.000000  0.125231  1
  P  P25  1  0.500000  0.500000  0.348883  1
  P  P26  1  0.000000  0.000000  0.654745  1
  P  P27  1  0.500000  0.313408  0.614573  1
  P  P28  1  0.500000  0.686592  0.614573  1
  P  P29  1  0.000000  0.185431  0.386242  1
  P  P30  1  0.000000  0.814569  0.386242  1
  P  P31  1  0.500000  0.849262  0.892444  1
  P  P32  1  0.500000  0.150738  0.892444  1
  P  P33  1  0.000000  0.651199  0.107522  1
  P  P34  1  0.000000  0.348801  0.107522  1
  Os  Os35  1  0.500000  0.500000  0.156458  1
