# generated using pymatgen
data_Ac3ZrIn2Ir3
_symmetry_space_group_name_H-M   'P 1'
_cell_length_a   7.75128900
_cell_length_b   7.49620030
_cell_length_c   4.49836700
_cell_angle_alpha   90.00000000
_cell_angle_beta   90.00000000
_cell_angle_gamma   118.91720748
_symmetry_Int_Tables_number   1
_chemical_formula_structural   Ac3ZrIn2Ir3
_chemical_formula_sum   'Ac3 Zr1 In2 Ir3'
_cell_volume   228.78972854
_cell_formula_units_Z   1
loop_
 _symmetry_equiv_pos_site_id
 _symmetry_equiv_pos_as_xyz
  1  'x, y, z'
loop_
 _atom_site_type_symbol
 _atom_site_label
 _atom_site_symmetry_multiplicity
 _atom_site_fract_x
 _atom_site_fract_y
 _atom_site_fract_z
 _atom_site_occupancy
  Ac  Ac0  1  0.577438  0.581171  0.000000  1
  Ac  Ac1  1  0.422562  0.003733  0.000000  1
  Ac  Ac2  1  0.000000  0.404818  0.000000  1
  Zr  Zr3  1  0.000000  0.765478  0.500000  1
  In  In4  1  0.240070  0.239745  0.500000  1
  In  In5  1  0.759930  0.999676  0.500000  1
  Ir  Ir6  1  0.000000  0.972129  0.000000  1
  Ir  Ir7  1  0.692028  0.362638  0.500000  1
  Ir  Ir8  1  0.307972  0.670611  0.500000  1
