# generated using pymatgen
data_MnFe2SiW2
_symmetry_space_group_name_H-M   'P 1'
_cell_length_a   4.73794605
_cell_length_b   4.73794608
_cell_length_c   7.74268800
_cell_angle_alpha   90.00000000
_cell_angle_beta   90.00000000
_cell_angle_gamma   119.80736680
_symmetry_Int_Tables_number   1
_chemical_formula_structural   MnFe2SiW2
_chemical_formula_sum   'Mn2 Fe4 Si2 W4'
_cell_volume   150.81424235
_cell_formula_units_Z   2
loop_
 _symmetry_equiv_pos_site_id
 _symmetry_equiv_pos_as_xyz
  1  'x, y, z'
loop_
 _atom_site_type_symbol
 _atom_site_label
 _atom_site_symmetry_multiplicity
 _atom_site_fract_x
 _atom_site_fract_y
 _atom_site_fract_z
 _atom_site_occupancy
  Mn  Mn0  1  0.166588  0.340254  0.500000  1
  Mn  Mn1  1  0.659746  0.833412  0.500000  1
  Fe  Fe2  1  0.999733  0.000267  0.250344  1
  Fe  Fe3  1  0.999733  0.000267  0.749656  1
  Fe  Fe4  1  0.832877  0.658310  0.000000  1
  Fe  Fe5  1  0.341690  0.167123  0.000000  1
  Si  Si6  1  0.832867  0.167133  0.000000  1
  Si  Si7  1  0.166801  0.833199  0.500000  1
  W  W8  1  0.334758  0.665242  0.188447  1
  W  W9  1  0.665166  0.334834  0.313016  1
  W  W10  1  0.665166  0.334834  0.686984  1
  W  W11  1  0.334758  0.665242  0.811553  1
