# generated using pymatgen
data_Li8Pr12TaZn4W7O48
_symmetry_space_group_name_H-M   'P 1'
_cell_length_a   10.99043635
_cell_length_b   10.99043688
_cell_length_c   10.99043800
_cell_angle_alpha   109.42840073
_cell_angle_beta   109.42841274
_cell_angle_gamma   109.42840200
_symmetry_Int_Tables_number   1
_chemical_formula_structural   Li8Pr12TaZn4W7O48
_chemical_formula_sum   'Li8 Pr12 Ta1 Zn4 W7 O48'
_cell_volume   1023.55112719
_cell_formula_units_Z   1
loop_
 _symmetry_equiv_pos_site_id
 _symmetry_equiv_pos_as_xyz
  1  'x, y, z'
loop_
 _atom_site_type_symbol
 _atom_site_label
 _atom_site_symmetry_multiplicity
 _atom_site_fract_x
 _atom_site_fract_y
 _atom_site_fract_z
 _atom_site_occupancy
  Li  Li0  1  0.124589  0.750876  0.376172  1
  Li  Li1  1  0.749939  0.624073  0.376007  1
  Li  Li2  1  0.249921  0.376353  0.624517  1
  Li  Li3  1  0.874956  0.249306  0.622909  1
  Li  Li4  1  0.377814  0.127898  0.751732  1
  Li  Li5  1  0.875674  0.627112  0.750029  1
  Li  Li6  1  0.625172  0.746198  0.874571  1
  Li  Li7  1  0.748913  0.121973  0.871621  1
  Pr  Pr8  1  0.750214  0.379659  0.128694  1
  Pr  Pr9  1  0.873108  0.749368  0.124496  1
  Pr  Pr10  1  0.377584  0.627349  0.250524  1
  Pr  Pr11  1  0.881245  0.132077  0.258150  1
  Pr  Pr12  1  0.251238  0.125965  0.380540  1
  Pr  Pr13  1  0.632479  0.252508  0.381151  1
  Pr  Pr14  1  0.750412  0.877177  0.627242  1
  Pr  Pr15  1  0.371001  0.749214  0.620823  1
  Pr  Pr16  1  0.117466  0.867830  0.744121  1
  Pr  Pr17  1  0.620145  0.371519  0.750001  1
  Pr  Pr18  1  0.247182  0.617921  0.867131  1
  Pr  Pr19  1  0.119851  0.248152  0.872046  1
  Ta  Ta20  1  0.999808  0.503769  0.504817  1
  Zn  Zn21  1  0.250421  0.876581  0.126739  1
  Zn  Zn22  1  0.375465  0.251985  0.125856  1
  Zn  Zn23  1  0.124690  0.375182  0.250150  1
  Zn  Zn24  1  0.624374  0.873164  0.249212  1
  W  W25  1  0.991630  0.995355  0.994667  1
  W  W26  1  0.502359  0.998221  0.992498  1
  W  W27  1  0.501171  0.497431  0.995534  1
  W  W28  1  0.992656  0.497761  0.994550  1
  W  W29  1  0.005007  0.001510  0.505074  1
  W  W30  1  0.500831  0.001943  0.505986  1
  W  W31  1  0.507949  0.504995  0.508047  1
  O  O32  1  0.825959  0.907837  0.021327  1
  O  O33  1  0.693674  0.115834  0.021894  1
  O  O34  1  0.193968  0.670457  0.078675  1
  O  O35  1  0.376047  0.408672  0.082118  1
  O  O36  1  0.467439  0.674200  0.087497  1
  O  O37  1  0.115483  0.421602  0.091183  1
  O  O38  1  0.523163  0.192984  0.116316  1
  O  O39  1  0.089703  0.916771  0.122837  1
  O  O40  1  0.977001  0.592263  0.169581  1
  O  O41  1  0.692040  0.582258  0.173351  1
  O  O42  1  0.084769  0.174507  0.204019  1
  O  O43  1  0.615849  0.023568  0.193414  1
  O  O44  1  0.829271  0.919800  0.302850  1
  O  O45  1  0.971956  0.383009  0.297638  1
  O  O46  1  0.410950  0.032451  0.326307  1
  O  O47  1  0.420953  0.307107  0.330427  1
  O  O48  1  0.079093  0.908072  0.387156  1
  O  O49  1  0.799295  0.473285  0.381483  1
  O  O50  1  0.329930  0.526391  0.409552  1
  O  O51  1  0.585316  0.879110  0.410529  1
  O  O52  1  0.591757  0.612179  0.421234  1
  O  O53  1  0.327190  0.806007  0.416655  1
  O  O54  1  0.091721  0.171811  0.479323  1
  O  O55  1  0.882514  0.299112  0.472825  1
  O  O56  1  0.117723  0.700860  0.526626  1
  O  O57  1  0.907337  0.828206  0.520008  1
  O  O58  1  0.407775  0.387462  0.579043  1
  O  O59  1  0.672622  0.193410  0.581439  1
  O  O60  1  0.673167  0.477915  0.593584  1
  O  O61  1  0.417612  0.122732  0.594076  1
  O  O62  1  0.198975  0.524965  0.616439  1
  O  O63  1  0.920054  0.092130  0.611365  1
  O  O64  1  0.579323  0.692729  0.673290  1
  O  O65  1  0.588761  0.967127  0.675582  1
  O  O66  1  0.172616  0.080115  0.695932  1
  O  O67  1  0.024428  0.616427  0.700796  1
  O  O68  1  0.384872  0.979513  0.807627  1
  O  O69  1  0.915579  0.824569  0.794364  1
  O  O70  1  0.305718  0.418140  0.827300  1
  O  O71  1  0.023061  0.407742  0.828719  1
  O  O72  1  0.480891  0.808003  0.885473  1
  O  O73  1  0.910110  0.084478  0.878049  1
  O  O74  1  0.531800  0.324309  0.910924  1
  O  O75  1  0.887268  0.579531  0.905472  1
  O  O76  1  0.623752  0.590814  0.916614  1
  O  O77  1  0.807732  0.326926  0.920105  1
  O  O78  1  0.306481  0.883719  0.975782  1
  O  O79  1  0.172031  0.088471  0.977586  1
