# generated using pymatgen
data_K3CoO4F
_symmetry_space_group_name_H-M   'P 1'
_cell_length_a   7.43544359
_cell_length_b   7.43532938
_cell_length_c   7.75265972
_cell_angle_alpha   118.54231752
_cell_angle_beta   118.76488803
_cell_angle_gamma   89.82233949
_symmetry_Int_Tables_number   1
_chemical_formula_structural   K3CoO4F
_chemical_formula_sum   'K6 Co2 O8 F2'
_cell_volume   315.41023103
_cell_formula_units_Z   2
loop_
 _symmetry_equiv_pos_site_id
 _symmetry_equiv_pos_as_xyz
  1  'x, y, z'
loop_
 _atom_site_type_symbol
 _atom_site_label
 _atom_site_symmetry_multiplicity
 _atom_site_fract_x
 _atom_site_fract_y
 _atom_site_fract_z
 _atom_site_occupancy
  K  K0  1  0.315598  0.184854  0.000452  1
  K  K1  1  0.815233  0.315208  0.999200  1
  K  K2  1  0.184767  0.684791  0.000800  1
  K  K3  1  0.684401  0.815146  0.999548  1
  K  K4  1  0.250589  0.250050  0.500008  1
  K  K5  1  0.749411  0.749950  0.499992  1
  Co  Co6  1  0.750167  0.250139  0.500020  1
  Co  Co7  1  0.249833  0.749861  0.499980  1
  O  O8  1  0.537358  0.037521  0.328193  1
  O  O9  1  0.790544  0.290915  0.327291  1
  O  O10  1  0.290853  0.536903  0.327666  1
  O  O11  1  0.036345  0.791009  0.327060  1
  O  O12  1  0.963654  0.208991  0.672940  1
  O  O13  1  0.709147  0.463097  0.672334  1
  O  O14  1  0.209456  0.709085  0.672709  1
  O  O15  1  0.462642  0.962478  0.671807  1
  F  F16  1  0.000000  0.000000  0.000000  1
  F  F17  1  0.500000  0.500000  0.000000  1
