# generated using pymatgen
data_Nd2Ho(P2Rh3)3
_symmetry_space_group_name_H-M   'P 1'
_cell_length_a   3.96058400
_cell_length_b   11.24375300
_cell_length_c   12.85530600
_cell_angle_alpha   90.00000000
_cell_angle_beta   90.00000000
_cell_angle_gamma   90.00000000
_symmetry_Int_Tables_number   1
_chemical_formula_structural   Nd2Ho(P2Rh3)3
_chemical_formula_sum   'Nd4 Ho2 P12 Rh18'
_cell_volume   572.47027866
_cell_formula_units_Z   2
loop_
 _symmetry_equiv_pos_site_id
 _symmetry_equiv_pos_as_xyz
  1  'x, y, z'
loop_
 _atom_site_type_symbol
 _atom_site_label
 _atom_site_symmetry_multiplicity
 _atom_site_fract_x
 _atom_site_fract_y
 _atom_site_fract_z
 _atom_site_occupancy
  Nd  Nd0  1  0.000000  0.500000  0.521704  1
  Nd  Nd1  1  0.500000  0.000000  0.480487  1
  Nd  Nd2  1  0.500000  0.814506  0.203870  1
  Nd  Nd3  1  0.500000  0.185494  0.203870  1
  Ho  Ho4  1  0.000000  0.685531  0.795067  1
  Ho  Ho5  1  0.000000  0.314469  0.795067  1
  P  P6  1  0.500000  0.313783  0.620915  1
  P  P7  1  0.500000  0.686217  0.620915  1
  P  P8  1  0.000000  0.187455  0.383668  1
  P  P9  1  0.000000  0.812545  0.383668  1
  P  P10  1  0.500000  0.500000  0.877961  1
  P  P11  1  0.000000  0.000000  0.117581  1
  P  P12  1  0.500000  0.843914  0.892819  1
  P  P13  1  0.500000  0.156086  0.892819  1
  P  P14  1  0.000000  0.650264  0.105439  1
  P  P15  1  0.000000  0.349736  0.105439  1
  P  P16  1  0.500000  0.500000  0.348116  1
  P  P17  1  0.000000  0.000000  0.652294  1
  Rh  Rh18  1  0.000000  0.500000  0.976264  1
  Rh  Rh19  1  0.500000  0.000000  0.015929  1
  Rh  Rh20  1  0.500000  0.293220  0.432134  1
  Rh  Rh21  1  0.500000  0.706780  0.432134  1
  Rh  Rh22  1  0.000000  0.207343  0.572161  1
  Rh  Rh23  1  0.000000  0.792657  0.572161  1
  Rh  Rh24  1  0.500000  0.872328  0.713345  1
  Rh  Rh25  1  0.500000  0.127672  0.713345  1
  Rh  Rh26  1  0.000000  0.624946  0.289599  1
  Rh  Rh27  1  0.000000  0.375054  0.289599  1
  Rh  Rh28  1  0.500000  0.335655  0.992283  1
  Rh  Rh29  1  0.500000  0.664345  0.992283  1
  Rh  Rh30  1  0.000000  0.166956  0.003166  1
  Rh  Rh31  1  0.000000  0.833044  0.003166  1
  Rh  Rh32  1  0.500000  0.500000  0.167942  1
  Rh  Rh33  1  0.000000  0.000000  0.831187  1
  Rh  Rh34  1  0.500000  0.500000  0.703684  1
  Rh  Rh35  1  0.000000  0.000000  0.297921  1
