# generated using pymatgen
data_La4ThOs2
_symmetry_space_group_name_H-M   'P 1'
_cell_length_a   6.74812309
_cell_length_b   7.36676721
_cell_length_c   9.11411238
_cell_angle_alpha   95.85904520
_cell_angle_beta   111.72808168
_cell_angle_gamma   90.00000066
_symmetry_Int_Tables_number   1
_chemical_formula_structural   La4ThOs2
_chemical_formula_sum   'La8 Th2 Os4'
_cell_volume   418.33971742
_cell_formula_units_Z   2
loop_
 _symmetry_equiv_pos_site_id
 _symmetry_equiv_pos_as_xyz
  1  'x, y, z'
loop_
 _atom_site_type_symbol
 _atom_site_label
 _atom_site_symmetry_multiplicity
 _atom_site_fract_x
 _atom_site_fract_y
 _atom_site_fract_z
 _atom_site_occupancy
  La  La0  1  0.981868  0.911129  0.180844  1
  La  La1  1  0.801024  0.588871  0.819156  1
  La  La2  1  0.018132  0.088871  0.819156  1
  La  La3  1  0.198976  0.411129  0.180844  1
  La  La4  1  0.645307  0.818603  0.430884  1
  La  La5  1  0.214422  0.681397  0.569116  1
  La  La6  1  0.354693  0.181397  0.569116  1
  La  La7  1  0.785578  0.318603  0.430884  1
  Th  Th8  1  0.431519  0.750000  0.000000  1
  Th  Th9  1  0.568481  0.250000  0.000000  1
  Os  Os10  1  0.798391  0.568527  0.205498  1
  Os  Os11  1  0.592893  0.931473  0.794502  1
  Os  Os12  1  0.201609  0.431473  0.794502  1
  Os  Os13  1  0.407107  0.068527  0.205498  1
