# generated using pymatgen
data_Zr4In2CuRh3
_symmetry_space_group_name_H-M   'P 1'
_cell_length_a   7.48069365
_cell_length_b   7.48069348
_cell_length_c   6.81567800
_cell_angle_alpha   90.00000000
_cell_angle_beta   90.00000000
_cell_angle_gamma   89.91528210
_symmetry_Int_Tables_number   1
_chemical_formula_structural   Zr4In2CuRh3
_chemical_formula_sum   'Zr8 In4 Cu2 Rh6'
_cell_volume   381.41021441
_cell_formula_units_Z   2
loop_
 _symmetry_equiv_pos_site_id
 _symmetry_equiv_pos_as_xyz
  1  'x, y, z'
loop_
 _atom_site_type_symbol
 _atom_site_label
 _atom_site_symmetry_multiplicity
 _atom_site_fract_x
 _atom_site_fract_y
 _atom_site_fract_z
 _atom_site_occupancy
  Zr  Zr0  1  0.154052  0.171309  0.000000  1
  Zr  Zr1  1  0.828691  0.845948  0.000000  1
  Zr  Zr2  1  0.667168  0.332832  0.500000  1
  Zr  Zr3  1  0.349226  0.650774  0.500000  1
  Zr  Zr4  1  0.675658  0.324342  0.000000  1
  Zr  Zr5  1  0.332514  0.667486  0.000000  1
  Zr  Zr6  1  0.812955  0.830770  0.500000  1
  Zr  Zr7  1  0.169230  0.187045  0.500000  1
  In  In8  1  0.490299  0.998974  0.250824  1
  In  In9  1  0.490299  0.998974  0.749176  1
  In  In10  1  0.001026  0.509701  0.250824  1
  In  In11  1  0.001026  0.509701  0.749176  1
  Cu  Cu12  1  0.129878  0.870122  0.275316  1
  Cu  Cu13  1  0.129878  0.870122  0.724684  1
  Rh  Rh14  1  0.370469  0.366771  0.234592  1
  Rh  Rh15  1  0.633229  0.629531  0.765408  1
  Rh  Rh16  1  0.633229  0.629531  0.234592  1
  Rh  Rh17  1  0.880352  0.119648  0.736606  1
  Rh  Rh18  1  0.880352  0.119648  0.263394  1
  Rh  Rh19  1  0.370469  0.366771  0.765408  1
