# generated using pymatgen
data_Ho8In3Pd8Pb
_symmetry_space_group_name_H-M   'P 1'
_cell_length_a   7.78374500
_cell_length_b   7.78374500
_cell_length_c   7.32765800
_cell_angle_alpha   90.00000000
_cell_angle_beta   90.00000000
_cell_angle_gamma   90.00000000
_symmetry_Int_Tables_number   1
_chemical_formula_structural   Ho8In3Pd8Pb
_chemical_formula_sum   'Ho8 In3 Pd8 Pb1'
_cell_volume   443.95851601
_cell_formula_units_Z   1
loop_
 _symmetry_equiv_pos_site_id
 _symmetry_equiv_pos_as_xyz
  1  'x, y, z'
loop_
 _atom_site_type_symbol
 _atom_site_label
 _atom_site_symmetry_multiplicity
 _atom_site_fract_x
 _atom_site_fract_y
 _atom_site_fract_z
 _atom_site_occupancy
  Ho  Ho0  1  0.162547  0.167509  0.998453  1
  Ho  Ho1  1  0.837453  0.832491  0.998453  1
  Ho  Ho2  1  0.667509  0.337453  0.501547  1
  Ho  Ho3  1  0.332491  0.662547  0.501547  1
  Ho  Ho4  1  0.683530  0.320677  0.998961  1
  Ho  Ho5  1  0.316470  0.679323  0.998961  1
  Ho  Ho6  1  0.820677  0.816470  0.501039  1
  Ho  Ho7  1  0.179323  0.183530  0.501039  1
  In  In8  1  0.500000  0.000000  0.750000  1
  In  In9  1  0.000000  0.500000  0.250000  1
  In  In10  1  0.000000  0.500000  0.750000  1
  Pd  Pd11  1  0.370254  0.378812  0.231763  1
  Pd  Pd12  1  0.625640  0.627574  0.767751  1
  Pd  Pd13  1  0.629746  0.621188  0.231763  1
  Pd  Pd14  1  0.872426  0.125640  0.732249  1
  Pd  Pd15  1  0.878812  0.129746  0.268237  1
  Pd  Pd16  1  0.374360  0.372426  0.767751  1
  Pd  Pd17  1  0.121188  0.870254  0.268237  1
  Pd  Pd18  1  0.127574  0.874360  0.732249  1
  Pb  Pb19  1  0.500000  0.000000  0.250000  1
