# generated using pymatgen
data_Dy6Al24Ru3Pt2Rh3
_symmetry_space_group_name_H-M   'P 1'
_cell_length_a   8.82726240
_cell_length_b   8.81816293
_cell_length_c   9.54002278
_cell_angle_alpha   89.95404612
_cell_angle_beta   90.11690915
_cell_angle_gamma   119.83983778
_symmetry_Int_Tables_number   1
_chemical_formula_structural   Dy6Al24Ru3Pt2Rh3
_chemical_formula_sum   'Dy6 Al24 Ru3 Pt2 Rh3'
_cell_volume   644.14246350
_cell_formula_units_Z   1
loop_
 _symmetry_equiv_pos_site_id
 _symmetry_equiv_pos_as_xyz
  1  'x, y, z'
loop_
 _atom_site_type_symbol
 _atom_site_label
 _atom_site_symmetry_multiplicity
 _atom_site_fract_x
 _atom_site_fract_y
 _atom_site_fract_z
 _atom_site_occupancy
  Dy  Dy0  1  0.190922  0.806111  0.251242  1
  Dy  Dy1  1  0.190428  0.384031  0.249799  1
  Dy  Dy2  1  0.616051  0.808044  0.248022  1
  Dy  Dy3  1  0.809078  0.193889  0.748758  1
  Dy  Dy4  1  0.809572  0.615969  0.750201  1
  Dy  Dy5  1  0.383949  0.191956  0.751978  1
  Al  Al6  1  0.562103  0.436505  0.253346  1
  Al  Al7  1  0.560889  0.122710  0.250045  1
  Al  Al8  1  0.873382  0.436553  0.246123  1
  Al  Al9  1  0.437897  0.563495  0.746654  1
  Al  Al10  1  0.439111  0.877290  0.749955  1
  Al  Al11  1  0.126618  0.563447  0.753877  1
  Al  Al12  1  0.325620  0.163020  0.423638  1
  Al  Al13  1  0.833101  0.158884  0.421427  1
  Al  Al14  1  0.832932  0.674501  0.423354  1
  Al  Al15  1  0.674380  0.836980  0.576362  1
  Al  Al16  1  0.166899  0.841116  0.578573  1
  Al  Al17  1  0.167068  0.325499  0.576646  1
  Al  Al18  1  0.674304  0.840449  0.923592  1
  Al  Al19  1  0.161631  0.835211  0.922502  1
  Al  Al20  1  0.157941  0.326116  0.924453  1
  Al  Al21  1  0.325696  0.159551  0.076408  1
  Al  Al22  1  0.838369  0.164789  0.077498  1
  Al  Al23  1  0.842059  0.673884  0.075547  1
  Al  Al24  1  0.662048  0.330981  0.532020  1
  Al  Al25  1  0.337952  0.669019  0.467980  1
  Al  Al26  1  0.329792  0.667762  0.030872  1
  Al  Al27  1  0.670208  0.332238  0.969128  1
  Al  Al28  1  0.998553  0.000330  0.249904  1
  Al  Al29  1  0.001447  0.999670  0.750096  1
  Ru  Ru30  1  0.000000  0.000000  0.500000  1
  Ru  Ru31  1  0.000000  0.000000  0.000000  1
  Ru  Ru32  1  0.000000  0.500000  0.000000  1
  Pt  Pt33  1  0.000000  0.500000  0.500000  1
  Pt  Pt34  1  0.500000  0.500000  0.000000  1
  Rh  Rh35  1  0.500000  0.500000  0.500000  1
  Rh  Rh36  1  0.500000  0.000000  0.500000  1
  Rh  Rh37  1  0.500000  0.000000  0.000000  1
