# generated using pymatgen
data_Tm3U(ZnIr)4
_symmetry_space_group_name_H-M   'P 1'
_cell_length_a   3.86585200
_cell_length_b   7.01745555
_cell_length_c   8.27947240
_cell_angle_alpha   90.54851967
_cell_angle_beta   90.00000000
_cell_angle_gamma   90.00000000
_symmetry_Int_Tables_number   1
_chemical_formula_structural   Tm3U(ZnIr)4
_chemical_formula_sum   'Tm3 U1 Zn4 Ir4'
_cell_volume   224.59891553
_cell_formula_units_Z   1
loop_
 _symmetry_equiv_pos_site_id
 _symmetry_equiv_pos_as_xyz
  1  'x, y, z'
loop_
 _atom_site_type_symbol
 _atom_site_label
 _atom_site_symmetry_multiplicity
 _atom_site_fract_x
 _atom_site_fract_y
 _atom_site_fract_z
 _atom_site_occupancy
  Tm  Tm0  1  0.750000  0.445042  0.810979  1
  Tm  Tm1  1  0.750000  0.941655  0.684636  1
  Tm  Tm2  1  0.250000  0.052251  0.321625  1
  U  U3  1  0.250000  0.551377  0.178514  1
  Zn  Zn4  1  0.250000  0.620954  0.563722  1
  Zn  Zn5  1  0.750000  0.367437  0.442738  1
  Zn  Zn6  1  0.750000  0.892318  0.063061  1
  Zn  Zn7  1  0.250000  0.130673  0.934823  1
  Ir  Ir8  1  0.250000  0.741878  0.886979  1
  Ir  Ir9  1  0.750000  0.280571  0.130778  1
  Ir  Ir10  1  0.750000  0.740131  0.355505  1
  Ir  Ir11  1  0.250000  0.235714  0.626640  1
