# generated using pymatgen
data_NaTc3W3Se8
_symmetry_space_group_name_H-M   'P 1'
_cell_length_a   6.84421585
_cell_length_b   6.84421432
_cell_length_c   6.84421343
_cell_angle_alpha   90.70327847
_cell_angle_beta   90.70326954
_cell_angle_gamma   90.70328030
_symmetry_Int_Tables_number   1
_chemical_formula_structural   NaTc3W3Se8
_chemical_formula_sum   'Na1 Tc3 W3 Se8'
_cell_volume   320.53235450
_cell_formula_units_Z   1
loop_
 _symmetry_equiv_pos_site_id
 _symmetry_equiv_pos_as_xyz
  1  'x, y, z'
loop_
 _atom_site_type_symbol
 _atom_site_label
 _atom_site_symmetry_multiplicity
 _atom_site_fract_x
 _atom_site_fract_y
 _atom_site_fract_z
 _atom_site_occupancy
  Na  Na0  1  0.999401  0.999401  0.999401  1
  Tc  Tc1  1  0.760421  0.443200  0.581843  1
  Tc  Tc2  1  0.581843  0.760421  0.443200  1
  Tc  Tc3  1  0.443200  0.581843  0.760421  1
  W  W4  1  0.241785  0.556361  0.418236  1
  W  W5  1  0.418236  0.241785  0.556361  1
  W  W6  1  0.556361  0.418236  0.241785  1
  Se  Se7  1  0.876433  0.620724  0.268472  1
  Se  Se8  1  0.268472  0.876433  0.620724  1
  Se  Se9  1  0.620724  0.268472  0.876433  1
  Se  Se10  1  0.121760  0.377858  0.740509  1
  Se  Se11  1  0.740509  0.121760  0.377858  1
  Se  Se12  1  0.377858  0.740509  0.121760  1
  Se  Se13  1  0.760294  0.760294  0.760294  1
  Se  Se14  1  0.232701  0.232701  0.232701  1
