# generated using pymatgen
data_NdTi2O5
_symmetry_space_group_name_H-M   'P 1'
_cell_length_a   5.85864400
_cell_length_b   7.75032200
_cell_length_c   8.81684700
_cell_angle_alpha   90.00000000
_cell_angle_beta   90.00000000
_cell_angle_gamma   90.00000000
_symmetry_Int_Tables_number   1
_chemical_formula_structural   NdTi2O5
_chemical_formula_sum   'Nd4 Ti8 O20'
_cell_volume   400.34108310
_cell_formula_units_Z   4
loop_
 _symmetry_equiv_pos_site_id
 _symmetry_equiv_pos_as_xyz
  1  'x, y, z'
loop_
 _atom_site_type_symbol
 _atom_site_label
 _atom_site_symmetry_multiplicity
 _atom_site_fract_x
 _atom_site_fract_y
 _atom_site_fract_z
 _atom_site_occupancy
  Nd  Nd0  1  0.000000  0.357225  0.671666  1
  Nd  Nd1  1  0.000000  0.642775  0.328334  1
  Nd  Nd2  1  0.000000  0.857225  0.828334  1
  Nd  Nd3  1  0.000000  0.142775  0.171666  1
  Ti  Ti4  1  0.500000  0.114362  0.858099  1
  Ti  Ti5  1  0.500000  0.885638  0.141901  1
  Ti  Ti6  1  0.500000  0.614362  0.641901  1
  Ti  Ti7  1  0.500000  0.385638  0.358099  1
  Ti  Ti8  1  0.253340  0.500000  0.000000  1
  Ti  Ti9  1  0.746660  0.000000  0.500000  1
  Ti  Ti10  1  0.746660  0.500000  0.000000  1
  Ti  Ti11  1  0.253340  0.000000  0.500000  1
  O  O12  1  0.254311  0.898807  0.289246  1
  O  O13  1  0.254311  0.101193  0.710754  1
  O  O14  1  0.745689  0.398807  0.210754  1
  O  O15  1  0.745689  0.601193  0.789246  1
  O  O16  1  0.745689  0.101193  0.710754  1
  O  O17  1  0.745689  0.898807  0.289246  1
  O  O18  1  0.254311  0.601193  0.789246  1
  O  O19  1  0.254311  0.398807  0.210754  1
  O  O20  1  0.500000  0.334633  0.924271  1
  O  O21  1  0.500000  0.665367  0.075729  1
  O  O22  1  0.500000  0.834633  0.575729  1
  O  O23  1  0.500000  0.165367  0.424271  1
  O  O24  1  0.279236  0.000000  0.000000  1
  O  O25  1  0.720764  0.500000  0.500000  1
  O  O26  1  0.720764  0.000000  0.000000  1
  O  O27  1  0.279236  0.500000  0.500000  1
  O  O28  1  0.000000  0.162928  0.446277  1
  O  O29  1  0.000000  0.837072  0.553723  1
  O  O30  1  0.000000  0.662928  0.053723  1
  O  O31  1  0.000000  0.337072  0.946277  1
