# generated using pymatgen
data_Nd2PaIr2
_symmetry_space_group_name_H-M   'P 1'
_cell_length_a   6.44079750
_cell_length_b   6.44079801
_cell_length_c   7.35571616
_cell_angle_alpha   99.72183504
_cell_angle_beta   99.72183773
_cell_angle_gamma   59.09915038
_symmetry_Int_Tables_number   1
_chemical_formula_structural   Nd2PaIr2
_chemical_formula_sum   'Nd4 Pa2 Ir4'
_cell_volume   256.85044080
_cell_formula_units_Z   2
loop_
 _symmetry_equiv_pos_site_id
 _symmetry_equiv_pos_as_xyz
  1  'x, y, z'
loop_
 _atom_site_type_symbol
 _atom_site_label
 _atom_site_symmetry_multiplicity
 _atom_site_fract_x
 _atom_site_fract_y
 _atom_site_fract_z
 _atom_site_occupancy
  Nd  Nd0  1  0.034823  0.264862  0.143450  1
  Nd  Nd1  1  0.735138  0.965177  0.356551  1
  Nd  Nd2  1  0.264862  0.034823  0.643450  1
  Nd  Nd3  1  0.965177  0.735138  0.856550  1
  Pa  Pa4  1  0.417859  0.582141  0.250000  1
  Pa  Pa5  1  0.582141  0.417859  0.750000  1
  Ir  Ir6  1  0.504667  0.204935  0.988581  1
  Ir  Ir7  1  0.795065  0.495333  0.511419  1
  Ir  Ir8  1  0.204935  0.504667  0.488582  1
  Ir  Ir9  1  0.495333  0.795065  0.011418  1
