# generated using pymatgen
data_CaH4Pd
_symmetry_space_group_name_H-M   'P 1'
_cell_length_a   6.56577090
_cell_length_b   6.56577171
_cell_length_c   5.16063100
_cell_angle_alpha   90.00000000
_cell_angle_beta   90.00000000
_cell_angle_gamma   147.54763814
_symmetry_Int_Tables_number   1
_chemical_formula_structural   CaH4Pd
_chemical_formula_sum   'Ca2 H8 Pd2'
_cell_volume   119.37778440
_cell_formula_units_Z   2
loop_
 _symmetry_equiv_pos_site_id
 _symmetry_equiv_pos_as_xyz
  1  'x, y, z'
loop_
 _atom_site_type_symbol
 _atom_site_label
 _atom_site_symmetry_multiplicity
 _atom_site_fract_x
 _atom_site_fract_y
 _atom_site_fract_z
 _atom_site_occupancy
  Ca  Ca0  1  0.142328  0.857672  0.289744  1
  Ca  Ca1  1  0.857672  0.142328  0.789744  1
  H  H2  1  0.311057  0.688943  0.040660  1
  H  H3  1  0.688943  0.311057  0.540660  1
  H  H4  1  0.308415  0.691585  0.537309  1
  H  H5  1  0.691585  0.308415  0.037309  1
  H  H6  1  0.082786  0.917214  0.792701  1
  H  H7  1  0.917214  0.082786  0.292701  1
  H  H8  1  0.501920  0.498080  0.046320  1
  H  H9  1  0.498080  0.501920  0.546320  1
  Pd  Pd10  1  0.405010  0.594990  0.292267  1
  Pd  Pd11  1  0.594990  0.405010  0.792267  1
