# generated using pymatgen
data_Al6Tl2AgF21
_symmetry_space_group_name_H-M   'P 1'
_cell_length_a   7.10192020
_cell_length_b   7.10192066
_cell_length_c   10.65307200
_cell_angle_alpha   70.56212173
_cell_angle_beta   70.56212039
_cell_angle_gamma   60.07073052
_symmetry_Int_Tables_number   1
_chemical_formula_structural   Al6Tl2AgF21
_chemical_formula_sum   'Al6 Tl2 Ag1 F21'
_cell_volume   429.87835192
_cell_formula_units_Z   1
loop_
 _symmetry_equiv_pos_site_id
 _symmetry_equiv_pos_as_xyz
  1  'x, y, z'
loop_
 _atom_site_type_symbol
 _atom_site_label
 _atom_site_symmetry_multiplicity
 _atom_site_fract_x
 _atom_site_fract_y
 _atom_site_fract_z
 _atom_site_occupancy
  Al  Al0  1  0.461165  0.916372  0.185902  1
  Al  Al1  1  0.083628  0.538835  0.814098  1
  Al  Al2  1  0.963337  0.414053  0.184891  1
  Al  Al3  1  0.461925  0.413504  0.185212  1
  Al  Al4  1  0.586496  0.538075  0.814788  1
  Al  Al5  1  0.585947  0.036663  0.815109  1
  Tl  Tl6  1  0.128062  0.159874  0.568392  1
  Tl  Tl7  1  0.840126  0.871938  0.431608  1
  Ag  Ag8  1  0.503667  0.496333  0.500000  1
  F  F9  1  0.680327  0.573411  0.633882  1
  F  F10  1  0.426589  0.319673  0.366118  1
  F  F11  1  0.169306  0.490917  0.195041  1
  F  F12  1  0.509083  0.830694  0.804959  1
  F  F13  1  0.867744  0.453198  0.834591  1
  F  F14  1  0.518136  0.958428  0.000360  1
  F  F15  1  0.755361  0.343201  0.170275  1
  F  F16  1  0.120616  0.596338  0.633200  1
  F  F17  1  0.874392  0.826729  0.820133  1
  F  F18  1  0.751868  0.704171  0.185445  1
  F  F19  1  0.656799  0.244639  0.829725  1
  F  F20  1  0.495543  0.504457  0.000000  1
  F  F21  1  0.897559  0.340875  0.366554  1
  F  F22  1  0.302130  0.619567  0.799887  1
  F  F23  1  0.403662  0.879384  0.366800  1
  F  F24  1  0.295829  0.248132  0.814555  1
  F  F25  1  0.546802  0.132256  0.165409  1
  F  F26  1  0.380433  0.697870  0.200113  1
  F  F27  1  0.173271  0.125608  0.179867  1
  F  F28  1  0.041572  0.481864  0.999640  1
  F  F29  1  0.659125  0.102441  0.633446  1
