# generated using pymatgen
data_Pr2Y4CoCl10
_symmetry_space_group_name_H-M   'P 1'
_cell_length_a   7.25099321
_cell_length_b   8.91572038
_cell_length_c   9.01714331
_cell_angle_alpha   108.87979635
_cell_angle_beta   99.43454762
_cell_angle_gamma   106.05439612
_symmetry_Int_Tables_number   1
_chemical_formula_structural   Pr2Y4CoCl10
_chemical_formula_sum   'Pr2 Y4 Co1 Cl10'
_cell_volume   509.06477777
_cell_formula_units_Z   1
loop_
 _symmetry_equiv_pos_site_id
 _symmetry_equiv_pos_as_xyz
  1  'x, y, z'
loop_
 _atom_site_type_symbol
 _atom_site_label
 _atom_site_symmetry_multiplicity
 _atom_site_fract_x
 _atom_site_fract_y
 _atom_site_fract_z
 _atom_site_occupancy
  Pr  Pr0  1  0.861756  0.143582  0.196132  1
  Pr  Pr1  1  0.138244  0.856418  0.803868  1
  Y  Y2  1  0.533742  0.695313  0.899923  1
  Y  Y3  1  0.466258  0.304687  0.100077  1
  Y  Y4  1  0.630807  0.055174  0.758154  1
  Y  Y5  1  0.369193  0.944826  0.241846  1
  Co  Co6  1  0.500000  0.000000  0.000000  1
  Cl  Cl7  1  0.735962  0.078681  0.463893  1
  Cl  Cl8  1  0.264038  0.921319  0.536107  1
  Cl  Cl9  1  0.955913  0.822831  0.074233  1
  Cl  Cl10  1  0.044087  0.177169  0.925767  1
  Cl  Cl11  1  0.311334  0.253219  0.346515  1
  Cl  Cl12  1  0.688666  0.746781  0.653485  1
  Cl  Cl13  1  0.589975  0.372381  0.844374  1
  Cl  Cl14  1  0.410025  0.627619  0.155626  1
  Cl  Cl15  1  0.840698  0.467805  0.282788  1
  Cl  Cl16  1  0.159302  0.532195  0.717212  1
