# generated using pymatgen
data_Sc2U(SnRh)3
_symmetry_space_group_name_H-M   'P 1'
_cell_length_a   7.43444417
_cell_length_b   7.59444230
_cell_length_c   3.70271800
_cell_angle_alpha   90.00000000
_cell_angle_beta   90.00000000
_cell_angle_gamma   120.71339451
_symmetry_Int_Tables_number   1
_chemical_formula_structural   Sc2U(SnRh)3
_chemical_formula_sum   'Sc2 U1 Sn3 Rh3'
_cell_volume   179.73331009
_cell_formula_units_Z   1
loop_
 _symmetry_equiv_pos_site_id
 _symmetry_equiv_pos_as_xyz
  1  'x, y, z'
loop_
 _atom_site_type_symbol
 _atom_site_label
 _atom_site_symmetry_multiplicity
 _atom_site_fract_x
 _atom_site_fract_y
 _atom_site_fract_z
 _atom_site_occupancy
  Sc  Sc0  1  0.401176  0.397682  0.500000  1
  Sc  Sc1  1  0.598828  0.996508  0.500000  1
  U  U2  1  0.000003  0.589996  0.500000  1
  Sn  Sn3  1  0.715209  0.735195  0.000000  1
  Sn  Sn4  1  0.284793  0.019989  0.000000  1
  Sn  Sn5  1  0.000001  0.247304  0.000000  1
  Rh  Rh6  1  0.693160  0.360301  0.000000  1
  Rh  Rh7  1  0.306836  0.667142  0.000000  1
  Rh  Rh8  1  0.999995  0.985883  0.500000  1
