# generated using pymatgen
data_TbTh2(Si3Pd10)2
_symmetry_space_group_name_H-M   'P 1'
_cell_length_a   8.75866887
_cell_length_b   8.75866934
_cell_length_c   8.75866900
_cell_angle_alpha   60.00000507
_cell_angle_beta   60.00000330
_cell_angle_gamma   60.00000397
_symmetry_Int_Tables_number   1
_chemical_formula_structural   TbTh2(Si3Pd10)2
_chemical_formula_sum   'Tb1 Th2 Si6 Pd20'
_cell_volume   475.11571544
_cell_formula_units_Z   1
loop_
 _symmetry_equiv_pos_site_id
 _symmetry_equiv_pos_as_xyz
  1  'x, y, z'
loop_
 _atom_site_type_symbol
 _atom_site_label
 _atom_site_symmetry_multiplicity
 _atom_site_fract_x
 _atom_site_fract_y
 _atom_site_fract_z
 _atom_site_occupancy
  Tb  Tb0  1  0.000000  0.000000  0.000000  1
  Th  Th1  1  0.250000  0.250000  0.250000  1
  Th  Th2  1  0.750000  0.750000  0.750000  1
  Si  Si3  1  0.734526  0.265474  0.265474  1
  Si  Si4  1  0.265474  0.734526  0.734526  1
  Si  Si5  1  0.265474  0.734526  0.265474  1
  Si  Si6  1  0.734526  0.265474  0.734526  1
  Si  Si7  1  0.265474  0.265474  0.734526  1
  Si  Si8  1  0.734526  0.734526  0.265474  1
  Pd  Pd9  1  0.346667  0.000000  0.000000  1
  Pd  Pd10  1  0.653333  0.000000  0.000000  1
  Pd  Pd11  1  0.000000  0.346667  0.653333  1
  Pd  Pd12  1  0.000000  0.653333  0.346667  1
  Pd  Pd13  1  0.000000  0.346667  0.000000  1
  Pd  Pd14  1  0.653333  0.000000  0.346667  1
  Pd  Pd15  1  0.000000  0.653333  0.000000  1
  Pd  Pd16  1  0.346667  0.000000  0.653333  1
  Pd  Pd17  1  0.000000  0.000000  0.346667  1
  Pd  Pd18  1  0.000000  0.000000  0.653333  1
  Pd  Pd19  1  0.653333  0.346667  0.000000  1
  Pd  Pd20  1  0.346667  0.653333  0.000000  1
  Pd  Pd21  1  0.384103  0.384103  0.384103  1
  Pd  Pd22  1  0.615897  0.615897  0.615897  1
  Pd  Pd23  1  0.384103  0.384103  0.847692  1
  Pd  Pd24  1  0.384103  0.847692  0.384103  1
  Pd  Pd25  1  0.615897  0.615897  0.152308  1
  Pd  Pd26  1  0.615897  0.152308  0.615897  1
  Pd  Pd27  1  0.847692  0.384103  0.384103  1
  Pd  Pd28  1  0.152308  0.615897  0.615897  1
