# generated using pymatgen
data_TbScP7(Rh3W)3
_symmetry_space_group_name_H-M   'P 1'
_cell_length_a   3.93092505
_cell_length_b   9.50495108
_cell_length_c   9.50441102
_cell_angle_alpha   119.99977669
_cell_angle_beta   90.00034894
_cell_angle_gamma   90.00055835
_symmetry_Int_Tables_number   1
_chemical_formula_structural   TbScP7(Rh3W)3
_chemical_formula_sum   'Tb1 Sc1 P7 Rh9 W3'
_cell_volume   307.53989911
_cell_formula_units_Z   1
loop_
 _symmetry_equiv_pos_site_id
 _symmetry_equiv_pos_as_xyz
  1  'x, y, z'
loop_
 _atom_site_type_symbol
 _atom_site_label
 _atom_site_symmetry_multiplicity
 _atom_site_fract_x
 _atom_site_fract_y
 _atom_site_fract_z
 _atom_site_occupancy
  Tb  Tb0  1  0.261873  0.666635  0.333289  1
  Sc  Sc1  1  0.762340  0.333340  0.666682  1
  P  P2  1  0.261780  0.999997  0.999959  1
  P  P3  1  0.761877  0.880501  0.592084  1
  P  P4  1  0.761873  0.407904  0.288419  1
  P  P5  1  0.761867  0.711570  0.119454  1
  P  P6  1  0.261943  0.120343  0.415582  1
  P  P7  1  0.261936  0.584459  0.704802  1
  P  P8  1  0.261912  0.295250  0.879679  1
  Rh  Rh9  1  0.261870  0.886004  0.160302  1
  Rh  Rh10  1  0.261876  0.839662  0.725585  1
  Rh  Rh11  1  0.261864  0.274359  0.114079  1
  Rh  Rh12  1  0.761885  0.611666  0.560480  1
  Rh  Rh13  1  0.761876  0.439457  0.051126  1
  Rh  Rh14  1  0.761890  0.948766  0.388305  1
  Rh  Rh15  1  0.261911  0.369056  0.440869  1
  Rh  Rh16  1  0.261909  0.559209  0.928234  1
  Rh  Rh17  1  0.261922  0.071819  0.630989  1
  W  W18  1  0.761866  0.090662  0.869959  1
  W  W19  1  0.761861  0.130101  0.220855  1
  W  W20  1  0.761869  0.779239  0.909267  1
