# generated using pymatgen
data_CaHoTmGa8Ag3
_symmetry_space_group_name_H-M   'P 1'
_cell_length_a   4.34446765
_cell_length_b   8.38100501
_cell_length_c   8.38100490
_cell_angle_alpha   70.17208706
_cell_angle_beta   74.97827488
_cell_angle_gamma   74.97827617
_symmetry_Int_Tables_number   1
_chemical_formula_structural   CaHoTmGa8Ag3
_chemical_formula_sum   'Ca1 Ho1 Tm1 Ga8 Ag3'
_cell_volume   272.28900469
_cell_formula_units_Z   1
loop_
 _symmetry_equiv_pos_site_id
 _symmetry_equiv_pos_as_xyz
  1  'x, y, z'
loop_
 _atom_site_type_symbol
 _atom_site_label
 _atom_site_symmetry_multiplicity
 _atom_site_fract_x
 _atom_site_fract_y
 _atom_site_fract_z
 _atom_site_occupancy
  Ca  Ca0  1  0.500274  0.499726  0.499726  1
  Ho  Ho1  1  0.200165  0.799835  0.799835  1
  Tm  Tm2  1  0.800373  0.199627  0.199627  1
  Ga  Ga3  1  0.355361  0.361877  0.927400  1
  Ga  Ga4  1  0.644479  0.637663  0.073380  1
  Ga  Ga5  1  0.355361  0.927400  0.361877  1
  Ga  Ga6  1  0.644479  0.073380  0.637663  1
  Ga  Ga7  1  0.161786  0.469573  0.206855  1
  Ga  Ga8  1  0.838625  0.529905  0.792845  1
  Ga  Ga9  1  0.161786  0.206855  0.469573  1
  Ga  Ga10  1  0.838625  0.792845  0.529905  1
  Ag  Ag11  1  0.499463  0.000537  0.000537  1
  Ag  Ag12  1  0.999611  0.807476  0.193302  1
  Ag  Ag13  1  0.999611  0.193302  0.807476  1
