# generated using pymatgen
data_LaNd5(RuBr3)2
_symmetry_space_group_name_H-M   'P 1'
_cell_length_a   4.24340700
_cell_length_b   9.17800519
_cell_length_c   12.09106411
_cell_angle_alpha   87.78859785
_cell_angle_beta   90.00000000
_cell_angle_gamma   90.00000000
_symmetry_Int_Tables_number   1
_chemical_formula_structural   LaNd5(RuBr3)2
_chemical_formula_sum   'La1 Nd5 Ru2 Br6'
_cell_volume   470.54802317
_cell_formula_units_Z   1
loop_
 _symmetry_equiv_pos_site_id
 _symmetry_equiv_pos_as_xyz
  1  'x, y, z'
loop_
 _atom_site_type_symbol
 _atom_site_label
 _atom_site_symmetry_multiplicity
 _atom_site_fract_x
 _atom_site_fract_y
 _atom_site_fract_z
 _atom_site_occupancy
  La  La0  1  0.750000  0.119496  0.162859  1
  Nd  Nd1  1  0.250000  0.324853  0.379783  1
  Nd  Nd2  1  0.750000  0.679514  0.620932  1
  Nd  Nd3  1  0.250000  0.895584  0.391183  1
  Nd  Nd4  1  0.750000  0.101061  0.610344  1
  Nd  Nd5  1  0.250000  0.878713  0.840120  1
  Ru  Ru6  1  0.250000  0.886357  0.623464  1
  Ru  Ru7  1  0.750000  0.115881  0.367980  1
  Br  Br8  1  0.250000  0.394585  0.627321  1
  Br  Br9  1  0.750000  0.604757  0.372533  1
  Br  Br10  1  0.250000  0.878399  0.116692  1
  Br  Br11  1  0.750000  0.111772  0.883214  1
  Br  Br12  1  0.250000  0.360504  0.129477  1
  Br  Br13  1  0.750000  0.648523  0.874100  1
