# generated using pymatgen
data_Nb12Ga8Cu3PtN4
_symmetry_space_group_name_H-M   'P 1'
_cell_length_a   8.28453922
_cell_length_b   8.28453935
_cell_length_c   8.28453979
_cell_angle_alpha   59.88582488
_cell_angle_beta   59.88582480
_cell_angle_gamma   59.88581722
_symmetry_Int_Tables_number   1
_chemical_formula_structural   Nb12Ga8Cu3PtN4
_chemical_formula_sum   'Nb12 Ga8 Cu3 Pt1 N4'
_cell_volume   401.01774816
_cell_formula_units_Z   1
loop_
 _symmetry_equiv_pos_site_id
 _symmetry_equiv_pos_as_xyz
  1  'x, y, z'
loop_
 _atom_site_type_symbol
 _atom_site_label
 _atom_site_symmetry_multiplicity
 _atom_site_fract_x
 _atom_site_fract_y
 _atom_site_fract_z
 _atom_site_occupancy
  Nb  Nb0  1  0.815536  0.815536  0.180684  1
  Nb  Nb1  1  0.188727  0.188727  0.811119  1
  Nb  Nb2  1  0.815536  0.180684  0.815536  1
  Nb  Nb3  1  0.188727  0.811119  0.188727  1
  Nb  Nb4  1  0.180684  0.815536  0.815536  1
  Nb  Nb5  1  0.811119  0.188727  0.188727  1
  Nb  Nb6  1  0.434464  0.434464  0.069316  1
  Nb  Nb7  1  0.061273  0.061273  0.438881  1
  Nb  Nb8  1  0.434464  0.069316  0.434464  1
  Nb  Nb9  1  0.061273  0.438881  0.061273  1
  Nb  Nb10  1  0.069316  0.434464  0.434464  1
  Nb  Nb11  1  0.438881  0.061273  0.061273  1
  Ga  Ga12  1  0.758695  0.411170  0.411170  1
  Ga  Ga13  1  0.411170  0.758695  0.411170  1
  Ga  Ga14  1  0.411170  0.411170  0.758695  1
  Ga  Ga15  1  0.415670  0.415670  0.415670  1
  Ga  Ga16  1  0.491305  0.838830  0.838830  1
  Ga  Ga17  1  0.838830  0.491305  0.838830  1
  Ga  Ga18  1  0.838830  0.838830  0.491305  1
  Ga  Ga19  1  0.834330  0.834330  0.834330  1
  Cu  Cu20  1  0.125000  0.625000  0.625000  1
  Cu  Cu21  1  0.625000  0.125000  0.625000  1
  Cu  Cu22  1  0.625000  0.625000  0.125000  1
  Pt  Pt23  1  0.625000  0.625000  0.625000  1
  N  N24  1  0.625000  0.125000  0.125000  1
  N  N25  1  0.125000  0.625000  0.125000  1
  N  N26  1  0.125000  0.125000  0.625000  1
  N  N27  1  0.125000  0.125000  0.125000  1
