# generated using pymatgen
data_Y12Th8Sn13Sb3
_symmetry_space_group_name_H-M   'P 1'
_cell_length_a   8.12884894
_cell_length_b   8.19512162
_cell_length_c   15.46131000
_cell_angle_alpha   90.03607588
_cell_angle_beta   89.95128816
_cell_angle_gamma   89.99959021
_symmetry_Int_Tables_number   1
_chemical_formula_structural   Y12Th8Sn13Sb3
_chemical_formula_sum   'Y12 Th8 Sn13 Sb3'
_cell_volume   1029.98405405
_cell_formula_units_Z   1
loop_
 _symmetry_equiv_pos_site_id
 _symmetry_equiv_pos_as_xyz
  1  'x, y, z'
loop_
 _atom_site_type_symbol
 _atom_site_label
 _atom_site_symmetry_multiplicity
 _atom_site_fract_x
 _atom_site_fract_y
 _atom_site_fract_z
 _atom_site_occupancy
  Y  Y0  1  0.362129  0.837771  0.876781  1
  Y  Y1  1  0.862977  0.661637  0.623082  1
  Y  Y2  1  0.637180  0.161119  0.376750  1
  Y  Y3  1  0.137593  0.337788  0.123801  1
  Y  Y4  1  0.638506  0.162953  0.123111  1
  Y  Y5  1  0.138142  0.337676  0.376982  1
  Y  Y6  1  0.361953  0.837843  0.623053  1
  Y  Y7  1  0.862023  0.662768  0.876212  1
  Y  Y8  1  0.191470  0.496546  0.749685  1
  Y  Y9  1  0.691312  0.003598  0.751055  1
  Y  Y10  1  0.808378  0.503945  0.249350  1
  Y  Y11  1  0.308632  0.996273  0.250985  1
  Th  Th12  1  0.518249  0.322463  0.904415  1
  Th  Th13  1  0.019922  0.178261  0.595549  1
  Th  Th14  1  0.480020  0.678478  0.404297  1
  Th  Th15  1  0.980467  0.821117  0.095831  1
  Th  Th16  1  0.482463  0.678338  0.095165  1
  Th  Th17  1  0.982376  0.820754  0.404943  1
  Th  Th18  1  0.517606  0.321034  0.595091  1
  Th  Th19  1  0.017768  0.179238  0.904288  1
  Sn  Sn20  1  0.201380  0.540218  0.958205  1
  Sn  Sn21  1  0.703855  0.961147  0.957464  1
  Sn  Sn22  1  0.203562  0.539257  0.542683  1
  Sn  Sn23  1  0.296691  0.039011  0.457300  1
  Sn  Sn24  1  0.799083  0.460850  0.042179  1
  Sn  Sn25  1  0.557364  0.620368  0.749429  1
  Sn  Sn26  1  0.057259  0.879712  0.749487  1
  Sn  Sn27  1  0.442968  0.379474  0.250225  1
  Sn  Sn28  1  0.942728  0.120289  0.250289  1
  Sn  Sn29  1  0.324919  0.142559  0.750003  1
  Sn  Sn30  1  0.824782  0.357402  0.749646  1
  Sn  Sn31  1  0.674811  0.857499  0.250064  1
  Sn  Sn32  1  0.174968  0.642786  0.249953  1
  Sb  Sb33  1  0.296845  0.039687  0.042678  1
  Sb  Sb34  1  0.796343  0.459946  0.457298  1
  Sb  Sb35  1  0.703277  0.960198  0.542674  1
