# generated using pymatgen
data_Tb5Dy5Si5Ge
_symmetry_space_group_name_H-M   'P 1'
_cell_length_a   8.47851711
_cell_length_b   8.48129308
_cell_length_c   6.40379800
_cell_angle_alpha   90.00000000
_cell_angle_beta   90.00000000
_cell_angle_gamma   119.97047940
_symmetry_Int_Tables_number   1
_chemical_formula_structural   Tb5Dy5Si5Ge
_chemical_formula_sum   'Tb5 Dy5 Si5 Ge1'
_cell_volume   398.91405708
_cell_formula_units_Z   1
loop_
 _symmetry_equiv_pos_site_id
 _symmetry_equiv_pos_as_xyz
  1  'x, y, z'
loop_
 _atom_site_type_symbol
 _atom_site_label
 _atom_site_symmetry_multiplicity
 _atom_site_fract_x
 _atom_site_fract_y
 _atom_site_fract_z
 _atom_site_occupancy
  Tb  Tb0  1  0.242919  0.000064  0.250000  1
  Tb  Tb1  1  0.998590  0.755511  0.750000  1
  Tb  Tb2  1  0.999963  0.243341  0.250000  1
  Tb  Tb3  1  0.756495  0.756595  0.250000  1
  Tb  Tb4  1  0.757766  0.000027  0.750000  1
  Dy  Dy5  1  0.333129  0.665406  0.000774  1
  Dy  Dy6  1  0.667620  0.334532  0.499226  1
  Dy  Dy7  1  0.667620  0.334532  0.000774  1
  Dy  Dy8  1  0.333129  0.665406  0.499226  1
  Dy  Dy9  1  0.243146  0.244590  0.750000  1
  Si  Si10  1  0.606089  0.000015  0.250000  1
  Si  Si11  1  0.605750  0.605831  0.750000  1
  Si  Si12  1  0.000048  0.393986  0.750000  1
  Si  Si13  1  0.000105  0.606050  0.250000  1
  Si  Si14  1  0.394074  0.393986  0.250000  1
  Ge  Ge15  1  0.393553  0.000128  0.750000  1
