# generated using pymatgen
data_In4(Pd3Au)3
_symmetry_space_group_name_H-M   'P 1'
_cell_length_a   7.08419540
_cell_length_b   7.08419541
_cell_length_c   7.08419580
_cell_angle_alpha   107.82059713
_cell_angle_beta   107.82059903
_cell_angle_gamma   112.82543981
_symmetry_Int_Tables_number   1
_chemical_formula_structural   In4(Pd3Au)3
_chemical_formula_sum   'In4 Pd9 Au3'
_cell_volume   272.97629792
_cell_formula_units_Z   1
loop_
 _symmetry_equiv_pos_site_id
 _symmetry_equiv_pos_as_xyz
  1  'x, y, z'
loop_
 _atom_site_type_symbol
 _atom_site_label
 _atom_site_symmetry_multiplicity
 _atom_site_fract_x
 _atom_site_fract_y
 _atom_site_fract_z
 _atom_site_occupancy
  In  In0  1  0.245333  0.245333  0.490667  1
  In  In1  1  0.754667  0.754667  0.509333  1
  In  In2  1  0.245333  0.754667  0.000000  1
  In  In3  1  0.754667  0.245333  0.000000  1
  Pd  Pd4  1  0.500357  0.251082  0.249274  1
  Pd  Pd5  1  0.499643  0.748918  0.750726  1
  Pd  Pd6  1  0.001807  0.251082  0.750726  1
  Pd  Pd7  1  0.251082  0.001807  0.750726  1
  Pd  Pd8  1  0.998193  0.748918  0.249274  1
  Pd  Pd9  1  0.748918  0.998193  0.249274  1
  Pd  Pd10  1  0.251082  0.500357  0.249274  1
  Pd  Pd11  1  0.748918  0.499643  0.750726  1
  Pd  Pd12  1  0.000000  0.000000  0.000000  1
  Au  Au13  1  0.500000  0.000000  0.500000  1
  Au  Au14  1  0.000000  0.500000  0.500000  1
  Au  Au15  1  0.500000  0.500000  0.000000  1
