# generated using pymatgen
data_Ba3LiUO6
_symmetry_space_group_name_H-M   'P 1'
_cell_length_a   7.36786011
_cell_length_b   7.36786024
_cell_length_c   7.36786002
_cell_angle_alpha   93.17506828
_cell_angle_beta   93.17506223
_cell_angle_gamma   93.17506485
_symmetry_Int_Tables_number   1
_chemical_formula_structural   Ba3LiUO6
_chemical_formula_sum   'Ba6 Li2 U2 O12'
_cell_volume   398.05394732
_cell_formula_units_Z   2
loop_
 _symmetry_equiv_pos_site_id
 _symmetry_equiv_pos_as_xyz
  1  'x, y, z'
loop_
 _atom_site_type_symbol
 _atom_site_label
 _atom_site_symmetry_multiplicity
 _atom_site_fract_x
 _atom_site_fract_y
 _atom_site_fract_z
 _atom_site_occupancy
  Ba  Ba0  1  0.402873  0.097127  0.750000  1
  Ba  Ba1  1  0.097127  0.750000  0.402873  1
  Ba  Ba2  1  0.250000  0.597127  0.902873  1
  Ba  Ba3  1  0.902873  0.250000  0.597127  1
  Ba  Ba4  1  0.597127  0.902873  0.250000  1
  Ba  Ba5  1  0.750000  0.402873  0.097127  1
  Li  Li6  1  0.750000  0.750000  0.750000  1
  Li  Li7  1  0.250000  0.250000  0.250000  1
  U  U8  1  0.500000  0.500000  0.500000  1
  U  U9  1  0.000000  0.000000  0.000000  1
  O  O10  1  0.280287  0.955594  0.081489  1
  O  O11  1  0.418511  0.544406  0.219713  1
  O  O12  1  0.219713  0.418511  0.544406  1
  O  O13  1  0.544406  0.219713  0.418511  1
  O  O14  1  0.081489  0.280287  0.955594  1
  O  O15  1  0.955594  0.081489  0.280287  1
  O  O16  1  0.918511  0.719713  0.044406  1
  O  O17  1  0.044406  0.918511  0.719713  1
  O  O18  1  0.455594  0.780287  0.581489  1
  O  O19  1  0.780287  0.581489  0.455594  1
  O  O20  1  0.581489  0.455594  0.780287  1
  O  O21  1  0.719713  0.044406  0.918511  1
