# generated using pymatgen
data_NdY3(HoBi)6
_symmetry_space_group_name_H-M   'P 1'
_cell_length_a   8.31599200
_cell_length_b   9.54121900
_cell_length_c   12.17175800
_cell_angle_alpha   90.00000000
_cell_angle_beta   90.00000000
_cell_angle_gamma   90.00000000
_symmetry_Int_Tables_number   1
_chemical_formula_structural   NdY3(HoBi)6
_chemical_formula_sum   'Nd2 Y6 Ho12 Bi12'
_cell_volume   965.76449762
_cell_formula_units_Z   2
loop_
 _symmetry_equiv_pos_site_id
 _symmetry_equiv_pos_as_xyz
  1  'x, y, z'
loop_
 _atom_site_type_symbol
 _atom_site_label
 _atom_site_symmetry_multiplicity
 _atom_site_fract_x
 _atom_site_fract_y
 _atom_site_fract_z
 _atom_site_occupancy
  Nd  Nd0  1  0.183811  0.750000  0.720203  1
  Nd  Nd1  1  0.683811  0.750000  0.779797  1
  Y  Y2  1  0.814090  0.250000  0.281124  1
  Y  Y3  1  0.314090  0.250000  0.218876  1
  Y  Y4  1  0.353510  0.750000  0.217757  1
  Y  Y5  1  0.853510  0.750000  0.282243  1
  Y  Y6  1  0.647790  0.250000  0.785094  1
  Y  Y7  1  0.147790  0.250000  0.714906  1
  Ho  Ho8  1  0.024285  0.750000  0.989364  1
  Ho  Ho9  1  0.524285  0.750000  0.510636  1
  Ho  Ho10  1  0.975066  0.250000  0.013077  1
  Ho  Ho11  1  0.475066  0.250000  0.486923  1
  Ho  Ho12  1  0.307531  0.435834  0.940764  1
  Ho  Ho13  1  0.807531  0.064166  0.559236  1
  Ho  Ho14  1  0.693026  0.936388  0.060666  1
  Ho  Ho15  1  0.193026  0.563612  0.439334  1
  Ho  Ho16  1  0.693026  0.563612  0.060666  1
  Ho  Ho17  1  0.193026  0.936388  0.439334  1
  Ho  Ho18  1  0.307531  0.064166  0.940764  1
  Ho  Ho19  1  0.807531  0.435834  0.559236  1
  Bi  Bi20  1  0.433948  0.008111  0.670835  1
  Bi  Bi21  1  0.933948  0.491889  0.829165  1
  Bi  Bi22  1  0.566765  0.503730  0.326839  1
  Bi  Bi23  1  0.066765  0.996270  0.173161  1
  Bi  Bi24  1  0.566765  0.996270  0.326839  1
  Bi  Bi25  1  0.066765  0.503730  0.173161  1
  Bi  Bi26  1  0.433948  0.491889  0.670835  1
  Bi  Bi27  1  0.933948  0.008111  0.829165  1
  Bi  Bi28  1  0.406777  0.750000  0.962571  1
  Bi  Bi29  1  0.906777  0.750000  0.537429  1
  Bi  Bi30  1  0.592134  0.250000  0.041961  1
  Bi  Bi31  1  0.092134  0.250000  0.458039  1
