# generated using pymatgen
data_La(SmSi2)2
_symmetry_space_group_name_H-M   'P 1'
_cell_length_a   3.98845194
_cell_length_b   4.39966432
_cell_length_c   9.44027000
_cell_angle_alpha   76.51565886
_cell_angle_beta   77.81603130
_cell_angle_gamma   90.00458799
_symmetry_Int_Tables_number   1
_chemical_formula_structural   La(SmSi2)2
_chemical_formula_sum   'La1 Sm2 Si4'
_cell_volume   157.24947646
_cell_formula_units_Z   1
loop_
 _symmetry_equiv_pos_site_id
 _symmetry_equiv_pos_as_xyz
  1  'x, y, z'
loop_
 _atom_site_type_symbol
 _atom_site_label
 _atom_site_symmetry_multiplicity
 _atom_site_fract_x
 _atom_site_fract_y
 _atom_site_fract_z
 _atom_site_occupancy
  La  La0  1  0.000041  0.000048  0.999981  1
  Sm  Sm1  1  0.683806  0.183683  0.633898  1
  Sm  Sm2  1  0.316172  0.816298  0.366113  1
  Si  Si3  1  0.853551  0.353429  0.293774  1
  Si  Si4  1  0.146442  0.646558  0.706231  1
  Si  Si5  1  0.566146  0.566802  0.866779  1
  Si  Si6  1  0.433843  0.433182  0.133226  1
