# generated using pymatgen
data_Ba2Sr6TaNb3O18
_symmetry_space_group_name_H-M   'P 1'
_cell_length_a   5.99443201
_cell_length_b   5.99436243
_cell_length_c   15.91836000
_cell_angle_alpha   89.99957881
_cell_angle_beta   90.00011135
_cell_angle_gamma   119.99932395
_symmetry_Int_Tables_number   1
_chemical_formula_structural   Ba2Sr6TaNb3O18
_chemical_formula_sum   'Ba2 Sr6 Ta1 Nb3 O18'
_cell_volume   495.36229711
_cell_formula_units_Z   1
loop_
 _symmetry_equiv_pos_site_id
 _symmetry_equiv_pos_as_xyz
  1  'x, y, z'
loop_
 _atom_site_type_symbol
 _atom_site_label
 _atom_site_symmetry_multiplicity
 _atom_site_fract_x
 _atom_site_fract_y
 _atom_site_fract_z
 _atom_site_occupancy
  Ba  Ba0  1  0.000017  0.000038  0.749636  1
  Ba  Ba1  1  0.999986  0.999966  0.251085  1
  Sr  Sr2  1  0.666685  0.333366  0.638545  1
  Sr  Sr3  1  0.333313  0.666630  0.139499  1
  Sr  Sr4  1  0.333321  0.666635  0.362987  1
  Sr  Sr5  1  0.666683  0.333365  0.860675  1
  Sr  Sr6  1  0.000001  0.000005  0.499016  1
  Sr  Sr7  1  0.999998  0.999997  0.999497  1
  Ta  Ta8  1  0.666648  0.333284  0.344765  1
  Nb  Nb9  1  0.333341  0.666698  0.846466  1
  Nb  Nb10  1  0.333335  0.666684  0.653466  1
  Nb  Nb11  1  0.666645  0.333286  0.152764  1
  O  O12  1  0.533465  0.964953  0.750119  1
  O  O13  1  0.035100  0.568568  0.750120  1
  O  O14  1  0.431473  0.466584  0.750119  1
  O  O15  1  0.467666  0.037214  0.250561  1
  O  O16  1  0.962733  0.430398  0.250563  1
  O  O17  1  0.569565  0.532284  0.250563  1
  O  O18  1  0.082262  0.353020  0.601236  1
  O  O19  1  0.647045  0.729308  0.601246  1
  O  O20  1  0.270743  0.917795  0.601246  1
  O  O21  1  0.918696  0.647110  0.101196  1
  O  O22  1  0.352829  0.271520  0.101208  1
  O  O23  1  0.728427  0.081248  0.101207  1
  O  O24  1  0.915637  0.644780  0.398410  1
  O  O25  1  0.355183  0.270801  0.398398  1
  O  O26  1  0.729157  0.084335  0.398396  1
  O  O27  1  0.081984  0.353254  0.899011  1
  O  O28  1  0.646812  0.728797  0.899000  1
  O  O29  1  0.271250  0.918077  0.899000  1
