# generated using pymatgen
data_Ti3Ga3(Ru2Pt)2
_symmetry_space_group_name_H-M   'P 1'
_cell_length_a   4.33713801
_cell_length_b   6.26050500
_cell_length_c   12.89767304
_cell_angle_alpha   90.00000000
_cell_angle_beta   90.00854075
_cell_angle_gamma   90.00000000
_symmetry_Int_Tables_number   1
_chemical_formula_structural   Ti3Ga3(Ru2Pt)2
_chemical_formula_sum   'Ti6 Ga6 Ru8 Pt4'
_cell_volume   350.20631012
_cell_formula_units_Z   2
loop_
 _symmetry_equiv_pos_site_id
 _symmetry_equiv_pos_as_xyz
  1  'x, y, z'
loop_
 _atom_site_type_symbol
 _atom_site_label
 _atom_site_symmetry_multiplicity
 _atom_site_fract_x
 _atom_site_fract_y
 _atom_site_fract_z
 _atom_site_occupancy
  Ti  Ti0  1  0.000061  0.500000  0.991151  1
  Ti  Ti1  1  0.499767  0.000000  0.175513  1
  Ti  Ti2  1  0.999809  0.500000  0.342571  1
  Ti  Ti3  1  0.499988  0.000000  0.502277  1
  Ti  Ti4  1  0.000173  0.500000  0.664389  1
  Ti  Ti5  1  0.500230  0.000000  0.824100  1
  Ga  Ga6  1  0.000049  0.000000  0.996680  1
  Ga  Ga7  1  0.499758  0.500000  0.169990  1
  Ga  Ga8  1  0.999788  0.000000  0.339208  1
  Ga  Ga9  1  0.499982  0.500000  0.501096  1
  Ga  Ga10  1  0.000186  0.000000  0.665572  1
  Ga  Ga11  1  0.500216  0.500000  0.827452  1
  Ru  Ru12  1  0.499799  0.249256  0.329840  1
  Ru  Ru13  1  0.499799  0.750744  0.329840  1
  Ru  Ru14  1  0.999980  0.251064  0.498896  1
  Ru  Ru15  1  0.999980  0.748936  0.498896  1
  Ru  Ru16  1  0.500176  0.248932  0.667772  1
  Ru  Ru17  1  0.500176  0.751068  0.667772  1
  Ru  Ru18  1  0.000214  0.250738  0.836826  1
  Ru  Ru19  1  0.000214  0.749262  0.836826  1
  Pt  Pt20  1  0.500063  0.252094  0.001150  1
  Pt  Pt21  1  0.500063  0.747906  0.001150  1
  Pt  Pt22  1  0.999766  0.247911  0.165517  1
  Pt  Pt23  1  0.999766  0.752089  0.165517  1
