# generated using pymatgen
data_TmLuPa2(Al8Pt3)3
_symmetry_space_group_name_H-M   'P 1'
_cell_length_a   7.56296689
_cell_length_b   7.57398987
_cell_length_c   13.10117402
_cell_angle_alpha   84.50662950
_cell_angle_beta   78.91915188
_cell_angle_gamma   59.92746845
_symmetry_Int_Tables_number   1
_chemical_formula_structural   TmLuPa2(Al8Pt3)3
_chemical_formula_sum   'Tm1 Lu1 Pa2 Al24 Pt9'
_cell_volume   637.33356903
_cell_formula_units_Z   1
loop_
 _symmetry_equiv_pos_site_id
 _symmetry_equiv_pos_as_xyz
  1  'x, y, z'
loop_
 _atom_site_type_symbol
 _atom_site_label
 _atom_site_symmetry_multiplicity
 _atom_site_fract_x
 _atom_site_fract_y
 _atom_site_fract_z
 _atom_site_occupancy
  Tm  Tm0  1  0.734296  0.498391  0.807177  1
  Lu  Lu1  1  0.265575  0.501606  0.193047  1
  Pa  Pa2  1  0.394739  0.168553  0.805767  1
  Pa  Pa3  1  0.605274  0.831468  0.194223  1
  Al  Al4  1  0.684550  0.832812  0.943894  1
  Al  Al5  1  0.315417  0.167341  0.056194  1
  Al  Al6  1  0.145656  0.832608  0.561476  1
  Al  Al7  1  0.854351  0.167377  0.438512  1
  Al  Al8  1  0.479982  0.167366  0.558315  1
  Al  Al9  1  0.520010  0.832641  0.441666  1
  Al  Al10  1  0.215499  0.167868  0.329382  1
  Al  Al11  1  0.784556  0.832256  0.670532  1
  Al  Al12  1  0.437334  0.508742  0.671232  1
  Al  Al13  1  0.562545  0.491266  0.328691  1
  Al  Al14  1  0.107283  0.160020  0.669485  1
  Al  Al15  1  0.892898  0.839836  0.330428  1
  Al  Al16  1  0.354007  0.499643  0.943548  1
  Al  Al17  1  0.645798  0.500341  0.056622  1
  Al  Al18  1  0.015352  0.168413  0.951420  1
  Al  Al19  1  0.984743  0.831466  0.048679  1
  Al  Al20  1  0.185923  0.500216  0.441167  1
  Al  Al21  1  0.814096  0.499789  0.558775  1
  Al  Al22  1  0.734843  0.163450  0.182697  1
  Al  Al23  1  0.265005  0.836626  0.817301  1
  Al  Al24  1  0.062255  0.631100  0.816108  1
  Al  Al25  1  0.937837  0.368968  0.183886  1
  Al  Al26  1  0.855094  0.041250  0.816823  1
  Al  Al27  1  0.144980  0.958559  0.183176  1
  Pt  Pt28  1  0.119145  0.491127  0.640276  1
  Pt  Pt29  1  0.881040  0.508875  0.359654  1
  Pt  Pt30  1  0.656619  0.172713  0.999808  1
  Pt  Pt31  1  0.343362  0.827293  0.000199  1
  Pt  Pt32  1  0.536877  0.167014  0.360147  1
  Pt  Pt33  1  0.463010  0.833142  0.639777  1
  Pt  Pt34  1  0.777872  0.175749  0.638649  1
  Pt  Pt35  1  0.222172  0.824091  0.361262  1
  Pt  Pt36  1  0.000007  0.500023  0.000005  1
