# generated using pymatgen
data_K8Rb4Li4Si15Ge
_symmetry_space_group_name_H-M   'P 1'
_cell_length_a   7.79417666
_cell_length_b   9.82794800
_cell_length_c   12.45788366
_cell_angle_alpha   90.00000000
_cell_angle_beta   89.92520730
_cell_angle_gamma   90.00000000
_symmetry_Int_Tables_number   1
_chemical_formula_structural   K8Rb4Li4Si15Ge
_chemical_formula_sum   'K8 Rb4 Li4 Si15 Ge1'
_cell_volume   954.28257916
_cell_formula_units_Z   1
loop_
 _symmetry_equiv_pos_site_id
 _symmetry_equiv_pos_as_xyz
  1  'x, y, z'
loop_
 _atom_site_type_symbol
 _atom_site_label
 _atom_site_symmetry_multiplicity
 _atom_site_fract_x
 _atom_site_fract_y
 _atom_site_fract_z
 _atom_site_occupancy
  K  K0  1  0.656947  0.444172  0.692397  1
  K  K1  1  0.155948  0.056492  0.807613  1
  K  K2  1  0.343320  0.944763  0.308030  1
  K  K3  1  0.842981  0.555493  0.192410  1
  K  K4  1  0.343320  0.555237  0.308030  1
  K  K5  1  0.842981  0.944507  0.192410  1
  K  K6  1  0.656947  0.055828  0.692397  1
  K  K7  1  0.155948  0.443508  0.807613  1
  Rb  Rb8  1  0.652779  0.250000  0.397666  1
  Rb  Rb9  1  0.152774  0.250000  0.102233  1
  Rb  Rb10  1  0.347020  0.750000  0.601120  1
  Rb  Rb11  1  0.848039  0.750000  0.898131  1
  Li  Li12  1  0.499972  0.499537  0.000768  1
  Li  Li13  1  0.999992  0.000072  0.499986  1
  Li  Li14  1  0.499972  0.000463  0.000768  1
  Li  Li15  1  0.999992  0.499928  0.499986  1
  Si  Si16  1  0.861194  0.750000  0.595701  1
  Si  Si17  1  0.638725  0.250000  0.095483  1
  Si  Si18  1  0.138676  0.250000  0.404439  1
  Si  Si19  1  0.718067  0.628923  0.449214  1
  Si  Si20  1  0.217944  0.871099  0.052683  1
  Si  Si21  1  0.281966  0.128938  0.550860  1
  Si  Si22  1  0.781878  0.371112  0.949119  1
  Si  Si23  1  0.013391  0.250000  0.585102  1
  Si  Si24  1  0.513487  0.250000  0.914704  1
  Si  Si25  1  0.986526  0.750000  0.414925  1
  Si  Si26  1  0.485831  0.750000  0.086923  1
  Si  Si27  1  0.217944  0.628901  0.052683  1
  Si  Si28  1  0.718067  0.871077  0.449214  1
  Si  Si29  1  0.781878  0.128888  0.949119  1
  Si  Si30  1  0.281966  0.371062  0.550860  1
  Ge  Ge31  1  0.363534  0.750000  0.897414  1
