# generated using pymatgen
data_Zr10Pb7Au
_symmetry_space_group_name_H-M   'P 1'
_cell_length_a   8.95062000
_cell_length_b   8.95062061
_cell_length_c   6.05229100
_cell_angle_alpha   90.00000000
_cell_angle_beta   90.00000000
_cell_angle_gamma   119.99999776
_symmetry_Int_Tables_number   1
_chemical_formula_structural   Zr10Pb7Au
_chemical_formula_sum   'Zr10 Pb7 Au1'
_cell_volume   419.91047737
_cell_formula_units_Z   1
loop_
 _symmetry_equiv_pos_site_id
 _symmetry_equiv_pos_as_xyz
  1  'x, y, z'
loop_
 _atom_site_type_symbol
 _atom_site_label
 _atom_site_symmetry_multiplicity
 _atom_site_fract_x
 _atom_site_fract_y
 _atom_site_fract_z
 _atom_site_occupancy
  Zr  Zr0  1  0.666666  0.333333  0.000000  1
  Zr  Zr1  1  0.333333  0.666666  0.000000  1
  Zr  Zr2  1  0.277899  0.000000  0.246402  1
  Zr  Zr3  1  0.000000  0.277899  0.246402  1
  Zr  Zr4  1  0.722101  0.722101  0.246402  1
  Zr  Zr5  1  0.666666  0.333333  0.500000  1
  Zr  Zr6  1  0.333333  0.666666  0.500000  1
  Zr  Zr7  1  0.722102  0.000000  0.753599  1
  Zr  Zr8  1  0.277898  0.277899  0.753599  1
  Zr  Zr9  1  0.000000  0.722101  0.753599  1
  Pb  Pb10  1  0.616883  0.000000  0.250099  1
  Pb  Pb11  1  0.383117  0.383118  0.250099  1
  Pb  Pb12  1  0.000000  0.616883  0.250099  1
  Pb  Pb13  1  0.000000  0.000000  0.500000  1
  Pb  Pb14  1  0.383118  0.000000  0.749902  1
  Pb  Pb15  1  0.000000  0.383118  0.749902  1
  Pb  Pb16  1  0.616883  0.616883  0.749902  1
  Au  Au17  1  0.000000  0.000000  0.000000  1
