# generated using pymatgen
data_LiMg12Al7Pd8
_symmetry_space_group_name_H-M   'P 1'
_cell_length_a   8.54203500
_cell_length_b   8.54203498
_cell_length_c   7.77838500
_cell_angle_alpha   90.00000000
_cell_angle_beta   90.00000000
_cell_angle_gamma   120.00000394
_symmetry_Int_Tables_number   1
_chemical_formula_structural   LiMg12Al7Pd8
_chemical_formula_sum   'Li1 Mg12 Al7 Pd8'
_cell_volume   491.52175181
_cell_formula_units_Z   1
loop_
 _symmetry_equiv_pos_site_id
 _symmetry_equiv_pos_as_xyz
  1  'x, y, z'
loop_
 _atom_site_type_symbol
 _atom_site_label
 _atom_site_symmetry_multiplicity
 _atom_site_fract_x
 _atom_site_fract_y
 _atom_site_fract_z
 _atom_site_occupancy
  Li  Li0  1  0.000000  0.000000  0.500000  1
  Mg  Mg1  1  0.795240  0.204760  0.937109  1
  Mg  Mg2  1  0.795240  0.590479  0.937109  1
  Mg  Mg3  1  0.409521  0.204760  0.937109  1
  Mg  Mg4  1  0.204760  0.795240  0.062891  1
  Mg  Mg5  1  0.204760  0.409521  0.062891  1
  Mg  Mg6  1  0.590479  0.795240  0.062891  1
  Mg  Mg7  1  0.539966  0.460034  0.288258  1
  Mg  Mg8  1  0.539966  0.079934  0.288258  1
  Mg  Mg9  1  0.920066  0.460034  0.288258  1
  Mg  Mg10  1  0.460034  0.539966  0.711742  1
  Mg  Mg11  1  0.460034  0.920066  0.711742  1
  Mg  Mg12  1  0.079934  0.539966  0.711742  1
  Al  Al13  1  0.172780  0.827220  0.429010  1
  Al  Al14  1  0.172780  0.345559  0.429010  1
  Al  Al15  1  0.654441  0.827220  0.429010  1
  Al  Al16  1  0.827220  0.172780  0.570990  1
  Al  Al17  1  0.827220  0.654441  0.570990  1
  Al  Al18  1  0.345559  0.172780  0.570990  1
  Al  Al19  1  0.000000  0.000000  0.000000  1
  Pd  Pd20  1  0.880800  0.119200  0.251006  1
  Pd  Pd21  1  0.880800  0.761601  0.251006  1
  Pd  Pd22  1  0.238399  0.119200  0.251006  1
  Pd  Pd23  1  0.119200  0.880800  0.748994  1
  Pd  Pd24  1  0.119200  0.238399  0.748994  1
  Pd  Pd25  1  0.761601  0.880800  0.748994  1
  Pd  Pd26  1  0.333333  0.666667  0.338488  1
  Pd  Pd27  1  0.666667  0.333333  0.661512  1
