# generated using pymatgen
data_Ce(Ga3Pt)3
_symmetry_space_group_name_H-M   'P 1'
_cell_length_a   10.47679970
_cell_length_b   10.47679960
_cell_length_c   10.47679944
_cell_angle_alpha   42.71949595
_cell_angle_beta   42.71949589
_cell_angle_gamma   42.71950122
_symmetry_Int_Tables_number   1
_chemical_formula_structural   Ce(Ga3Pt)3
_chemical_formula_sum   'Ce2 Ga18 Pt6'
_cell_volume   479.44918511
_cell_formula_units_Z   2
loop_
 _symmetry_equiv_pos_site_id
 _symmetry_equiv_pos_as_xyz
  1  'x, y, z'
loop_
 _atom_site_type_symbol
 _atom_site_label
 _atom_site_symmetry_multiplicity
 _atom_site_fract_x
 _atom_site_fract_y
 _atom_site_fract_z
 _atom_site_occupancy
  Ce  Ce0  1  0.166711  0.166711  0.166711  1
  Ce  Ce1  1  0.833289  0.833289  0.833289  1
  Ga  Ga2  1  0.048800  0.048800  0.048800  1
  Ga  Ga3  1  0.700979  0.500000  0.299021  1
  Ga  Ga4  1  0.665422  0.334578  0.000000  1
  Ga  Ga5  1  0.107322  0.438173  0.768738  1
  Ga  Ga6  1  0.438173  0.768738  0.107322  1
  Ga  Ga7  1  0.383896  0.383896  0.383896  1
  Ga  Ga8  1  0.334578  0.000000  0.665422  1
  Ga  Ga9  1  0.616104  0.616104  0.616104  1
  Ga  Ga10  1  0.231262  0.561827  0.892678  1
  Ga  Ga11  1  0.561827  0.892678  0.231262  1
  Ga  Ga12  1  0.500000  0.299021  0.700979  1
  Ga  Ga13  1  0.768738  0.107322  0.438173  1
  Ga  Ga14  1  0.951200  0.951200  0.951200  1
  Ga  Ga15  1  0.299021  0.700979  0.500000  1
  Ga  Ga16  1  0.000000  0.665422  0.334578  1
  Ga  Ga17  1  0.714747  0.714747  0.714747  1
  Ga  Ga18  1  0.285253  0.285253  0.285253  1
  Ga  Ga19  1  0.892678  0.231262  0.561827  1
  Pt  Pt20  1  0.242524  0.919799  0.581532  1
  Pt  Pt21  1  0.919799  0.581532  0.242524  1
  Pt  Pt22  1  0.757476  0.418468  0.080201  1
  Pt  Pt23  1  0.080201  0.757476  0.418468  1
  Pt  Pt24  1  0.418468  0.080201  0.757476  1
  Pt  Pt25  1  0.581532  0.242524  0.919799  1
