# generated using pymatgen
data_Sc4ReSi4W3
_symmetry_space_group_name_H-M   'P 1'
_cell_length_a   7.01660189
_cell_length_b   3.52609800
_cell_length_c   8.14418002
_cell_angle_alpha   90.00000000
_cell_angle_beta   90.21987257
_cell_angle_gamma   90.00000000
_symmetry_Int_Tables_number   1
_chemical_formula_structural   Sc4ReSi4W3
_chemical_formula_sum   'Sc4 Re1 Si4 W3'
_cell_volume   201.49551397
_cell_formula_units_Z   1
loop_
 _symmetry_equiv_pos_site_id
 _symmetry_equiv_pos_as_xyz
  1  'x, y, z'
loop_
 _atom_site_type_symbol
 _atom_site_label
 _atom_site_symmetry_multiplicity
 _atom_site_fract_x
 _atom_site_fract_y
 _atom_site_fract_z
 _atom_site_occupancy
  Sc  Sc0  1  0.042648  0.750001  0.163480  1
  Sc  Sc1  1  0.541243  0.750001  0.334890  1
  Sc  Sc2  1  0.459212  0.250000  0.664736  1
  Sc  Sc3  1  0.957889  0.250000  0.835821  1
  Re  Re4  1  0.369827  0.250000  0.057781  1
  Si  Si5  1  0.739851  0.250000  0.141242  1
  Si  Si6  1  0.242883  0.250000  0.357051  1
  Si  Si7  1  0.757582  0.750001  0.641732  1
  Si  Si8  1  0.259757  0.750001  0.861472  1
  W  W9  1  0.872574  0.250000  0.441910  1
  W  W10  1  0.129024  0.750001  0.557518  1
  W  W11  1  0.627507  0.750001  0.942369  1
