# generated using pymatgen
data_Er7Tm9Cd2(InNi2)2
_symmetry_space_group_name_H-M   'P 1'
_cell_length_a   9.44768791
_cell_length_b   9.44907282
_cell_length_c   9.45983721
_cell_angle_alpha   60.00544601
_cell_angle_beta   60.00484217
_cell_angle_gamma   60.08786361
_symmetry_Int_Tables_number   1
_chemical_formula_structural   Er7Tm9Cd2(InNi2)2
_chemical_formula_sum   'Er7 Tm9 Cd2 In2 Ni4'
_cell_volume   597.59198279
_cell_formula_units_Z   1
loop_
 _symmetry_equiv_pos_site_id
 _symmetry_equiv_pos_as_xyz
  1  'x, y, z'
loop_
 _atom_site_type_symbol
 _atom_site_label
 _atom_site_symmetry_multiplicity
 _atom_site_fract_x
 _atom_site_fract_y
 _atom_site_fract_z
 _atom_site_occupancy
  Er  Er0  1  0.346785  0.346880  0.348288  1
  Er  Er1  1  0.349154  0.348730  0.953943  1
  Er  Er2  1  0.350320  0.952850  0.348966  1
  Er  Er3  1  0.952756  0.350211  0.349284  1
  Er  Er4  1  0.811677  0.188880  0.188049  1
  Er  Er5  1  0.188089  0.812247  0.811729  1
  Er  Er6  1  0.188818  0.811706  0.188265  1
  Tm  Tm7  1  0.811897  0.188431  0.811763  1
  Tm  Tm8  1  0.187396  0.187717  0.812745  1
  Tm  Tm9  1  0.810449  0.810762  0.189865  1
  Tm  Tm10  1  0.937313  0.564701  0.563903  1
  Tm  Tm11  1  0.563544  0.938207  0.934679  1
  Tm  Tm12  1  0.564886  0.937443  0.563707  1
  Tm  Tm13  1  0.938162  0.563334  0.934861  1
  Tm  Tm14  1  0.564736  0.564406  0.935023  1
  Tm  Tm15  1  0.937247  0.937451  0.562231  1
  Cd  Cd16  1  0.580979  0.252934  0.582897  1
  Cd  Cd17  1  0.252968  0.580880  0.582875  1
  In  In18  1  0.581857  0.581682  0.583565  1
  In  In19  1  0.581648  0.581617  0.253093  1
  Ni  Ni20  1  0.142397  0.142429  0.142904  1
  Ni  Ni21  1  0.142101  0.141961  0.572709  1
  Ni  Ni22  1  0.141869  0.572782  0.142368  1
  Ni  Ni23  1  0.572953  0.141759  0.142292  1
