# generated using pymatgen
data_Pr6Be(P3Rh5)4
_symmetry_space_group_name_H-M   'P 1'
_cell_length_a   13.48995500
_cell_length_b   13.48995362
_cell_length_c   3.96704600
_cell_angle_alpha   90.00000000
_cell_angle_beta   90.00000000
_cell_angle_gamma   119.99999602
_symmetry_Int_Tables_number   1
_chemical_formula_structural   Pr6Be(P3Rh5)4
_chemical_formula_sum   'Pr6 Be1 P12 Rh20'
_cell_volume   625.19981809
_cell_formula_units_Z   1
loop_
 _symmetry_equiv_pos_site_id
 _symmetry_equiv_pos_as_xyz
  1  'x, y, z'
loop_
 _atom_site_type_symbol
 _atom_site_label
 _atom_site_symmetry_multiplicity
 _atom_site_fract_x
 _atom_site_fract_y
 _atom_site_fract_z
 _atom_site_occupancy
  Pr  Pr0  1  0.531498  0.717811  0.247890  1
  Pr  Pr1  1  0.282189  0.813687  0.247890  1
  Pr  Pr2  1  0.186313  0.468502  0.247890  1
  Pr  Pr3  1  0.468502  0.282189  0.752110  1
  Pr  Pr4  1  0.717811  0.186313  0.752110  1
  Pr  Pr5  1  0.813687  0.531498  0.752110  1
  Be  Be6  1  0.000000  0.000000  0.000000  1
  P  P7  1  0.521294  0.135240  0.250983  1
  P  P8  1  0.864760  0.386055  0.250983  1
  P  P9  1  0.613945  0.478706  0.250983  1
  P  P10  1  0.949780  0.723726  0.252666  1
  P  P11  1  0.276274  0.226054  0.252666  1
  P  P12  1  0.773946  0.050220  0.252666  1
  P  P13  1  0.386055  0.521294  0.749017  1
  P  P14  1  0.478706  0.864760  0.749017  1
  P  P15  1  0.135240  0.613945  0.749017  1
  P  P16  1  0.723726  0.773946  0.747334  1
  P  P17  1  0.226054  0.949780  0.747334  1
  P  P18  1  0.050220  0.276274  0.747334  1
  Rh  Rh19  1  0.333333  0.666667  0.751685  1
  Rh  Rh20  1  0.924670  0.248912  0.254393  1
  Rh  Rh21  1  0.751088  0.675758  0.254393  1
  Rh  Rh22  1  0.324242  0.075330  0.254393  1
  Rh  Rh23  1  0.439603  0.025293  0.750893  1
  Rh  Rh24  1  0.974707  0.414312  0.750893  1
  Rh  Rh25  1  0.585688  0.560397  0.750893  1
  Rh  Rh26  1  0.666667  0.333333  0.248315  1
  Rh  Rh27  1  0.090953  0.187551  0.242285  1
  Rh  Rh28  1  0.812449  0.903401  0.242285  1
  Rh  Rh29  1  0.096599  0.909047  0.242285  1
  Rh  Rh30  1  0.025293  0.585688  0.249107  1
  Rh  Rh31  1  0.414312  0.439603  0.249107  1
  Rh  Rh32  1  0.560397  0.974707  0.249107  1
  Rh  Rh33  1  0.675758  0.924670  0.745607  1
  Rh  Rh34  1  0.075330  0.751088  0.745607  1
  Rh  Rh35  1  0.248912  0.324242  0.745607  1
  Rh  Rh36  1  0.909047  0.812449  0.757715  1
  Rh  Rh37  1  0.187551  0.096599  0.757715  1
  Rh  Rh38  1  0.903401  0.090953  0.757715  1
