# generated using pymatgen
data_Tm5Sc3Au4
_symmetry_space_group_name_H-M   'P 1'
_cell_length_a   4.77421600
_cell_length_b   6.98013157
_cell_length_c   8.63200816
_cell_angle_alpha   90.12386471
_cell_angle_beta   90.00000000
_cell_angle_gamma   90.00000000
_symmetry_Int_Tables_number   1
_chemical_formula_structural   Tm5Sc3Au4
_chemical_formula_sum   'Tm5 Sc3 Au4'
_cell_volume   287.65802861
_cell_formula_units_Z   1
loop_
 _symmetry_equiv_pos_site_id
 _symmetry_equiv_pos_as_xyz
  1  'x, y, z'
loop_
 _atom_site_type_symbol
 _atom_site_label
 _atom_site_symmetry_multiplicity
 _atom_site_fract_x
 _atom_site_fract_y
 _atom_site_fract_z
 _atom_site_occupancy
  Tm  Tm0  1  0.750000  0.646732  0.422835  1
  Tm  Tm1  1  0.250000  0.478198  0.174247  1
  Tm  Tm2  1  0.250000  0.986978  0.320426  1
  Tm  Tm3  1  0.750000  0.517807  0.823017  1
  Tm  Tm4  1  0.750000  0.021656  0.682877  1
  Sc  Sc5  1  0.250000  0.854242  0.925895  1
  Sc  Sc6  1  0.250000  0.353390  0.578097  1
  Sc  Sc7  1  0.750000  0.146278  0.075074  1
  Au  Au8  1  0.250000  0.247468  0.894643  1
  Au  Au9  1  0.250000  0.752692  0.607954  1
  Au  Au10  1  0.750000  0.751062  0.099039  1
  Au  Au11  1  0.750000  0.243498  0.395897  1
