# generated using pymatgen
data_K4NdNpO6
_symmetry_space_group_name_H-M   'P 1'
_cell_length_a   6.31538473
_cell_length_b   6.31539087
_cell_length_c   6.65326000
_cell_angle_alpha   99.26490842
_cell_angle_beta   99.26510136
_cell_angle_gamma   119.90936982
_symmetry_Int_Tables_number   1
_chemical_formula_structural   K4NdNpO6
_chemical_formula_sum   'K4 Nd1 Np1 O6'
_cell_volume   217.80105219
_cell_formula_units_Z   1
loop_
 _symmetry_equiv_pos_site_id
 _symmetry_equiv_pos_as_xyz
  1  'x, y, z'
loop_
 _atom_site_type_symbol
 _atom_site_label
 _atom_site_symmetry_multiplicity
 _atom_site_fract_x
 _atom_site_fract_y
 _atom_site_fract_z
 _atom_site_occupancy
  K  K0  1  0.499904  0.500098  0.000000  1
  K  K1  1  0.006139  0.993858  0.499999  1
  K  K2  1  0.657702  0.342301  0.500001  1
  K  K3  1  0.339951  0.660052  0.500001  1
  Nd  Nd4  1  0.836793  0.163210  0.000001  1
  Np  Np5  1  0.168304  0.831699  0.000001  1
  O  O6  1  0.969968  0.600950  0.189495  1
  O  O7  1  0.540599  0.938745  0.196545  1
  O  O8  1  0.192596  0.172260  0.194180  1
  O  O9  1  0.827744  0.807406  0.805823  1
  O  O10  1  0.061257  0.459403  0.803457  1
  O  O11  1  0.399051  0.030030  0.810505  1
