# generated using pymatgen
data_Ba3H12IrRh
_symmetry_space_group_name_H-M   'P 1'
_cell_length_a   5.51808300
_cell_length_b   5.51808183
_cell_length_c   8.91528800
_cell_angle_alpha   90.00000000
_cell_angle_beta   90.00000000
_cell_angle_gamma   120.00000100
_symmetry_Int_Tables_number   1
_chemical_formula_structural   Ba3H12IrRh
_chemical_formula_sum   'Ba3 H12 Ir1 Rh1'
_cell_volume   235.09444640
_cell_formula_units_Z   1
loop_
 _symmetry_equiv_pos_site_id
 _symmetry_equiv_pos_as_xyz
  1  'x, y, z'
loop_
 _atom_site_type_symbol
 _atom_site_label
 _atom_site_symmetry_multiplicity
 _atom_site_fract_x
 _atom_site_fract_y
 _atom_site_fract_z
 _atom_site_occupancy
  Ba  Ba0  1  0.000000  0.000000  0.000964  1
  Ba  Ba1  1  0.666667  0.333333  0.358946  1
  Ba  Ba2  1  0.333333  0.666667  0.642507  1
  H  H3  1  0.186485  0.813515  0.347464  1
  H  H4  1  0.627030  0.813515  0.347464  1
  H  H5  1  0.186485  0.372970  0.347464  1
  H  H6  1  0.812964  0.187036  0.652897  1
  H  H7  1  0.374072  0.187036  0.652897  1
  H  H8  1  0.812964  0.625928  0.652897  1
  H  H9  1  0.528606  0.057212  0.872352  1
  H  H10  1  0.528606  0.471394  0.872352  1
  H  H11  1  0.942788  0.471394  0.872352  1
  H  H12  1  0.472909  0.945818  0.126529  1
  H  H13  1  0.472909  0.527091  0.126529  1
  H  H14  1  0.054182  0.527091  0.126529  1
  Ir  Ir15  1  0.333333  0.666667  0.240269  1
  Rh  Rh16  1  0.666667  0.333333  0.759589  1
