# generated using pymatgen
data_K2GaF5
_symmetry_space_group_name_H-M   'P 1'
_cell_length_a   3.98338237
_cell_length_b   6.03875945
_cell_length_c   6.70796533
_cell_angle_alpha   116.67909182
_cell_angle_beta   72.61804189
_cell_angle_gamma   89.92579663
_symmetry_Int_Tables_number   1
_chemical_formula_structural   K2GaF5
_chemical_formula_sum   'K2 Ga1 F5'
_cell_volume   135.84873298
_cell_formula_units_Z   1
loop_
 _symmetry_equiv_pos_site_id
 _symmetry_equiv_pos_as_xyz
  1  'x, y, z'
loop_
 _atom_site_type_symbol
 _atom_site_label
 _atom_site_symmetry_multiplicity
 _atom_site_fract_x
 _atom_site_fract_y
 _atom_site_fract_z
 _atom_site_occupancy
  K  K0  1  0.654037  0.143693  0.506517  1
  K  K1  1  0.302581  0.483241  0.186601  1
  Ga  Ga2  1  0.978599  0.815322  0.848258  1
  F  F3  1  0.101624  0.472995  0.607947  1
  F  F4  1  0.101620  0.917212  0.607781  1
  F  F5  1  0.855064  0.157378  0.088677  1
  F  F6  1  0.477705  0.815777  0.848483  1
  F  F7  1  0.854708  0.713499  0.088580  1
