# generated using pymatgen
data_Ac6GaGeI6
_symmetry_space_group_name_H-M   'P 1'
_cell_length_a   11.50684472
_cell_length_b   11.50684577
_cell_length_c   11.42331800
_cell_angle_alpha   109.48854295
_cell_angle_beta   109.48854478
_cell_angle_gamma   109.73113728
_symmetry_Int_Tables_number   1
_chemical_formula_structural   Ac6GaGeI6
_chemical_formula_sum   'Ac12 Ga2 Ge2 I12'
_cell_volume   1160.09106003
_cell_formula_units_Z   2
loop_
 _symmetry_equiv_pos_site_id
 _symmetry_equiv_pos_as_xyz
  1  'x, y, z'
loop_
 _atom_site_type_symbol
 _atom_site_label
 _atom_site_symmetry_multiplicity
 _atom_site_fract_x
 _atom_site_fract_y
 _atom_site_fract_z
 _atom_site_occupancy
  Ac  Ac0  1  0.470601  0.485932  0.235008  1
  Ac  Ac1  1  0.750924  0.235592  0.264992  1
  Ac  Ac2  1  0.751399  0.015219  0.487280  1
  Ac  Ac3  1  0.235881  0.472061  0.487280  1
  Ac  Ac4  1  0.264408  0.749076  0.235008  1
  Ac  Ac5  1  0.027939  0.264119  0.012720  1
  Ac  Ac6  1  0.014068  0.029399  0.264992  1
  Ac  Ac7  1  0.484781  0.748601  0.012720  1
  Ac  Ac8  1  0.485941  0.235941  0.471883  1
  Ac  Ac9  1  0.014675  0.485325  0.750000  1
  Ac  Ac10  1  0.264059  0.014059  0.028117  1
  Ac  Ac11  1  0.235325  0.264675  0.750000  1
  Ga  Ga12  1  0.249701  0.250299  0.250000  1
  Ga  Ga13  1  0.500299  0.999701  0.250000  1
  Ge  Ge14  1  0.999975  0.249975  0.499949  1
  Ge  Ge15  1  0.250025  0.500025  0.000051  1
  I  I16  1  0.248875  0.757034  0.740605  1
  I  I17  1  0.516429  0.508272  0.759395  1
  I  I18  1  0.982632  0.739932  0.991126  1
  I  I19  1  0.742966  0.251125  0.759395  1
  I  I20  1  0.991728  0.983571  0.740605  1
  I  I21  1  0.248806  0.991504  0.508874  1
  I  I22  1  0.760068  0.517368  0.508874  1
  I  I23  1  0.508496  0.251194  0.991126  1
  I  I24  1  0.758237  0.741763  0.250000  1
  I  I25  1  0.741746  0.991746  0.983492  1
  I  I26  1  0.991763  0.508237  0.250000  1
  I  I27  1  0.508254  0.758254  0.516508  1
