# generated using pymatgen
data_RbPrUSe6
_symmetry_space_group_name_H-M   'P 1'
_cell_length_a   11.85332762
_cell_length_b   11.85332780
_cell_length_c   11.85332623
_cell_angle_alpha   159.34414148
_cell_angle_beta   152.26630023
_cell_angle_gamma   34.83141651
_symmetry_Int_Tables_number   1
_chemical_formula_structural   RbPrUSe6
_chemical_formula_sum   'Rb1 Pr1 U1 Se6'
_cell_volume   273.11435876
_cell_formula_units_Z   1
loop_
 _symmetry_equiv_pos_site_id
 _symmetry_equiv_pos_as_xyz
  1  'x, y, z'
loop_
 _atom_site_type_symbol
 _atom_site_label
 _atom_site_symmetry_multiplicity
 _atom_site_fract_x
 _atom_site_fract_y
 _atom_site_fract_z
 _atom_site_occupancy
  Rb  Rb0  1  0.998392  0.998392  0.000000  1
  Pr  Pr1  1  0.315783  0.815783  0.500000  1
  U  U2  1  0.686070  0.186070  0.500000  1
  Se  Se3  1  0.182887  0.396228  0.786660  1
  Se  Se4  1  0.218800  0.218800  0.000000  1
  Se  Se5  1  0.397586  0.608901  0.788685  1
  Se  Se6  1  0.609569  0.396228  0.213340  1
  Se  Se7  1  0.820215  0.608901  0.211315  1
  Se  Se8  1  0.770696  0.770696  0.000000  1
