# generated using pymatgen
data_Tb12Tc3Pd
_symmetry_space_group_name_H-M   'P 1'
_cell_length_a   6.32110238
_cell_length_b   7.44825838
_cell_length_c   9.26010000
_cell_angle_alpha   90.00000000
_cell_angle_beta   90.00000000
_cell_angle_gamma   90.17239374
_symmetry_Int_Tables_number   1
_chemical_formula_structural   Tb12Tc3Pd
_chemical_formula_sum   'Tb12 Tc3 Pd1'
_cell_volume   435.97468161
_cell_formula_units_Z   1
loop_
 _symmetry_equiv_pos_site_id
 _symmetry_equiv_pos_as_xyz
  1  'x, y, z'
loop_
 _atom_site_type_symbol
 _atom_site_label
 _atom_site_symmetry_multiplicity
 _atom_site_fract_x
 _atom_site_fract_y
 _atom_site_fract_z
 _atom_site_occupancy
  Tb  Tb0  1  0.627371  0.046151  0.250000  1
  Tb  Tb1  1  0.370667  0.956676  0.750000  1
  Tb  Tb2  1  0.124402  0.461116  0.750000  1
  Tb  Tb3  1  0.867999  0.534335  0.250000  1
  Tb  Tb4  1  0.165870  0.183642  0.058440  1
  Tb  Tb5  1  0.829786  0.824179  0.931443  1
  Tb  Tb6  1  0.664722  0.322058  0.935269  1
  Tb  Tb7  1  0.829786  0.824179  0.568557  1
  Tb  Tb8  1  0.341080  0.670437  0.059294  1
  Tb  Tb9  1  0.165870  0.183642  0.441560  1
  Tb  Tb10  1  0.341080  0.670437  0.440706  1
  Tb  Tb11  1  0.664722  0.322058  0.564731  1
  Tc  Tc12  1  0.454802  0.385225  0.250000  1
  Tc  Tc13  1  0.538671  0.614911  0.750000  1
  Tc  Tc14  1  0.963420  0.113583  0.750000  1
  Pd  Pd15  1  0.049750  0.887369  0.250000  1
