# generated using pymatgen
data_LiHo4(SiB4)2
_symmetry_space_group_name_H-M   'P 1'
_cell_length_a   7.13182900
_cell_length_b   7.13182900
_cell_length_c   7.80607600
_cell_angle_alpha   90.00000000
_cell_angle_beta   90.00000000
_cell_angle_gamma   90.00000000
_symmetry_Int_Tables_number   1
_chemical_formula_structural   LiHo4(SiB4)2
_chemical_formula_sum   'Li2 Ho8 Si4 B16'
_cell_volume   397.04032560
_cell_formula_units_Z   2
loop_
 _symmetry_equiv_pos_site_id
 _symmetry_equiv_pos_as_xyz
  1  'x, y, z'
loop_
 _atom_site_type_symbol
 _atom_site_label
 _atom_site_symmetry_multiplicity
 _atom_site_fract_x
 _atom_site_fract_y
 _atom_site_fract_z
 _atom_site_occupancy
  Li  Li0  1  0.000000  0.000000  0.500000  1
  Li  Li1  1  0.500000  0.500000  0.500000  1
  Ho  Ho2  1  0.683378  0.183378  0.235191  1
  Ho  Ho3  1  0.316622  0.816622  0.764809  1
  Ho  Ho4  1  0.316622  0.816622  0.235191  1
  Ho  Ho5  1  0.816622  0.683378  0.235191  1
  Ho  Ho6  1  0.816622  0.683378  0.764809  1
  Ho  Ho7  1  0.683378  0.183378  0.764809  1
  Ho  Ho8  1  0.183378  0.316622  0.764809  1
  Ho  Ho9  1  0.183378  0.316622  0.235191  1
  Si  Si10  1  0.115091  0.615091  0.500000  1
  Si  Si11  1  0.884909  0.384909  0.500000  1
  Si  Si12  1  0.384909  0.115091  0.500000  1
  Si  Si13  1  0.615091  0.884909  0.500000  1
  B  B14  1  0.174032  0.039753  0.000000  1
  B  B15  1  0.825968  0.960247  0.000000  1
  B  B16  1  0.960247  0.174032  0.000000  1
  B  B17  1  0.325968  0.539753  0.000000  1
  B  B18  1  0.039753  0.825968  0.000000  1
  B  B19  1  0.674032  0.460247  0.000000  1
  B  B20  1  0.539753  0.674032  0.000000  1
  B  B21  1  0.460247  0.325968  0.000000  1
  B  B22  1  0.088834  0.588834  0.000000  1
  B  B23  1  0.911166  0.411166  0.000000  1
  B  B24  1  0.411166  0.088834  0.000000  1
  B  B25  1  0.588834  0.911166  0.000000  1
  B  B26  1  0.000000  0.000000  0.162439  1
  B  B27  1  0.000000  0.000000  0.837561  1
  B  B28  1  0.500000  0.500000  0.837561  1
  B  B29  1  0.500000  0.500000  0.162439  1
