# generated using pymatgen
data_Li3DyTm2Pt3
_symmetry_space_group_name_H-M   'P 1'
_cell_length_a   7.05285764
_cell_length_b   7.03169371
_cell_length_c   4.06003400
_cell_angle_alpha   90.00000000
_cell_angle_beta   90.00000000
_cell_angle_gamma   119.90076633
_symmetry_Int_Tables_number   1
_chemical_formula_structural   Li3DyTm2Pt3
_chemical_formula_sum   'Li3 Dy1 Tm2 Pt3'
_cell_volume   174.54956362
_cell_formula_units_Z   1
loop_
 _symmetry_equiv_pos_site_id
 _symmetry_equiv_pos_as_xyz
  1  'x, y, z'
loop_
 _atom_site_type_symbol
 _atom_site_label
 _atom_site_symmetry_multiplicity
 _atom_site_fract_x
 _atom_site_fract_y
 _atom_site_fract_z
 _atom_site_occupancy
  Li  Li0  1  0.766304  0.767007  0.500000  1
  Li  Li1  1  0.233696  0.000703  0.500000  1
  Li  Li2  1  0.000000  0.232070  0.500000  1
  Dy  Dy3  1  0.000000  0.588647  0.000000  1
  Tm  Tm4  1  0.409518  0.409549  0.000000  1
  Tm  Tm5  1  0.590482  0.000031  0.000000  1
  Pt  Pt6  1  0.000000  0.003474  0.000000  1
  Pt  Pt7  1  0.661932  0.330224  0.500000  1
  Pt  Pt8  1  0.338068  0.668293  0.500000  1
