# generated using pymatgen
data_PrDy2Ga8Ag3
_symmetry_space_group_name_H-M   'P 1'
_cell_length_a   4.39428826
_cell_length_b   8.36421559
_cell_length_c   8.36421481
_cell_angle_alpha   69.12698011
_cell_angle_beta   74.77061997
_cell_angle_gamma   74.77062133
_symmetry_Int_Tables_number   1
_chemical_formula_structural   PrDy2Ga8Ag3
_chemical_formula_sum   'Pr1 Dy2 Ga8 Ag3'
_cell_volume   272.24323843
_cell_formula_units_Z   1
loop_
 _symmetry_equiv_pos_site_id
 _symmetry_equiv_pos_as_xyz
  1  'x, y, z'
loop_
 _atom_site_type_symbol
 _atom_site_label
 _atom_site_symmetry_multiplicity
 _atom_site_fract_x
 _atom_site_fract_y
 _atom_site_fract_z
 _atom_site_occupancy
  Pr  Pr0  1  0.500000  0.500000  0.500000  1
  Dy  Dy1  1  0.799606  0.200394  0.200394  1
  Dy  Dy2  1  0.200394  0.799606  0.799606  1
  Ga  Ga3  1  0.643757  0.073594  0.638892  1
  Ga  Ga4  1  0.356243  0.926406  0.361108  1
  Ga  Ga5  1  0.643757  0.638892  0.073594  1
  Ga  Ga6  1  0.356243  0.361108  0.926406  1
  Ga  Ga7  1  0.838422  0.794156  0.528999  1
  Ga  Ga8  1  0.161578  0.205844  0.471001  1
  Ga  Ga9  1  0.838422  0.528999  0.794156  1
  Ga  Ga10  1  0.161578  0.471001  0.205844  1
  Ag  Ag11  1  0.500000  0.000000  0.000000  1
  Ag  Ag12  1  0.000000  0.806357  0.193643  1
  Ag  Ag13  1  0.000000  0.193643  0.806357  1
