# generated using pymatgen
data_Zn3MoH6
_symmetry_space_group_name_H-M   'P 1'
_cell_length_a   5.11119748
_cell_length_b   5.15900199
_cell_length_c   5.17871158
_cell_angle_alpha   92.24068792
_cell_angle_beta   103.57154910
_cell_angle_gamma   100.49468797
_symmetry_Int_Tables_number   1
_chemical_formula_structural   Zn3MoH6
_chemical_formula_sum   'Zn3 Mo1 H6'
_cell_volume   130.04294790
_cell_formula_units_Z   1
loop_
 _symmetry_equiv_pos_site_id
 _symmetry_equiv_pos_as_xyz
  1  'x, y, z'
loop_
 _atom_site_type_symbol
 _atom_site_label
 _atom_site_symmetry_multiplicity
 _atom_site_fract_x
 _atom_site_fract_y
 _atom_site_fract_z
 _atom_site_occupancy
  Zn  Zn0  1  0.278808  0.998138  0.490880  1
  Zn  Zn1  1  0.714864  0.961628  0.920697  1
  Zn  Zn2  1  0.711735  0.431158  0.464503  1
  Mo  Mo3  1  0.753293  0.943362  0.433262  1
  H  H4  1  0.964698  0.166603  0.699802  1
  H  H5  1  0.474144  0.668764  0.425062  1
  H  H6  1  0.814892  0.720178  0.189272  1
  H  H7  1  0.484793  0.994341  0.155173  1
  H  H8  1  0.957966  0.172629  0.271601  1
  H  H9  1  0.969833  0.748582  0.634274  1
