# generated using pymatgen
data_Tm10Sn5BiSe2
_symmetry_space_group_name_H-M   'P 1'
_cell_length_a   9.02759037
_cell_length_b   9.02758986
_cell_length_c   6.61840500
_cell_angle_alpha   90.00000000
_cell_angle_beta   90.00000000
_cell_angle_gamma   120.08299131
_symmetry_Int_Tables_number   1
_chemical_formula_structural   Tm10Sn5BiSe2
_chemical_formula_sum   'Tm10 Sn5 Bi1 Se2'
_cell_volume   466.72798079
_cell_formula_units_Z   1
loop_
 _symmetry_equiv_pos_site_id
 _symmetry_equiv_pos_as_xyz
  1  'x, y, z'
loop_
 _atom_site_type_symbol
 _atom_site_label
 _atom_site_symmetry_multiplicity
 _atom_site_fract_x
 _atom_site_fract_y
 _atom_site_fract_z
 _atom_site_occupancy
  Tm  Tm0  1  0.669730  0.332420  0.001950  1
  Tm  Tm1  1  0.332420  0.669730  0.001950  1
  Tm  Tm2  1  0.332420  0.669730  0.498050  1
  Tm  Tm3  1  0.669730  0.332420  0.498050  1
  Tm  Tm4  1  0.748754  0.748754  0.750000  1
  Tm  Tm5  1  0.251967  0.994453  0.750000  1
  Tm  Tm6  1  0.994453  0.251967  0.750000  1
  Tm  Tm7  1  0.253009  0.253009  0.250000  1
  Tm  Tm8  1  0.745472  0.999788  0.250000  1
  Tm  Tm9  1  0.999788  0.745472  0.250000  1
  Sn  Sn10  1  0.603799  0.000071  0.750000  1
  Sn  Sn11  1  0.000071  0.603799  0.750000  1
  Sn  Sn12  1  0.604943  0.604943  0.250000  1
  Sn  Sn13  1  0.395786  0.000684  0.250000  1
  Sn  Sn14  1  0.000684  0.395786  0.250000  1
  Bi  Bi15  1  0.394911  0.394911  0.750000  1
  Se  Se16  1  0.001032  0.001032  0.999783  1
  Se  Se17  1  0.001032  0.001032  0.500217  1
