# generated using pymatgen
data_La9Nd7Cd4OsPt3
_symmetry_space_group_name_H-M   'P 1'
_cell_length_a   10.12812344
_cell_length_b   10.12812379
_cell_length_c   10.12396688
_cell_angle_alpha   59.73056076
_cell_angle_beta   59.73056686
_cell_angle_gamma   59.81700441
_symmetry_Int_Tables_number   1
_chemical_formula_structural   La9Nd7Cd4OsPt3
_chemical_formula_sum   'La9 Nd7 Cd4 Os1 Pt3'
_cell_volume   730.32080530
_cell_formula_units_Z   1
loop_
 _symmetry_equiv_pos_site_id
 _symmetry_equiv_pos_as_xyz
  1  'x, y, z'
loop_
 _atom_site_type_symbol
 _atom_site_label
 _atom_site_symmetry_multiplicity
 _atom_site_fract_x
 _atom_site_fract_y
 _atom_site_fract_z
 _atom_site_occupancy
  La  La0  1  0.350656  0.350656  0.350660  1
  La  La1  1  0.346460  0.346460  0.954707  1
  La  La2  1  0.347238  0.954424  0.346068  1
  La  La3  1  0.954424  0.347238  0.346068  1
  La  La4  1  0.815402  0.188941  0.190321  1
  La  La5  1  0.190347  0.806755  0.808041  1
  La  La6  1  0.188941  0.815402  0.190321  1
  La  La7  1  0.806755  0.190347  0.808041  1
  La  La8  1  0.190044  0.190044  0.815698  1
  Nd  Nd9  1  0.806745  0.806745  0.191354  1
  Nd  Nd10  1  0.934568  0.566165  0.564710  1
  Nd  Nd11  1  0.560106  0.935562  0.936427  1
  Nd  Nd12  1  0.566165  0.934568  0.564710  1
  Nd  Nd13  1  0.935562  0.560106  0.936427  1
  Nd  Nd14  1  0.565243  0.565243  0.935488  1
  Nd  Nd15  1  0.936284  0.936284  0.559224  1
  Cd  Cd16  1  0.580201  0.580201  0.579072  1
  Cd  Cd17  1  0.580836  0.580836  0.258231  1
  Cd  Cd18  1  0.580464  0.258461  0.580377  1
  Cd  Cd19  1  0.258461  0.580464  0.580377  1
  Os  Os20  1  0.142148  0.142148  0.142096  1
  Pt  Pt21  1  0.144221  0.144221  0.573881  1
  Pt  Pt22  1  0.144596  0.574134  0.143851  1
  Pt  Pt23  1  0.574134  0.144596  0.143851  1
