# generated using pymatgen
data_Ca3Ho3Nb4(ReN4)6
_symmetry_space_group_name_H-M   'P 1'
_cell_length_a   11.16280784
_cell_length_b   11.16280819
_cell_length_c   11.20013044
_cell_angle_alpha   109.41652773
_cell_angle_beta   109.41652826
_cell_angle_gamma   109.44553651
_symmetry_Int_Tables_number   1
_chemical_formula_structural   Ca3Ho3Nb4(ReN4)6
_chemical_formula_sum   'Ca6 Ho6 Nb8 Re12 N48'
_cell_volume   1076.14281024
_cell_formula_units_Z   2
loop_
 _symmetry_equiv_pos_site_id
 _symmetry_equiv_pos_as_xyz
  1  'x, y, z'
loop_
 _atom_site_type_symbol
 _atom_site_label
 _atom_site_symmetry_multiplicity
 _atom_site_fract_x
 _atom_site_fract_y
 _atom_site_fract_z
 _atom_site_occupancy
  Ca  Ca0  1  0.248389  0.375451  0.123902  1
  Ca  Ca1  1  0.375513  0.748452  0.123902  1
  Ca  Ca2  1  0.375001  0.125000  0.250000  1
  Ca  Ca3  1  0.875000  0.625000  0.250000  1
  Ca  Ca4  1  0.124550  0.251611  0.376099  1
  Ca  Ca5  1  0.751548  0.124487  0.376098  1
  Ho  Ho6  1  0.254268  0.876091  0.628101  1
  Ho  Ho7  1  0.873832  0.752009  0.628101  1
  Ho  Ho8  1  0.125000  0.375000  0.750000  1
  Ho  Ho9  1  0.625000  0.875000  0.750000  1
  Ho  Ho10  1  0.623909  0.245732  0.871899  1
  Ho  Ho11  1  0.747991  0.626168  0.871899  1
  Nb  Nb12  1  0.014627  0.013072  0.014264  1
  Nb  Nb13  1  0.499637  0.001192  0.014264  1
  Nb  Nb14  1  0.495834  0.498233  0.004641  1
  Nb  Nb15  1  0.008807  0.506410  0.004641  1
  Nb  Nb16  1  0.498808  0.000364  0.485736  1
  Nb  Nb17  1  0.993591  0.491193  0.495359  1
  Nb  Nb18  1  0.001767  0.004166  0.495360  1
  Nb  Nb19  1  0.486929  0.485374  0.485737  1
  Re  Re20  1  0.751161  0.873762  0.119065  1
  Re  Re21  1  0.867903  0.245303  0.119064  1
  Re  Re22  1  0.627907  0.377907  0.250000  1
  Re  Re23  1  0.122092  0.872093  0.250000  1
  Re  Re24  1  0.626238  0.748839  0.380936  1
  Re  Re25  1  0.254697  0.632097  0.380935  1
  Re  Re26  1  0.753262  0.380746  0.629663  1
  Re  Re27  1  0.376402  0.248918  0.629663  1
  Re  Re28  1  0.873849  0.123849  0.750000  1
  Re  Re29  1  0.376152  0.626151  0.750000  1
  Re  Re30  1  0.251082  0.123597  0.870337  1
  Re  Re31  1  0.119255  0.746738  0.870337  1
  N  N32  1  0.308499  0.895275  0.007196  1
  N  N33  1  0.198696  0.111921  0.007195  1
  N  N34  1  0.698895  0.685218  0.077672  1
  N  N35  1  0.878776  0.392453  0.077671  1
  N  N36  1  0.615831  0.407676  0.094494  1
  N  N37  1  0.978663  0.686818  0.094495  1
  N  N38  1  0.009544  0.198455  0.112082  1
  N  N39  1  0.602538  0.913627  0.112082  1
  N  N40  1  0.492341  0.601844  0.188665  1
  N  N41  1  0.196325  0.586821  0.188665  1
  N  N42  1  0.113276  0.011016  0.198874  1
  N  N43  1  0.585599  0.187859  0.198875  1
  N  N44  1  0.488984  0.386724  0.301126  1
  N  N45  1  0.312141  0.914401  0.301126  1
  N  N46  1  0.898157  0.007660  0.311336  1
  N  N47  1  0.913179  0.303676  0.311335  1
  N  N48  1  0.301545  0.490456  0.387918  1
  N  N49  1  0.586374  0.897462  0.387918  1
  N  N50  1  0.092323  0.884168  0.405506  1
  N  N51  1  0.813182  0.521338  0.405506  1
  N  N52  1  0.814782  0.801105  0.422329  1
  N  N53  1  0.107547  0.621223  0.422328  1
  N  N54  1  0.604726  0.191502  0.492805  1
  N  N55  1  0.388079  0.301304  0.492805  1
  N  N56  1  0.623483  0.707870  0.527454  1
  N  N57  1  0.403970  0.819584  0.527454  1
  N  N58  1  0.904475  0.385076  0.592948  1
  N  N59  1  0.188473  0.207872  0.592948  1
  N  N60  1  0.920981  0.118977  0.606162  1
  N  N61  1  0.185182  0.487185  0.606162  1
  N  N62  1  0.414803  0.098569  0.623420  1
  N  N63  1  0.708618  0.524852  0.623421  1
  N  N64  1  0.084070  0.707200  0.685870  1
  N  N65  1  0.101803  0.978671  0.685871  1
  N  N66  1  0.686703  0.086946  0.707307  1
  N  N67  1  0.520604  0.620362  0.707308  1
  N  N68  1  0.413055  0.813297  0.792693  1
  N  N69  1  0.879638  0.979396  0.792693  1
  N  N70  1  0.792800  0.415931  0.814130  1
  N  N71  1  0.521330  0.398198  0.814129  1
  N  N72  1  0.401431  0.085196  0.876579  1
  N  N73  1  0.975148  0.791383  0.876579  1
  N  N74  1  0.012816  0.314819  0.893839  1
  N  N75  1  0.381023  0.579020  0.893838  1
  N  N76  1  0.114924  0.595525  0.907053  1
  N  N77  1  0.292129  0.311527  0.907052  1
  N  N78  1  0.680416  0.096031  0.972547  1
  N  N79  1  0.792131  0.876517  0.972546  1
