# generated using pymatgen
data_TcRhF12
_symmetry_space_group_name_H-M   'P 1'
_cell_length_a   5.06664306
_cell_length_b   8.78710000
_cell_length_c   9.66222316
_cell_angle_alpha   90.00000000
_cell_angle_beta   89.74999423
_cell_angle_gamma   90.00000000
_symmetry_Int_Tables_number   1
_chemical_formula_structural   TcRhF12
_chemical_formula_sum   'Tc2 Rh2 F24'
_cell_volume   430.16870106
_cell_formula_units_Z   2
loop_
 _symmetry_equiv_pos_site_id
 _symmetry_equiv_pos_as_xyz
  1  'x, y, z'
loop_
 _atom_site_type_symbol
 _atom_site_label
 _atom_site_symmetry_multiplicity
 _atom_site_fract_x
 _atom_site_fract_y
 _atom_site_fract_z
 _atom_site_occupancy
  Tc  Tc0  1  0.917622  0.750000  0.630736  1
  Tc  Tc1  1  0.082378  0.250000  0.369264  1
  Rh  Rh2  1  0.418616  0.250000  0.871074  1
  Rh  Rh3  1  0.581384  0.750000  0.128926  1
  F  F4  1  0.213648  0.750000  0.517016  1
  F  F5  1  0.786352  0.250000  0.482984  1
  F  F6  1  0.717202  0.250000  0.985296  1
  F  F7  1  0.282798  0.750000  0.014704  1
  F  F8  1  0.620204  0.750000  0.742573  1
  F  F9  1  0.379796  0.250000  0.257427  1
  F  F10  1  0.119963  0.250000  0.755849  1
  F  F11  1  0.880037  0.750000  0.244151  1
  F  F12  1  0.768428  0.601420  0.519978  1
  F  F13  1  0.231572  0.398580  0.480022  1
  F  F14  1  0.263368  0.400327  0.982579  1
  F  F15  1  0.231572  0.101420  0.480022  1
  F  F16  1  0.736632  0.599673  0.017421  1
  F  F17  1  0.768428  0.898580  0.519978  1
  F  F18  1  0.736632  0.900327  0.017421  1
  F  F19  1  0.263368  0.099673  0.982579  1
  F  F20  1  0.067579  0.601503  0.739784  1
  F  F21  1  0.932421  0.398497  0.260216  1
  F  F22  1  0.571997  0.400764  0.758464  1
  F  F23  1  0.932421  0.101503  0.260216  1
  F  F24  1  0.428003  0.599236  0.241536  1
  F  F25  1  0.067579  0.898497  0.739784  1
  F  F26  1  0.428003  0.900764  0.241536  1
  F  F27  1  0.571997  0.099236  0.758464  1
