# generated using pymatgen
data_SrEu3(AlSn)4
_symmetry_space_group_name_H-M   'P 1'
_cell_length_a   4.63485400
_cell_length_b   4.63485237
_cell_length_c   17.65357800
_cell_angle_alpha   90.00000000
_cell_angle_beta   90.00000000
_cell_angle_gamma   119.99999737
_symmetry_Int_Tables_number   1
_chemical_formula_structural   SrEu3(AlSn)4
_chemical_formula_sum   'Sr1 Eu3 Al4 Sn4'
_cell_volume   328.42434885
_cell_formula_units_Z   1
loop_
 _symmetry_equiv_pos_site_id
 _symmetry_equiv_pos_as_xyz
  1  'x, y, z'
loop_
 _atom_site_type_symbol
 _atom_site_label
 _atom_site_symmetry_multiplicity
 _atom_site_fract_x
 _atom_site_fract_y
 _atom_site_fract_z
 _atom_site_occupancy
  Sr  Sr0  1  0.000000  0.000000  0.000000  1
  Eu  Eu1  1  0.000000  0.000000  0.500000  1
  Eu  Eu2  1  0.000000  0.000000  0.250843  1
  Eu  Eu3  1  0.000000  0.000000  0.749157  1
  Al  Al4  1  0.333333  0.666667  0.339850  1
  Al  Al5  1  0.666667  0.333333  0.660150  1
  Al  Al6  1  0.666667  0.333333  0.834489  1
  Al  Al7  1  0.333333  0.666667  0.165511  1
  Sn  Sn8  1  0.333333  0.666667  0.879976  1
  Sn  Sn9  1  0.666667  0.333333  0.120024  1
  Sn  Sn10  1  0.666667  0.333333  0.384606  1
  Sn  Sn11  1  0.333333  0.666667  0.615394  1
