# generated using pymatgen
data_Sr8Yb11YPt16
_symmetry_space_group_name_H-M   'P 1'
_cell_length_a   7.67475580
_cell_length_b   7.82990309
_cell_length_c   14.83642969
_cell_angle_alpha   89.99584968
_cell_angle_beta   90.08027891
_cell_angle_gamma   89.86973476
_symmetry_Int_Tables_number   1
_chemical_formula_structural   Sr8Yb11YPt16
_chemical_formula_sum   'Sr8 Yb11 Y1 Pt16'
_cell_volume   891.55636580
_cell_formula_units_Z   1
loop_
 _symmetry_equiv_pos_site_id
 _symmetry_equiv_pos_as_xyz
  1  'x, y, z'
loop_
 _atom_site_type_symbol
 _atom_site_label
 _atom_site_symmetry_multiplicity
 _atom_site_fract_x
 _atom_site_fract_y
 _atom_site_fract_z
 _atom_site_occupancy
  Sr  Sr0  1  0.502600  0.325332  0.903541  1
  Sr  Sr1  1  0.001326  0.176651  0.595335  1
  Sr  Sr2  1  0.497981  0.675355  0.403431  1
  Sr  Sr3  1  0.997733  0.824025  0.097118  1
  Sr  Sr4  1  0.498479  0.674527  0.098243  1
  Sr  Sr5  1  0.997932  0.824374  0.403289  1
  Sr  Sr6  1  0.502861  0.324009  0.595630  1
  Sr  Sr7  1  0.000822  0.177496  0.903529  1
  Yb  Yb8  1  0.839400  0.665986  0.622365  1
  Yb  Yb9  1  0.660756  0.167105  0.376870  1
  Yb  Yb10  1  0.160070  0.333355  0.123614  1
  Yb  Yb11  1  0.661452  0.167545  0.123543  1
  Yb  Yb12  1  0.160795  0.333254  0.376960  1
  Yb  Yb13  1  0.339083  0.832731  0.622762  1
  Yb  Yb14  1  0.839209  0.666878  0.877155  1
  Yb  Yb15  1  0.176203  0.496302  0.748761  1
  Yb  Yb16  1  0.679403  0.003242  0.748887  1
  Yb  Yb17  1  0.822585  0.501721  0.250484  1
  Yb  Yb18  1  0.322324  0.997688  0.250781  1
  Y  Y19  1  0.339075  0.831968  0.876313  1
  Pt  Pt20  1  0.331974  0.037734  0.040599  1
  Pt  Pt21  1  0.834574  0.460567  0.457399  1
  Pt  Pt22  1  0.665418  0.960677  0.542801  1
  Pt  Pt23  1  0.167161  0.545528  0.956514  1
  Pt  Pt24  1  0.662295  0.959303  0.956135  1
  Pt  Pt25  1  0.165207  0.538405  0.542941  1
  Pt  Pt26  1  0.335349  0.039004  0.457366  1
  Pt  Pt27  1  0.837037  0.460664  0.042268  1
  Pt  Pt28  1  0.543306  0.630684  0.753063  1
  Pt  Pt29  1  0.046724  0.869582  0.751180  1
  Pt  Pt30  1  0.454378  0.370432  0.249722  1
  Pt  Pt31  1  0.954778  0.129001  0.250077  1
  Pt  Pt32  1  0.305793  0.122725  0.751752  1
  Pt  Pt33  1  0.801507  0.376121  0.749557  1
  Pt  Pt34  1  0.697043  0.875254  0.250045  1
  Pt  Pt35  1  0.197366  0.624778  0.249971  1
