# generated using pymatgen
data_Ho10Zn3GaB16
_symmetry_space_group_name_H-M   'P 1'
_cell_length_a   7.17964739
_cell_length_b   7.17964739
_cell_length_c   8.33047400
_cell_angle_alpha   90.00000000
_cell_angle_beta   90.00000000
_cell_angle_gamma   90.03773089
_symmetry_Int_Tables_number   1
_chemical_formula_structural   Ho10Zn3GaB16
_chemical_formula_sum   'Ho10 Zn3 Ga1 B16'
_cell_volume   429.41365448
_cell_formula_units_Z   1
loop_
 _symmetry_equiv_pos_site_id
 _symmetry_equiv_pos_as_xyz
  1  'x, y, z'
loop_
 _atom_site_type_symbol
 _atom_site_label
 _atom_site_symmetry_multiplicity
 _atom_site_fract_x
 _atom_site_fract_y
 _atom_site_fract_z
 _atom_site_occupancy
  Ho  Ho0  1  0.681867  0.181867  0.213330  1
  Ho  Ho1  1  0.317357  0.817357  0.786175  1
  Ho  Ho2  1  0.317357  0.817357  0.213825  1
  Ho  Ho3  1  0.818693  0.682289  0.213634  1
  Ho  Ho4  1  0.818693  0.682289  0.786366  1
  Ho  Ho5  1  0.681867  0.181867  0.786670  1
  Ho  Ho6  1  0.182289  0.318693  0.786366  1
  Ho  Ho7  1  0.182289  0.318693  0.213634  1
  Ho  Ho8  1  0.998639  0.000992  0.500000  1
  Ho  Ho9  1  0.500992  0.498639  0.500000  1
  Zn  Zn10  1  0.880653  0.380653  0.500000  1
  Zn  Zn11  1  0.382010  0.117915  0.500000  1
  Zn  Zn12  1  0.617915  0.882010  0.500000  1
  Ga  Ga13  1  0.118693  0.618693  0.500000  1
  B  B14  1  0.172228  0.040243  0.000000  1
  B  B15  1  0.827904  0.959561  0.000000  1
  B  B16  1  0.960028  0.171806  0.000000  1
  B  B17  1  0.328066  0.540064  0.000000  1
  B  B18  1  0.040064  0.828066  0.000000  1
  B  B19  1  0.671806  0.460028  0.000000  1
  B  B20  1  0.540243  0.672228  0.000000  1
  B  B21  1  0.459561  0.327904  0.000000  1
  B  B22  1  0.090208  0.590208  0.000000  1
  B  B23  1  0.909781  0.409781  0.000000  1
  B  B24  1  0.409881  0.090234  0.000000  1
  B  B25  1  0.590234  0.909881  0.000000  1
  B  B26  1  0.999924  0.000417  0.159184  1
  B  B27  1  0.999924  0.000417  0.840816  1
  B  B28  1  0.500417  0.499924  0.840816  1
  B  B29  1  0.500417  0.499924  0.159184  1
