# generated using pymatgen
data_LiCe3(NCl)3
_symmetry_space_group_name_H-M   'P 1'
_cell_length_a   6.65530717
_cell_length_b   6.65530709
_cell_length_c   10.39388400
_cell_angle_alpha   83.86450102
_cell_angle_beta   83.86450109
_cell_angle_gamma   119.93946565
_symmetry_Int_Tables_number   1
_chemical_formula_structural   LiCe3(NCl)3
_chemical_formula_sum   'Li2 Ce6 N6 Cl6'
_cell_volume   389.73754334
_cell_formula_units_Z   2
loop_
 _symmetry_equiv_pos_site_id
 _symmetry_equiv_pos_as_xyz
  1  'x, y, z'
loop_
 _atom_site_type_symbol
 _atom_site_label
 _atom_site_symmetry_multiplicity
 _atom_site_fract_x
 _atom_site_fract_y
 _atom_site_fract_z
 _atom_site_occupancy
  Li  Li0  1  0.666860  0.333140  0.000000  1
  Li  Li1  1  0.333140  0.666860  0.000000  1
  Ce  Ce2  1  0.214055  0.214055  0.358666  1
  Ce  Ce3  1  0.547124  0.879647  0.359167  1
  Ce  Ce4  1  0.879647  0.547124  0.359167  1
  Ce  Ce5  1  0.120353  0.452876  0.640833  1
  Ce  Ce6  1  0.452876  0.120353  0.640833  1
  Ce  Ce7  1  0.785945  0.785945  0.641334  1
  N  N8  1  0.135371  0.135371  0.590187  1
  N  N9  1  0.470652  0.804201  0.588888  1
  N  N10  1  0.804201  0.470652  0.588888  1
  N  N11  1  0.195799  0.529348  0.411112  1
  N  N12  1  0.529348  0.195799  0.411112  1
  N  N13  1  0.864629  0.864629  0.409813  1
  Cl  Cl14  1  0.049879  0.702869  0.849992  1
  Cl  Cl15  1  0.396986  0.396986  0.849878  1
  Cl  Cl16  1  0.702869  0.049879  0.849992  1
  Cl  Cl17  1  0.297131  0.950121  0.150008  1
  Cl  Cl18  1  0.603014  0.603014  0.150122  1
  Cl  Cl19  1  0.950121  0.297131  0.150008  1
