# generated using pymatgen
data_DyPa2(AlIr)3
_symmetry_space_group_name_H-M   'P 1'
_cell_length_a   7.09068602
_cell_length_b   7.09068713
_cell_length_c   4.06976800
_cell_angle_alpha   90.00000000
_cell_angle_beta   90.00000000
_cell_angle_gamma   121.07642393
_symmetry_Int_Tables_number   1
_chemical_formula_structural   DyPa2(AlIr)3
_chemical_formula_sum   'Dy1 Pa2 Al3 Ir3'
_cell_volume   175.25209998
_cell_formula_units_Z   1
loop_
 _symmetry_equiv_pos_site_id
 _symmetry_equiv_pos_as_xyz
  1  'x, y, z'
loop_
 _atom_site_type_symbol
 _atom_site_label
 _atom_site_symmetry_multiplicity
 _atom_site_fract_x
 _atom_site_fract_y
 _atom_site_fract_z
 _atom_site_occupancy
  Dy  Dy0  1  0.415999  0.415999  0.500000  1
  Pa  Pa1  1  0.580630  0.001002  0.500000  1
  Pa  Pa2  1  0.001002  0.580630  0.500000  1
  Al  Al3  1  0.753398  0.753398  0.000000  1
  Al  Al4  1  0.233305  0.008945  0.000000  1
  Al  Al5  1  0.008945  0.233305  0.000000  1
  Ir  Ir6  1  0.693285  0.329969  0.000000  1
  Ir  Ir7  1  0.329969  0.693285  0.000000  1
  Ir  Ir8  1  0.983468  0.983468  0.500000  1
