# generated using pymatgen
data_Sr4MgNp3O16
_symmetry_space_group_name_H-M   'P 1'
_cell_length_a   5.45804167
_cell_length_b   7.96936073
_cell_length_c   8.05618100
_cell_angle_alpha   91.14381879
_cell_angle_beta   90.28740170
_cell_angle_gamma   89.42405333
_symmetry_Int_Tables_number   1
_chemical_formula_structural   Sr4MgNp3O16
_chemical_formula_sum   'Sr4 Mg1 Np3 O16'
_cell_volume   350.32894406
_cell_formula_units_Z   1
loop_
 _symmetry_equiv_pos_site_id
 _symmetry_equiv_pos_as_xyz
  1  'x, y, z'
loop_
 _atom_site_type_symbol
 _atom_site_label
 _atom_site_symmetry_multiplicity
 _atom_site_fract_x
 _atom_site_fract_y
 _atom_site_fract_z
 _atom_site_occupancy
  Sr  Sr0  1  0.479615  0.179277  0.220571  1
  Sr  Sr1  1  0.478927  0.291985  0.762479  1
  Sr  Sr2  1  0.521073  0.708015  0.237521  1
  Sr  Sr3  1  0.520385  0.820723  0.779429  1
  Mg  Mg4  1  0.000000  0.000000  0.000000  1
  Np  Np5  1  0.000000  0.500000  0.000000  1
  Np  Np6  1  0.000000  0.500000  0.500000  1
  Np  Np7  1  0.000000  0.000000  0.500000  1
  O  O8  1  0.108741  0.975734  0.732203  1
  O  O9  1  0.137705  0.533355  0.257058  1
  O  O10  1  0.862295  0.466645  0.742942  1
  O  O11  1  0.891259  0.024266  0.267797  1
  O  O12  1  0.168192  0.260055  0.502460  1
  O  O13  1  0.860640  0.732033  0.005350  1
  O  O14  1  0.831808  0.739945  0.497540  1
  O  O15  1  0.139360  0.267967  0.994650  1
  O  O16  1  0.345326  0.925563  0.059870  1
  O  O17  1  0.306934  0.576401  0.924137  1
  O  O18  1  0.706088  0.414984  0.415162  1
  O  O19  1  0.692168  0.078921  0.576839  1
  O  O20  1  0.654674  0.074437  0.940130  1
  O  O21  1  0.693066  0.423599  0.075863  1
  O  O22  1  0.293912  0.585016  0.584838  1
  O  O23  1  0.307832  0.921079  0.423161  1
