# generated using pymatgen
data_Sr6MnFeN6
_symmetry_space_group_name_H-M   'P 1'
_cell_length_a   7.67983400
_cell_length_b   7.67983370
_cell_length_c   5.27796500
_cell_angle_alpha   90.00000000
_cell_angle_beta   90.00000000
_cell_angle_gamma   120.00000127
_symmetry_Int_Tables_number   1
_chemical_formula_structural   Sr6MnFeN6
_chemical_formula_sum   'Sr6 Mn1 Fe1 N6'
_cell_volume   269.58813919
_cell_formula_units_Z   1
loop_
 _symmetry_equiv_pos_site_id
 _symmetry_equiv_pos_as_xyz
  1  'x, y, z'
loop_
 _atom_site_type_symbol
 _atom_site_label
 _atom_site_symmetry_multiplicity
 _atom_site_fract_x
 _atom_site_fract_y
 _atom_site_fract_z
 _atom_site_occupancy
  Sr  Sr0  1  0.727671  0.086758  0.250000  1
  Sr  Sr1  1  0.638926  0.724454  0.750000  1
  Sr  Sr2  1  0.085527  0.361074  0.750000  1
  Sr  Sr3  1  0.913242  0.640914  0.250000  1
  Sr  Sr4  1  0.359086  0.272329  0.250000  1
  Sr  Sr5  1  0.275546  0.914473  0.750000  1
  Mn  Mn6  1  0.333333  0.666667  0.250000  1
  Fe  Fe7  1  0.666667  0.333333  0.750000  1
  N  N8  1  0.687688  0.116831  0.750000  1
  N  N9  1  0.569481  0.688018  0.250000  1
  N  N10  1  0.118537  0.430519  0.250000  1
  N  N11  1  0.883169  0.570857  0.750000  1
  N  N12  1  0.429143  0.312312  0.750000  1
  N  N13  1  0.311982  0.881463  0.250000  1
