# generated using pymatgen
data_YbSmY5FeI12
_symmetry_space_group_name_H-M   'P 1'
_cell_length_a   9.78343616
_cell_length_b   9.76189333
_cell_length_c   9.83402269
_cell_angle_alpha   106.65665037
_cell_angle_beta   107.22472904
_cell_angle_gamma   106.86073445
_symmetry_Int_Tables_number   1
_chemical_formula_structural   YbSmY5FeI12
_chemical_formula_sum   'Yb1 Sm1 Y5 Fe1 I12'
_cell_volume   783.98381122
_cell_formula_units_Z   1
loop_
 _symmetry_equiv_pos_site_id
 _symmetry_equiv_pos_as_xyz
  1  'x, y, z'
loop_
 _atom_site_type_symbol
 _atom_site_label
 _atom_site_symmetry_multiplicity
 _atom_site_fract_x
 _atom_site_fract_y
 _atom_site_fract_z
 _atom_site_occupancy
  Yb  Yb0  1  0.500393  0.499473  0.499953  1
  Sm  Sm1  1  0.709731  0.976016  0.906261  1
  Y  Y2  1  0.974178  0.903356  0.698382  1
  Y  Y3  1  0.094059  0.287226  0.023851  1
  Y  Y4  1  0.284716  0.024096  0.092465  1
  Y  Y5  1  0.907252  0.713006  0.976458  1
  Y  Y6  1  0.024985  0.096655  0.301578  1
  Fe  Fe7  1  0.997300  0.000120  0.999116  1
  I  I8  1  0.074558  0.226968  0.681817  1
  I  I9  1  0.379222  0.149530  0.454116  1
  I  I10  1  0.620509  0.846828  0.539441  1
  I  I11  1  0.224988  0.684480  0.073777  1
  I  I12  1  0.780400  0.323300  0.928241  1
  I  I13  1  0.683881  0.074764  0.228803  1
  I  I14  1  0.544158  0.616269  0.847308  1
  I  I15  1  0.851090  0.545678  0.624659  1
  I  I16  1  0.926892  0.773456  0.318692  1
  I  I17  1  0.315864  0.926817  0.777759  1
  I  I18  1  0.455719  0.377331  0.151825  1
  I  I19  1  0.150107  0.454630  0.375497  1
