# generated using pymatgen
data_Zr4Pd3Pt8Rh
_symmetry_space_group_name_H-M   'P 1'
_cell_length_a   5.70370600
_cell_length_b   5.72339680
_cell_length_c   9.34728084
_cell_angle_alpha   90.30034624
_cell_angle_beta   90.00000000
_cell_angle_gamma   119.88624590
_symmetry_Int_Tables_number   1
_chemical_formula_structural   Zr4Pd3Pt8Rh
_chemical_formula_sum   'Zr4 Pd3 Pt8 Rh1'
_cell_volume   264.55480139
_cell_formula_units_Z   1
loop_
 _symmetry_equiv_pos_site_id
 _symmetry_equiv_pos_as_xyz
  1  'x, y, z'
loop_
 _atom_site_type_symbol
 _atom_site_label
 _atom_site_symmetry_multiplicity
 _atom_site_fract_x
 _atom_site_fract_y
 _atom_site_fract_z
 _atom_site_occupancy
  Zr  Zr0  1  0.000000  0.000000  0.500000  1
  Zr  Zr1  1  0.000000  0.000000  0.000000  1
  Zr  Zr2  1  0.336593  0.673186  0.254220  1
  Zr  Zr3  1  0.663407  0.326814  0.745780  1
  Pd  Pd4  1  0.500000  0.500000  0.000000  1
  Pd  Pd5  1  0.500000  0.000000  0.000000  1
  Pd  Pd6  1  0.000000  0.500000  0.000000  1
  Pt  Pt7  1  0.500000  0.500000  0.500000  1
  Pt  Pt8  1  0.000000  0.500000  0.500000  1
  Pt  Pt9  1  0.830708  0.172308  0.248564  1
  Pt  Pt10  1  0.830440  0.660880  0.248220  1
  Pt  Pt11  1  0.341601  0.172308  0.248564  1
  Pt  Pt12  1  0.169292  0.827692  0.751436  1
  Pt  Pt13  1  0.169560  0.339120  0.751780  1
  Pt  Pt14  1  0.658399  0.827692  0.751436  1
  Rh  Rh15  1  0.500000  0.000000  0.500000  1
