# generated using pymatgen
data_Pu3Hf3Ga6Pt5Rh
_symmetry_space_group_name_H-M   'P 1'
_cell_length_a   7.08857100
_cell_length_b   7.08857078
_cell_length_c   7.64365100
_cell_angle_alpha   90.00000000
_cell_angle_beta   90.00000000
_cell_angle_gamma   120.00001405
_symmetry_Int_Tables_number   1
_chemical_formula_structural   Pu3Hf3Ga6Pt5Rh
_chemical_formula_sum   'Pu3 Hf3 Ga6 Pt5 Rh1'
_cell_volume   332.62033265
_cell_formula_units_Z   1
loop_
 _symmetry_equiv_pos_site_id
 _symmetry_equiv_pos_as_xyz
  1  'x, y, z'
loop_
 _atom_site_type_symbol
 _atom_site_label
 _atom_site_symmetry_multiplicity
 _atom_site_fract_x
 _atom_site_fract_y
 _atom_site_fract_z
 _atom_site_occupancy
  Pu  Pu0  1  0.579749  0.998755  0.750000  1
  Pu  Pu1  1  0.419005  0.420251  0.750000  1
  Pu  Pu2  1  0.001245  0.580995  0.750000  1
  Hf  Hf3  1  0.394574  0.393389  0.250000  1
  Hf  Hf4  1  0.998814  0.605426  0.250000  1
  Hf  Hf5  1  0.606611  0.001186  0.250000  1
  Ga  Ga6  1  0.253274  0.999816  0.009483  1
  Ga  Ga7  1  0.253274  0.999816  0.490517  1
  Ga  Ga8  1  0.000184  0.253458  0.490517  1
  Ga  Ga9  1  0.000184  0.253458  0.009483  1
  Ga  Ga10  1  0.746542  0.746726  0.009483  1
  Ga  Ga11  1  0.746542  0.746726  0.490517  1
  Pt  Pt12  1  0.666667  0.333333  0.477027  1
  Pt  Pt13  1  0.000000  0.000000  0.750000  1
  Pt  Pt14  1  0.666667  0.333333  0.022973  1
  Pt  Pt15  1  0.333333  0.666667  0.025819  1
  Pt  Pt16  1  0.333333  0.666667  0.474181  1
  Rh  Rh17  1  0.000000  0.000000  0.250000  1
