# generated using pymatgen
data_TbYHo8(In2Pd)4
_symmetry_space_group_name_H-M   'P 1'
_cell_length_a   3.61030500
_cell_length_b   8.16311224
_cell_length_c   18.29420954
_cell_angle_alpha   90.02790842
_cell_angle_beta   90.00000000
_cell_angle_gamma   90.00000000
_symmetry_Int_Tables_number   1
_chemical_formula_structural   TbYHo8(In2Pd)4
_chemical_formula_sum   'Tb1 Y1 Ho8 In8 Pd4'
_cell_volume   539.15453005
_cell_formula_units_Z   1
loop_
 _symmetry_equiv_pos_site_id
 _symmetry_equiv_pos_as_xyz
  1  'x, y, z'
loop_
 _atom_site_type_symbol
 _atom_site_label
 _atom_site_symmetry_multiplicity
 _atom_site_fract_x
 _atom_site_fract_y
 _atom_site_fract_z
 _atom_site_occupancy
  Tb  Tb0  1  0.000000  0.500000  0.500000  1
  Y  Y1  1  0.000000  0.000000  0.000000  1
  Ho  Ho2  1  0.000000  0.739187  0.280693  1
  Ho  Ho3  1  0.000000  0.260813  0.719307  1
  Ho  Ho4  1  0.000000  0.760803  0.780642  1
  Ho  Ho5  1  0.000000  0.239197  0.219358  1
  Ho  Ho6  1  0.000000  0.617199  0.083476  1
  Ho  Ho7  1  0.000000  0.382801  0.916524  1
  Ho  Ho8  1  0.000000  0.882581  0.583439  1
  Ho  Ho9  1  0.000000  0.117419  0.416561  1
  In  In10  1  0.500000  0.708202  0.932169  1
  In  In11  1  0.500000  0.291798  0.067831  1
  In  In12  1  0.500000  0.791968  0.432098  1
  In  In13  1  0.500000  0.208032  0.567902  1
  In  In14  1  0.500000  0.580673  0.650409  1
  In  In15  1  0.500000  0.419327  0.349591  1
  In  In16  1  0.500000  0.919362  0.150309  1
  In  In17  1  0.500000  0.080638  0.849691  1
  Pd  Pd18  1  0.500000  0.522867  0.195891  1
  Pd  Pd19  1  0.500000  0.477133  0.804109  1
  Pd  Pd20  1  0.500000  0.977140  0.695972  1
  Pd  Pd21  1  0.500000  0.022860  0.304028  1
