# generated using pymatgen
data_ErCdGaPt3
_symmetry_space_group_name_H-M   'P 1'
_cell_length_a   5.13892816
_cell_length_b   5.13892738
_cell_length_c   5.13892800
_cell_angle_alpha   64.76986701
_cell_angle_beta   64.76987113
_cell_angle_gamma   64.76985600
_symmetry_Int_Tables_number   1
_chemical_formula_structural   ErCdGaPt3
_chemical_formula_sum   'Er1 Cd1 Ga1 Pt3'
_cell_volume   105.97823538
_cell_formula_units_Z   1
loop_
 _symmetry_equiv_pos_site_id
 _symmetry_equiv_pos_as_xyz
  1  'x, y, z'
loop_
 _atom_site_type_symbol
 _atom_site_label
 _atom_site_symmetry_multiplicity
 _atom_site_fract_x
 _atom_site_fract_y
 _atom_site_fract_z
 _atom_site_occupancy
  Er  Er0  1  0.246339  0.246339  0.246339  1
  Cd  Cd1  1  0.996962  0.996962  0.996962  1
  Ga  Ga2  1  0.627159  0.627159  0.627159  1
  Pt  Pt3  1  0.626728  0.626728  0.126087  1
  Pt  Pt4  1  0.626728  0.126087  0.626728  1
  Pt  Pt5  1  0.126087  0.626728  0.626728  1
