# generated using pymatgen
data_Ba2AlZn3Au10
_symmetry_space_group_name_H-M   'P 1'
_cell_length_a   7.17255500
_cell_length_b   9.16006000
_cell_length_c   10.31296800
_cell_angle_alpha   90.00000000
_cell_angle_beta   90.00000000
_cell_angle_gamma   90.00000000
_symmetry_Int_Tables_number   1
_chemical_formula_structural   Ba2AlZn3Au10
_chemical_formula_sum   'Ba4 Al2 Zn6 Au20'
_cell_volume   677.57266279
_cell_formula_units_Z   2
loop_
 _symmetry_equiv_pos_site_id
 _symmetry_equiv_pos_as_xyz
  1  'x, y, z'
loop_
 _atom_site_type_symbol
 _atom_site_label
 _atom_site_symmetry_multiplicity
 _atom_site_fract_x
 _atom_site_fract_y
 _atom_site_fract_z
 _atom_site_occupancy
  Ba  Ba0  1  0.250000  0.248319  0.121831  1
  Ba  Ba1  1  0.250000  0.748319  0.378169  1
  Ba  Ba2  1  0.750000  0.752767  0.881540  1
  Ba  Ba3  1  0.750000  0.252767  0.618460  1
  Al  Al4  1  0.250000  0.059586  0.619494  1
  Al  Al5  1  0.250000  0.559586  0.880506  1
  Zn  Zn6  1  0.750000  0.935422  0.382838  1
  Zn  Zn7  1  0.750000  0.435422  0.117162  1
  Zn  Zn8  1  0.250000  0.350649  0.481362  1
  Zn  Zn9  1  0.250000  0.850649  0.018638  1
  Zn  Zn10  1  0.750000  0.653836  0.514043  1
  Zn  Zn11  1  0.750000  0.153836  0.985957  1
  Au  Au12  1  0.055507  0.102227  0.399338  1
  Au  Au13  1  0.444493  0.602227  0.100662  1
  Au  Au14  1  0.553554  0.898638  0.606819  1
  Au  Au15  1  0.946446  0.398638  0.893181  1
  Au  Au16  1  0.946446  0.898638  0.606819  1
  Au  Au17  1  0.553554  0.398638  0.893181  1
  Au  Au18  1  0.444493  0.102227  0.399338  1
  Au  Au19  1  0.055507  0.602227  0.100662  1
  Au  Au20  1  0.038849  0.060105  0.858307  1
  Au  Au21  1  0.461151  0.560105  0.641693  1
  Au  Au22  1  0.540098  0.941183  0.144024  1
  Au  Au23  1  0.959902  0.441183  0.355976  1
  Au  Au24  1  0.959902  0.941183  0.144024  1
  Au  Au25  1  0.540098  0.441183  0.355976  1
  Au  Au26  1  0.461151  0.060105  0.858307  1
  Au  Au27  1  0.038849  0.560105  0.641693  1
  Au  Au28  1  0.250000  0.302883  0.733907  1
  Au  Au29  1  0.250000  0.802883  0.766093  1
  Au  Au30  1  0.750000  0.692233  0.258100  1
  Au  Au31  1  0.750000  0.192233  0.241900  1
