# generated using pymatgen
data_DyTh2Zr(Al3Ir)6
_symmetry_space_group_name_H-M   'P 1'
_cell_length_a   7.60010655
_cell_length_b   7.59152747
_cell_length_c   9.44760100
_cell_angle_alpha   90.00000000
_cell_angle_beta   90.00000000
_cell_angle_gamma   119.53437755
_symmetry_Int_Tables_number   1
_chemical_formula_structural   DyTh2Zr(Al3Ir)6
_chemical_formula_sum   'Dy1 Th2 Zr1 Al18 Ir6'
_cell_volume   474.26342930
_cell_formula_units_Z   1
loop_
 _symmetry_equiv_pos_site_id
 _symmetry_equiv_pos_as_xyz
  1  'x, y, z'
loop_
 _atom_site_type_symbol
 _atom_site_label
 _atom_site_symmetry_multiplicity
 _atom_site_fract_x
 _atom_site_fract_y
 _atom_site_fract_z
 _atom_site_occupancy
  Dy  Dy0  1  0.671090  0.994652  0.750000  1
  Th  Th1  1  0.005771  0.329153  0.250000  1
  Th  Th2  1  0.329602  0.006314  0.250000  1
  Zr  Zr3  1  0.994403  0.670995  0.750000  1
  Al  Al4  1  0.124066  0.122416  0.750000  1
  Al  Al5  1  0.865222  0.863420  0.250000  1
  Al  Al6  1  0.999456  0.338555  0.582617  1
  Al  Al7  1  0.995643  0.664761  0.435444  1
  Al  Al8  1  0.995643  0.664761  0.064556  1
  Al  Al9  1  0.332170  0.996958  0.917317  1
  Al  Al10  1  0.999456  0.338555  0.917383  1
  Al  Al11  1  0.664221  0.993950  0.068923  1
  Al  Al12  1  0.664221  0.993950  0.431077  1
  Al  Al13  1  0.332170  0.996958  0.582683  1
  Al  Al14  1  0.337306  0.337544  0.041880  1
  Al  Al15  1  0.670353  0.667872  0.939285  1
  Al  Al16  1  0.670353  0.667872  0.560715  1
  Al  Al17  1  0.337306  0.337544  0.458120  1
  Al  Al18  1  0.336617  0.552000  0.750000  1
  Al  Al19  1  0.661836  0.457822  0.250000  1
  Al  Al20  1  0.556511  0.344126  0.750000  1
  Al  Al21  1  0.456742  0.659539  0.250000  1
  Ir  Ir22  1  0.672113  0.326733  0.500232  1
  Ir  Ir23  1  0.327314  0.672510  0.500649  1
  Ir  Ir24  1  0.327314  0.672510  0.999351  1
  Ir  Ir25  1  0.672113  0.326733  0.999768  1
  Ir  Ir26  1  0.000495  0.000897  0.500078  1
  Ir  Ir27  1  0.000495  0.000897  0.999922  1
