# generated using pymatgen
data_TbCeCo2(P3Rh4)2
_symmetry_space_group_name_H-M   'P 1'
_cell_length_a   3.86383700
_cell_length_b   10.82222600
_cell_length_c   12.40926700
_cell_angle_alpha   90.00000000
_cell_angle_beta   90.00000000
_cell_angle_gamma   90.00000000
_symmetry_Int_Tables_number   1
_chemical_formula_structural   TbCeCo2(P3Rh4)2
_chemical_formula_sum   'Tb2 Ce2 Co4 P12 Rh16'
_cell_volume   518.89743634
_cell_formula_units_Z   2
loop_
 _symmetry_equiv_pos_site_id
 _symmetry_equiv_pos_as_xyz
  1  'x, y, z'
loop_
 _atom_site_type_symbol
 _atom_site_label
 _atom_site_symmetry_multiplicity
 _atom_site_fract_x
 _atom_site_fract_y
 _atom_site_fract_z
 _atom_site_occupancy
  Tb  Tb0  1  0.250000  0.585171  0.707265  1
  Tb  Tb1  1  0.250000  0.914829  0.207265  1
  Ce  Ce2  1  0.750000  0.414309  0.292886  1
  Ce  Ce3  1  0.750000  0.085691  0.792886  1
  Co  Co4  1  0.250000  0.466339  0.934119  1
  Co  Co5  1  0.250000  0.033661  0.434119  1
  Co  Co6  1  0.750000  0.536370  0.065536  1
  Co  Co7  1  0.750000  0.963630  0.565536  1
  P  P8  1  0.250000  0.423179  0.104923  1
  P  P9  1  0.250000  0.076821  0.604923  1
  P  P10  1  0.750000  0.577176  0.893466  1
  P  P11  1  0.750000  0.922824  0.393466  1
  P  P12  1  0.250000  0.276255  0.874095  1
  P  P13  1  0.250000  0.223745  0.374095  1
  P  P14  1  0.750000  0.727797  0.127180  1
  P  P15  1  0.750000  0.772203  0.627180  1
  P  P16  1  0.250000  0.602034  0.388554  1
  P  P17  1  0.250000  0.897966  0.888554  1
  P  P18  1  0.750000  0.401268  0.612386  1
  P  P19  1  0.750000  0.098732  0.112386  1
  Rh  Rh20  1  0.250000  0.714423  0.986352  1
  Rh  Rh21  1  0.250000  0.785577  0.486352  1
  Rh  Rh22  1  0.750000  0.283714  0.014495  1
  Rh  Rh23  1  0.750000  0.216286  0.514495  1
  Rh  Rh24  1  0.250000  0.408449  0.479476  1
  Rh  Rh25  1  0.250000  0.091551  0.979476  1
  Rh  Rh26  1  0.750000  0.591440  0.520288  1
  Rh  Rh27  1  0.750000  0.908560  0.020288  1
  Rh  Rh28  1  0.250000  0.224983  0.178071  1
  Rh  Rh29  1  0.250000  0.275017  0.678071  1
  Rh  Rh30  1  0.750000  0.774114  0.821656  1
  Rh  Rh31  1  0.750000  0.725886  0.321656  1
  Rh  Rh32  1  0.250000  0.885442  0.696929  1
  Rh  Rh33  1  0.250000  0.614558  0.196929  1
  Rh  Rh34  1  0.750000  0.112702  0.302322  1
  Rh  Rh35  1  0.750000  0.387298  0.802322  1
