# generated using pymatgen
data_Tb3YCo6
_symmetry_space_group_name_H-M   'P 1'
_cell_length_a   5.39759300
_cell_length_b   5.39759342
_cell_length_c   6.99998500
_cell_angle_alpha   90.00203996
_cell_angle_beta   89.99795781
_cell_angle_gamma   120.58899907
_symmetry_Int_Tables_number   1
_chemical_formula_structural   Tb3YCo6
_chemical_formula_sum   'Tb3 Y1 Co6'
_cell_volume   175.55763533
_cell_formula_units_Z   1
loop_
 _symmetry_equiv_pos_site_id
 _symmetry_equiv_pos_as_xyz
  1  'x, y, z'
loop_
 _atom_site_type_symbol
 _atom_site_label
 _atom_site_symmetry_multiplicity
 _atom_site_fract_x
 _atom_site_fract_y
 _atom_site_fract_z
 _atom_site_occupancy
  Tb  Tb0  1  0.337153  0.662849  0.097259  1
  Tb  Tb1  1  0.837082  0.162920  0.402575  1
  Tb  Tb2  1  0.162949  0.837053  0.597595  1
  Y  Y3  1  0.663047  0.336955  0.902470  1
  Co  Co4  1  0.999943  0.000057  0.999891  1
  Co  Co5  1  0.334558  0.165318  0.250171  1
  Co  Co6  1  0.834681  0.665442  0.250171  1
  Co  Co7  1  0.500015  0.499987  0.500059  1
  Co  Co8  1  0.165245  0.334669  0.749904  1
  Co  Co9  1  0.665331  0.834754  0.749904  1
