# generated using pymatgen
data_LiTm2Co8P6Os
_symmetry_space_group_name_H-M   'P 1'
_cell_length_a   3.67595600
_cell_length_b   10.27946800
_cell_length_c   11.75528600
_cell_angle_alpha   90.00000000
_cell_angle_beta   90.00000000
_cell_angle_gamma   90.00000000
_symmetry_Int_Tables_number   1
_chemical_formula_structural   LiTm2Co8P6Os
_chemical_formula_sum   'Li2 Tm4 Co16 P12 Os2'
_cell_volume   444.19548824
_cell_formula_units_Z   2
loop_
 _symmetry_equiv_pos_site_id
 _symmetry_equiv_pos_as_xyz
  1  'x, y, z'
loop_
 _atom_site_type_symbol
 _atom_site_label
 _atom_site_symmetry_multiplicity
 _atom_site_fract_x
 _atom_site_fract_y
 _atom_site_fract_z
 _atom_site_occupancy
  Li  Li0  1  0.750000  0.297784  0.009676  1
  Li  Li1  1  0.750000  0.202216  0.509676  1
  Tm  Tm2  1  0.250000  0.579762  0.701926  1
  Tm  Tm3  1  0.250000  0.920238  0.201926  1
  Tm  Tm4  1  0.750000  0.416087  0.295791  1
  Tm  Tm5  1  0.750000  0.083913  0.795791  1
  Co  Co6  1  0.250000  0.408247  0.485034  1
  Co  Co7  1  0.250000  0.091753  0.985034  1
  Co  Co8  1  0.750000  0.594095  0.510948  1
  Co  Co9  1  0.750000  0.905905  0.010948  1
  Co  Co10  1  0.250000  0.218360  0.175232  1
  Co  Co11  1  0.250000  0.281640  0.675232  1
  Co  Co12  1  0.750000  0.775576  0.823751  1
  Co  Co13  1  0.750000  0.724424  0.323751  1
  Co  Co14  1  0.250000  0.884425  0.703078  1
  Co  Co15  1  0.250000  0.615575  0.203078  1
  Co  Co16  1  0.750000  0.116370  0.300483  1
  Co  Co17  1  0.750000  0.383630  0.800483  1
  Co  Co18  1  0.250000  0.464835  0.934061  1
  Co  Co19  1  0.250000  0.035165  0.434061  1
  Co  Co20  1  0.750000  0.536736  0.070287  1
  Co  Co21  1  0.750000  0.963264  0.570287  1
  P  P22  1  0.250000  0.418604  0.116395  1
  P  P23  1  0.250000  0.081396  0.616395  1
  P  P24  1  0.750000  0.576207  0.886497  1
  P  P25  1  0.750000  0.923793  0.386497  1
  P  P26  1  0.250000  0.269736  0.863271  1
  P  P27  1  0.250000  0.230264  0.363271  1
  P  P28  1  0.750000  0.733210  0.134052  1
  P  P29  1  0.750000  0.766790  0.634052  1
  P  P30  1  0.250000  0.595020  0.390653  1
  P  P31  1  0.250000  0.904980  0.890653  1
  P  P32  1  0.750000  0.398510  0.606739  1
  P  P33  1  0.750000  0.101490  0.106739  1
  Os  Os34  1  0.250000  0.712063  0.992126  1
  Os  Os35  1  0.250000  0.787937  0.492126  1
