# generated using pymatgen
data_Tm6Al7Pd16
_symmetry_space_group_name_H-M   'P 1'
_cell_length_a   8.93869393
_cell_length_b   8.93869373
_cell_length_c   8.93869400
_cell_angle_alpha   59.99999899
_cell_angle_beta   59.99999974
_cell_angle_gamma   60.00000335
_symmetry_Int_Tables_number   1
_chemical_formula_structural   Tm6Al7Pd16
_chemical_formula_sum   'Tm6 Al7 Pd16'
_cell_volume   505.01840170
_cell_formula_units_Z   1
loop_
 _symmetry_equiv_pos_site_id
 _symmetry_equiv_pos_as_xyz
  1  'x, y, z'
loop_
 _atom_site_type_symbol
 _atom_site_label
 _atom_site_symmetry_multiplicity
 _atom_site_fract_x
 _atom_site_fract_y
 _atom_site_fract_z
 _atom_site_occupancy
  Tm  Tm0  1  0.713028  0.286972  0.286972  1
  Tm  Tm1  1  0.286972  0.713028  0.713028  1
  Tm  Tm2  1  0.286972  0.713028  0.286972  1
  Tm  Tm3  1  0.286972  0.286972  0.713028  1
  Tm  Tm4  1  0.713028  0.286972  0.713028  1
  Tm  Tm5  1  0.713028  0.713028  0.286972  1
  Al  Al6  1  0.500000  0.000000  0.000000  1
  Al  Al7  1  0.000000  0.500000  0.500000  1
  Al  Al8  1  0.000000  0.500000  0.000000  1
  Al  Al9  1  0.000000  0.000000  0.500000  1
  Al  Al10  1  0.500000  0.000000  0.500000  1
  Al  Al11  1  0.500000  0.500000  0.000000  1
  Al  Al12  1  0.000000  0.000000  0.000000  1
  Pd  Pd13  1  0.336363  0.336363  0.336363  1
  Pd  Pd14  1  0.336363  0.336363  0.990911  1
  Pd  Pd15  1  0.990911  0.336363  0.336363  1
  Pd  Pd16  1  0.336363  0.990911  0.336363  1
  Pd  Pd17  1  0.663637  0.663637  0.663637  1
  Pd  Pd18  1  0.663637  0.663637  0.009089  1
  Pd  Pd19  1  0.663637  0.009089  0.663637  1
  Pd  Pd20  1  0.009089  0.663637  0.663637  1
  Pd  Pd21  1  0.118676  0.118676  0.118676  1
  Pd  Pd22  1  0.118676  0.118676  0.643971  1
  Pd  Pd23  1  0.643971  0.118676  0.118676  1
  Pd  Pd24  1  0.118676  0.643971  0.118676  1
  Pd  Pd25  1  0.881324  0.881324  0.881324  1
  Pd  Pd26  1  0.881324  0.881324  0.356029  1
  Pd  Pd27  1  0.881324  0.356029  0.881324  1
  Pd  Pd28  1  0.356029  0.881324  0.881324  1
