# generated using pymatgen
data_YTh3(Ga3Ir)6
_symmetry_space_group_name_H-M   'P 1'
_cell_length_a   7.69734504
_cell_length_b   7.70532798
_cell_length_c   9.49201800
_cell_angle_alpha   90.00000000
_cell_angle_beta   90.00000000
_cell_angle_gamma   119.72778754
_symmetry_Int_Tables_number   1
_chemical_formula_structural   YTh3(Ga3Ir)6
_chemical_formula_sum   'Y1 Th3 Ga18 Ir6'
_cell_volume   488.88421179
_cell_formula_units_Z   1
loop_
 _symmetry_equiv_pos_site_id
 _symmetry_equiv_pos_as_xyz
  1  'x, y, z'
loop_
 _atom_site_type_symbol
 _atom_site_label
 _atom_site_symmetry_multiplicity
 _atom_site_fract_x
 _atom_site_fract_y
 _atom_site_fract_z
 _atom_site_occupancy
  Y  Y0  1  0.328584  0.004718  0.750000  1
  Th  Th1  1  0.996584  0.670689  0.250000  1
  Th  Th2  1  0.002318  0.329703  0.750000  1
  Th  Th3  1  0.670082  0.995846  0.250000  1
  Ga  Ga4  1  0.135786  0.132747  0.250000  1
  Ga  Ga5  1  0.869780  0.868617  0.750000  1
  Ga  Ga6  1  0.004939  0.335504  0.079804  1
  Ga  Ga7  1  0.001940  0.670271  0.917754  1
  Ga  Ga8  1  0.001940  0.670271  0.582246  1
  Ga  Ga9  1  0.335278  0.003513  0.425829  1
  Ga  Ga10  1  0.004939  0.335504  0.420196  1
  Ga  Ga11  1  0.658889  0.996615  0.582222  1
  Ga  Ga12  1  0.658889  0.996615  0.917778  1
  Ga  Ga13  1  0.335278  0.003513  0.074171  1
  Ga  Ga14  1  0.335446  0.331074  0.563945  1
  Ga  Ga15  1  0.663439  0.663340  0.442505  1
  Ga  Ga16  1  0.663439  0.663340  0.057495  1
  Ga  Ga17  1  0.335446  0.331074  0.936055  1
  Ga  Ga18  1  0.342887  0.544339  0.250000  1
  Ga  Ga19  1  0.656018  0.450307  0.750000  1
  Ga  Ga20  1  0.544334  0.339552  0.250000  1
  Ga  Ga21  1  0.453609  0.661350  0.750000  1
  Ir  Ir22  1  0.675309  0.329933  0.000621  1
  Ir  Ir23  1  0.327321  0.670604  0.000663  1
  Ir  Ir24  1  0.327321  0.670604  0.499337  1
  Ir  Ir25  1  0.675309  0.329933  0.499379  1
  Ir  Ir26  1  0.997449  0.000212  0.000801  1
  Ir  Ir27  1  0.997449  0.000212  0.499199  1
