# generated using pymatgen
data_Ho5LuHg10
_symmetry_space_group_name_H-M   'P 1'
_cell_length_a   6.36721414
_cell_length_b   6.36721425
_cell_length_c   10.12702100
_cell_angle_alpha   90.00000000
_cell_angle_beta   90.00000000
_cell_angle_gamma   105.17630991
_symmetry_Int_Tables_number   1
_chemical_formula_structural   Ho5LuHg10
_chemical_formula_sum   'Ho5 Lu1 Hg10'
_cell_volume   396.24529183
_cell_formula_units_Z   1
loop_
 _symmetry_equiv_pos_site_id
 _symmetry_equiv_pos_as_xyz
  1  'x, y, z'
loop_
 _atom_site_type_symbol
 _atom_site_label
 _atom_site_symmetry_multiplicity
 _atom_site_fract_x
 _atom_site_fract_y
 _atom_site_fract_z
 _atom_site_occupancy
  Ho  Ho0  1  0.429304  0.429304  0.750000  1
  Ho  Ho1  1  0.214570  0.785527  0.499830  1
  Ho  Ho2  1  0.214570  0.785527  0.000170  1
  Ho  Ho3  1  0.785527  0.214570  0.499830  1
  Ho  Ho4  1  0.785527  0.214570  0.000170  1
  Lu  Lu5  1  0.571390  0.571390  0.250000  1
  Hg  Hg6  1  0.971314  0.971314  0.250000  1
  Hg  Hg7  1  0.026503  0.026503  0.750000  1
  Hg  Hg8  1  0.294390  0.294390  0.031257  1
  Hg  Hg9  1  0.706314  0.706314  0.971879  1
  Hg  Hg10  1  0.294390  0.294390  0.468743  1
  Hg  Hg11  1  0.706314  0.706314  0.528121  1
  Hg  Hg12  1  0.481607  0.038022  0.250000  1
  Hg  Hg13  1  0.961448  0.518811  0.750000  1
  Hg  Hg14  1  0.518811  0.961448  0.750000  1
  Hg  Hg15  1  0.038022  0.481607  0.250000  1
