# generated using pymatgen
data_Zr6Cu23S
_symmetry_space_group_name_H-M   'P 1'
_cell_length_a   8.44584310
_cell_length_b   8.44584203
_cell_length_c   8.44584200
_cell_angle_alpha   60.00000011
_cell_angle_beta   60.00000431
_cell_angle_gamma   59.99999867
_symmetry_Int_Tables_number   1
_chemical_formula_structural   Zr6Cu23S
_chemical_formula_sum   'Zr6 Cu23 S1'
_cell_volume   426.00424650
_cell_formula_units_Z   1
loop_
 _symmetry_equiv_pos_site_id
 _symmetry_equiv_pos_as_xyz
  1  'x, y, z'
loop_
 _atom_site_type_symbol
 _atom_site_label
 _atom_site_symmetry_multiplicity
 _atom_site_fract_x
 _atom_site_fract_y
 _atom_site_fract_z
 _atom_site_occupancy
  Zr  Zr0  1  0.715582  0.284418  0.284418  1
  Zr  Zr1  1  0.284418  0.715582  0.715582  1
  Zr  Zr2  1  0.284418  0.715582  0.284418  1
  Zr  Zr3  1  0.715582  0.284418  0.715582  1
  Zr  Zr4  1  0.284418  0.284418  0.715582  1
  Zr  Zr5  1  0.715582  0.715582  0.284418  1
  Cu  Cu6  1  0.121759  0.121759  0.121759  1
  Cu  Cu7  1  0.878241  0.878241  0.878241  1
  Cu  Cu8  1  0.121759  0.121759  0.634724  1
  Cu  Cu9  1  0.121759  0.634724  0.121759  1
  Cu  Cu10  1  0.878241  0.878241  0.365276  1
  Cu  Cu11  1  0.878241  0.365276  0.878241  1
  Cu  Cu12  1  0.634724  0.121759  0.121759  1
  Cu  Cu13  1  0.365276  0.878241  0.878241  1
  Cu  Cu14  1  0.500000  0.000000  0.000000  1
  Cu  Cu15  1  0.000000  0.500000  0.500000  1
  Cu  Cu16  1  0.000000  0.500000  0.000000  1
  Cu  Cu17  1  0.500000  0.000000  0.500000  1
  Cu  Cu18  1  0.000000  0.000000  0.500000  1
  Cu  Cu19  1  0.500000  0.500000  0.000000  1
  Cu  Cu20  1  0.331079  0.331079  0.331079  1
  Cu  Cu21  1  0.668921  0.668921  0.668921  1
  Cu  Cu22  1  0.331079  0.331079  0.006763  1
  Cu  Cu23  1  0.331079  0.006763  0.331079  1
  Cu  Cu24  1  0.668921  0.668921  0.993237  1
  Cu  Cu25  1  0.668921  0.993237  0.668921  1
  Cu  Cu26  1  0.006763  0.331079  0.331079  1
  Cu  Cu27  1  0.993237  0.668921  0.668921  1
  Cu  Cu28  1  0.000000  0.000000  0.000000  1
  S  S29  1  0.500000  0.500000  0.500000  1
