# generated using pymatgen
data_Er2Ga8Co9
_symmetry_space_group_name_H-M   'P 1'
_cell_length_a   6.43986576
_cell_length_b   6.44695445
_cell_length_c   6.44636229
_cell_angle_alpha   85.55611105
_cell_angle_beta   94.44914897
_cell_angle_gamma   94.43628841
_symmetry_Int_Tables_number   1
_chemical_formula_structural   Er2Ga8Co9
_chemical_formula_sum   'Er2 Ga8 Co9'
_cell_volume   265.34224960
_cell_formula_units_Z   1
loop_
 _symmetry_equiv_pos_site_id
 _symmetry_equiv_pos_as_xyz
  1  'x, y, z'
loop_
 _atom_site_type_symbol
 _atom_site_label
 _atom_site_symmetry_multiplicity
 _atom_site_fract_x
 _atom_site_fract_y
 _atom_site_fract_z
 _atom_site_occupancy
  Er  Er0  1  0.633022  0.366762  0.367050  1
  Er  Er1  1  0.366978  0.633239  0.632950  1
  Ga  Ga2  1  0.321465  0.321475  0.999941  1
  Ga  Ga3  1  0.678535  0.678525  0.000059  1
  Ga  Ga4  1  0.874730  0.125275  0.125255  1
  Ga  Ga5  1  0.321626  0.999942  0.321350  1
  Ga  Ga6  1  0.000004  0.678379  0.321358  1
  Ga  Ga7  1  0.678374  0.000058  0.678649  1
  Ga  Ga8  1  0.999996  0.321622  0.678643  1
  Ga  Ga9  1  0.125270  0.874725  0.874744  1
  Co  Co10  1  0.499999  0.000000  0.000000  1
  Co  Co11  1  0.000000  0.499999  0.000000  1
  Co  Co12  1  0.336422  0.663572  0.160353  1
  Co  Co13  1  0.160275  0.336407  0.336451  1
  Co  Co14  1  0.663613  0.839770  0.336439  1
  Co  Co15  1  0.000000  0.000000  0.499999  1
  Co  Co16  1  0.336387  0.160229  0.663561  1
  Co  Co17  1  0.839726  0.663591  0.663549  1
  Co  Co18  1  0.663580  0.336428  0.839648  1
