# generated using pymatgen
data_Dy3Cd3AgHg2
_symmetry_space_group_name_H-M   'P 1'
_cell_length_a   7.99609900
_cell_length_b   7.99609899
_cell_length_c   3.91805200
_cell_angle_alpha   90.00000000
_cell_angle_beta   90.00000000
_cell_angle_gamma   120.00000507
_symmetry_Int_Tables_number   1
_chemical_formula_structural   Dy3Cd3AgHg2
_chemical_formula_sum   'Dy3 Cd3 Ag1 Hg2'
_cell_volume   216.94873871
_cell_formula_units_Z   1
loop_
 _symmetry_equiv_pos_site_id
 _symmetry_equiv_pos_as_xyz
  1  'x, y, z'
loop_
 _atom_site_type_symbol
 _atom_site_label
 _atom_site_symmetry_multiplicity
 _atom_site_fract_x
 _atom_site_fract_y
 _atom_site_fract_z
 _atom_site_occupancy
  Dy  Dy0  1  0.596855  0.000003  0.000000  1
  Dy  Dy1  1  0.000000  0.596851  0.000000  1
  Dy  Dy2  1  0.403145  0.403147  0.000000  1
  Cd  Cd3  1  0.259370  0.999997  0.500000  1
  Cd  Cd4  1  0.000000  0.259370  0.500000  1
  Cd  Cd5  1  0.740630  0.740627  0.500000  1
  Ag  Ag6  1  0.000000  0.000002  0.000000  1
  Hg  Hg7  1  0.333336  0.666670  0.500000  1
  Hg  Hg8  1  0.666664  0.333333  0.500000  1
