# generated using pymatgen
data_TbTh3(Al8Pt3)3
_symmetry_space_group_name_H-M   'P 1'
_cell_length_a   7.62137890
_cell_length_b   7.63313038
_cell_length_c   13.22801589
_cell_angle_alpha   84.50361320
_cell_angle_beta   78.95111187
_cell_angle_gamma   59.94895467
_symmetry_Int_Tables_number   1
_chemical_formula_structural   TbTh3(Al8Pt3)3
_chemical_formula_sum   'Tb1 Th3 Al24 Pt9'
_cell_volume   653.75094302
_cell_formula_units_Z   1
loop_
 _symmetry_equiv_pos_site_id
 _symmetry_equiv_pos_as_xyz
  1  'x, y, z'
loop_
 _atom_site_type_symbol
 _atom_site_label
 _atom_site_symmetry_multiplicity
 _atom_site_fract_x
 _atom_site_fract_y
 _atom_site_fract_z
 _atom_site_occupancy
  Tb  Tb0  1  0.266235  0.501138  0.193024  1
  Th  Th1  1  0.394636  0.168187  0.807063  1
  Th  Th2  1  0.604804  0.832210  0.193524  1
  Th  Th3  1  0.733725  0.498629  0.806964  1
  Al  Al4  1  0.687481  0.833656  0.946408  1
  Al  Al5  1  0.312159  0.169416  0.057015  1
  Al  Al6  1  0.146156  0.832856  0.560089  1
  Al  Al7  1  0.854477  0.166638  0.437612  1
  Al  Al8  1  0.481171  0.167321  0.556922  1
  Al  Al9  1  0.518898  0.833220  0.441748  1
  Al  Al10  1  0.212815  0.168965  0.333504  1
  Al  Al11  1  0.788518  0.834582  0.663950  1
  Al  Al12  1  0.435696  0.510462  0.664331  1
  Al  Al13  1  0.561128  0.490106  0.333363  1
  Al  Al14  1  0.112191  0.155573  0.662617  1
  Al  Al15  1  0.892406  0.840035  0.334610  1
  Al  Al16  1  0.348007  0.502867  0.947992  1
  Al  Al17  1  0.646935  0.497602  0.056953  1
  Al  Al18  1  0.014132  0.164620  0.957252  1
  Al  Al19  1  0.986695  0.832518  0.047426  1
  Al  Al20  1  0.186800  0.499791  0.440350  1
  Al  Al21  1  0.814481  0.500158  0.556802  1
  Al  Al22  1  0.735002  0.166434  0.184061  1
  Al  Al23  1  0.261500  0.835818  0.816566  1
  Al  Al24  1  0.061972  0.634856  0.815120  1
  Al  Al25  1  0.940560  0.365937  0.185314  1
  Al  Al26  1  0.860346  0.036950  0.815990  1
  Al  Al27  1  0.140707  0.959030  0.184233  1
  Pt  Pt28  1  0.120243  0.491254  0.638810  1
  Pt  Pt29  1  0.879072  0.508704  0.361165  1
  Pt  Pt30  1  0.656784  0.171781  0.999552  1
  Pt  Pt31  1  0.343522  0.828771  0.999701  1
  Pt  Pt32  1  0.537866  0.166037  0.361343  1
  Pt  Pt33  1  0.462963  0.833295  0.638858  1
  Pt  Pt34  1  0.778428  0.175537  0.637687  1
  Pt  Pt35  1  0.221615  0.825123  0.362308  1
  Pt  Pt36  1  0.999874  0.499922  0.999776  1
