# generated using pymatgen
data_Ho4FeB16Ir3
_symmetry_space_group_name_H-M   'P 1'
_cell_length_a   3.51956900
_cell_length_b   5.93834711
_cell_length_c   11.51237980
_cell_angle_alpha   89.85008988
_cell_angle_beta   90.00000000
_cell_angle_gamma   90.00000000
_symmetry_Int_Tables_number   1
_chemical_formula_structural   Ho4FeB16Ir3
_chemical_formula_sum   'Ho4 Fe1 B16 Ir3'
_cell_volume   240.61277698
_cell_formula_units_Z   1
loop_
 _symmetry_equiv_pos_site_id
 _symmetry_equiv_pos_as_xyz
  1  'x, y, z'
loop_
 _atom_site_type_symbol
 _atom_site_label
 _atom_site_symmetry_multiplicity
 _atom_site_fract_x
 _atom_site_fract_y
 _atom_site_fract_z
 _atom_site_occupancy
  Ho  Ho0  1  0.500000  0.372335  0.147725  1
  Ho  Ho1  1  0.500000  0.630494  0.854939  1
  Ho  Ho2  1  0.500000  0.131489  0.649335  1
  Ho  Ho3  1  0.500000  0.868575  0.345442  1
  Fe  Fe4  1  0.500000  0.859732  0.093783  1
  B  B5  1  0.000000  0.110101  0.047907  1
  B  B6  1  0.000000  0.885857  0.956179  1
  B  B7  1  0.000000  0.387682  0.546637  1
  B  B8  1  0.000000  0.612969  0.451628  1
  B  B9  1  0.000000  0.135712  0.468908  1
  B  B10  1  0.000000  0.864311  0.529211  1
  B  B11  1  0.000000  0.364369  0.970829  1
  B  B12  1  0.000000  0.638778  0.032938  1
  B  B13  1  0.000000  0.021139  0.190070  1
  B  B14  1  0.000000  0.972525  0.809448  1
  B  B15  1  0.000000  0.472871  0.693231  1
  B  B16  1  0.000000  0.526396  0.305463  1
  B  B17  1  0.000000  0.208976  0.310382  1
  B  B18  1  0.000000  0.791329  0.688746  1
  B  B19  1  0.000000  0.290753  0.814484  1
  B  B20  1  0.000000  0.714379  0.183781  1
  Ir  Ir21  1  0.500000  0.356397  0.403636  1
  Ir  Ir22  1  0.500000  0.645842  0.597240  1
  Ir  Ir23  1  0.500000  0.136989  0.908060  1
