# generated using pymatgen
data_PrSmTa2Bi2O11
_symmetry_space_group_name_H-M   'P 1'
_cell_length_a   6.66496727
_cell_length_b   7.75993845
_cell_length_c   9.91721436
_cell_angle_alpha   101.26558064
_cell_angle_beta   90.61015135
_cell_angle_gamma   90.09815610
_symmetry_Int_Tables_number   1
_chemical_formula_structural   PrSmTa2Bi2O11
_chemical_formula_sum   'Pr2 Sm2 Ta4 Bi4 O22'
_cell_volume   503.00065909
_cell_formula_units_Z   2
loop_
 _symmetry_equiv_pos_site_id
 _symmetry_equiv_pos_as_xyz
  1  'x, y, z'
loop_
 _atom_site_type_symbol
 _atom_site_label
 _atom_site_symmetry_multiplicity
 _atom_site_fract_x
 _atom_site_fract_y
 _atom_site_fract_z
 _atom_site_occupancy
  Pr  Pr0  1  0.750792  0.368848  0.485222  1
  Pr  Pr1  1  0.249208  0.631152  0.514778  1
  Sm  Sm2  1  0.758190  0.872518  0.484815  1
  Sm  Sm3  1  0.241810  0.127482  0.515185  1
  Ta  Ta4  1  0.915732  0.702122  0.806684  1
  Ta  Ta5  1  0.084268  0.297878  0.193316  1
  Ta  Ta6  1  0.916542  0.200988  0.807767  1
  Ta  Ta7  1  0.083458  0.799012  0.192233  1
  Bi  Bi8  1  0.436221  0.955990  0.815487  1
  Bi  Bi9  1  0.563779  0.044010  0.184513  1
  Bi  Bi10  1  0.394299  0.456056  0.826770  1
  Bi  Bi11  1  0.605701  0.543944  0.173230  1
  O  O12  1  0.217895  0.728078  0.762624  1
  O  O13  1  0.782105  0.271922  0.237376  1
  O  O14  1  0.634561  0.662295  0.839253  1
  O  O15  1  0.365439  0.337705  0.160747  1
  O  O16  1  0.633580  0.253567  0.838634  1
  O  O17  1  0.366420  0.746433  0.161366  1
  O  O18  1  0.894773  0.146907  0.593702  1
  O  O19  1  0.105227  0.853093  0.406298  1
  O  O20  1  0.216985  0.151676  0.759460  1
  O  O21  1  0.783015  0.848324  0.240540  1
  O  O22  1  0.895269  0.649551  0.594897  1
  O  O23  1  0.104731  0.350449  0.405103  1
  O  O24  1  0.025987  0.552355  0.207128  1
  O  O25  1  0.974013  0.447645  0.792872  1
  O  O26  1  0.998434  0.769644  0.000494  1
  O  O27  1  0.001566  0.230356  0.999506  1
  O  O28  1  0.573513  0.599852  0.389687  1
  O  O29  1  0.426487  0.400148  0.610313  1
  O  O30  1  0.157343  0.052858  0.209758  1
  O  O31  1  0.842657  0.947142  0.790242  1
  O  O32  1  0.542283  0.098514  0.399266  1
  O  O33  1  0.457717  0.901486  0.600734  1
