# generated using pymatgen
data_Dy20(Bi3Sb)3
_symmetry_space_group_name_H-M   'P 1'
_cell_length_a   8.21000007
_cell_length_b   9.47342900
_cell_length_c   11.99450311
_cell_angle_alpha   90.00000000
_cell_angle_beta   90.01540703
_cell_angle_gamma   90.00000000
_symmetry_Int_Tables_number   1
_chemical_formula_structural   Dy20(Bi3Sb)3
_chemical_formula_sum   'Dy20 Bi9 Sb3'
_cell_volume   932.89466886
_cell_formula_units_Z   1
loop_
 _symmetry_equiv_pos_site_id
 _symmetry_equiv_pos_as_xyz
  1  'x, y, z'
loop_
 _atom_site_type_symbol
 _atom_site_label
 _atom_site_symmetry_multiplicity
 _atom_site_fract_x
 _atom_site_fract_y
 _atom_site_fract_z
 _atom_site_occupancy
  Dy  Dy0  1  0.352696  0.750000  0.212977  1
  Dy  Dy1  1  0.852899  0.750000  0.286604  1
  Dy  Dy2  1  0.647272  0.250000  0.786868  1
  Dy  Dy3  1  0.148197  0.250000  0.716457  1
  Dy  Dy4  1  0.689046  0.562685  0.057364  1
  Dy  Dy5  1  0.190247  0.933881  0.442596  1
  Dy  Dy6  1  0.311121  0.062258  0.942787  1
  Dy  Dy7  1  0.808421  0.440175  0.558881  1
  Dy  Dy8  1  0.311121  0.437742  0.942787  1
  Dy  Dy9  1  0.808421  0.059825  0.558881  1
  Dy  Dy10  1  0.689046  0.937315  0.057364  1
  Dy  Dy11  1  0.190247  0.566119  0.442596  1
  Dy  Dy12  1  0.475493  0.250000  0.487930  1
  Dy  Dy13  1  0.972542  0.250000  0.012025  1
  Dy  Dy14  1  0.528716  0.750000  0.512706  1
  Dy  Dy15  1  0.027889  0.750000  0.987833  1
  Dy  Dy16  1  0.318036  0.250000  0.216282  1
  Dy  Dy17  1  0.811503  0.250000  0.278909  1
  Dy  Dy18  1  0.683261  0.750000  0.782081  1
  Dy  Dy19  1  0.183764  0.750000  0.717899  1
  Bi  Bi20  1  0.092142  0.250000  0.456475  1
  Bi  Bi21  1  0.565324  0.995178  0.325565  1
  Bi  Bi22  1  0.065652  0.504076  0.174328  1
  Bi  Bi23  1  0.434133  0.495594  0.674572  1
  Bi  Bi24  1  0.934204  0.003983  0.825861  1
  Bi  Bi25  1  0.434133  0.004406  0.674572  1
  Bi  Bi26  1  0.934204  0.496017  0.825861  1
  Bi  Bi27  1  0.565324  0.504822  0.325565  1
  Bi  Bi28  1  0.065652  0.995924  0.174328  1
  Sb  Sb29  1  0.407914  0.750000  0.957945  1
  Sb  Sb30  1  0.908553  0.750000  0.541764  1
  Sb  Sb31  1  0.592828  0.250000  0.041335  1
