# generated using pymatgen
data_Tb7Y(ScGa5)4
_symmetry_space_group_name_H-M   'P 1'
_cell_length_a   6.02466205
_cell_length_b   9.48926804
_cell_length_c   11.43552606
_cell_angle_alpha   89.99925939
_cell_angle_beta   89.98847490
_cell_angle_gamma   89.99010444
_symmetry_Int_Tables_number   1
_chemical_formula_structural   Tb7Y(ScGa5)4
_chemical_formula_sum   'Tb7 Y1 Sc4 Ga20'
_cell_volume   653.76480538
_cell_formula_units_Z   1
loop_
 _symmetry_equiv_pos_site_id
 _symmetry_equiv_pos_as_xyz
  1  'x, y, z'
loop_
 _atom_site_type_symbol
 _atom_site_label
 _atom_site_symmetry_multiplicity
 _atom_site_fract_x
 _atom_site_fract_y
 _atom_site_fract_z
 _atom_site_occupancy
  Tb  Tb0  1  0.891088  0.508740  0.351958  1
  Tb  Tb1  1  0.608862  0.991242  0.851930  1
  Tb  Tb2  1  0.108875  0.008712  0.648076  1
  Tb  Tb3  1  0.391129  0.491274  0.147977  1
  Tb  Tb4  1  0.108866  0.491290  0.648122  1
  Tb  Tb5  1  0.391176  0.008722  0.148029  1
  Tb  Tb6  1  0.891083  0.991319  0.351964  1
  Y  Y7  1  0.608879  0.508767  0.851865  1
  Sc  Sc8  1  0.849997  0.749975  0.073797  1
  Sc  Sc9  1  0.649963  0.750002  0.573888  1
  Sc  Sc10  1  0.150111  0.249932  0.926162  1
  Sc  Sc11  1  0.349990  0.250008  0.426197  1
  Ga  Ga12  1  0.878871  0.051174  0.089130  1
  Ga  Ga13  1  0.621106  0.448864  0.589157  1
  Ga  Ga14  1  0.121272  0.551133  0.910871  1
  Ga  Ga15  1  0.378891  0.948844  0.410855  1
  Ga  Ga16  1  0.121125  0.948789  0.910864  1
  Ga  Ga17  1  0.378867  0.551142  0.410866  1
  Ga  Ga18  1  0.878888  0.448852  0.089179  1
  Ga  Ga19  1  0.621095  0.051166  0.589105  1
  Ga  Ga20  1  0.162214  0.750014  0.248990  1
  Ga  Ga21  1  0.337687  0.750002  0.749001  1
  Ga  Ga22  1  0.837749  0.250015  0.751055  1
  Ga  Ga23  1  0.662255  0.250024  0.250971  1
  Ga  Ga24  1  0.380103  0.749995  0.001289  1
  Ga  Ga25  1  0.119881  0.750011  0.501225  1
  Ga  Ga26  1  0.619845  0.250064  0.998678  1
  Ga  Ga27  1  0.880140  0.250008  0.498816  1
  Ga  Ga28  1  0.602558  0.750005  0.294655  1
  Ga  Ga29  1  0.897474  0.749968  0.794648  1
  Ga  Ga30  1  0.397395  0.249956  0.705338  1
  Ga  Ga31  1  0.102564  0.249993  0.205345  1
