# generated using pymatgen
data_Y6Ta(Fe3Co8)2
_symmetry_space_group_name_H-M   'P 1'
_cell_length_a   8.38191727
_cell_length_b   8.38375404
_cell_length_c   8.38259000
_cell_angle_alpha   59.99985813
_cell_angle_beta   60.00009182
_cell_angle_gamma   59.99380414
_symmetry_Int_Tables_number   1
_chemical_formula_structural   Y6Ta(Fe3Co8)2
_chemical_formula_sum   'Y6 Ta1 Fe6 Co16'
_cell_volume   416.50922177
_cell_formula_units_Z   1
loop_
 _symmetry_equiv_pos_site_id
 _symmetry_equiv_pos_as_xyz
  1  'x, y, z'
loop_
 _atom_site_type_symbol
 _atom_site_label
 _atom_site_symmetry_multiplicity
 _atom_site_fract_x
 _atom_site_fract_y
 _atom_site_fract_z
 _atom_site_occupancy
  Y  Y0  1  0.711632  0.711651  0.288594  1
  Y  Y1  1  0.288235  0.711534  0.288438  1
  Y  Y2  1  0.711528  0.288231  0.288444  1
  Y  Y3  1  0.288368  0.288349  0.711406  1
  Y  Y4  1  0.711765  0.288466  0.711562  1
  Y  Y5  1  0.288472  0.711769  0.711556  1
  Ta  Ta6  1  0.000000  0.000000  0.000000  1
  Fe  Fe7  1  0.000000  0.000000  0.500000  1
  Fe  Fe8  1  0.500000  0.000000  0.500000  1
  Fe  Fe9  1  0.000000  0.500000  0.500000  1
  Fe  Fe10  1  0.500000  0.500000  0.000000  1
  Fe  Fe11  1  0.000000  0.500000  0.000000  1
  Fe  Fe12  1  0.500000  0.000000  0.000000  1
  Co  Co13  1  0.875398  0.875307  0.373913  1
  Co  Co14  1  0.875397  0.373793  0.875375  1
  Co  Co15  1  0.373807  0.875332  0.875401  1
  Co  Co16  1  0.875442  0.875349  0.875365  1
  Co  Co17  1  0.124602  0.124693  0.626087  1
  Co  Co18  1  0.124603  0.626207  0.124625  1
  Co  Co19  1  0.626193  0.124668  0.124599  1
  Co  Co20  1  0.124558  0.124651  0.124635  1
  Co  Co21  1  0.677048  0.676975  0.968795  1
  Co  Co22  1  0.677025  0.969010  0.676906  1
  Co  Co23  1  0.968905  0.677007  0.676950  1
  Co  Co24  1  0.677061  0.676949  0.677004  1
  Co  Co25  1  0.322952  0.323025  0.031205  1
  Co  Co26  1  0.322975  0.030990  0.323094  1
  Co  Co27  1  0.031095  0.322993  0.323050  1
  Co  Co28  1  0.322939  0.323051  0.322996  1
