# generated using pymatgen
data_Ac2Al2SiGePt2
_symmetry_space_group_name_H-M   'P 1'
_cell_length_a   9.39132595
_cell_length_b   9.39132472
_cell_length_c   4.28622900
_cell_angle_alpha   90.00000000
_cell_angle_beta   90.00000000
_cell_angle_gamma   152.05288620
_symmetry_Int_Tables_number   1
_chemical_formula_structural   Ac2Al2SiGePt2
_chemical_formula_sum   'Ac2 Al2 Si1 Ge1 Pt2'
_cell_volume   177.16733997
_cell_formula_units_Z   1
loop_
 _symmetry_equiv_pos_site_id
 _symmetry_equiv_pos_as_xyz
  1  'x, y, z'
loop_
 _atom_site_type_symbol
 _atom_site_label
 _atom_site_symmetry_multiplicity
 _atom_site_fract_x
 _atom_site_fract_y
 _atom_site_fract_z
 _atom_site_occupancy
  Ac  Ac0  1  0.102671  0.897329  0.250000  1
  Ac  Ac1  1  0.897320  0.102680  0.750000  1
  Al  Al2  1  0.753567  0.246433  0.250000  1
  Al  Al3  1  0.247802  0.752198  0.750000  1
  Si  Si4  1  0.459246  0.540754  0.250000  1
  Ge  Ge5  1  0.536488  0.463512  0.750000  1
  Pt  Pt6  1  0.677257  0.322743  0.750000  1
  Pt  Pt7  1  0.325650  0.674350  0.250000  1
