# generated using pymatgen
data_Er6Al13Os7W3
_symmetry_space_group_name_H-M   'P 1'
_cell_length_a   8.96520985
_cell_length_b   8.96521059
_cell_length_c   8.96521106
_cell_angle_alpha   59.57197520
_cell_angle_beta   59.57197008
_cell_angle_gamma   59.57196767
_symmetry_Int_Tables_number   1
_chemical_formula_structural   Er6Al13Os7W3
_chemical_formula_sum   'Er6 Al13 Os7 W3'
_cell_volume   504.56832144
_cell_formula_units_Z   1
loop_
 _symmetry_equiv_pos_site_id
 _symmetry_equiv_pos_as_xyz
  1  'x, y, z'
loop_
 _atom_site_type_symbol
 _atom_site_label
 _atom_site_symmetry_multiplicity
 _atom_site_fract_x
 _atom_site_fract_y
 _atom_site_fract_z
 _atom_site_occupancy
  Er  Er0  1  0.708233  0.708233  0.285240  1
  Er  Er1  1  0.293827  0.707978  0.293827  1
  Er  Er2  1  0.707978  0.293827  0.293827  1
  Er  Er3  1  0.293827  0.293827  0.707978  1
  Er  Er4  1  0.708233  0.285240  0.708233  1
  Er  Er5  1  0.285240  0.708233  0.708233  1
  Al  Al6  1  0.880282  0.880282  0.880282  1
  Al  Al7  1  0.121454  0.121454  0.639330  1
  Al  Al8  1  0.121454  0.639330  0.121454  1
  Al  Al9  1  0.639330  0.121454  0.121454  1
  Al  Al10  1  0.121939  0.121939  0.121939  1
  Al  Al11  1  0.668376  0.668376  0.998583  1
  Al  Al12  1  0.668376  0.998583  0.668376  1
  Al  Al13  1  0.998583  0.668376  0.668376  1
  Al  Al14  1  0.661570  0.661570  0.661570  1
  Al  Al15  1  0.331224  0.331224  0.008677  1
  Al  Al16  1  0.331224  0.008677  0.331224  1
  Al  Al17  1  0.008677  0.331224  0.331224  1
  Al  Al18  1  0.332034  0.332034  0.332034  1
  Os  Os19  1  0.004976  0.004976  0.004976  1
  Os  Os20  1  0.996846  0.996846  0.496135  1
  Os  Os21  1  0.505280  0.994501  0.505280  1
  Os  Os22  1  0.994501  0.505280  0.505280  1
  Os  Os23  1  0.505280  0.505280  0.994501  1
  Os  Os24  1  0.996846  0.496135  0.996846  1
  Os  Os25  1  0.496135  0.996846  0.996846  1
  W  W26  1  0.877165  0.877165  0.363949  1
  W  W27  1  0.877165  0.363949  0.877165  1
  W  W28  1  0.363949  0.877165  0.877165  1
