# generated using pymatgen
data_SrHoSi7Ir12
_symmetry_space_group_name_H-M   'P 1'
_cell_length_a   9.80018400
_cell_length_b   9.80018424
_cell_length_c   3.90418200
_cell_angle_alpha   90.00000000
_cell_angle_beta   90.00000000
_cell_angle_gamma   120.00000011
_symmetry_Int_Tables_number   1
_chemical_formula_structural   SrHoSi7Ir12
_chemical_formula_sum   'Sr1 Ho1 Si7 Ir12'
_cell_volume   324.73504218
_cell_formula_units_Z   1
loop_
 _symmetry_equiv_pos_site_id
 _symmetry_equiv_pos_as_xyz
  1  'x, y, z'
loop_
 _atom_site_type_symbol
 _atom_site_label
 _atom_site_symmetry_multiplicity
 _atom_site_fract_x
 _atom_site_fract_y
 _atom_site_fract_z
 _atom_site_occupancy
  Sr  Sr0  1  0.666667  0.333333  0.250405  1
  Ho  Ho1  1  0.333333  0.666667  0.750219  1
  Si  Si2  1  0.000000  0.000000  0.499428  1
  Si  Si3  1  0.291854  0.887130  0.248811  1
  Si  Si4  1  0.595276  0.708146  0.248811  1
  Si  Si5  1  0.112870  0.404724  0.248811  1
  Si  Si6  1  0.712431  0.114381  0.751040  1
  Si  Si7  1  0.401950  0.287569  0.751040  1
  Si  Si8  1  0.885619  0.598050  0.751040  1
  Ir  Ir9  1  0.260448  0.116382  0.253870  1
  Ir  Ir10  1  0.855935  0.739552  0.253870  1
  Ir  Ir11  1  0.883618  0.144065  0.253870  1
  Ir  Ir12  1  0.740715  0.884899  0.745653  1
  Ir  Ir13  1  0.144183  0.259285  0.745653  1
  Ir  Ir14  1  0.115101  0.855817  0.745653  1
  Ir  Ir15  1  0.067056  0.623285  0.249039  1
  Ir  Ir16  1  0.556230  0.932944  0.249039  1
  Ir  Ir17  1  0.376715  0.443770  0.249039  1
  Ir  Ir18  1  0.946192  0.386208  0.751569  1
  Ir  Ir19  1  0.440016  0.053808  0.751569  1
  Ir  Ir20  1  0.613792  0.559984  0.751569  1
