# generated using pymatgen
data_Er4GaAs5Rh7
_symmetry_space_group_name_H-M   'P 1'
_cell_length_a   7.25686420
_cell_length_b   7.25686294
_cell_length_c   7.25686235
_cell_angle_alpha   109.65881447
_cell_angle_beta   109.09668084
_cell_angle_gamma   109.65881527
_symmetry_Int_Tables_number   1
_chemical_formula_structural   Er4GaAs5Rh7
_chemical_formula_sum   'Er4 Ga1 As5 Rh7'
_cell_volume   294.17854772
_cell_formula_units_Z   1
loop_
 _symmetry_equiv_pos_site_id
 _symmetry_equiv_pos_as_xyz
  1  'x, y, z'
loop_
 _atom_site_type_symbol
 _atom_site_label
 _atom_site_symmetry_multiplicity
 _atom_site_fract_x
 _atom_site_fract_y
 _atom_site_fract_z
 _atom_site_occupancy
  Er  Er0  1  0.494008  0.493282  0.494008  1
  Er  Er1  1  0.000725  0.506718  0.000725  1
  Er  Er2  1  0.494008  0.000000  0.000725  1
  Er  Er3  1  0.000725  0.000000  0.494008  1
  Ga  Ga4  1  0.687299  0.000000  0.687299  1
  As  As5  1  0.678832  0.683363  0.995468  1
  As  As6  1  0.312105  0.316637  0.995468  1
  As  As7  1  0.995468  0.683363  0.678832  1
  As  As8  1  0.995468  0.316637  0.312105  1
  As  As9  1  0.331807  0.000000  0.331807  1
  Rh  Rh10  1  0.502698  0.747891  0.250589  1
  Rh  Rh11  1  0.754809  0.252109  0.502698  1
  Rh  Rh12  1  0.250589  0.747891  0.502698  1
  Rh  Rh13  1  0.247918  0.500000  0.747918  1
  Rh  Rh14  1  0.002923  0.000000  0.002923  1
  Rh  Rh15  1  0.502698  0.252109  0.754809  1
  Rh  Rh16  1  0.747918  0.500000  0.247918  1
