# generated using pymatgen
data_Dy3Si2PtRh2
_symmetry_space_group_name_H-M   'P 1'
_cell_length_a   5.55077800
_cell_length_b   7.55295100
_cell_length_c   14.92631200
_cell_angle_alpha   90.00000000
_cell_angle_beta   90.00000000
_cell_angle_gamma   90.00000000
_symmetry_Int_Tables_number   1
_chemical_formula_structural   Dy3Si2PtRh2
_chemical_formula_sum   'Dy12 Si8 Pt4 Rh8'
_cell_volume   625.78196240
_cell_formula_units_Z   4
loop_
 _symmetry_equiv_pos_site_id
 _symmetry_equiv_pos_as_xyz
  1  'x, y, z'
loop_
 _atom_site_type_symbol
 _atom_site_label
 _atom_site_symmetry_multiplicity
 _atom_site_fract_x
 _atom_site_fract_y
 _atom_site_fract_z
 _atom_site_occupancy
  Dy  Dy0  1  0.893354  0.829543  0.750000  1
  Dy  Dy1  1  0.867068  0.525581  0.393263  1
  Dy  Dy2  1  0.367068  0.974419  0.606737  1
  Dy  Dy3  1  0.132932  0.474419  0.893263  1
  Dy  Dy4  1  0.632932  0.025582  0.106737  1
  Dy  Dy5  1  0.106646  0.170457  0.250000  1
  Dy  Dy6  1  0.132932  0.474419  0.606737  1
  Dy  Dy7  1  0.632932  0.025582  0.393263  1
  Dy  Dy8  1  0.393354  0.670457  0.250000  1
  Dy  Dy9  1  0.367068  0.974419  0.893263  1
  Dy  Dy10  1  0.606646  0.329543  0.750000  1
  Dy  Dy11  1  0.867068  0.525581  0.106737  1
  Si  Si12  1  0.629193  0.623169  0.898205  1
  Si  Si13  1  0.870807  0.123169  0.601795  1
  Si  Si14  1  0.129193  0.876831  0.101795  1
  Si  Si15  1  0.129193  0.876831  0.398205  1
  Si  Si16  1  0.629193  0.623169  0.601795  1
  Si  Si17  1  0.870807  0.123169  0.898205  1
  Si  Si18  1  0.370807  0.376831  0.101795  1
  Si  Si19  1  0.370807  0.376831  0.398205  1
  Pt  Pt20  1  0.402070  0.683582  0.750000  1
  Pt  Pt21  1  0.597930  0.316418  0.250000  1
  Pt  Pt22  1  0.902070  0.816418  0.250000  1
  Pt  Pt23  1  0.097930  0.183582  0.750000  1
  Rh  Rh24  1  0.597621  0.331334  0.962340  1
  Rh  Rh25  1  0.097621  0.168666  0.462340  1
  Rh  Rh26  1  0.097621  0.168666  0.037660  1
  Rh  Rh27  1  0.902379  0.831334  0.962340  1
  Rh  Rh28  1  0.902379  0.831334  0.537660  1
  Rh  Rh29  1  0.597621  0.331334  0.537660  1
  Rh  Rh30  1  0.402379  0.668666  0.462340  1
  Rh  Rh31  1  0.402379  0.668666  0.037660  1
