# generated using pymatgen
data_Ti8VBi4Ir
_symmetry_space_group_name_H-M   'P 1'
_cell_length_a   7.95800910
_cell_length_b   7.95800897
_cell_length_c   7.95800850
_cell_angle_alpha   95.82805113
_cell_angle_beta   95.82806020
_cell_angle_gamma   142.83631907
_symmetry_Int_Tables_number   1
_chemical_formula_structural   Ti8VBi4Ir
_chemical_formula_sum   'Ti8 V1 Bi4 Ir1'
_cell_volume   288.58010768
_cell_formula_units_Z   1
loop_
 _symmetry_equiv_pos_site_id
 _symmetry_equiv_pos_as_xyz
  1  'x, y, z'
loop_
 _atom_site_type_symbol
 _atom_site_label
 _atom_site_symmetry_multiplicity
 _atom_site_fract_x
 _atom_site_fract_y
 _atom_site_fract_z
 _atom_site_occupancy
  Ti  Ti0  1  0.589659  0.706785  0.283331  1
  Ti  Ti1  1  0.910341  0.193672  0.117127  1
  Ti  Ti2  1  0.306328  0.589659  0.882873  1
  Ti  Ti3  1  0.793215  0.910341  0.716669  1
  Ti  Ti4  1  0.706785  0.423456  0.117127  1
  Ti  Ti5  1  0.076544  0.793215  0.882873  1
  Ti  Ti6  1  0.423456  0.306328  0.716669  1
  Ti  Ti7  1  0.193672  0.076544  0.283331  1
  V  V8  1  0.750000  0.750000  0.000000  1
  Bi  Bi9  1  0.359537  0.859537  0.219072  1
  Bi  Bi10  1  0.140463  0.359537  0.500000  1
  Bi  Bi11  1  0.640463  0.140463  0.780928  1
  Bi  Bi12  1  0.859537  0.640463  0.500000  1
  Ir  Ir13  1  0.250000  0.250000  0.000000  1
