# generated using pymatgen
data_PrY3CdCo
_symmetry_space_group_name_H-M   'P 1'
_cell_length_a   9.64222766
_cell_length_b   9.64222771
_cell_length_c   9.64222700
_cell_angle_alpha   59.99999899
_cell_angle_beta   59.99999882
_cell_angle_gamma   60.00000137
_symmetry_Int_Tables_number   1
_chemical_formula_structural   PrY3CdCo
_chemical_formula_sum   'Pr4 Y12 Cd4 Co4'
_cell_volume   633.89469251
_cell_formula_units_Z   4
loop_
 _symmetry_equiv_pos_site_id
 _symmetry_equiv_pos_as_xyz
  1  'x, y, z'
loop_
 _atom_site_type_symbol
 _atom_site_label
 _atom_site_symmetry_multiplicity
 _atom_site_fract_x
 _atom_site_fract_y
 _atom_site_fract_z
 _atom_site_occupancy
  Pr  Pr0  1  0.598397  0.598397  0.598397  1
  Pr  Pr1  1  0.598397  0.598397  0.204807  1
  Pr  Pr2  1  0.598397  0.204807  0.598397  1
  Pr  Pr3  1  0.204807  0.598397  0.598397  1
  Y  Y4  1  0.062855  0.437145  0.437145  1
  Y  Y5  1  0.437145  0.062855  0.062855  1
  Y  Y6  1  0.437145  0.062855  0.437145  1
  Y  Y7  1  0.062855  0.437145  0.062855  1
  Y  Y8  1  0.437145  0.437145  0.062855  1
  Y  Y9  1  0.062855  0.062855  0.437145  1
  Y  Y10  1  0.186670  0.813330  0.813330  1
  Y  Y11  1  0.813330  0.186670  0.186670  1
  Y  Y12  1  0.813330  0.186670  0.813330  1
  Y  Y13  1  0.186670  0.813330  0.186670  1
  Y  Y14  1  0.813330  0.813330  0.186670  1
  Y  Y15  1  0.186670  0.186670  0.813330  1
  Cd  Cd16  1  0.831009  0.831009  0.831009  1
  Cd  Cd17  1  0.831009  0.831009  0.506973  1
  Cd  Cd18  1  0.831009  0.506973  0.831009  1
  Cd  Cd19  1  0.506973  0.831009  0.831009  1
  Co  Co20  1  0.389939  0.389939  0.389939  1
  Co  Co21  1  0.389939  0.389939  0.830186  1
  Co  Co22  1  0.389939  0.830186  0.389939  1
  Co  Co23  1  0.830186  0.389939  0.389939  1
