# generated using pymatgen
data_Dy7Ho9ZnIn3Rh4
_symmetry_space_group_name_H-M   'P 1'
_cell_length_a   9.58947225
_cell_length_b   9.58719132
_cell_length_c   9.58916644
_cell_angle_alpha   60.04828211
_cell_angle_beta   60.06384477
_cell_angle_gamma   60.08142985
_symmetry_Int_Tables_number   1
_chemical_formula_structural   Dy7Ho9ZnIn3Rh4
_chemical_formula_sum   'Dy7 Ho9 Zn1 In3 Rh4'
_cell_volume   624.29010683
_cell_formula_units_Z   1
loop_
 _symmetry_equiv_pos_site_id
 _symmetry_equiv_pos_as_xyz
  1  'x, y, z'
loop_
 _atom_site_type_symbol
 _atom_site_label
 _atom_site_symmetry_multiplicity
 _atom_site_fract_x
 _atom_site_fract_y
 _atom_site_fract_z
 _atom_site_occupancy
  Dy  Dy0  1  0.187704  0.187939  0.811851  1
  Dy  Dy1  1  0.603107  0.602579  0.196259  1
  Dy  Dy2  1  0.440172  0.059297  0.440206  1
  Dy  Dy3  1  0.439963  0.440211  0.059322  1
  Dy  Dy4  1  0.814049  0.180732  0.813933  1
  Dy  Dy5  1  0.187390  0.811941  0.187923  1
  Dy  Dy6  1  0.438334  0.060669  0.060631  1
  Ho  Ho7  1  0.181030  0.813659  0.813766  1
  Ho  Ho8  1  0.060557  0.438419  0.060818  1
  Ho  Ho9  1  0.813995  0.813734  0.181064  1
  Ho  Ho10  1  0.196074  0.602924  0.602900  1
  Ho  Ho11  1  0.059165  0.440290  0.440064  1
  Ho  Ho12  1  0.060507  0.060772  0.438363  1
  Ho  Ho13  1  0.811980  0.187673  0.187957  1
  Ho  Ho14  1  0.603010  0.196480  0.602440  1
  Ho  Ho15  1  0.599047  0.598985  0.598929  1
  Zn  Zn16  1  0.833737  0.833563  0.833487  1
  In  In17  1  0.832493  0.832605  0.504765  1
  In  In18  1  0.504997  0.832498  0.832244  1
  In  In19  1  0.832581  0.504958  0.832375  1
  Rh  Rh20  1  0.391754  0.822507  0.392457  1
  Rh  Rh21  1  0.393448  0.393543  0.393971  1
  Rh  Rh22  1  0.823093  0.391721  0.391926  1
  Rh  Rh23  1  0.391815  0.392300  0.822347  1
