# generated using pymatgen
data_Mn2Tc
_symmetry_space_group_name_H-M   'P 1'
_cell_length_a   4.65869300
_cell_length_b   4.65869369
_cell_length_c   7.64246100
_cell_angle_alpha   90.00000000
_cell_angle_beta   90.00000000
_cell_angle_gamma   120.00000217
_symmetry_Int_Tables_number   1
_chemical_formula_structural   Mn2Tc
_chemical_formula_sum   'Mn8 Tc4'
_cell_volume   143.64552548
_cell_formula_units_Z   4
loop_
 _symmetry_equiv_pos_site_id
 _symmetry_equiv_pos_as_xyz
  1  'x, y, z'
loop_
 _atom_site_type_symbol
 _atom_site_label
 _atom_site_symmetry_multiplicity
 _atom_site_fract_x
 _atom_site_fract_y
 _atom_site_fract_z
 _atom_site_occupancy
  Mn  Mn0  1  0.653170  0.826585  0.750000  1
  Mn  Mn1  1  0.346830  0.173415  0.250000  1
  Mn  Mn2  1  0.826585  0.173415  0.250000  1
  Mn  Mn3  1  0.173415  0.346830  0.750000  1
  Mn  Mn4  1  0.173415  0.826585  0.750000  1
  Mn  Mn5  1  0.826585  0.653170  0.250000  1
  Mn  Mn6  1  0.000000  0.000000  0.500000  1
  Mn  Mn7  1  0.000000  0.000000  0.000000  1
  Tc  Tc8  1  0.333333  0.666667  0.432330  1
  Tc  Tc9  1  0.666667  0.333333  0.932330  1
  Tc  Tc10  1  0.666667  0.333333  0.567670  1
  Tc  Tc11  1  0.333333  0.666667  0.067670  1
