# generated using pymatgen
data_LiTb2Co4P6Ir5
_symmetry_space_group_name_H-M   'P 1'
_cell_length_a   3.82690900
_cell_length_b   10.55699400
_cell_length_c   12.32496600
_cell_angle_alpha   90.00000000
_cell_angle_beta   90.00000000
_cell_angle_gamma   90.00000000
_symmetry_Int_Tables_number   1
_chemical_formula_structural   LiTb2Co4P6Ir5
_chemical_formula_sum   'Li2 Tb4 Co8 P12 Ir10'
_cell_volume   497.93670359
_cell_formula_units_Z   2
loop_
 _symmetry_equiv_pos_site_id
 _symmetry_equiv_pos_as_xyz
  1  'x, y, z'
loop_
 _atom_site_type_symbol
 _atom_site_label
 _atom_site_symmetry_multiplicity
 _atom_site_fract_x
 _atom_site_fract_y
 _atom_site_fract_z
 _atom_site_occupancy
  Li  Li0  1  0.250000  0.705560  0.989367  1
  Li  Li1  1  0.250000  0.794440  0.489367  1
  Tb  Tb2  1  0.250000  0.583659  0.711712  1
  Tb  Tb3  1  0.250000  0.916341  0.211712  1
  Tb  Tb4  1  0.750000  0.420539  0.290639  1
  Tb  Tb5  1  0.750000  0.079461  0.790639  1
  Co  Co6  1  0.250000  0.882566  0.692950  1
  Co  Co7  1  0.250000  0.617434  0.192950  1
  Co  Co8  1  0.750000  0.116641  0.303734  1
  Co  Co9  1  0.750000  0.383359  0.803734  1
  Co  Co10  1  0.250000  0.460535  0.935286  1
  Co  Co11  1  0.250000  0.039465  0.435286  1
  Co  Co12  1  0.750000  0.534077  0.064329  1
  Co  Co13  1  0.750000  0.965923  0.564329  1
  P  P14  1  0.250000  0.433489  0.111128  1
  P  P15  1  0.250000  0.066511  0.611128  1
  P  P16  1  0.750000  0.570657  0.888677  1
  P  P17  1  0.750000  0.929343  0.388677  1
  P  P18  1  0.250000  0.273452  0.867121  1
  P  P19  1  0.250000  0.226548  0.367121  1
  P  P20  1  0.750000  0.725713  0.132617  1
  P  P21  1  0.750000  0.774287  0.632617  1
  P  P22  1  0.250000  0.602143  0.381805  1
  P  P23  1  0.250000  0.897857  0.881805  1
  P  P24  1  0.750000  0.401973  0.620653  1
  P  P25  1  0.750000  0.098027  0.120653  1
  Ir  Ir26  1  0.750000  0.284377  0.010603  1
  Ir  Ir27  1  0.750000  0.215623  0.510603  1
  Ir  Ir28  1  0.250000  0.406224  0.475512  1
  Ir  Ir29  1  0.250000  0.093776  0.975512  1
  Ir  Ir30  1  0.750000  0.592537  0.523891  1
  Ir  Ir31  1  0.750000  0.907463  0.023891  1
  Ir  Ir32  1  0.250000  0.227000  0.177147  1
  Ir  Ir33  1  0.250000  0.273000  0.677147  1
  Ir  Ir34  1  0.750000  0.777969  0.822830  1
  Ir  Ir35  1  0.750000  0.722031  0.322830  1
