# generated using pymatgen
data_Na3Yb(SnPd)4
_symmetry_space_group_name_H-M   'P 1'
_cell_length_a   4.42553000
_cell_length_b   7.51348960
_cell_length_c   8.12981596
_cell_angle_alpha   90.64247218
_cell_angle_beta   90.00000000
_cell_angle_gamma   90.00000000
_symmetry_Int_Tables_number   1
_chemical_formula_structural   Na3Yb(SnPd)4
_chemical_formula_sum   'Na3 Yb1 Sn4 Pd4'
_cell_volume   270.30892727
_cell_formula_units_Z   1
loop_
 _symmetry_equiv_pos_site_id
 _symmetry_equiv_pos_as_xyz
  1  'x, y, z'
loop_
 _atom_site_type_symbol
 _atom_site_label
 _atom_site_symmetry_multiplicity
 _atom_site_fract_x
 _atom_site_fract_y
 _atom_site_fract_z
 _atom_site_occupancy
  Na  Na0  1  0.250000  0.520107  0.167500  1
  Na  Na1  1  0.750000  0.481883  0.833908  1
  Na  Na2  1  0.250000  0.018589  0.324681  1
  Yb  Yb3  1  0.750000  0.975711  0.670420  1
  Sn  Sn4  1  0.250000  0.158650  0.938924  1
  Sn  Sn5  1  0.750000  0.349553  0.435610  1
  Sn  Sn6  1  0.250000  0.646508  0.563530  1
  Sn  Sn7  1  0.750000  0.847054  0.065896  1
  Pd  Pd8  1  0.750000  0.205824  0.127038  1
  Pd  Pd9  1  0.250000  0.284618  0.627484  1
  Pd  Pd10  1  0.750000  0.711572  0.376985  1
  Pd  Pd11  1  0.250000  0.799928  0.868024  1
