# generated using pymatgen
data_Y(Cd10Pd)2
_symmetry_space_group_name_H-M   'P 1'
_cell_length_a   11.16081224
_cell_length_b   11.16081216
_cell_length_c   11.16081200
_cell_angle_alpha   60.00000047
_cell_angle_beta   60.00000072
_cell_angle_gamma   60.00000023
_symmetry_Int_Tables_number   1
_chemical_formula_structural   Y(Cd10Pd)2
_chemical_formula_sum   'Y2 Cd40 Pd4'
_cell_volume   983.04274067
_cell_formula_units_Z   2
loop_
 _symmetry_equiv_pos_site_id
 _symmetry_equiv_pos_as_xyz
  1  'x, y, z'
loop_
 _atom_site_type_symbol
 _atom_site_label
 _atom_site_symmetry_multiplicity
 _atom_site_fract_x
 _atom_site_fract_y
 _atom_site_fract_z
 _atom_site_occupancy
  Y  Y0  1  0.500000  0.500000  0.500000  1
  Y  Y1  1  0.750000  0.750000  0.750000  1
  Cd  Cd2  1  0.568300  0.302405  0.302405  1
  Cd  Cd3  1  0.302405  0.568300  0.826890  1
  Cd  Cd4  1  0.302405  0.826890  0.568300  1
  Cd  Cd5  1  0.826890  0.302405  0.302405  1
  Cd  Cd6  1  0.302405  0.302405  0.568300  1
  Cd  Cd7  1  0.568300  0.826890  0.302405  1
  Cd  Cd8  1  0.826890  0.568300  0.302405  1
  Cd  Cd9  1  0.302405  0.302405  0.826890  1
  Cd  Cd10  1  0.302405  0.568300  0.302405  1
  Cd  Cd11  1  0.826890  0.302405  0.568300  1
  Cd  Cd12  1  0.568300  0.302405  0.826890  1
  Cd  Cd13  1  0.302405  0.826890  0.302405  1
  Cd  Cd14  1  0.681700  0.947595  0.947595  1
  Cd  Cd15  1  0.947595  0.681700  0.423110  1
  Cd  Cd16  1  0.947595  0.423110  0.681700  1
  Cd  Cd17  1  0.423110  0.947595  0.947595  1
  Cd  Cd18  1  0.947595  0.947595  0.681700  1
  Cd  Cd19  1  0.681700  0.423110  0.947595  1
  Cd  Cd20  1  0.423110  0.681700  0.947595  1
  Cd  Cd21  1  0.947595  0.947595  0.423110  1
  Cd  Cd22  1  0.947595  0.681700  0.947595  1
  Cd  Cd23  1  0.423110  0.947595  0.681700  1
  Cd  Cd24  1  0.681700  0.947595  0.423110  1
  Cd  Cd25  1  0.947595  0.423110  0.947595  1
  Cd  Cd26  1  0.862230  0.862230  0.137770  1
  Cd  Cd27  1  0.137770  0.137770  0.862230  1
  Cd  Cd28  1  0.862230  0.137770  0.862230  1
  Cd  Cd29  1  0.137770  0.862230  0.137770  1
  Cd  Cd30  1  0.137770  0.862230  0.862230  1
  Cd  Cd31  1  0.862230  0.137770  0.137770  1
  Cd  Cd32  1  0.387770  0.387770  0.112230  1
  Cd  Cd33  1  0.112230  0.112230  0.387770  1
  Cd  Cd34  1  0.387770  0.112230  0.387770  1
  Cd  Cd35  1  0.112230  0.387770  0.112230  1
  Cd  Cd36  1  0.112230  0.387770  0.387770  1
  Cd  Cd37  1  0.387770  0.112230  0.112230  1
  Cd  Cd38  1  0.125000  0.625000  0.625000  1
  Cd  Cd39  1  0.625000  0.125000  0.625000  1
  Cd  Cd40  1  0.625000  0.625000  0.125000  1
  Cd  Cd41  1  0.625000  0.625000  0.625000  1
  Pd  Pd42  1  0.625000  0.125000  0.125000  1
  Pd  Pd43  1  0.125000  0.625000  0.125000  1
  Pd  Pd44  1  0.125000  0.125000  0.625000  1
  Pd  Pd45  1  0.125000  0.125000  0.125000  1
