# generated using pymatgen
data_Y4Sc4B24IrW3
_symmetry_space_group_name_H-M   'P 1'
_cell_length_a   3.53042700
_cell_length_b   9.12762891
_cell_length_c   11.53006215
_cell_angle_alpha   90.05123367
_cell_angle_beta   90.00000000
_cell_angle_gamma   90.00000000
_symmetry_Int_Tables_number   1
_chemical_formula_structural   Y4Sc4B24IrW3
_chemical_formula_sum   'Y4 Sc4 B24 Ir1 W3'
_cell_volume   371.54950403
_cell_formula_units_Z   1
loop_
 _symmetry_equiv_pos_site_id
 _symmetry_equiv_pos_as_xyz
  1  'x, y, z'
loop_
 _atom_site_type_symbol
 _atom_site_label
 _atom_site_symmetry_multiplicity
 _atom_site_fract_x
 _atom_site_fract_y
 _atom_site_fract_z
 _atom_site_occupancy
  Y  Y0  1  0.500000  0.317849  0.414733  1
  Y  Y1  1  0.500000  0.680808  0.587523  1
  Y  Y2  1  0.500000  0.179623  0.913227  1
  Y  Y3  1  0.500000  0.821819  0.083610  1
  Sc  Sc4  1  0.500000  0.443586  0.126777  1
  Sc  Sc5  1  0.500000  0.555246  0.873083  1
  Sc  Sc6  1  0.500000  0.053906  0.626792  1
  Sc  Sc7  1  0.500000  0.945663  0.372700  1
  B  B8  1  0.000000  0.094821  0.473579  1
  B  B9  1  0.000000  0.901353  0.524851  1
  B  B10  1  0.000000  0.404103  0.974649  1
  B  B11  1  0.000000  0.596981  0.028082  1
  B  B12  1  0.000000  0.128873  0.320179  1
  B  B13  1  0.000000  0.870767  0.680495  1
  B  B14  1  0.000000  0.371844  0.818877  1
  B  B15  1  0.000000  0.629442  0.182627  1
  B  B16  1  0.000000  0.052208  0.066126  1
  B  B17  1  0.000000  0.947457  0.934673  1
  B  B18  1  0.000000  0.448696  0.563774  1
  B  B19  1  0.000000  0.556671  0.432294  1
  B  B20  1  0.000000  0.483459  0.285802  1
  B  B21  1  0.000000  0.521976  0.715055  1
  B  B22  1  0.000000  0.021336  0.784074  1
  B  B23  1  0.000000  0.977303  0.215388  1
  B  B24  1  0.000000  0.257079  0.080084  1
  B  B25  1  0.000000  0.743120  0.920944  1
  B  B26  1  0.000000  0.242014  0.579114  1
  B  B27  1  0.000000  0.753946  0.418534  1
  B  B28  1  0.000000  0.299285  0.236991  1
  B  B29  1  0.000000  0.702160  0.764959  1
  B  B30  1  0.000000  0.202574  0.735317  1
  B  B31  1  0.000000  0.793298  0.265245  1
  Ir  Ir32  1  0.500000  0.640891  0.318399  1
  W  W33  1  0.500000  0.141482  0.182695  1
  W  W34  1  0.500000  0.858915  0.818637  1
  W  W35  1  0.500000  0.359447  0.680109  1
