# generated using pymatgen
data_Ho6Al17Si7Os8
_symmetry_space_group_name_H-M   'P 1'
_cell_length_a   8.68977077
_cell_length_b   8.68091786
_cell_length_c   9.47126300
_cell_angle_alpha   90.00000000
_cell_angle_beta   90.00000000
_cell_angle_gamma   120.08197052
_symmetry_Int_Tables_number   1
_chemical_formula_structural   Ho6Al17Si7Os8
_chemical_formula_sum   'Ho6 Al17 Si7 Os8'
_cell_volume   618.23441870
_cell_formula_units_Z   1
loop_
 _symmetry_equiv_pos_site_id
 _symmetry_equiv_pos_as_xyz
  1  'x, y, z'
loop_
 _atom_site_type_symbol
 _atom_site_label
 _atom_site_symmetry_multiplicity
 _atom_site_fract_x
 _atom_site_fract_y
 _atom_site_fract_z
 _atom_site_occupancy
  Ho  Ho0  1  0.193334  0.389533  0.250000  1
  Ho  Ho1  1  0.806495  0.612687  0.750000  1
  Ho  Ho2  1  0.609744  0.806912  0.250000  1
  Ho  Ho3  1  0.389021  0.191570  0.750000  1
  Ho  Ho4  1  0.196237  0.805038  0.250000  1
  Ho  Ho5  1  0.802416  0.192093  0.750000  1
  Al  Al6  1  0.164213  0.329188  0.578692  1
  Al  Al7  1  0.834191  0.671326  0.420766  1
  Al  Al8  1  0.671595  0.835020  0.578343  1
  Al  Al9  1  0.834191  0.671326  0.079234  1
  Al  Al10  1  0.329525  0.166056  0.421771  1
  Al  Al11  1  0.164213  0.329188  0.921308  1
  Al  Al12  1  0.163447  0.834338  0.577493  1
  Al  Al13  1  0.329525  0.166056  0.078229  1
  Al  Al14  1  0.835545  0.164147  0.420953  1
  Al  Al15  1  0.671595  0.835020  0.921657  1
  Al  Al16  1  0.835545  0.164147  0.079047  1
  Al  Al17  1  0.163447  0.834338  0.922507  1
  Al  Al18  1  0.125991  0.565410  0.750000  1
  Al  Al19  1  0.564791  0.435095  0.250000  1
  Al  Al20  1  0.438650  0.566328  0.750000  1
  Al  Al21  1  0.999344  0.999516  0.250000  1
  Al  Al22  1  0.000003  0.000528  0.750000  1
  Si  Si23  1  0.333432  0.664704  0.038554  1
  Si  Si24  1  0.666528  0.335591  0.960494  1
  Si  Si25  1  0.666528  0.335591  0.539506  1
  Si  Si26  1  0.333432  0.664704  0.461446  1
  Si  Si27  1  0.564658  0.124587  0.250000  1
  Si  Si28  1  0.436801  0.873305  0.750000  1
  Si  Si29  1  0.874591  0.435006  0.250000  1
  Os  Os30  1  0.500904  0.001037  0.001031  1
  Os  Os31  1  0.998479  0.499380  0.006622  1
  Os  Os32  1  0.500904  0.001037  0.498969  1
  Os  Os33  1  0.500661  0.500132  0.000394  1
  Os  Os34  1  0.998479  0.499380  0.493378  1
  Os  Os35  1  0.500661  0.500132  0.499606  1
  Os  Os36  1  0.000442  0.000275  0.000159  1
  Os  Os37  1  0.000442  0.000275  0.499841  1
