# generated using pymatgen
data_Ca3TaAs3O
_symmetry_space_group_name_H-M   'P 1'
_cell_length_a   6.14401600
_cell_length_b   10.35014100
_cell_length_c   12.51676400
_cell_angle_alpha   90.00000000
_cell_angle_beta   90.00000000
_cell_angle_gamma   90.00000000
_symmetry_Int_Tables_number   1
_chemical_formula_structural   Ca3TaAs3O
_chemical_formula_sum   'Ca12 Ta4 As12 O4'
_cell_volume   795.95894559
_cell_formula_units_Z   4
loop_
 _symmetry_equiv_pos_site_id
 _symmetry_equiv_pos_as_xyz
  1  'x, y, z'
loop_
 _atom_site_type_symbol
 _atom_site_label
 _atom_site_symmetry_multiplicity
 _atom_site_fract_x
 _atom_site_fract_y
 _atom_site_fract_z
 _atom_site_occupancy
  Ca  Ca0  1  0.244663  0.042520  0.626326  1
  Ca  Ca1  1  0.744663  0.457480  0.873674  1
  Ca  Ca2  1  0.755337  0.542520  0.373674  1
  Ca  Ca3  1  0.255337  0.957480  0.126326  1
  Ca  Ca4  1  0.244663  0.457480  0.626326  1
  Ca  Ca5  1  0.755337  0.957480  0.373674  1
  Ca  Ca6  1  0.767073  0.250000  0.125763  1
  Ca  Ca7  1  0.267073  0.250000  0.374237  1
  Ca  Ca8  1  0.232927  0.750000  0.874237  1
  Ca  Ca9  1  0.732927  0.750000  0.625763  1
  Ca  Ca10  1  0.255337  0.542520  0.126326  1
  Ca  Ca11  1  0.744663  0.042520  0.873674  1
  Ta  Ta12  1  0.342540  0.250000  0.950882  1
  Ta  Ta13  1  0.842540  0.250000  0.549118  1
  Ta  Ta14  1  0.657460  0.750000  0.049118  1
  Ta  Ta15  1  0.157460  0.750000  0.450882  1
  As  As16  1  0.239706  0.750000  0.641978  1
  As  As17  1  0.739706  0.750000  0.858022  1
  As  As18  1  0.760294  0.250000  0.358022  1
  As  As19  1  0.260294  0.250000  0.141978  1
  As  As20  1  0.233516  0.459089  0.872796  1
  As  As21  1  0.733516  0.040911  0.627204  1
  As  As22  1  0.233516  0.040911  0.872796  1
  As  As23  1  0.733516  0.459089  0.627204  1
  As  As24  1  0.766484  0.540911  0.127204  1
  As  As25  1  0.266484  0.540911  0.372796  1
  As  As26  1  0.266484  0.959089  0.372796  1
  As  As27  1  0.766484  0.959089  0.127204  1
  O  O28  1  0.652040  0.250000  0.943956  1
  O  O29  1  0.152040  0.250000  0.556044  1
  O  O30  1  0.347960  0.750000  0.056044  1
  O  O31  1  0.847960  0.750000  0.443956  1
