# generated using pymatgen
data_Dy2Al9Tc4Ru
_symmetry_space_group_name_H-M   'P 1'
_cell_length_a   7.90209057
_cell_length_b   7.90209114
_cell_length_c   7.90209105
_cell_angle_alpha   132.85551691
_cell_angle_beta   132.85551517
_cell_angle_gamma   68.88114058
_symmetry_Int_Tables_number   1
_chemical_formula_structural   Dy2Al9Tc4Ru
_chemical_formula_sum   'Dy2 Al9 Tc4 Ru1'
_cell_volume   260.31714674
_cell_formula_units_Z   1
loop_
 _symmetry_equiv_pos_site_id
 _symmetry_equiv_pos_as_xyz
  1  'x, y, z'
loop_
 _atom_site_type_symbol
 _atom_site_label
 _atom_site_symmetry_multiplicity
 _atom_site_fract_x
 _atom_site_fract_y
 _atom_site_fract_z
 _atom_site_occupancy
  Dy  Dy0  1  0.000000  0.500000  0.500000  1
  Dy  Dy1  1  0.500000  0.000000  0.500000  1
  Al  Al2  1  0.439993  0.861641  0.000000  1
  Al  Al3  1  0.138359  0.138359  0.578352  1
  Al  Al4  1  0.861641  0.439993  0.000000  1
  Al  Al5  1  0.861641  0.861641  0.421648  1
  Al  Al6  1  0.560007  0.138359  0.000000  1
  Al  Al7  1  0.138359  0.560007  0.000000  1
  Al  Al8  1  0.560007  0.560007  0.421648  1
  Al  Al9  1  0.000000  0.000000  0.000000  1
  Al  Al10  1  0.439993  0.439993  0.578352  1
  Tc  Tc11  1  0.188458  0.188458  0.000000  1
  Tc  Tc12  1  0.811542  0.811542  0.000000  1
  Tc  Tc13  1  0.250000  0.750000  0.500000  1
  Tc  Tc14  1  0.750000  0.250000  0.500000  1
  Ru  Ru15  1  0.500000  0.500000  0.000000  1
