# generated using pymatgen
data_K2Ir7O18
_symmetry_space_group_name_H-M   'P 1'
_cell_length_a   6.81699081
_cell_length_b   7.14139878
_cell_length_c   7.75148419
_cell_angle_alpha   92.53453423
_cell_angle_beta   95.61213059
_cell_angle_gamma   114.78966187
_symmetry_Int_Tables_number   1
_chemical_formula_structural   K2Ir7O18
_chemical_formula_sum   'K2 Ir7 O18'
_cell_volume   339.42904225
_cell_formula_units_Z   1
loop_
 _symmetry_equiv_pos_site_id
 _symmetry_equiv_pos_as_xyz
  1  'x, y, z'
loop_
 _atom_site_type_symbol
 _atom_site_label
 _atom_site_symmetry_multiplicity
 _atom_site_fract_x
 _atom_site_fract_y
 _atom_site_fract_z
 _atom_site_occupancy
  K  K0  1  0.311945  0.684015  0.615899  1
  K  K1  1  0.688055  0.315985  0.384101  1
  Ir  Ir2  1  0.396796  0.282611  0.883176  1
  Ir  Ir3  1  0.805993  0.127091  0.815724  1
  Ir  Ir4  1  0.194007  0.872909  0.184276  1
  Ir  Ir5  1  0.603204  0.717389  0.116824  1
  Ir  Ir6  1  0.000000  0.000000  0.500000  1
  Ir  Ir7  1  0.828659  0.623154  0.801933  1
  Ir  Ir8  1  0.171341  0.376846  0.198067  1
  O  O9  1  0.924129  0.728453  0.582191  1
  O  O10  1  0.272236  0.163510  0.107205  1
  O  O11  1  0.317002  0.506600  0.986406  1
  O  O12  1  0.469189  0.547272  0.301500  1
  O  O13  1  0.493185  0.918792  0.164842  1
  O  O14  1  0.908387  0.401791  0.730780  1
  O  O15  1  0.727764  0.836490  0.892795  1
  O  O16  1  0.905011  0.233096  0.052236  1
  O  O17  1  0.682998  0.493400  0.013594  1
  O  O18  1  0.075871  0.271547  0.417809  1
  O  O19  1  0.100306  0.130073  0.747378  1
  O  O20  1  0.731878  0.002152  0.578459  1
  O  O21  1  0.091613  0.598209  0.269220  1
  O  O22  1  0.899694  0.869927  0.252622  1
  O  O23  1  0.094989  0.766904  0.947764  1
  O  O24  1  0.506815  0.081208  0.835158  1
  O  O25  1  0.268122  0.997848  0.421541  1
  O  O26  1  0.530811  0.452728  0.698500  1
