# generated using pymatgen
data_CaEu3(PbAu2)2
_symmetry_space_group_name_H-M   'P 1'
_cell_length_a   8.33906304
_cell_length_b   8.33898303
_cell_length_c   3.88013400
_cell_angle_alpha   90.00000000
_cell_angle_beta   90.00000000
_cell_angle_gamma   90.36813823
_symmetry_Int_Tables_number   1
_chemical_formula_structural   CaEu3(PbAu2)2
_chemical_formula_sum   'Ca1 Eu3 Pb2 Au4'
_cell_volume   269.81625265
_cell_formula_units_Z   1
loop_
 _symmetry_equiv_pos_site_id
 _symmetry_equiv_pos_as_xyz
  1  'x, y, z'
loop_
 _atom_site_type_symbol
 _atom_site_label
 _atom_site_symmetry_multiplicity
 _atom_site_fract_x
 _atom_site_fract_y
 _atom_site_fract_z
 _atom_site_occupancy
  Ca  Ca0  1  0.326119  0.826110  0.500000  1
  Eu  Eu1  1  0.673235  0.173258  0.500000  1
  Eu  Eu2  1  0.174837  0.326780  0.500000  1
  Eu  Eu3  1  0.826807  0.674861  0.500000  1
  Pb  Pb4  1  0.002281  0.998547  0.000000  1
  Pb  Pb5  1  0.498607  0.502318  0.000000  1
  Au  Au6  1  0.126658  0.626636  0.000000  1
  Au  Au7  1  0.618944  0.874443  0.000000  1
  Au  Au8  1  0.374422  0.118973  0.000000  1
  Au  Au9  1  0.878090  0.378075  0.000000  1
