# generated using pymatgen
data_Zr2Nb3B4Ru10W
_symmetry_space_group_name_H-M   'P 1'
_cell_length_a   9.49873122
_cell_length_b   9.48810446
_cell_length_c   3.05490400
_cell_angle_alpha   90.00000000
_cell_angle_beta   90.00000000
_cell_angle_gamma   90.15516264
_symmetry_Int_Tables_number   1
_chemical_formula_structural   Zr2Nb3B4Ru10W
_chemical_formula_sum   'Zr2 Nb3 B4 Ru10 W1'
_cell_volume   275.32207298
_cell_formula_units_Z   1
loop_
 _symmetry_equiv_pos_site_id
 _symmetry_equiv_pos_as_xyz
  1  'x, y, z'
loop_
 _atom_site_type_symbol
 _atom_site_label
 _atom_site_symmetry_multiplicity
 _atom_site_fract_x
 _atom_site_fract_y
 _atom_site_fract_z
 _atom_site_occupancy
  Zr  Zr0  1  0.824020  0.676050  0.000000  1
  Zr  Zr1  1  0.175980  0.323950  0.000000  1
  Nb  Nb2  1  0.323998  0.824822  0.000000  1
  Nb  Nb3  1  0.676002  0.175178  0.000000  1
  Nb  Nb4  1  0.000000  0.000000  0.000000  1
  B  B5  1  0.621471  0.880323  0.000000  1
  B  B6  1  0.378529  0.119677  0.000000  1
  B  B7  1  0.120325  0.622163  0.000000  1
  B  B8  1  0.879675  0.377837  0.000000  1
  Ru  Ru9  1  0.565643  0.717848  0.500000  1
  Ru  Ru10  1  0.434357  0.282152  0.500000  1
  Ru  Ru11  1  0.076833  0.782495  0.500000  1
  Ru  Ru12  1  0.923167  0.217505  0.500000  1
  Ru  Ru13  1  0.285465  0.573359  0.500000  1
  Ru  Ru14  1  0.714535  0.426641  0.500000  1
  Ru  Ru15  1  0.220847  0.068414  0.500000  1
  Ru  Ru16  1  0.779153  0.931586  0.500000  1
  Ru  Ru17  1  0.500000  0.000000  0.500000  1
  Ru  Ru18  1  0.000000  0.500000  0.500000  1
  W  W19  1  0.500000  0.500000  0.000000  1
