# generated using pymatgen
data_Lu3Ga3Pd2Au
_symmetry_space_group_name_H-M   'P 1'
_cell_length_a   7.50579900
_cell_length_b   7.50579909
_cell_length_c   7.32655300
_cell_angle_alpha   90.00000000
_cell_angle_beta   90.00000000
_cell_angle_gamma   119.99999520
_symmetry_Int_Tables_number   1
_chemical_formula_structural   Lu3Ga3Pd2Au
_chemical_formula_sum   'Lu6 Ga6 Pd4 Au2'
_cell_volume   357.45733539
_cell_formula_units_Z   2
loop_
 _symmetry_equiv_pos_site_id
 _symmetry_equiv_pos_as_xyz
  1  'x, y, z'
loop_
 _atom_site_type_symbol
 _atom_site_label
 _atom_site_symmetry_multiplicity
 _atom_site_fract_x
 _atom_site_fract_y
 _atom_site_fract_z
 _atom_site_occupancy
  Lu  Lu0  1  0.733044  0.071905  0.000000  1
  Lu  Lu1  1  0.338860  0.266956  0.000000  1
  Lu  Lu2  1  0.928095  0.661140  0.000000  1
  Lu  Lu3  1  0.343765  0.269253  0.500000  1
  Lu  Lu4  1  0.730747  0.074512  0.500000  1
  Lu  Lu5  1  0.925488  0.656235  0.500000  1
  Ga  Ga6  1  0.592336  0.661378  0.750148  1
  Ga  Ga7  1  0.069043  0.407664  0.750148  1
  Ga  Ga8  1  0.338622  0.930957  0.750148  1
  Ga  Ga9  1  0.592336  0.661378  0.249852  1
  Ga  Ga10  1  0.069043  0.407664  0.249852  1
  Ga  Ga11  1  0.338622  0.930957  0.249852  1
  Pd  Pd12  1  0.333333  0.666667  0.000000  1
  Pd  Pd13  1  0.333333  0.666667  0.500000  1
  Pd  Pd14  1  0.666667  0.333333  0.753831  1
  Pd  Pd15  1  0.666667  0.333333  0.246169  1
  Au  Au16  1  0.000000  0.000000  0.253746  1
  Au  Au17  1  0.000000  0.000000  0.746254  1
